data_PCOD8207816
_publ_section_title
;
Structure prediction by ZEFSAII (Michael W. Deem and Ramdas Pophale) SiO2 
 PCOD8207816
Probable space group: P M M A
;
_chemical_formula_sum "Si O2"
_cell_formula_units_Z 48
_cell_length_a 9.213226
_cell_length_b 14.632331
_cell_length_c 20.824370
_cell_angle_alpha 90.000000
_cell_angle_beta 90.000000
_cell_angle_gamma 90.000000
_cell_volume 2807.353570
_symmetry_space_group_name_H-M "P M M A"
_symmetry_group_IT_number 51
_symmetry_cell_setting 'orthorhombic'
loop_
_space_group_symop_operation_xyz
x,y,z
1/2-x,-y,z
1/2+x,-y,-z
-x,y,-z
-x,-y,-z
1/2+x,y,-z
1/2-x,y,z
x,-y,z
loop_
_atom_site_type_symbol
_atom_site_label
_atom_site_fract_x
_atom_site_fract_y
_atom_site_fract_z
Si Si1 0.077041 0.289734 0.811802
Si Si2 0.419703 0.605616 0.936139
Si Si3 0.922571 0.397096 0.312150
Si Si4 0.922558 0.900545 0.234173
Si Si5 0.422166 0.714374 0.563787
Si Si6 0.577912 0.900314 0.378605
O O1 0.250000 0.295283 0.811183
O O2 0.017732 0.335739 0.876752
O O3 0.015677 0.343765 0.749899
O O4 0.021912 0.184127 0.809233
O O5 0.250000 0.622134 0.946261
O O6 0.453945 0.500000 0.921481
O O7 0.500000 0.639427 0.000000
O O8 0.750000 0.397152 0.309555
O O9 0.984092 0.500000 0.311438
O O10 0.974795 0.347877 0.377080
O O11 0.750000 0.898611 0.236127
O O12 0.982409 0.887144 0.306416
O O13 0.975143 0.000000 0.207175
O O14 0.500000 0.677585 0.500000
O O15 0.250000 0.708980 0.554462
O O16 0.477935 0.818256 0.576548
O O17 0.750000 0.895207 0.375250
O O18 0.527642 0.000000 0.405448
#
# Coordination Sequence:
#
# PCOD8207816 Si02
#       6
#     8   8   8   8   8   8
#     4   9  14  23  41  64  86 108 139 178 212 242
#     4   9  17  28  43  65  92 118 142 170 206 248
#     4   9  16  26  41  61  82 105 139 180 215 245
#     4   8  12  19  35  60  86 107 131 171 217 250
#     4  10  19  30  43  60  83 111 140 172 212 255
#     4   8  13  23  39  59  83 107 132 168 214 255
#
# _framework density 17.097954000000001
#
# number of rings (size 3 to 8) (size 9 to 14) (size 15 to 20)
#    0.000    3.167    1.667    1.500    0.000    2.667 
#    0.000    0.000    0.000    1.500    0.000    0.000 
#    0.000    0.000    0.000    0.000    0.000    0.000 
#
# Total GULP energy -594796.306616 kJ/mol
# GULP energy per Si atom -12391.589721 kJ/mol
# Density = 1.705904 g / cm^3
# Si number density = 17.097954 Si / 1000 Ang^3
#
#
#
# Elastic Constant Matrix: (Units=GPa)
#
#
# Indices 1 2 3 4 5 6 
#
# 1 10.0633 14.5915 20.6371 0.0000 0.0000 0.0000
# 2 14.5915 142.4273 80.8117 0.0000 0.0000 0.0000
# 3 20.6371 80.8117 144.2501 0.0000 0.0000 0.0000
# 4 0.0000 0.0000 0.0000 29.8911 0.0000 0.0000
# 5 0.0000 0.0000 0.0000 0.0000 19.6427 0.0000
# 6 0.0000 0.0000 0.0000 0.0000 0.0000 6.9672
#
#
#
# Elastic Compliance Matrix: (Units=1/GPa)
#
#
# Indices 1 2 3 4 5 6 
#
# 1 0.142524 -0.004445 -0.017900 0.000000 0.000000 0.000000
# 2 -0.004445 0.010431 -0.005208 0.000000 0.000000 0.000000
# 3 -0.017900 -0.005208 0.012411 0.000000 0.000000 0.000000
# 4 0.000000 0.000000 0.000000 0.033455 0.000000 0.000000
# 5 0.000000 0.000000 0.000000 0.000000 0.050910 0.000000
# 6 0.000000 0.000000 0.000000 0.000000 0.000000 0.143531
#
#
# Mechanical properties :
#
#
# Convention : Reuss Voigt Hill
#
# Bulk Modulus (GPa) = 9.06948 58.75792 33.91370
# Shear Modulus (GPa) = 10.30673 23.34689 16.82681
#
# Velocity S-wave (km/s) = 2.45787 3.69925 3.14051
# Velocity P-wave (km/s) = 3.65661 7.25851 5.74703
#
# Compressibility (1/GPa) = 0.11025992
#
# Stress axis : x y z
#
# Youngs Moduli (GPa) = 7.01638 95.86368 80.57493
#
# Poissons Ratio (x) = 0.42614 1.44227
# Poissons Ratio (y) = 0.03119 0.41963
# Poissons Ratio (z) = 0.12559 0.49925
#
# Static dielectric constant tensor:
#      x y z
#    x 2.478350 0.000000 0.000000 
#    y 0.000000 3.658130 0.000000 
#    z 0.000000 0.000000 3.187830 
# 
# 
# High freq. dielectric constant tensor:
#      x y z
#    x 1.582240 0.000000 0.000000 
#    y 0.000000 1.674130 0.000000 
#    z 0.000000 0.000000 1.648860 
# 
# From -- ./inp_files/23258.got.cif
#   From: 2010.03.12/outbox.cif.g09.slc.cpg/sg51_12_cif.got.tgz:23258.got - 2010.04.16 13:43:02.
