data_PCOD8207693
_publ_section_title
;
Structure prediction by ZEFSAII (Michael W. Deem and Ramdas Pophale) SiO2 
 PCOD8207693
Probable space group: P M M A
;
_chemical_formula_sum "Si O2"
_cell_formula_units_Z 48
_cell_length_a 33.556750
_cell_length_b 7.743719
_cell_length_c 10.575783
_cell_angle_alpha 90.000000
_cell_angle_beta 90.000000
_cell_angle_gamma 90.000000
_cell_volume 2748.159966
_symmetry_space_group_name_H-M "P M M A"
_symmetry_group_IT_number 51
_symmetry_cell_setting 'orthorhombic'
loop_
_space_group_symop_operation_xyz
x,y,z
1/2-x,-y,z
1/2+x,-y,-z
-x,y,-z
-x,-y,-z
1/2+x,y,-z
1/2-x,y,z
x,-y,z
loop_
_atom_site_type_symbol
_atom_site_label
_atom_site_fract_x
_atom_site_fract_y
_atom_site_fract_z
Si Si1 0.181889 0.190752 0.122063
Si Si2 0.122623 0.500000 0.830068
Si Si3 0.941361 0.192571 0.755992
Si Si4 0.097200 0.191345 0.990272
Si Si5 0.464800 0.500000 0.401214
Si Si6 0.207044 0.500000 0.963205
Si Si7 0.379205 0.500000 0.532277
Si Si8 0.356365 0.808140 0.375903
O O1 0.138416 0.193648 0.063092
O O2 0.208291 0.333006 0.053435
O O3 0.177703 0.232412 0.271656
O O4 0.200991 0.000000 0.103703
O O5 0.098750 0.332705 0.879877
O O6 0.169403 0.500000 0.869030
O O7 0.119312 0.500000 0.681499
O O8 0.936910 0.235220 0.905778
O O9 0.969645 0.331992 0.688430
O O10 0.898517 0.202928 0.692362
O O11 0.959533 0.000000 0.738627
O O12 0.089512 0.000000 0.931917
O O13 0.500000 0.500000 0.500000
O O14 0.423454 0.500000 0.476381
O O15 0.250000 0.500000 0.890013
O O16 0.354625 0.668625 0.487804
O O17 0.349904 0.000000 0.433399
#
# Coordination Sequence:
#
# PCOD8207693 Si02
#       8
#     8   4   8   8   4   4   4   8
#     4   8  14  26  45  67  87 106 135 179 222 253
#     4  10  19  29  43  64  90 119 149 178 208 252
#     4   8  14  26  45  66  85 108 140 179 224 267
#     4   8  14  26  45  66  84 107 145 188 221 248
#     4  10  19  29  43  65  90 114 143 184 232 275
#     4  10  19  29  43  65  91 116 140 170 211 255
#     4  10  19  29  43  64  90 121 152 178 212 262
#     4   8  14  26  45  67  87 106 135 178 221 257
#
# _framework density 17.466234
#
# number of rings (size 3 to 8) (size 9 to 14) (size 15 to 20)
#    0.000    3.333    0.000    3.000    0.000    5.333 
#    0.000    0.000    0.000    4.000    0.000    2.333 
#    0.000    0.000    0.000    0.000    0.000    0.000 
#
# Total GULP energy -594718.670109 kJ/mol
# GULP energy per Si atom -12389.972294 kJ/mol
# Density = 1.742648 g / cm^3
# Si number density = 17.466234 Si / 1000 Ang^3
#
#
#
# Elastic Constant Matrix: (Units=GPa)
#
#
# Indices 1 2 3 4 5 6 
#
# 1 18.3072 6.2668 -1.4938 0.0000 0.0000 0.0000
# 2 6.2668 130.8370 60.6353 0.0000 0.0000 0.0000
# 3 -1.4938 60.6353 97.4994 0.0000 0.0000 0.0000
# 4 0.0000 0.0000 0.0000 16.6744 0.0000 0.0000
# 5 0.0000 0.0000 0.0000 0.0000 10.3933 0.0000
# 6 0.0000 0.0000 0.0000 0.0000 0.0000 -17.7152
#
#
#
# Elastic Compliance Matrix: (Units=1/GPa)
#
#
# Indices 1 2 3 4 5 6 
#
# 1 0.056407 -0.004358 0.003575 0.000000 0.000000 0.000000
# 2 -0.004358 0.011075 -0.006954 0.000000 0.000000 0.000000
# 3 0.003575 -0.006954 0.014636 0.000000 0.000000 0.000000
# 4 0.000000 0.000000 0.000000 0.059972 0.000000 0.000000
# 5 0.000000 0.000000 0.000000 0.000000 0.096216 0.000000
# 6 0.000000 0.000000 0.000000 0.000000 0.000000 -0.056449
#
#
# Mechanical properties :
#
#
# Convention : Reuss Voigt Hill
#
# Bulk Modulus (GPa) = 15.00555 41.94004 28.47280
# Shear Modulus (GPa) = 22.77420 13.95287 18.36353
#
# Velocity S-wave (km/s) = 3.61487 2.82946 3.24601
# Velocity P-wave (km/s) = 5.10224 5.89395 5.51233
#
# Compressibility (1/GPa) = 0.06664199
#
# Stress axis : x y z
#
# Youngs Moduli (GPa) = 17.72829 90.29580 68.32435
#
# Poissons Ratio (x) = 0.39355 -0.24424
# Poissons Ratio (y) = 0.07727 0.47514
# Poissons Ratio (z) = -0.06337 0.62793
#
# Static dielectric constant tensor:
#      x y z
#    x 2.802150 0.000000 0.000000 
#    y 0.000000 3.914190 0.000000 
#    z 0.000000 0.000000 3.051180 
# 
# 
# High freq. dielectric constant tensor:
#      x y z
#    x 1.622410 0.000000 0.000000 
#    y 0.000000 1.696900 0.000000 
#    z 0.000000 0.000000 1.647680 
# 
# From -- ./inp_files/13019.got.cif
#   From: 2010.03.12/outbox.cif.g09.slc.cpg/sg51_7_cif.got.tgz:13019.got - 2010.04.16 13:43:02.
