data_PCOD8207342
_publ_section_title
;
Structure prediction by ZEFSAII (Michael W. Deem and Ramdas Pophale) SiO2 
 PCOD8207342
Probable space group: P M M A
;
_chemical_formula_sum "Si O2"
_cell_formula_units_Z 36
_cell_length_a 14.084319
_cell_length_b 13.934530
_cell_length_c 9.913098
_cell_angle_alpha 90.000000
_cell_angle_beta 90.000000
_cell_angle_gamma 90.000000
_cell_volume 1945.528412
_symmetry_space_group_name_H-M "P M M A"
_symmetry_group_IT_number 51
_symmetry_cell_setting 'orthorhombic'
loop_
_space_group_symop_operation_xyz
x,y,z
1/2-x,-y,z
1/2+x,-y,-z
-x,y,-z
-x,-y,-z
1/2+x,y,-z
1/2-x,y,z
x,-y,z
loop_
_atom_site_type_symbol
_atom_site_label
_atom_site_fract_x
_atom_site_fract_y
_atom_site_fract_z
Si Si1 0.394107 0.602347 0.042122
Si Si2 0.250000 0.805778 0.709125
Si Si3 0.928077 0.800363 0.876064
Si Si4 0.750000 0.109160 0.997311
Si Si5 0.049801 0.110335 0.643020
Si Si6 0.250000 0.392150 0.810819
O O1 0.356557 0.500000 0.104939
O O2 0.384092 0.692687 0.143943
O O3 0.500000 0.586798 0.000000
O O4 0.341157 0.625348 0.903387
O O5 0.343347 0.848473 0.637447
O O6 0.250000 0.689409 0.694110
O O7 0.250000 0.826425 0.869141
O O8 0.842465 0.872896 0.905823
O O9 0.984217 0.830603 0.744201
O O10 0.000000 0.799532 0.000000
O O11 0.750000 0.000000 0.045748
O O12 0.000000 0.120566 0.500000
O O13 0.055183 0.000000 0.690203
O O14 0.250000 0.500000 0.747212
#
# Coordination Sequence:
#
# PCOD8207342 Si02
#       6
#     8   4   8   4   8   4
#     4   9  16  28  48  78 112 141 175 227 286 336
#     4  12  20  39  62  84 113 151 196 241 291 349
#     4  11  20  35  56  84 114 144 190 244 288 336
#     4  12  22  31  54  88 115 145 185 244 294 332
#     4  11  25  41  58  82 118 162 199 237 289 354
#     4  10  18  32  56  88 118 146 187 237 293 351
#
# _framework density 18.503972000000001
#
# number of rings (size 3 to 8) (size 9 to 14) (size 15 to 20)
#    0.000    1.333    4.444    3.000    0.000    1.778 
#    0.000    1.111    0.000    2.667    0.000    0.000 
#    0.000    0.000    0.000    0.000    0.000    0.000 
#
# Total GULP energy -446191.656656 kJ/mol
# GULP energy per Si atom -12394.212685 kJ/mol
# Density = 1.846186 g / cm^3
# Si number density = 18.503972 Si / 1000 Ang^3
#
#
#
# Elastic Constant Matrix: (Units=GPa)
#
#
# Indices 1 2 3 4 5 6 
#
# 1 109.1852 22.7218 21.2452 0.0000 0.0000 0.0000
# 2 22.7218 161.8826 32.5124 0.0000 0.0000 0.0000
# 3 21.2452 32.5124 54.7591 0.0000 0.0000 0.0000
# 4 0.0000 0.0000 0.0000 -2.1498 0.0000 0.0000
# 5 0.0000 0.0000 0.0000 0.0000 26.3057 0.0000
# 6 0.0000 0.0000 0.0000 0.0000 0.0000 23.8158
#
#
#
# Elastic Compliance Matrix: (Units=1/GPa)
#
#
# Indices 1 2 3 4 5 6 
#
# 1 0.009977 -0.000707 -0.003451 0.000000 0.000000 0.000000
# 2 -0.000707 0.007064 -0.003920 0.000000 0.000000 0.000000
# 3 -0.003451 -0.003920 0.021928 0.000000 0.000000 0.000000
# 4 0.000000 0.000000 0.000000 -0.465163 0.000000 0.000000
# 5 0.000000 0.000000 0.000000 0.000000 0.038015 0.000000
# 6 0.000000 0.000000 0.000000 0.000000 0.000000 0.041989
#
#
# Mechanical properties :
#
#
# Convention : Reuss Voigt Hill
#
# Bulk Modulus (GPa) = 43.83418 53.19839 48.51628
# Shear Modulus (GPa) = -15.50722 26.21752 5.35515
#
# Velocity S-wave (km/s) = -2.89805 3.76820 1.70304
# Velocity P-wave (km/s) = 3.54150 6.90975 5.49030
#
# Compressibility (1/GPa) = 0.02281325
#
# Stress axis : x y z
#
# Youngs Moduli (GPa) = 100.22605 141.56670 45.60394
#
# Poissons Ratio (x) = 0.10013 0.15738
# Poissons Ratio (y) = 0.07089 0.17875
# Poissons Ratio (z) = 0.34588 0.55489
#
# Static dielectric constant tensor:
#      x y z
#    x 3.605560 0.000000 0.000000 
#    y 0.000000 4.239140 0.000000 
#    z 0.000000 0.000000 3.259880 
# 
# 
# High freq. dielectric constant tensor:
#      x y z
#    x 1.742940 0.000000 0.000000 
#    y 0.000000 1.746900 0.000000 
#    z 0.000000 0.000000 1.651300 
# 
# From -- ./inp_files/7861.got.cif
#   From: 2010.03.12/outbox.cif.g09.slc.cpg/sg51_4_cif.got.tgz:7861.got - 2010.04.16 13:43:02.
