data_PCOD8207984
_publ_section_title
;
Structure prediction by ZEFSAII (Michael W. Deem and Ramdas Pophale) SiO2 
 PCOD8207984
Probable space group: P M M A
;
_chemical_formula_sum "Si O2"
_cell_formula_units_Z 48
_cell_length_a 9.137807
_cell_length_b 13.591825
_cell_length_c 23.807952
_cell_angle_alpha 90.000000
_cell_angle_beta 90.000000
_cell_angle_gamma 90.000000
_cell_volume 2956.935107
_symmetry_space_group_name_H-M "P M M A"
_symmetry_group_IT_number 51
_symmetry_cell_setting 'orthorhombic'
loop_
_space_group_symop_operation_xyz
x,y,z
1/2-x,-y,z
1/2+x,-y,-z
-x,y,-z
-x,-y,-z
1/2+x,y,-z
1/2-x,y,z
x,-y,z
loop_
_atom_site_type_symbol
_atom_site_label
_atom_site_fract_x
_atom_site_fract_y
_atom_site_fract_z
Si Si1 0.582015 0.390244 0.771646
Si Si2 0.921751 0.200677 0.837965
Si Si3 0.918063 0.110247 0.263571
Si Si4 0.420679 0.299111 0.670737
Si Si5 0.921093 0.613644 0.444371
Si Si6 0.579324 0.113825 0.057694
O O1 0.750000 0.376793 0.754517
O O2 0.549169 0.500000 0.794376
O O3 0.541574 0.312941 0.820489
O O4 0.491246 0.372264 0.715477
O O5 0.750000 0.182256 0.847229
O O6 0.978216 0.127646 0.789634
O O7 0.007927 0.181262 0.894944
O O8 0.750000 0.125208 0.244003
O O9 0.956958 0.185688 0.313796
O O10 0.944191 0.000000 0.286366
O O11 0.250000 0.321747 0.672547
O O12 0.480098 0.322995 0.608499
O O13 0.750000 0.628568 0.453538
O O14 0.961080 0.500000 0.433317
O O15 0.000000 0.653727 0.500000
O O16 0.750000 0.138692 0.051953
O O17 0.554265 0.000000 0.073525
O O18 0.500000 0.140649 0.000000
#
# Coordination Sequence:
#
# PCOD8207984 Si02
#       6
#     8   8   8   8   8   8
#     4   9  18  31  46  66  92 120 148 179 218 262
#     4  10  19  30  46  68  93 120 148 180 218 259
#     4   9  17  29  45  65  89 117 147 179 217 261
#     4   9  17  29  45  65  88 114 146 183 220 259
#     4   9  17  28  42  61  84 110 141 178 220 264
#     4  10  20  33  49  69  93 120 149 182 220 261
#
# _framework density 16.233024
#
# number of rings (size 3 to 8) (size 9 to 14) (size 15 to 20)
#    0.000    2.667    0.000    2.000    0.000    5.667 
#    0.000    1.667    0.000    1.000    0.000    0.000 
#    0.000    0.000    0.000    0.000    0.000    0.000 
#
# Total GULP energy -595195.651355 kJ/mol
# GULP energy per Si atom -12399.909403 kJ/mol
# Density = 1.619608 g / cm^3
# Si number density = 16.233024 Si / 1000 Ang^3
#
#
#
# Elastic Constant Matrix: (Units=GPa)
#
#
# Indices 1 2 3 4 5 6 
#
# 1 66.7784 37.9633 60.0290 0.0000 0.0000 0.0000
# 2 37.9633 101.5480 65.0115 0.0000 0.0000 0.0000
# 3 60.0290 65.0115 142.4767 0.0000 0.0000 0.0000
# 4 0.0000 0.0000 0.0000 23.0652 0.0000 0.0000
# 5 0.0000 0.0000 0.0000 0.0000 30.5813 0.0000
# 6 0.0000 0.0000 0.0000 0.0000 0.0000 20.4691
#
#
#
# Elastic Compliance Matrix: (Units=1/GPa)
#
#
# Indices 1 2 3 4 5 6 
#
# 1 0.025043 -0.003683 -0.008870 0.000000 0.000000 0.000000
# 2 -0.003683 0.014453 -0.005043 0.000000 0.000000 0.000000
# 3 -0.008870 -0.005043 0.013057 0.000000 0.000000 0.000000
# 4 0.000000 0.000000 0.000000 0.043355 0.000000 0.000000
# 5 0.000000 0.000000 0.000000 0.000000 0.032700 0.000000
# 6 0.000000 0.000000 0.000000 0.000000 0.000000 0.048854
#
#
# Mechanical properties :
#
#
# Convention : Reuss Voigt Hill
#
# Bulk Modulus (GPa) = 57.60537 70.75675 64.18106
# Shear Modulus (GPa) = 22.88934 24.67640 23.78287
#
# Velocity S-wave (km/s) = 3.75913 3.90312 3.83180
# Velocity P-wave (km/s) = 7.37598 7.99970 7.69416
#
# Compressibility (1/GPa) = 0.01735949
#
# Stress axis : x y z
#
# Youngs Moduli (GPa) = 39.93176 69.18928 76.58616
#
# Poissons Ratio (x) = 0.25484 0.67936
# Poissons Ratio (y) = 0.14708 0.38623
# Poissons Ratio (z) = 0.35421 0.34893
#
# Static dielectric constant tensor:
#      x y z
#    x 3.125170 0.000000 0.000000 
#    y 0.000000 3.133850 0.000000 
#    z 0.000000 0.000000 3.050400 
# 
# 
# High freq. dielectric constant tensor:
#      x y z
#    x 1.630080 0.000000 0.000000 
#    y 0.000000 1.614410 0.000000 
#    z 0.000000 0.000000 1.613030 
# 
# From -- ./inp_files/31584.got.cif
#   From: 2010.03.12/outbox.cif.g09.slc.cpg/sg51_16_cif.got.tgz:31584.got - 2010.04.16 13:43:02.
