data_PCOD8207353
_publ_section_title
;
Structure prediction by ZEFSAII (Michael W. Deem and Ramdas Pophale) SiO2 
 PCOD8207353
Probable space group: P M M A
;
_chemical_formula_sum "Si O2"
_cell_formula_units_Z 64
_cell_length_a 30.286284
_cell_length_b 8.967761
_cell_length_c 12.152515
_cell_angle_alpha 90.000000
_cell_angle_beta 90.000000
_cell_angle_gamma 90.000000
_cell_volume 3300.624976
_symmetry_space_group_name_H-M "P M M A"
_symmetry_group_IT_number 51
_symmetry_cell_setting 'orthorhombic'
loop_
_space_group_symop_operation_xyz
x,y,z
1/2-x,-y,z
1/2+x,-y,-z
-x,y,-z
-x,-y,-z
1/2+x,y,-z
1/2-x,y,z
x,-y,z
loop_
_atom_site_type_symbol
_atom_site_label
_atom_site_fract_x
_atom_site_fract_y
_atom_site_fract_z
Si Si1 0.301697 0.663785 0.038879
Si Si2 0.353110 0.169890 0.872175
Si Si3 0.802251 0.164416 0.752685
Si Si4 0.939677 0.829069 0.000828
Si Si5 0.472001 0.323141 0.601787
Si Si6 0.699306 0.176623 0.507416
Si Si7 0.993623 0.677166 0.836103
Si Si8 0.126600 0.322791 0.645330
O O1 0.250000 0.651339 0.054289
O O2 0.322788 0.500000 0.022893
O O3 0.322203 0.732650 0.151088
O O4 0.309846 0.762119 0.929560
O O5 0.368198 0.264715 0.768601
O O6 0.344471 0.000000 0.835064
O O7 0.388602 0.181817 0.970018
O O8 0.750000 0.151420 0.763839
O O9 0.813450 0.227642 0.631287
O O10 0.823112 0.000000 0.767271
O O11 0.948868 0.756748 0.880384
O O12 0.955880 0.000000 0.003306
O O13 0.966080 0.732662 0.089812
O O14 0.500000 0.255663 0.500000
O O15 0.471519 0.500000 0.595785
O O16 0.496854 0.270165 0.711966
O O17 0.421036 0.266965 0.599632
O O18 0.750000 0.221495 0.479743
O O19 0.666489 0.260567 0.426573
O O20 0.693563 0.000000 0.494530
O O21 0.989145 0.500000 0.844904
O O22 0.129158 0.500000 0.646881
#
# Coordination Sequence:
#
# PCOD8207353 Si02
#       8
#     8   8   8   8   8   8   8   8
#     4  10  21  36  56  84 115 145 184 235 284 333
#     4  11  23  38  57  78 110 153 190 230 285 346
#     4   8  15  32  57  79 105 145 186 223 271 333
#     4  10  20  34  54  80 110 138 176 229 275 321
#     4   9  19  37  58  81 113 150 186 226 280 342
#     4   9  19  37  60  85 116 155 195 233 279 341
#     4  10  18  32  58  83 106 141 181 219 269 332
#     4  11  22  37  59  84 114 148 192 246 288 333
#
# _framework density 19.390266
#
# number of rings (size 3 to 8) (size 9 to 14) (size 15 to 20)
#    0.000    2.250    1.250    3.375    0.000    3.500 
#    2.250    1.250    0.000    5.250    0.000    0.000 
#    0.000    0.000    0.000    0.000    0.000    0.000 
#
# Total GULP energy -793307.497691 kJ/mol
# GULP energy per Si atom -12395.429651 kJ/mol
# Density = 1.934613 g / cm^3
# Si number density = 19.390266 Si / 1000 Ang^3
#
#
#
# Elastic Constant Matrix: (Units=GPa)
#
#
# Indices 1 2 3 4 5 6 
#
# 1 68.3844 37.9715 63.9288 0.0000 0.0000 0.0000
# 2 37.9715 76.0132 45.8595 0.0000 0.0000 0.0000
# 3 63.9288 45.8595 135.9336 0.0000 0.0000 0.0000
# 4 0.0000 0.0000 0.0000 28.4104 0.0000 0.0000
# 5 0.0000 0.0000 0.0000 0.0000 32.4611 0.0000
# 6 0.0000 0.0000 0.0000 0.0000 0.0000 21.5988
#
#
#
# Elastic Compliance Matrix: (Units=1/GPa)
#
#
# Indices 1 2 3 4 5 6 
#
# 1 0.029521 -0.007999 -0.011185 0.000000 0.000000 0.000000
# 2 -0.007999 0.018685 -0.002542 0.000000 0.000000 0.000000
# 3 -0.011185 -0.002542 0.013474 0.000000 0.000000 0.000000
# 4 0.000000 0.000000 0.000000 0.035198 0.000000 0.000000
# 5 0.000000 0.000000 0.000000 0.000000 0.030806 0.000000
# 6 0.000000 0.000000 0.000000 0.000000 0.000000 0.046299
#
#
# Mechanical properties :
#
#
# Convention : Reuss Voigt Hill
#
# Bulk Modulus (GPa) = 54.85836 63.98345 59.42090
# Shear Modulus (GPa) = 22.37025 25.33214 23.85120
#
# Velocity S-wave (km/s) = 3.40028 3.61839 3.51103
# Velocity P-wave (km/s) = 6.61581 7.10819 6.86641
#
# Compressibility (1/GPa) = 0.01822876
#
# Stress axis : x y z
#
# Youngs Moduli (GPa) = 33.87423 53.51920 74.21531
#
# Poissons Ratio (x) = 0.42809 0.83010
# Poissons Ratio (y) = 0.27095 0.18864
# Poissons Ratio (z) = 0.37888 0.13604
#
# Static dielectric constant tensor:
#      x y z
#    x 3.482000 0.000000 0.000000 
#    y 0.000000 3.677090 0.000000 
#    z 0.000000 0.000000 3.763180 
# 
# 
# High freq. dielectric constant tensor:
#      x y z
#    x 1.739050 0.000000 0.000000 
#    y 0.000000 1.750590 0.000000 
#    z 0.000000 0.000000 1.758840 
# 
# From -- ./inp_files/19630.got.cif
#   From: 2010.03.12/outbox.cif.g09.slc.cpg/sg51_10_cif.got.tgz:19630.got - 2010.04.16 13:43:02.
