data_PCOD8207243
_publ_section_title
;
Structure prediction by ZEFSAII (Michael W. Deem and Ramdas Pophale) SiO2 
 PCOD8207243
Probable space group: P M M A
;
_chemical_formula_sum "Si O2"
_cell_formula_units_Z 40
_cell_length_a 8.798735
_cell_length_b 12.791394
_cell_length_c 19.551515
_cell_angle_alpha 90.000000
_cell_angle_beta 90.000000
_cell_angle_gamma 90.000000
_cell_volume 2200.485593
_symmetry_space_group_name_H-M "P M M A"
_symmetry_group_IT_number 51
_symmetry_cell_setting 'orthorhombic'
loop_
_space_group_symop_operation_xyz
x,y,z
1/2-x,-y,z
1/2+x,-y,-z
-x,y,-z
-x,-y,-z
1/2+x,y,-z
1/2-x,y,z
x,-y,z
loop_
_atom_site_type_symbol
_atom_site_label
_atom_site_fract_x
_atom_site_fract_y
_atom_site_fract_z
Si Si1 0.568403 0.500000 0.575569
Si Si2 0.925474 0.879336 0.666409
Si Si3 0.570535 0.290369 0.425650
Si Si4 0.927648 0.500000 0.072913
Si Si5 0.576210 0.879661 0.823568
Si Si6 0.072276 0.274952 0.926115
O O1 0.750000 0.500000 0.576104
O O2 0.500000 0.500000 0.500000
O O3 0.504210 0.393736 0.610108
O O4 0.750000 0.850970 0.651907
O O5 0.966813 0.857817 0.745109
O O6 0.035571 0.809439 0.620694
O O7 0.955854 0.000000 0.647930
O O8 0.500000 0.270568 0.500000
O O9 0.750000 0.306330 0.432604
O O10 0.750000 0.500000 0.063075
O O11 0.976546 0.388925 0.106854
O O12 0.000000 0.500000 0.000000
O O13 0.750000 0.848940 0.837014
O O14 0.471138 0.812353 0.872179
O O15 0.547692 0.000000 0.841621
O O16 0.250000 0.269719 0.938226
O O17 0.000000 0.253774 0.000000
#
# Coordination Sequence:
#
# PCOD8207243 Si02
#       6
#     4   8   8   4   8   8
#     4  10  18  32  53  76 105 138 172 210 256 306
#     4   9  19  37  57  75 100 136 175 215 260 308
#     4  11  21  34  54  80 108 137 172 213 257 306
#     4   8  16  30  47  70  99 130 162 200 248 294
#     4   9  19  36  55  74 100 134 170 209 254 303
#     4  10  19  32  52  76 102 132 168 210 253 301
#
# _framework density 18.177807000000001
#
# number of rings (size 3 to 8) (size 9 to 14) (size 15 to 20)
#    0.000    2.400    0.000    5.700    0.000    3.200 
#    0.000    3.000    0.000    4.800    0.000    0.000 
#    0.000    0.000    0.000    0.000    0.000    0.000 
#
# Total GULP energy -495711.716689 kJ/mol
# GULP energy per Si atom -12392.792917 kJ/mol
# Density = 1.813643 g / cm^3
# Si number density = 18.177807 Si / 1000 Ang^3
#
#
#
# Elastic Constant Matrix: (Units=GPa)
#
#
# Indices 1 2 3 4 5 6 
#
# 1 98.4942 51.8423 36.7833 0.0000 0.0000 0.0000
# 2 51.8423 115.1370 56.1634 0.0000 0.0000 0.0000
# 3 36.7833 56.1634 63.7881 0.0000 0.0000 0.0000
# 4 0.0000 0.0000 0.0000 -26.8477 0.0000 0.0000
# 5 0.0000 0.0000 0.0000 0.0000 29.0551 0.0000
# 6 0.0000 0.0000 0.0000 0.0000 0.0000 32.2982
#
#
#
# Elastic Compliance Matrix: (Units=1/GPa)
#
#
# Indices 1 2 3 4 5 6 
#
# 1 0.013982 -0.004141 -0.004416 0.000000 0.000000 0.000000
# 2 -0.004141 0.016450 -0.012096 0.000000 0.000000 0.000000
# 3 -0.004416 -0.012096 0.028874 0.000000 0.000000 0.000000
# 4 0.000000 0.000000 0.000000 -0.037247 0.000000 0.000000
# 5 0.000000 0.000000 0.000000 0.000000 0.034417 0.000000
# 6 0.000000 0.000000 0.000000 0.000000 0.000000 0.030961
#
#
# Mechanical properties :
#
#
# Convention : Reuss Voigt Hill
#
# Bulk Modulus (GPa) = 55.55940 62.99970 59.27955
# Shear Modulus (GPa) = 37.10725 15.74314 26.42519
#
# Velocity S-wave (km/s) = 4.52303 2.94609 3.81689
# Velocity P-wave (km/s) = 7.60972 6.80480 7.21849
#
# Compressibility (1/GPa) = 0.01799875
#
# Stress axis : x y z
#
# Youngs Moduli (GPa) = 71.52065 60.78899 34.63362
#
# Poissons Ratio (x) = 0.25175 0.15296
# Poissons Ratio (y) = 0.29619 0.41893
# Poissons Ratio (z) = 0.31586 0.73530
#
# Static dielectric constant tensor:
#      x y z
#    x 3.325360 0.000000 0.000000 
#    y 0.000000 4.068730 0.000000 
#    z 0.000000 0.000000 3.022690 
# 
# 
# High freq. dielectric constant tensor:
#      x y z
#    x 1.710090 0.000000 0.000000 
#    y 0.000000 1.725120 0.000000 
#    z 0.000000 0.000000 1.671480 
# 
# From -- ./inp_files/31391.got.cif
#   From: 2010.03.12/outbox.cif.g09.slc.cpg/sg51_16_cif.got.tgz:31391.got - 2010.04.16 13:43:02.
