data_PCOD8207596
_publ_section_title
;
Structure prediction by ZEFSAII (Michael W. Deem and Ramdas Pophale) SiO2 
 PCOD8207596
Probable space group: P M M A
;
_chemical_formula_sum "Si O2"
_cell_formula_units_Z 56
_cell_length_a 9.201861
_cell_length_b 18.620328
_cell_length_c 18.642103
_cell_angle_alpha 90.000000
_cell_angle_beta 90.000000
_cell_angle_gamma 90.000000
_cell_volume 3194.169061
_symmetry_space_group_name_H-M "P M M A"
_symmetry_group_IT_number 51
_symmetry_cell_setting 'orthorhombic'
loop_
_space_group_symop_operation_xyz
x,y,z
1/2-x,-y,z
1/2+x,-y,-z
-x,y,-z
-x,-y,-z
1/2+x,y,-z
1/2-x,y,z
x,-y,z
loop_
_atom_site_type_symbol
_atom_site_label
_atom_site_fract_x
_atom_site_fract_y
_atom_site_fract_z
Si Si1 0.082920 0.580279 0.344431
Si Si2 0.080766 0.282538 0.428150
Si Si3 0.417485 0.195270 0.289074
Si Si4 0.421810 0.148739 0.073653
Si Si5 0.085015 0.709158 0.153062
Si Si6 0.581369 0.419613 0.196543
Si Si7 0.417088 0.917138 0.795220
O O1 0.250000 0.595660 0.322682
O O2 0.063711 0.500000 0.376278
O O3 0.031674 0.637481 0.403922
O O4 0.988517 0.590162 0.274012
O O5 0.250000 0.281194 0.444728
O O6 0.040084 0.225169 0.366880
O O7 0.000000 0.259595 0.500000
O O8 0.250000 0.170118 0.285329
O O9 0.444021 0.258279 0.231676
O O10 0.520056 0.127799 0.271743
O O11 0.250000 0.134106 0.068289
O O12 0.454445 0.231630 0.093278
O O13 0.488058 0.097382 0.134108
O O14 0.500000 0.129073 0.000000
O O15 0.250000 0.684067 0.144636
O O16 0.986079 0.638617 0.141851
O O17 0.750000 0.403790 0.204491
O O18 0.552061 0.500000 0.166778
O O19 0.250000 0.894981 0.809500
O O20 0.429888 0.000000 0.774141
#
# Coordination Sequence:
#
# PCOD8207596 Si02
#       7
#     8   8   8   8   8   8   8
#     4   9  17  31  48  64  92 134 172 209 256 308
#     4  10  20  33  48  71 100 133 173 214 259 309
#     4   9  18  34  53  74 101 131 170 213 252 302
#     4  10  21  36  55  80 110 141 172 203 242 294
#     4   9  17  32  52  72  96 131 171 209 251 302
#     4  10  19  28  43  71 100 126 165 217 263 300
#     4  10  21  36  56  83 110 136 167 202 244 295
#
# _framework density 17.531946999999999
#
# number of rings (size 3 to 8) (size 9 to 14) (size 15 to 20)
#    0.000    2.429    1.429    2.143    0.000    6.571 
#    0.000    0.000    0.000    0.857    0.000    0.000 
#    0.000    0.000    0.000    0.000    0.000    0.000 
#
# Total GULP energy -694397.754937 kJ/mol
# GULP energy per Si atom -12399.959910 kJ/mol
# Density = 1.749204 g / cm^3
# Si number density = 17.531947 Si / 1000 Ang^3
#
#
#
# Elastic Constant Matrix: (Units=GPa)
#
#
# Indices 1 2 3 4 5 6 
#
# 1 90.6960 57.1594 31.9882 0.0000 0.0000 0.0000
# 2 57.1594 99.6046 35.4710 0.0000 0.0000 0.0000
# 3 31.9882 35.4710 65.1003 0.0000 0.0000 0.0000
# 4 0.0000 0.0000 0.0000 16.5092 0.0000 0.0000
# 5 0.0000 0.0000 0.0000 0.0000 28.4355 0.0000
# 6 0.0000 0.0000 0.0000 0.0000 0.0000 30.1352
#
#
#
# Elastic Compliance Matrix: (Units=1/GPa)
#
#
# Indices 1 2 3 4 5 6 
#
# 1 0.018078 -0.008947 -0.004008 0.000000 0.000000 0.000000
# 2 -0.008947 0.016885 -0.004804 0.000000 0.000000 0.000000
# 3 -0.004008 -0.004804 0.019948 0.000000 0.000000 0.000000
# 4 0.000000 0.000000 0.000000 0.060572 0.000000 0.000000
# 5 0.000000 0.000000 0.000000 0.000000 0.035167 0.000000
# 6 0.000000 0.000000 0.000000 0.000000 0.000000 0.033184
#
#
# Mechanical properties :
#
#
# Convention : Reuss Voigt Hill
#
# Bulk Modulus (GPa) = 51.56484 56.07092 53.81788
# Shear Modulus (GPa) = 22.14191 23.73479 22.93835
#
# Velocity S-wave (km/s) = 3.55765 3.68340 3.62107
# Velocity P-wave (km/s) = 6.80820 7.08106 6.94597
#
# Compressibility (1/GPa) = 0.01939306
#
# Stress axis : x y z
#
# Youngs Moduli (GPa) = 55.31514 59.22502 50.13111
#
# Poissons Ratio (x) = 0.52989 0.20093
# Poissons Ratio (y) = 0.49491 0.24081
# Poissons Ratio (z) = 0.22171 0.28449
#
# Static dielectric constant tensor:
#      x y z
#    x 3.312170 0.000000 0.000000 
#    y 0.000000 3.322060 0.000000 
#    z 0.000000 0.000000 2.982440 
# 
# 
# High freq. dielectric constant tensor:
#      x y z
#    x 1.683460 0.000000 0.000000 
#    y 0.000000 1.676710 0.000000 
#    z 0.000000 0.000000 1.646670 
# 
# From -- ./inp_files/32236.got.cif
#   From: 2010.03.12/outbox.cif.g09.slc.cpg/sg51_17_cif.got.tgz:32236.got - 2010.04.16 13:43:02.
