data_PCOD8207931
_publ_section_title
;
Structure prediction by ZEFSAII (Michael W. Deem and Ramdas Pophale) SiO2 
 PCOD8207931
Probable space group: P M M A
;
_chemical_formula_sum "Si O2"
_cell_formula_units_Z 48
_cell_length_a 8.941729
_cell_length_b 13.695292
_cell_length_c 23.873155
_cell_angle_alpha 90.000000
_cell_angle_beta 90.000000
_cell_angle_gamma 90.000000
_cell_volume 2923.496765
_symmetry_space_group_name_H-M "P M M A"
_symmetry_group_IT_number 51
_symmetry_cell_setting 'orthorhombic'
loop_
_space_group_symop_operation_xyz
x,y,z
1/2-x,-y,z
1/2+x,-y,-z
-x,y,-z
-x,-y,-z
1/2+x,y,-z
1/2-x,y,z
x,-y,z
loop_
_atom_site_type_symbol
_atom_site_label
_atom_site_fract_x
_atom_site_fract_y
_atom_site_fract_z
Si Si1 0.925572 0.111275 0.671182
Si Si2 0.572879 0.711139 0.273441
Si Si3 0.925549 0.386372 0.831267
Si Si4 0.922832 0.793298 0.557142
Si Si5 0.418299 0.615889 0.945123
Si Si6 0.423490 0.609919 0.374866
O O1 0.750000 0.132306 0.678491
O O2 0.973781 0.135421 0.607371
O O3 0.015164 0.179781 0.713772
O O4 0.967105 0.000000 0.684837
O O5 0.750000 0.711187 0.270748
O O6 0.508144 0.678457 0.214384
O O7 0.519900 0.635036 0.320502
O O8 0.750000 0.365996 0.829129
O O9 0.961565 0.500000 0.820361
O O10 0.987626 0.351650 0.891107
O O11 0.750000 0.804683 0.545266
O O12 0.964904 0.681910 0.574056
O O13 0.000000 0.824982 0.500000
O O14 0.250000 0.658162 0.941474
O O15 0.412664 0.500000 0.949296
O O16 0.500000 0.659239 0.000000
O O17 0.250000 0.623435 0.358055
O O18 0.459044 0.500000 0.394374
#
# Coordination Sequence:
#
# PCOD8207931 Si02
#       6
#     8   8   8   8   8   8
#     4   9  19  37  56  69  86 116 149 181 224 279
#     4  11  21  31  46  70  96 117 145 190 236 277
#     4  10  19  30  45  65  92 129 167 197 227 267
#     4   9  18  31  47  69  93 116 145 181 222 269
#     4   9  16  26  40  60  89 125 164 202 236 269
#     4   9  18  33  49  63  86 123 159 187 219 264
#
# _framework density 16.418693999999999
#
# number of rings (size 3 to 8) (size 9 to 14) (size 15 to 20)
#    0.000    2.500    0.000    4.000    0.000    9.000 
#    0.000    0.000    0.000    0.000    0.000    0.000 
#    0.000    0.667    0.000    2.500    0.000    3.833 
#
# Total GULP energy -595194.096641 kJ/mol
# GULP energy per Si atom -12399.877013 kJ/mol
# Density = 1.638132 g / cm^3
# Si number density = 16.418694 Si / 1000 Ang^3
#
#
#
# Elastic Constant Matrix: (Units=GPa)
#
#
# Indices 1 2 3 4 5 6 
#
# 1 97.4559 34.9276 56.5875 0.0000 0.0000 0.0000
# 2 34.9276 68.0935 31.3175 0.0000 0.0000 0.0000
# 3 56.5875 31.3175 117.2057 0.0000 0.0000 0.0000
# 4 0.0000 0.0000 0.0000 14.1792 0.0000 0.0000
# 5 0.0000 0.0000 0.0000 0.0000 33.4209 0.0000
# 6 0.0000 0.0000 0.0000 0.0000 0.0000 15.5909
#
#
#
# Elastic Compliance Matrix: (Units=1/GPa)
#
#
# Indices 1 2 3 4 5 6 
#
# 1 0.015732 -0.005217 -0.006201 0.000000 0.000000 0.000000
# 2 -0.005217 0.018474 -0.002417 0.000000 0.000000 0.000000
# 3 -0.006201 -0.002417 0.012172 0.000000 0.000000 0.000000
# 4 0.000000 0.000000 0.000000 0.070526 0.000000 0.000000
# 5 0.000000 0.000000 0.000000 0.000000 0.029921 0.000000
# 6 0.000000 0.000000 0.000000 0.000000 0.000000 0.064140
#
#
# Mechanical properties :
#
#
# Convention : Reuss Voigt Hill
#
# Bulk Modulus (GPa) = 53.45998 58.71338 56.08668
# Shear Modulus (GPa) = 20.41893 23.29970 21.85931
#
# Velocity S-wave (km/s) = 3.53035 3.77118 3.65275
# Velocity P-wave (km/s) = 7.01776 7.40271 7.21280
#
# Compressibility (1/GPa) = 0.01870558
#
# Stress axis : x y z
#
# Youngs Moduli (GPa) = 63.56627 54.13145 82.15644
#
# Poissons Ratio (x) = 0.28242 0.50947
# Poissons Ratio (y) = 0.33164 0.19859
# Poissons Ratio (z) = 0.39419 0.13085
#
# Static dielectric constant tensor:
#      x y z
#    x 3.228830 0.000000 0.000000 
#    y 0.000000 2.964610 0.000000 
#    z 0.000000 0.000000 3.086930 
# 
# 
# High freq. dielectric constant tensor:
#      x y z
#    x 1.638460 0.000000 0.000000 
#    y 0.000000 1.598990 0.000000 
#    z 0.000000 0.000000 1.627870 
# 
# From -- ./inp_files/31568.got.cif
#   From: 2010.03.12/outbox.cif.g09.slc.cpg/sg51_16_cif.got.tgz:31568.got - 2010.04.16 13:43:02.
