data_PCOD8207972
_publ_section_title
;
Structure prediction by ZEFSAII (Michael W. Deem and Ramdas Pophale) SiO2 
 PCOD8207972
Probable space group: P M M A
;
_chemical_formula_sum "Si O2"
_cell_formula_units_Z 52
_cell_length_a 9.094318
_cell_length_b 18.250184
_cell_length_c 18.269069
_cell_angle_alpha 90.000000
_cell_angle_beta 90.000000
_cell_angle_gamma 90.000000
_cell_volume 3032.171766
_symmetry_space_group_name_H-M "P M M A"
_symmetry_group_IT_number 51
_symmetry_cell_setting 'orthorhombic'
loop_
_space_group_symop_operation_xyz
x,y,z
1/2-x,-y,z
1/2+x,-y,-z
-x,y,-z
-x,-y,-z
1/2+x,y,-z
1/2-x,y,z
x,-y,z
loop_
_atom_site_type_symbol
_atom_site_label
_atom_site_fract_x
_atom_site_fract_y
_atom_site_fract_z
Si Si1 0.915163 0.869156 0.350649
Si Si2 0.420282 0.582519 0.149813
Si Si3 0.581871 0.714068 0.072512
Si Si4 0.415747 0.778483 0.779576
Si Si5 0.918578 0.653960 0.705048
Si Si6 0.419425 0.287959 0.576118
Si Si7 0.423173 0.000000 0.421928
O O1 0.750000 0.896859 0.368763
O O2 0.932812 0.856512 0.262400
O O3 0.946977 0.792906 0.391705
O O4 0.032184 0.928366 0.376621
O O5 0.250000 0.601075 0.134265
O O6 0.459643 0.500000 0.125668
O O7 0.518660 0.637667 0.102884
O O8 0.450617 0.588414 0.237571
O O9 0.750000 0.699305 0.052348
O O10 0.566463 0.780061 0.132330
O O11 0.500000 0.740806 0.000000
O O12 0.250000 0.748137 0.760449
O O13 0.543402 0.727142 0.749566
O O14 0.750000 0.656021 0.680003
O O15 0.017387 0.650575 0.631937
O O16 0.500000 0.295767 0.500000
O O17 0.250000 0.304651 0.563468
O O18 0.500000 0.000000 0.500000
O O19 0.250000 0.000000 0.433829
#
# Coordination Sequence:
#
# PCOD8207972 Si02
#       7
#     8   8   8   8   8   8   4
#     4   9  18  33  50  67  90 122 156 189 225 268
#     4   9  18  32  48  66  90 122 157 189 225 274
#     4  10  19  31  48  72  99 124 152 188 231 275
#     4   8  16  31  49  67  89 119 155 191 226 269
#     4   9  16  27  45  66  87 113 147 189 233 274
#     4  10  19  30  46  67  90 116 149 190 233 275
#     4  12  24  34  46  68  99 132 161 190 225 266
#
# _framework density 17.149424
#
# number of rings (size 3 to 8) (size 9 to 14) (size 15 to 20)
#    0.000    2.615    0.000    3.462    0.000    6.154 
#    0.000    0.000    0.000    0.462    0.000    0.538 
#    0.000    0.000    0.000    0.000    0.000    0.000 
#
# Total GULP energy -644389.409118 kJ/mol
# GULP energy per Si atom -12392.104021 kJ/mol
# Density = 1.711039 g / cm^3
# Si number density = 17.149424 Si / 1000 Ang^3
#
#
#
# Elastic Constant Matrix: (Units=GPa)
#
#
# Indices 1 2 3 4 5 6 
#
# 1 101.1183 23.7753 57.1994 0.0000 0.0000 0.0000
# 2 23.7753 36.2554 29.6437 0.0000 0.0000 0.0000
# 3 57.1994 29.6437 131.6250 0.0000 0.0000 0.0000
# 4 0.0000 0.0000 0.0000 20.0317 0.0000 0.0000
# 5 0.0000 0.0000 0.0000 0.0000 32.5257 0.0000
# 6 0.0000 0.0000 0.0000 0.0000 0.0000 19.4680
#
#
#
# Elastic Compliance Matrix: (Units=1/GPa)
#
#
# Indices 1 2 3 4 5 6 
#
# 1 0.013841 -0.005097 -0.004867 0.000000 0.000000 0.000000
# 2 -0.005097 0.035685 -0.005822 0.000000 0.000000 0.000000
# 3 -0.004867 -0.005822 0.011023 0.000000 0.000000 0.000000
# 4 0.000000 0.000000 0.000000 0.049921 0.000000 0.000000
# 5 0.000000 0.000000 0.000000 0.000000 0.030745 0.000000
# 6 0.000000 0.000000 0.000000 0.000000 0.000000 0.051366
#
#
# Mechanical properties :
#
#
# Convention : Reuss Voigt Hill
#
# Bulk Modulus (GPa) = 34.50924 54.47062 44.48993
# Shear Modulus (GPa) = 21.38476 24.96378 23.17427
#
# Velocity S-wave (km/s) = 3.53507 3.81945 3.68001
# Velocity P-wave (km/s) = 6.06866 7.16117 6.63743
#
# Compressibility (1/GPa) = 0.02897775
#
# Stress axis : x y z
#
# Youngs Moduli (GPa) = 72.24990 28.02320 90.71637
#
# Poissons Ratio (x) = 0.14284 0.44150
# Poissons Ratio (y) = 0.36827 0.52812
# Poissons Ratio (z) = 0.35162 0.16314
#
# Static dielectric constant tensor:
#      x y z
#    x 3.307300 0.000000 0.000000 
#    y 0.000000 2.924070 0.000000 
#    z 0.000000 0.000000 3.442720 
# 
# 
# High freq. dielectric constant tensor:
#      x y z
#    x 1.674100 0.000000 0.000000 
#    y 0.000000 1.611450 0.000000 
#    z 0.000000 0.000000 1.667580 
# 
# From -- ./inp_files/27894.got.cif
#   From: 2010.03.12/outbox.cif.g09.slc.cpg/sg51_14_cif.got.tgz:27894.got - 2010.04.16 13:43:02.
