data_PCOD8207857
_publ_section_title
;
Structure prediction by ZEFSAII (Michael W. Deem and Ramdas Pophale) SiO2 
 PCOD8207857
Probable space group: P M M A
;
_chemical_formula_sum "Si O2"
_cell_formula_units_Z 56
_cell_length_a 9.683060
_cell_length_b 14.728511
_cell_length_c 20.558070
_cell_angle_alpha 90.000000
_cell_angle_beta 90.000000
_cell_angle_gamma 90.000000
_cell_volume 2931.931415
_symmetry_space_group_name_H-M "P M M A"
_symmetry_group_IT_number 51
_symmetry_cell_setting 'orthorhombic'
loop_
_space_group_symop_operation_xyz
x,y,z
1/2-x,-y,z
1/2+x,-y,-z
-x,y,-z
-x,-y,-z
1/2+x,y,-z
1/2-x,y,z
x,-y,z
loop_
_atom_site_type_symbol
_atom_site_label
_atom_site_fract_x
_atom_site_fract_y
_atom_site_fract_z
Si Si1 0.598473 0.660631 0.553948
Si Si2 0.901904 0.868559 0.555025
Si Si3 0.588066 0.227070 0.817522
Si Si4 0.099290 0.397565 0.656206
Si Si5 0.408320 0.895526 0.059322
Si Si6 0.586186 0.101724 0.700701
Si Si7 0.592526 0.601909 0.190920
O O1 0.500000 0.612882 0.500000
O O2 0.750000 0.613368 0.555976
O O3 0.618172 0.764601 0.535906
O O4 0.525584 0.657274 0.624062
O O5 0.750000 0.915392 0.553315
O O6 0.967973 0.879976 0.627224
O O7 0.000000 0.914185 0.500000
O O8 0.750000 0.249357 0.811036
O O9 0.556594 0.159404 0.876136
O O10 0.530049 0.177334 0.751897
O O11 0.509316 0.320507 0.835395
O O12 0.250000 0.356594 0.636963
O O13 0.091004 0.500000 0.630476
O O14 0.079285 0.394662 0.732280
O O15 0.250000 0.883009 0.038711
O O16 0.443641 0.000000 0.074379
O O17 0.500000 0.858144 0.000000
O O18 0.750000 0.109434 0.701632
O O19 0.540011 0.000000 0.722139
O O20 0.750000 0.622121 0.169037
O O21 0.549906 0.500000 0.166771
#
# Coordination Sequence:
#
# PCOD8207857 Si02
#       7
#     8   8   8   8   8   8   8
#     4  10  19  30  44  62  84 112 151 199 250 305
#     4   9  18  31  46  64  87 120 162 204 246 294
#     4  10  19  32  54  82 108 136 175 220 259 300
#     4   9  18  32  47  63  86 116 151 194 247 307
#     4   9  18  33  54  82 116 151 183 215 255 306
#     4   9  17  30  49  73 101 132 166 207 257 309
#     4   9  19  35  53  74 102 136 170 207 259 316
#
# _framework density 19.100035999999999
#
# number of rings (size 3 to 8) (size 9 to 14) (size 15 to 20)
#    0.000    2.714    0.000    2.571    0.000    5.714 
#    0.000    2.143    0.000    2.571    0.000    0.000 
#    0.000    0.000    0.000    0.000    0.000    0.000 
#
# Total GULP energy -693970.166945 kJ/mol
# GULP energy per Si atom -12392.324410 kJ/mol
# Density = 1.905656 g / cm^3
# Si number density = 19.100036 Si / 1000 Ang^3
#
#
#
# Elastic Constant Matrix: (Units=GPa)
#
#
# Indices 1 2 3 4 5 6 
#
# 1 95.7717 38.6061 46.4676 0.0000 0.0000 0.0000
# 2 38.6061 83.8187 34.1367 0.0000 0.0000 0.0000
# 3 46.4676 34.1367 93.4927 0.0000 0.0000 0.0000
# 4 0.0000 0.0000 0.0000 19.0428 0.0000 0.0000
# 5 0.0000 0.0000 0.0000 0.0000 29.5975 0.0000
# 6 0.0000 0.0000 0.0000 0.0000 0.0000 -20.2267
#
#
#
# Elastic Compliance Matrix: (Units=1/GPa)
#
#
# Indices 1 2 3 4 5 6 
#
# 1 0.015125 -0.004587 -0.005843 0.000000 0.000000 0.000000
# 2 -0.004587 0.015406 -0.003345 0.000000 0.000000 0.000000
# 3 -0.005843 -0.003345 0.014821 0.000000 0.000000 0.000000
# 4 0.000000 0.000000 0.000000 0.052513 0.000000 0.000000
# 5 0.000000 0.000000 0.000000 0.000000 0.033787 0.000000
# 6 0.000000 0.000000 0.000000 0.000000 0.000000 -0.049440
#
#
# Mechanical properties :
#
#
# Convention : Reuss Voigt Hill
#
# Bulk Modulus (GPa) = 56.17185 56.83374 56.50280
# Shear Modulus (GPa) = 43.21641 15.94091 29.57866
#
# Velocity S-wave (km/s) = 4.76188 2.89208 3.93952
# Velocity P-wave (km/s) = 7.72704 6.40098 7.09506
#
# Compressibility (1/GPa) = 0.01780251
#
# Stress axis : x y z
#
# Youngs Moduli (GPa) = 66.11392 64.91128 67.47010
#
# Poissons Ratio (x) = 0.29775 0.39421
# Poissons Ratio (y) = 0.30327 0.22570
# Poissons Ratio (z) = 0.38629 0.21714
#
# Static dielectric constant tensor:
#      x y z
#    x 3.662360 0.000000 0.000000 
#    y 0.000000 3.616640 0.000000 
#    z 0.000000 0.000000 3.335210 
# 
# 
# High freq. dielectric constant tensor:
#      x y z
#    x 1.727230 0.000000 0.000000 
#    y 0.000000 1.739070 0.000000 
#    z 0.000000 0.000000 1.720810 
# 
# From -- ./inp_files/31957.got.cif
#   From: 2010.03.12/outbox.cif.g09.slc.cpg/sg51_16_cif.got.tgz:31957.got - 2010.04.16 13:43:02.
