data_PCOD8207011
_publ_section_title
;
Structure prediction by ZEFSAII (Michael W. Deem and Ramdas Pophale) SiO2 
 PCOD8207011
Probable space group: P M M A
;
_chemical_formula_sum "Si O2"
_cell_formula_units_Z 48
_cell_length_a 8.711997
_cell_length_b 30.878512
_cell_length_c 9.255123
_cell_angle_alpha 90.000000
_cell_angle_beta 90.000000
_cell_angle_gamma 90.000000
_cell_volume 2489.753067
_symmetry_space_group_name_H-M "P M M A"
_symmetry_group_IT_number 51
_symmetry_cell_setting 'orthorhombic'
loop_
_space_group_symop_operation_xyz
x,y,z
1/2-x,-y,z
1/2+x,-y,-z
-x,y,-z
-x,-y,-z
1/2+x,y,-z
1/2-x,y,z
x,-y,z
loop_
_atom_site_type_symbol
_atom_site_label
_atom_site_fract_x
_atom_site_fract_y
_atom_site_fract_z
Si Si1 0.569670 0.329559 0.657734
Si Si2 0.570161 0.252947 0.157867
Si Si3 0.932324 0.500000 0.159931
Si Si4 0.930187 0.170586 0.345916
Si Si5 0.568856 0.000000 0.843450
Si Si6 0.930687 0.413000 0.842541
Si Si7 0.067891 0.919610 0.344561
O O1 0.500000 0.331763 0.500000
O O2 0.750000 0.323067 0.645722
O O3 0.501120 0.289585 0.743172
O O4 0.525636 0.373382 0.740234
O O5 0.750000 0.261062 0.146672
O O6 0.530806 0.206828 0.228353
O O7 0.500000 0.254847 0.000000
O O8 0.750000 0.500000 0.160966
O O9 0.996029 0.455960 0.232668
O O10 0.000000 0.500000 0.000000
O O11 0.750000 0.163988 0.367166
O O12 0.000000 0.184325 0.500000
O O13 0.004042 0.126180 0.287489
O O14 0.510493 0.957103 0.762126
O O15 0.750000 0.000000 0.853366
O O16 0.500000 0.000000 0.000000
O O17 0.750000 0.419546 0.859227
O O18 0.000000 0.403788 0.000000
O O19 0.250000 0.917353 0.355158
O O20 0.000000 0.930633 0.500000
#
# Coordination Sequence:
#
# PCOD8207011 Si02
#       7
#     8   8   4   8   4   8   8
#     4  11  24  40  60  84 113 149 189 233 282 335
#     4  11  24  40  60  85 115 149 187 231 280 333
#     4  10  18  30  53  82 111 146 184 226 274 328
#     4  10  21  37  58  85 113 146 185 227 276 330
#     4  10  23  38  54  80 112 146 185 228 278 328
#     4  10  20  35  56  83 113 146 184 229 277 329
#     4  10  20  36  58  83 110 144 185 228 273 328
#
# _framework density 19.279021
#
# number of rings (size 3 to 8) (size 9 to 14) (size 15 to 20)
#    0.000    1.667    0.000    6.500    0.000   10.000 
#    0.000    3.750    0.000    0.000    0.000    0.000 
#    0.000    0.000    0.000    0.000    0.000    0.000 
#
# Total GULP energy -595310.341359 kJ/mol
# GULP energy per Si atom -12402.298778 kJ/mol
# Density = 1.923514 g / cm^3
# Si number density = 19.279021 Si / 1000 Ang^3
#
#
#
# Elastic Constant Matrix: (Units=GPa)
#
#
# Indices 1 2 3 4 5 6 
#
# 1 106.4027 82.7942 59.7684 0.0000 0.0000 0.0000
# 2 82.7942 174.2878 99.6240 0.0000 0.0000 0.0000
# 3 59.7684 99.6240 137.4231 0.0000 0.0000 0.0000
# 4 0.0000 0.0000 0.0000 25.3619 0.0000 0.0000
# 5 0.0000 0.0000 0.0000 0.0000 34.7020 0.0000
# 6 0.0000 0.0000 0.0000 0.0000 0.0000 40.8269
#
#
#
# Elastic Compliance Matrix: (Units=1/GPa)
#
#
# Indices 1 2 3 4 5 6 
#
# 1 0.015350 -0.005935 -0.002373 0.000000 0.000000 0.000000
# 2 -0.005935 0.012093 -0.006185 0.000000 0.000000 0.000000
# 3 -0.002373 -0.006185 0.012793 0.000000 0.000000 0.000000
# 4 0.000000 0.000000 0.000000 0.039429 0.000000 0.000000
# 5 0.000000 0.000000 0.000000 0.000000 0.028817 0.000000
# 6 0.000000 0.000000 0.000000 0.000000 0.000000 0.024494
#
#
# Mechanical properties :
#
#
# Convention : Reuss Voigt Hill
#
# Bulk Modulus (GPa) = 88.90461 100.27631 94.59046
# Shear Modulus (GPa) = 30.17304 31.90662 31.03983
#
# Velocity S-wave (km/s) = 3.96039 4.07257 4.01687
# Velocity P-wave (km/s) = 8.19315 8.61630 8.40739
#
# Compressibility (1/GPa) = 0.01124801
#
# Stress axis : x y z
#
# Youngs Moduli (GPa) = 65.14812 82.69585 78.16912
#
# Poissons Ratio (x) = 0.49081 0.18551
# Poissons Ratio (y) = 0.38667 0.48348
# Poissons Ratio (z) = 0.15461 0.51148
#
# Static dielectric constant tensor:
#      x y z
#    x 3.676850 0.000000 0.000000 
#    y 0.000000 4.126180 0.000000 
#    z 0.000000 0.000000 3.416350 
# 
# 
# High freq. dielectric constant tensor:
#      x y z
#    x 1.767340 0.000000 0.000000 
#    y 0.000000 1.773600 0.000000 
#    z 0.000000 0.000000 1.737760 
# 
# From -- ./inp_files/6190.got.cif
#   From: 2010.03.12/outbox.cif.g09.slc.cpg/sg51_4_cif.got.tgz:6190.got - 2010.04.16 13:43:02.
