data_PCOD8207414
_publ_section_title
;
Structure prediction by ZEFSAII (Michael W. Deem and Ramdas Pophale) SiO2 
 PCOD8207414
Probable space group: P M M A
;
_chemical_formula_sum "Si O2"
_cell_formula_units_Z 48
_cell_length_a 19.120001
_cell_length_b 8.836269
_cell_length_c 15.071077
_cell_angle_alpha 90.000000
_cell_angle_beta 90.000000
_cell_angle_gamma 90.000000
_cell_volume 2546.250503
_symmetry_space_group_name_H-M "P M M A"
_symmetry_group_IT_number 51
_symmetry_cell_setting 'orthorhombic'
loop_
_space_group_symop_operation_xyz
x,y,z
1/2-x,-y,z
1/2+x,-y,-z
-x,y,-z
-x,-y,-z
1/2+x,y,-z
1/2-x,y,z
x,-y,z
loop_
_atom_site_type_symbol
_atom_site_label
_atom_site_fract_x
_atom_site_fract_y
_atom_site_fract_z
Si Si1 0.332255 0.826540 0.362453
Si Si2 0.172500 0.179501 0.561061
Si Si3 0.328356 0.820453 0.889639
Si Si4 0.073075 0.176167 0.046822
Si Si5 0.582624 0.819813 0.276030
Si Si6 0.436952 0.676780 0.233960
O O1 0.250000 0.808754 0.346861
O O2 0.352211 0.774584 0.462406
O O3 0.371192 0.717379 0.294779
O O4 0.355304 0.000000 0.346253
O O5 0.250000 0.245758 0.580798
O O6 0.118166 0.242041 0.633723
O O7 0.176933 0.000000 0.567258
O O8 0.250000 0.752624 0.887366
O O9 0.372695 0.756444 0.806945
O O10 0.325842 0.000000 0.882406
O O11 0.365010 0.772282 0.981230
O O12 0.080580 0.273890 0.134541
O O13 0.078496 0.000000 0.072280
O O14 0.000000 0.211065 0.000000
O O15 0.504510 0.759878 0.272239
O O16 0.579824 0.000000 0.273821
O O17 0.450786 0.500000 0.236101
#
# Coordination Sequence:
#
# PCOD8207414 Si02
#       6
#     8   8   8   8   8   8
#     4   9  19  38  61  83 108 141 185 234 280 327
#     4   8  15  30  57  89 113 137 178 234 285 324
#     4   9  17  30  54  86 111 134 173 226 277 328
#     4  10  19  36  58  80 106 140 183 228 278 332
#     4  10  18  33  57  84 113 143 179 223 276 334
#     4  12  25  37  53  79 113 151 189 226 272 329
#
# _framework density 18.851247000000001
#
# number of rings (size 3 to 8) (size 9 to 14) (size 15 to 20)
#    0.000    2.333    1.667    3.000    0.000    4.000 
#    0.000    5.833    0.000    4.000    0.000    0.000 
#    0.000    0.000    0.000    0.000    0.000    0.000 
#
# Total GULP energy -595203.251561 kJ/mol
# GULP energy per Si atom -12400.067741 kJ/mol
# Density = 1.880834 g / cm^3
# Si number density = 18.851247 Si / 1000 Ang^3
#
#
#
# Elastic Constant Matrix: (Units=GPa)
#
#
# Indices 1 2 3 4 5 6 
#
# 1 97.3183 21.6862 56.3808 0.0000 0.0000 0.0000
# 2 21.6862 34.0940 32.7712 0.0000 0.0000 0.0000
# 3 56.3808 32.7712 133.9350 0.0000 0.0000 0.0000
# 4 0.0000 0.0000 0.0000 -2.1264 0.0000 0.0000
# 5 0.0000 0.0000 0.0000 0.0000 33.1327 0.0000
# 6 0.0000 0.0000 0.0000 0.0000 0.0000 3.9685
#
#
#
# Elastic Compliance Matrix: (Units=1/GPa)
#
#
# Indices 1 2 3 4 5 6 
#
# 1 0.014046 -0.004251 -0.004873 0.000000 0.000000 0.000000
# 2 -0.004251 0.039636 -0.007909 0.000000 0.000000 0.000000
# 3 -0.004873 -0.007909 0.011453 0.000000 0.000000 0.000000
# 4 0.000000 0.000000 0.000000 -0.470277 0.000000 0.000000
# 5 0.000000 0.000000 0.000000 0.000000 0.030182 0.000000
# 6 0.000000 0.000000 0.000000 0.000000 0.000000 0.251981
#
#
# Mechanical properties :
#
#
# Convention : Reuss Voigt Hill
#
# Bulk Modulus (GPa) = 32.18477 54.11374 43.14925
# Shear Modulus (GPa) = -63.64715 17.29557 -23.17579
#
# Velocity S-wave (km/s) = -5.81688 3.03227 -3.51009
# Velocity P-wave (km/s) = 5.29195 6.40527 2.55174
#
# Compressibility (1/GPa) = 0.03107059
#
# Stress axis : x y z
#
# Youngs Moduli (GPa) = 71.19642 25.22932 87.31631
#
# Poissons Ratio (x) = 0.10724 0.42546
# Poissons Ratio (y) = 0.30262 0.69058
# Poissons Ratio (z) = 0.34691 0.19954
#
# Static dielectric constant tensor:
#      x y z
#    x 3.601090 0.000000 0.000000 
#    y 0.000000 2.967210 0.000000 
#    z 0.000000 0.000000 3.718810 
# 
# 
# High freq. dielectric constant tensor:
#      x y z
#    x 1.739160 0.000000 0.000000 
#    y 0.000000 1.681200 0.000000 
#    z 0.000000 0.000000 1.746890 
# 
# From -- ./inp_files/24770.got.cif
#   From: 2010.03.12/outbox.cif.g09.slc.cpg/sg51_13_cif.got.tgz:24770.got - 2010.04.16 13:43:02.
