data_PCOD8207378
_publ_section_title
;
Structure prediction by ZEFSAII (Michael W. Deem and Ramdas Pophale) SiO2 
 PCOD8207378
Probable space group: P M M A
;
_chemical_formula_sum "Si O2"
_cell_formula_units_Z 64
_cell_length_a 24.913999
_cell_length_b 8.762112
_cell_length_c 14.929785
_cell_angle_alpha 90.000000
_cell_angle_beta 90.000000
_cell_angle_gamma 90.000000
_cell_volume 3259.160862
_symmetry_space_group_name_H-M "P M M A"
_symmetry_group_IT_number 51
_symmetry_cell_setting 'orthorhombic'
loop_
_space_group_symop_operation_xyz
x,y,z
1/2-x,-y,z
1/2+x,-y,-z
-x,y,-z
-x,-y,-z
1/2+x,y,-z
1/2-x,y,z
x,-y,z
loop_
_atom_site_type_symbol
_atom_site_label
_atom_site_fract_x
_atom_site_fract_y
_atom_site_fract_z
Si Si1 0.190635 0.680850 0.132880
Si Si2 0.643767 0.176877 0.533612
Si Si3 0.309776 0.675918 0.625192
Si Si4 0.512789 0.331347 0.249824
Si Si5 0.892489 0.318079 0.720446
Si Si6 0.550077 0.331386 0.448915
Si Si7 0.687392 0.324136 0.069360
Si Si8 0.119279 0.821880 0.779473
O O1 0.250000 0.746304 0.156786
O O2 0.193009 0.500000 0.139441
O O3 0.146690 0.745265 0.201959
O O4 0.174493 0.727312 0.032217
O O5 0.692227 0.247524 0.474616
O O6 0.631344 0.257534 0.627437
O O7 0.595524 0.206897 0.464470
O O8 0.653802 0.000000 0.551782
O O9 0.250000 0.693825 0.666250
O O10 0.325818 0.500000 0.612310
O O11 0.353391 0.743310 0.693476
O O12 0.509317 0.500000 0.204628
O O13 0.452819 0.257935 0.256426
O O14 0.536824 0.348736 0.346933
O O15 0.557361 0.228542 0.199738
O O16 0.893871 0.500000 0.715184
O O17 0.500000 0.261491 0.500000
O O18 0.565156 0.500000 0.488513
O O19 0.750000 0.301812 0.090139
O O20 0.670937 0.500000 0.085799
O O21 0.653117 0.215915 0.132532
O O22 0.120029 0.000000 0.761037
#
# Coordination Sequence:
#
# PCOD8207378 Si02
#       8
#     8   8   8   8   8   8   8   8
#     4   8  16  34  63  93 113 135 180 238 283 324
#     4  12  24  35  52  80 114 149 184 229 280 334
#     4  11  24  41  59  78 106 148 193 236 282 334
#     4  10  20  34  55  80 111 152 194 234 275 327
#     4  10  20  37  60  85 114 150 193 237 279 328
#     4  10  18  33  55  76 102 143 193 238 272 313
#     4   9  18  36  62  88 112 142 183 229 277 335
#     4  12  24  36  55  84 116 148 182 229 286 342
#
# _framework density 19.636956999999999
#
# number of rings (size 3 to 8) (size 9 to 14) (size 15 to 20)
#    0.000    1.750    2.500    3.750    0.000    4.000 
#    0.000    2.500    0.000    4.500    0.000    0.000 
#    0.000    0.000    0.000    0.000    0.000    0.000 
#
# Total GULP energy -793077.488283 kJ/mol
# GULP energy per Si atom -12391.835754 kJ/mol
# Density = 1.959226 g / cm^3
# Si number density = 19.636957 Si / 1000 Ang^3
#
#
#
# Elastic Constant Matrix: (Units=GPa)
#
#
# Indices 1 2 3 4 5 6 
#
# 1 114.7757 32.9397 62.1999 0.0000 0.0000 0.0000
# 2 32.9397 78.7958 28.1629 0.0000 0.0000 0.0000
# 3 62.1999 28.1629 102.3839 0.0000 0.0000 0.0000
# 4 0.0000 0.0000 0.0000 11.9362 0.0000 0.0000
# 5 0.0000 0.0000 0.0000 0.0000 32.8758 0.0000
# 6 0.0000 0.0000 0.0000 0.0000 0.0000 -11.3412
#
#
#
# Elastic Compliance Matrix: (Units=1/GPa)
#
#
# Indices 1 2 3 4 5 6 
#
# 1 0.013613 -0.003033 -0.007436 0.000000 0.000000 0.000000
# 2 -0.003033 0.014751 -0.002215 0.000000 0.000000 0.000000
# 3 -0.007436 -0.002215 0.014894 0.000000 0.000000 0.000000
# 4 0.000000 0.000000 0.000000 0.083778 0.000000 0.000000
# 5 0.000000 0.000000 0.000000 0.000000 0.030417 0.000000
# 6 0.000000 0.000000 0.000000 0.000000 0.000000 -0.088174
#
#
# Mechanical properties :
#
#
# Convention : Reuss Voigt Hill
#
# Bulk Modulus (GPa) = 55.89740 60.28448 58.09094
# Shear Modulus (GPa) = 49.69725 18.20436 33.95081
#
# Velocity S-wave (km/s) = 5.03617 3.04805 4.16254
# Velocity P-wave (km/s) = 7.89585 6.56914 7.26285
#
# Compressibility (1/GPa) = 0.01788992
#
# Stress axis : x y z
#
# Youngs Moduli (GPa) = 73.46107 67.79404 67.14258
#
# Poissons Ratio (x) = 0.20562 0.49925
# Poissons Ratio (y) = 0.22281 0.14871
# Poissons Ratio (z) = 0.54623 0.15015
#
# Static dielectric constant tensor:
#      x y z
#    x 3.932640 0.000000 0.000000 
#    y 0.000000 3.456090 0.000000 
#    z 0.000000 0.000000 3.590540 
# 
# 
# High freq. dielectric constant tensor:
#      x y z
#    x 1.775050 0.000000 0.000000 
#    y 0.000000 1.736700 0.000000 
#    z 0.000000 0.000000 1.754430 
# 
# From -- ./inp_files/26318.got.cif
#   From: 2010.03.12/outbox.cif.g09.slc.cpg/sg51_14_cif.got.tgz:26318.got - 2010.04.16 13:43:02.
