data_PCOD8207413
_publ_section_title
;
Structure prediction by ZEFSAII (Michael W. Deem and Ramdas Pophale) SiO2 
 PCOD8207413
Probable space group: P M M A
;
_chemical_formula_sum "Si O2"
_cell_formula_units_Z 64
_cell_length_a 15.426491
_cell_length_b 8.904105
_cell_length_c 23.928453
_cell_angle_alpha 90.000000
_cell_angle_beta 90.000000
_cell_angle_gamma 90.000000
_cell_volume 3286.790664
_symmetry_space_group_name_H-M "P M M A"
_symmetry_group_IT_number 51
_symmetry_cell_setting 'orthorhombic'
loop_
_space_group_symop_operation_xyz
x,y,z
1/2-x,-y,z
1/2+x,-y,-z
-x,y,-z
-x,-y,-z
1/2+x,y,-z
1/2-x,y,z
x,-y,z
loop_
_atom_site_type_symbol
_atom_site_label
_atom_site_fract_x
_atom_site_fract_y
_atom_site_fract_z
Si Si1 0.000281 0.178640 0.062511
Si Si2 0.346935 0.172058 0.366181
Si Si3 0.496538 0.324031 0.435758
Si Si4 0.418547 0.172483 0.744657
Si Si5 0.347787 0.828277 0.625200
Si Si6 0.400005 0.676876 0.256297
Si Si7 0.845325 0.821735 0.137877
Si Si8 0.847967 0.173087 0.857286
O O1 0.916576 0.243942 0.095109
O O2 0.087432 0.230730 0.094307
O O3 0.995954 0.000000 0.060119
O O4 0.000000 0.246162 0.000000
O O5 0.250000 0.184885 0.391599
O O6 0.414164 0.244981 0.408567
O O7 0.345433 0.251720 0.306295
O O8 0.374697 0.000000 0.357347
O O9 0.500000 0.275329 0.500000
O O10 0.483657 0.500000 0.428226
O O11 0.586223 0.278158 0.407001
O O12 0.356155 0.191417 0.691788
O O13 0.500846 0.277174 0.735976
O O14 0.367716 0.228653 0.799277
O O15 0.449334 0.000000 0.751996
O O16 0.250000 0.783094 0.608348
O O17 0.367447 0.000000 0.608291
O O18 0.391069 0.500000 0.259891
O O19 0.361234 0.730703 0.197935
O O20 0.750000 0.758341 0.122211
O O21 0.844796 0.000000 0.134241
O O22 0.750000 0.193279 0.879452
O O23 0.868187 0.000000 0.842616
#
# Coordination Sequence:
#
# PCOD8207413 Si02
#       8
#     8   8   8   8   8   8   8   8
#     4   9  17  29  47  76 112 144 181 232 283 329
#     4  11  24  42  65  91 118 152 195 243 294 348
#     4  11  25  43  62  87 121 160 199 240 287 339
#     4  10  18  33  57  83 114 148 184 229 284 342
#     4  10  21  37  61  91 119 151 194 242 290 343
#     4  12  23  35  57  87 118 150 186 231 289 350
#     4   9  16  27  48  77 107 140 179 223 275 331
#     4  10  20  35  55  79 110 149 188 229 281 340
#
# _framework density 19.471882000000001
#
# number of rings (size 3 to 8) (size 9 to 14) (size 15 to 20)
#    0.000    1.750    2.500    2.625    0.000    6.500 
#    0.000    5.000    0.000    1.500    0.000    0.000 
#    0.000    0.000    0.000    0.000    0.000    0.000 
#
# Total GULP energy -793704.994586 kJ/mol
# GULP energy per Si atom -12401.640540 kJ/mol
# Density = 1.942756 g / cm^3
# Si number density = 19.471882 Si / 1000 Ang^3
#
#
#
# Elastic Constant Matrix: (Units=GPa)
#
#
# Indices 1 2 3 4 5 6 
#
# 1 149.7152 39.0307 65.7252 0.0000 0.0000 0.0000
# 2 39.0307 73.7965 49.5967 0.0000 0.0000 0.0000
# 3 65.7252 49.5967 145.7585 0.0000 0.0000 0.0000
# 4 0.0000 0.0000 0.0000 -25.0864 0.0000 0.0000
# 5 0.0000 0.0000 0.0000 0.0000 11.0332 0.0000
# 6 0.0000 0.0000 0.0000 0.0000 0.0000 3.7017
#
#
#
# Elastic Compliance Matrix: (Units=1/GPa)
#
#
# Indices 1 2 3 4 5 6 
#
# 1 0.008681 -0.002542 -0.003049 0.000000 0.000000 0.000000
# 2 -0.002542 0.018313 -0.005085 0.000000 0.000000 0.000000
# 3 -0.003049 -0.005085 0.009966 0.000000 0.000000 0.000000
# 4 0.000000 0.000000 0.000000 -0.039862 0.000000 0.000000
# 5 0.000000 0.000000 0.000000 0.000000 0.090635 0.000000
# 6 0.000000 0.000000 0.000000 0.000000 0.000000 0.270149
#
#
# Mechanical properties :
#
#
# Convention : Reuss Voigt Hill
#
# Bulk Modulus (GPa) = 64.07434 75.33057 69.70246
# Shear Modulus (GPa) = 13.00607 12.25756 12.63181
#
# Velocity S-wave (km/s) = 2.58726 2.51171 2.54976
# Velocity P-wave (km/s) = 6.47323 6.86894 6.67402
#
# Compressibility (1/GPa) = 0.01560687
#
# Stress axis : x y z
#
# Youngs Moduli (GPa) = 115.19849 54.60712 100.34154
#
# Poissons Ratio (x) = 0.13880 0.30598
# Poissons Ratio (y) = 0.29281 0.51024
# Poissons Ratio (z) = 0.35129 0.27768
#
# Static dielectric constant tensor:
#      x y z
#    x 3.825820 0.000000 0.000000 
#    y 0.000000 3.247530 0.000000 
#    z 0.000000 0.000000 3.667370 
# 
# 
# High freq. dielectric constant tensor:
#      x y z
#    x 1.774430 0.000000 0.000000 
#    y 0.000000 1.723340 0.000000 
#    z 0.000000 0.000000 1.757700 
# 
# From -- ./inp_files/35845.got.cif
#   From: 2010.03.12/outbox.cif.g09.slc.cpg/sg51_18_cif.got.tgz:35845.got - 2010.04.16 13:43:02.
