data_PCOD8207971
_publ_section_title
;
Structure prediction by ZEFSAII (Michael W. Deem and Ramdas Pophale) SiO2 
 PCOD8207971
Probable space group: P M M A
;
_chemical_formula_sum "Si O2"
_cell_formula_units_Z 64
_cell_length_a 23.298565
_cell_length_b 9.230648
_cell_length_c 18.927966
_cell_angle_alpha 90.000000
_cell_angle_beta 90.000000
_cell_angle_gamma 90.000000
_cell_volume 4070.664503
_symmetry_space_group_name_H-M "P M M A"
_symmetry_group_IT_number 51
_symmetry_cell_setting 'orthorhombic'
loop_
_space_group_symop_operation_xyz
x,y,z
1/2-x,-y,z
1/2+x,-y,-z
-x,y,-z
-x,-y,-z
1/2+x,y,-z
1/2-x,y,z
x,-y,z
loop_
_atom_site_type_symbol
_atom_site_label
_atom_site_fract_x
_atom_site_fract_y
_atom_site_fract_z
Si Si1 0.499016 0.828906 0.250609
Si Si2 0.091151 0.332548 0.978107
Si Si3 0.184434 0.170815 0.899764
Si Si4 0.524626 0.328261 0.611537
Si Si5 0.131912 0.829771 0.751206
Si Si6 0.184961 0.669604 0.620796
Si Si7 0.584693 0.329345 0.474900
Si Si8 0.981288 0.668182 0.888306
O O1 0.465452 0.757630 0.316090
O O2 0.565685 0.783184 0.253142
O O3 0.470502 0.766713 0.179799
O O4 0.490642 0.000000 0.252281
O O5 0.105303 0.500000 0.966440
O O6 0.148430 0.241697 0.963198
O O7 0.040536 0.283857 0.925278
O O8 0.071402 0.303850 0.058368
O O9 0.250000 0.224011 0.904663
O O10 0.157775 0.222112 0.825547
O O11 0.179923 0.000000 0.907989
O O12 0.525452 0.500000 0.626605
O O13 0.574282 0.279023 0.555824
O O14 0.464531 0.273713 0.578214
O O15 0.168257 0.751321 0.691527
O O16 0.139677 0.000000 0.740688
O O17 0.250000 0.706338 0.600160
O O18 0.175605 0.500000 0.634681
O O19 0.146062 0.723425 0.554761
O O20 0.579230 0.500000 0.475550
O O21 0.984089 0.500000 0.866512
#
# Coordination Sequence:
#
# PCOD8207971 Si02
#       8
#     8   8   8   8   8   8   8   8
#     4  11  20  29  45  71  95 120 153 189 227 268
#     4   9  18  32  49  69  91 117 154 196 233 270
#     4  10  20  33  47  64  92 130 164 189 220 267
#     4   9  16  29  48  63  85 120 151 183 225 276
#     4  10  20  32  43  61  94 131 159 183 217 264
#     4  10  19  30  46  67  89 116 155 196 224 256
#     4   8  15  28  45  65  86 115 152 185 226 271
#     4   9  18  32  49  68  92 121 150 187 237 283
#
# _framework density 15.722249
#
# number of rings (size 3 to 8) (size 9 to 14) (size 15 to 20)
#    0.000    2.500    2.500    2.250    0.000    2.500 
#    0.000    3.125    0.000    0.000    0.000    0.875 
#    0.000    5.000    0.000    0.000    0.000    0.000 
#
# Total GULP energy -793505.418027 kJ/mol
# GULP energy per Si atom -12398.522157 kJ/mol
# Density = 1.568646 g / cm^3
# Si number density = 15.722249 Si / 1000 Ang^3
#
#
#
# Elastic Constant Matrix: (Units=GPa)
#
#
# Indices 1 2 3 4 5 6 
#
# 1 83.3534 28.0869 49.5225 0.0000 0.0000 0.0000
# 2 28.0869 41.4735 42.9202 0.0000 0.0000 0.0000
# 3 49.5225 42.9202 116.1653 0.0000 0.0000 0.0000
# 4 0.0000 0.0000 0.0000 17.2488 0.0000 0.0000
# 5 0.0000 0.0000 0.0000 0.0000 23.2995 0.0000
# 6 0.0000 0.0000 0.0000 0.0000 0.0000 20.4452
#
#
#
# Elastic Compliance Matrix: (Units=1/GPa)
#
#
# Indices 1 2 3 4 5 6 
#
# 1 0.017094 -0.006533 -0.004874 0.000000 0.000000 0.000000
# 2 -0.006533 0.041535 -0.012561 0.000000 0.000000 0.000000
# 3 -0.004874 -0.012561 0.015327 0.000000 0.000000 0.000000
# 4 0.000000 0.000000 0.000000 0.057975 0.000000 0.000000
# 5 0.000000 0.000000 0.000000 0.000000 0.042919 0.000000
# 6 0.000000 0.000000 0.000000 0.000000 0.000000 0.048911
#
#
# Mechanical properties :
#
#
# Convention : Reuss Voigt Hill
#
# Bulk Modulus (GPa) = 38.43036 53.56127 45.99582
# Shear Modulus (GPa) = 17.83349 20.22955 19.03152
#
# Velocity S-wave (km/s) = 3.37157 3.59093 3.48297
# Velocity P-wave (km/s) = 6.29706 7.16479 6.74489
#
# Compressibility (1/GPa) = 0.02602109
#
# Stress axis : x y z
#
# Youngs Moduli (GPa) = 58.50024 24.07581 65.24354
#
# Poissons Ratio (x) = 0.15728 0.31797
# Poissons Ratio (y) = 0.38217 0.81955
# Poissons Ratio (z) = 0.28511 0.30242
#
# Static dielectric constant tensor:
#      x y z
#    x 2.996640 0.000000 0.000000 
#    y 0.000000 2.814110 0.000000 
#    z 0.000000 0.000000 3.042580 
# 
# 
# High freq. dielectric constant tensor:
#      x y z
#    x 1.579560 0.000000 0.000000 
#    y 0.000000 1.592040 0.000000 
#    z 0.000000 0.000000 1.600920 
# 
# From -- ./inp_files/30925.got.cif
#   From: 2010.03.12/outbox.cif.g09.slc.cpg/sg51_16_cif.got.tgz:30925.got - 2010.04.16 13:43:02.
