data_PCOD8207054
_publ_section_title
;
Structure prediction by ZEFSAII (Michael W. Deem and Ramdas Pophale) SiO2 
 PCOD8207054
Probable space group: P M M A
;
_chemical_formula_sum "Si O2"
_cell_formula_units_Z 64
_cell_length_a 9.217490
_cell_length_b 22.084076
_cell_length_c 18.259775
_cell_angle_alpha 90.000000
_cell_angle_beta 90.000000
_cell_angle_gamma 90.000000
_cell_volume 3716.955228
_symmetry_space_group_name_H-M "P M M A"
_symmetry_group_IT_number 51
_symmetry_cell_setting 'orthorhombic'
loop_
_space_group_symop_operation_xyz
x,y,z
1/2-x,-y,z
1/2+x,-y,-z
-x,y,-z
-x,-y,-z
1/2+x,y,-z
1/2-x,y,z
x,-y,z
loop_
_atom_site_type_symbol
_atom_site_label
_atom_site_fract_x
_atom_site_fract_y
_atom_site_fract_z
Si Si1 0.587483 0.431763 0.278687
Si Si2 0.591326 0.755158 0.437028
Si Si3 0.415029 0.432915 0.131733
Si Si4 0.581257 0.695193 0.928385
Si Si5 0.084281 0.331123 0.348349
Si Si6 0.416791 0.236703 0.217778
Si Si7 0.587740 0.148942 0.312070
Si Si8 0.416856 0.071523 0.425740
O O1 0.750000 0.404286 0.278034
O O2 0.589370 0.500000 0.307584
O O3 0.526674 0.428283 0.197275
O O4 0.484986 0.395874 0.333401
O O5 0.500000 0.789956 0.500000
O O6 0.750000 0.737415 0.466531
O O7 0.500465 0.695476 0.417661
O O8 0.605579 0.796325 0.367089
O O9 0.250000 0.424965 0.161468
O O10 0.431285 0.500000 0.093950
O O11 0.451246 0.376992 0.078316
O O12 0.750000 0.706773 0.939572
O O13 0.526542 0.734159 0.858385
O O14 0.500000 0.719790 0.000000
O O15 0.250000 0.339517 0.370566
O O16 0.066048 0.289017 0.277487
O O17 0.250000 0.216068 0.211512
O O18 0.508692 0.176415 0.239785
O O19 0.750000 0.124367 0.291816
O O20 0.492496 0.097695 0.352478
O O21 0.500000 0.091349 0.500000
O O22 0.250000 0.094661 0.431048
O O23 0.421902 0.000000 0.416797
#
# Coordination Sequence:
#
# PCOD8207054 Si02
#       8
#     8   8   8   8   8   8   8   8
#     4  10  19  29  44  67  90 111 142 187 234 282
#     4  10  20  32  46  69  96 122 154 192 234 280
#     4   9  17  31  48  64  87 120 157 194 236 293
#     4  10  20  33  47  68  94 127 161 199 249 299
#     4  10  18  31  50  67  86 116 150 189 235 283
#     4   9  18  33  49  67  93 123 161 202 243 288
#     4  10  20  32  50  74  99 131 168 205 243 278
#     4  10  20  33  50  74 107 146 181 210 241 278
#
# _framework density 17.218395000000001
#
# number of rings (size 3 to 8) (size 9 to 14) (size 15 to 20)
#    0.000    2.250    1.250    2.250    0.000    5.750 
#    0.000    0.000    0.000    0.375    0.000    0.000 
#    0.000    0.500    0.000    1.625    0.000    2.000 
#
# Total GULP energy -793260.198887 kJ/mol
# GULP energy per Si atom -12394.690608 kJ/mol
# Density = 1.717920 g / cm^3
# Si number density = 17.218395 Si / 1000 Ang^3
#
#
#
# Elastic Constant Matrix: (Units=GPa)
#
#
# Indices 1 2 3 4 5 6 
#
# 1 123.3241 36.6640 36.5407 0.0000 0.0000 0.0000
# 2 36.6640 49.7153 26.0397 0.0000 0.0000 0.0000
# 3 36.5407 26.0397 62.5404 0.0000 0.0000 0.0000
# 4 0.0000 0.0000 0.0000 17.8511 0.0000 0.0000
# 5 0.0000 0.0000 0.0000 0.0000 28.4257 0.0000
# 6 0.0000 0.0000 0.0000 0.0000 0.0000 17.7600
#
#
#
# Elastic Compliance Matrix: (Units=1/GPa)
#
#
# Indices 1 2 3 4 5 6 
#
# 1 0.011094 -0.006121 -0.003933 0.000000 0.000000 0.000000
# 2 -0.006121 0.029102 -0.008541 0.000000 0.000000 0.000000
# 3 -0.003933 -0.008541 0.021844 0.000000 0.000000 0.000000
# 4 0.000000 0.000000 0.000000 0.056019 0.000000 0.000000
# 5 0.000000 0.000000 0.000000 0.000000 0.035179 0.000000
# 6 0.000000 0.000000 0.000000 0.000000 0.000000 0.056306
#
#
# Mechanical properties :
#
#
# Convention : Reuss Voigt Hill
#
# Bulk Modulus (GPa) = 40.24214 48.22984 44.23599
# Shear Modulus (GPa) = 19.60643 21.89640 20.75141
#
# Velocity S-wave (km/s) = 3.37811 3.56994 3.47535
# Velocity P-wave (km/s) = 6.21593 6.71298 6.46923
#
# Compressibility (1/GPa) = 0.02484957
#
# Stress axis : x y z
#
# Youngs Moduli (GPa) = 90.13871 34.36150 45.77972
#
# Poissons Ratio (x) = 0.21034 0.18006
# Poissons Ratio (y) = 0.55178 0.39099
# Poissons Ratio (z) = 0.35453 0.29347
#
# Static dielectric constant tensor:
#      x y z
#    x 3.559900 0.000000 0.000000 
#    y 0.000000 3.115920 0.000000 
#    z 0.000000 0.000000 3.022260 
# 
# 
# High freq. dielectric constant tensor:
#      x y z
#    x 1.682150 0.000000 0.000000 
#    y 0.000000 1.640840 0.000000 
#    z 0.000000 0.000000 1.630890 
# 
# From -- ./inp_files/28362.got.cif
#   From: 2010.03.12/outbox.cif.g09.slc.cpg/sg51_15_cif.got.tgz:28362.got - 2010.04.16 13:43:02.
