data_PCOD8207149
_publ_section_title
;
Structure prediction by ZEFSAII (Michael W. Deem and Ramdas Pophale) SiO2 
 PCOD8207149
Probable space group: P M M A
;
_chemical_formula_sum "Si O2"
_cell_formula_units_Z 48
_cell_length_a 8.664729
_cell_length_b 30.370923
_cell_length_c 9.552402
_cell_angle_alpha 90.000000
_cell_angle_beta 90.000000
_cell_angle_gamma 90.000000
_cell_volume 2513.770155
_symmetry_space_group_name_H-M "P M M A"
_symmetry_group_IT_number 51
_symmetry_cell_setting 'orthorhombic'
loop_
_space_group_symop_operation_xyz
x,y,z
1/2-x,-y,z
1/2+x,-y,-z
-x,y,-z
-x,-y,-z
1/2+x,y,-z
1/2-x,y,z
x,-y,z
loop_
_atom_site_type_symbol
_atom_site_label
_atom_site_fract_x
_atom_site_fract_y
_atom_site_fract_z
Si Si1 0.431938 0.378742 0.153376
Si Si2 0.433223 0.709600 0.844588
Si Si3 0.569486 0.051042 0.146094
Si Si4 0.571630 0.551033 0.350856
Si Si5 0.567704 0.201250 0.846449
Si Si6 0.431654 0.879929 0.347108
O O1 0.250000 0.373606 0.144060
O O2 0.502822 0.334913 0.228640
O O3 0.476415 0.421910 0.238032
O O4 0.500000 0.384659 0.000000
O O5 0.250000 0.709483 0.843487
O O6 0.496915 0.754501 0.775053
O O7 0.500000 0.709276 0.000000
O O8 0.750000 0.059969 0.142318
O O9 0.496297 0.075947 0.277110
O O10 0.528515 0.000000 0.166576
O O11 0.500000 0.068723 0.000000
O O12 0.500000 0.562075 0.500000
O O13 0.750000 0.565087 0.349908
O O14 0.551169 0.500000 0.312772
O O15 0.750000 0.206511 0.859553
O O16 0.518187 0.161466 0.746731
O O17 0.500000 0.192211 0.000000
O O18 0.500000 0.873649 0.500000
O O19 0.250000 0.884194 0.359137
#
# Coordination Sequence:
#
# PCOD8207149 Si02
#       6
#     8   8   8   8   8   8
#     4  11  21  35  56  82 113 145 181 227 276 326
#     4  10  18  31  53  80 109 141 178 222 273 325
#     4  10  21  38  61  87 114 145 184 229 274 324
#     4  10  21  38  58  80 108 143 183 225 271 326
#     4  10  20  35  56  82 108 140 182 224 270 323
#     4  11  24  39  57  81 113 150 186 228 277 329
#
# _framework density 19.094823999999999
#
# number of rings (size 3 to 8) (size 9 to 14) (size 15 to 20)
#    0.000    1.667    0.000    7.500    0.000    6.667 
#    0.000    0.833    0.000    2.000    0.000    0.000 
#    0.000    0.000    0.000    0.000    0.000    0.000 
#
# Total GULP energy -595278.803837 kJ/mol
# GULP energy per Si atom -12401.641747 kJ/mol
# Density = 1.905136 g / cm^3
# Si number density = 19.094824 Si / 1000 Ang^3
#
#
#
# Elastic Constant Matrix: (Units=GPa)
#
#
# Indices 1 2 3 4 5 6 
#
# 1 130.6649 62.3861 50.7764 0.0000 0.0000 0.0000
# 2 62.3861 116.1453 67.8159 0.0000 0.0000 0.0000
# 3 50.7764 67.8159 101.2387 0.0000 0.0000 0.0000
# 4 0.0000 0.0000 0.0000 8.6362 0.0000 0.0000
# 5 0.0000 0.0000 0.0000 0.0000 32.4756 0.0000
# 6 0.0000 0.0000 0.0000 0.0000 0.0000 18.4358
#
#
#
# Elastic Compliance Matrix: (Units=1/GPa)
#
#
# Indices 1 2 3 4 5 6 
#
# 1 0.010659 -0.004277 -0.002481 0.000000 0.000000 0.000000
# 2 -0.004277 0.015857 -0.008477 0.000000 0.000000 0.000000
# 3 -0.002481 -0.008477 0.016800 0.000000 0.000000 0.000000
# 4 0.000000 0.000000 0.000000 0.115791 0.000000 0.000000
# 5 0.000000 0.000000 0.000000 0.000000 0.030792 0.000000
# 6 0.000000 0.000000 0.000000 0.000000 0.000000 0.054242
#
#
# Mechanical properties :
#
#
# Convention : Reuss Voigt Hill
#
# Bulk Modulus (GPa) = 77.84109 78.88953 78.36531
# Shear Modulus (GPa) = 17.92794 23.04756 20.48775
#
# Velocity S-wave (km/s) = 3.06746 3.47797 3.27914
# Velocity P-wave (km/s) = 7.30751 7.58503 7.44756
#
# Compressibility (1/GPa) = 0.01284669
#
# Stress axis : x y z
#
# Youngs Moduli (GPa) = 93.81430 63.06556 59.52229
#
# Poissons Ratio (x) = 0.26971 0.14770
# Poissons Ratio (y) = 0.40121 0.50455
# Poissons Ratio (z) = 0.23279 0.53459
#
# Static dielectric constant tensor:
#      x y z
#    x 3.640250 0.000000 0.000000 
#    y 0.000000 4.096620 0.000000 
#    z 0.000000 0.000000 3.252520 
# 
# 
# High freq. dielectric constant tensor:
#      x y z
#    x 1.764430 0.000000 0.000000 
#    y 0.000000 1.762060 0.000000 
#    z 0.000000 0.000000 1.713840 
# 
# From -- ./inp_files/5985.got.cif
#   From: 2010.03.12/outbox.cif.g09.slc.cpg/sg51_3_cif.got.tgz:5985.got - 2010.04.16 13:43:02.
