data_PCOD8207718
_publ_section_title
;
Structure prediction by ZEFSAII (Michael W. Deem and Ramdas Pophale) SiO2 
 PCOD8207718
Probable space group: P M M A
;
_chemical_formula_sum "Si O2"
_cell_formula_units_Z 56
_cell_length_a 8.978096
_cell_length_b 20.011153
_cell_length_c 15.230952
_cell_angle_alpha 90.000000
_cell_angle_beta 90.000000
_cell_angle_gamma 90.000000
_cell_volume 2736.424101
_symmetry_space_group_name_H-M "P M M A"
_symmetry_group_IT_number 51
_symmetry_cell_setting 'orthorhombic'
loop_
_space_group_symop_operation_xyz
x,y,z
1/2-x,-y,z
1/2+x,-y,-z
-x,y,-z
-x,-y,-z
1/2+x,y,-z
1/2-x,y,z
x,-y,z
loop_
_atom_site_type_symbol
_atom_site_label
_atom_site_fract_x
_atom_site_fract_y
_atom_site_fract_z
Si Si1 0.081170 0.764590 0.371544
Si Si2 0.422934 0.893274 0.584121
Si Si3 0.422016 0.424267 0.223370
Si Si4 0.426929 0.673866 0.910266
Si Si5 0.077705 0.614320 0.413650
Si Si6 0.579139 0.204103 0.829004
Si Si7 0.423635 0.074387 0.777317
O O1 0.250000 0.785460 0.396376
O O2 0.038940 0.692330 0.406868
O O3 0.062414 0.764470 0.266945
O O4 0.965514 0.815099 0.415610
O O5 0.500000 0.928442 0.500000
O O6 0.250000 0.903173 0.571498
O O7 0.476945 0.925725 0.675542
O O8 0.250000 0.399554 0.216942
O O9 0.438146 0.500000 0.189148
O O10 0.524991 0.376415 0.166245
O O11 0.476808 0.421472 0.324522
O O12 0.250000 0.674286 0.918310
O O13 0.484744 0.749079 0.893524
O O14 0.500000 0.647308 0.000000
O O15 0.250000 0.600759 0.426364
O O16 0.000000 0.583782 0.500000
O O17 0.750000 0.202412 0.860396
O O18 0.515969 0.128393 0.832916
O O19 0.250000 0.093753 0.782063
O O20 0.452809 0.000000 0.815488
#
# Coordination Sequence:
#
# PCOD8207718 Si02
#       7
#     8   8   8   8   8   8   8
#     4   9  17  31  51  74 106 146 191 245 300 352
#     4  10  19  29  43  67 101 143 194 247 301 353
#     4  10  22  43  66  88 123 167 206 251 306 359
#     4  12  25  42  68  98 127 157 196 244 301 366
#     4  10  20  34  53  82 117 159 206 251 301 352
#     4  10  19  36  61  88 119 152 195 246 298 355
#     4   9  19  35  53  77 112 155 200 244 297 360
#
# _framework density 20.464663999999999
#
# number of rings (size 3 to 8) (size 9 to 14) (size 15 to 20)
#    0.000    2.000    1.429    2.571    0.000    4.857 
#    0.000    0.000    0.000    0.429    0.000    0.000 
#    0.000    0.000    0.000    0.000    0.000    0.000 
#
# Total GULP energy -694430.224297 kJ/mol
# GULP energy per Si atom -12400.539720 kJ/mol
# Density = 2.041809 g / cm^3
# Si number density = 20.464664 Si / 1000 Ang^3
#
#
#
# Elastic Constant Matrix: (Units=GPa)
#
#
# Indices 1 2 3 4 5 6 
#
# 1 105.4729 46.5987 44.5076 0.0000 0.0000 0.0000
# 2 46.5987 88.9680 36.8837 0.0000 0.0000 0.0000
# 3 44.5076 36.8837 77.6262 0.0000 0.0000 0.0000
# 4 0.0000 0.0000 0.0000 -5.8151 0.0000 0.0000
# 5 0.0000 0.0000 0.0000 0.0000 32.6900 0.0000
# 6 0.0000 0.0000 0.0000 0.0000 0.0000 21.4224
#
#
#
# Elastic Compliance Matrix: (Units=1/GPa)
#
#
# Indices 1 2 3 4 5 6 
#
# 1 0.014107 -0.005026 -0.005700 0.000000 0.000000 0.000000
# 2 -0.005026 0.015788 -0.004620 0.000000 0.000000 0.000000
# 3 -0.005700 -0.004620 0.018346 0.000000 0.000000 0.000000
# 4 0.000000 0.000000 0.000000 -0.171966 0.000000 0.000000
# 5 0.000000 0.000000 0.000000 0.000000 0.030590 0.000000
# 6 0.000000 0.000000 0.000000 0.000000 0.000000 0.046680
#
#
# Mechanical properties :
#
#
# Convention : Reuss Voigt Hill
#
# Bulk Modulus (GPa) = 56.98530 58.67191 57.82861
# Shear Modulus (GPa) = -504.34231 19.26460 -242.53886
#
# Velocity S-wave (km/s) = -15.71561 3.07149 -10.89831
# Velocity P-wave (km/s) = 17.36091 6.42735 11.40373
#
# Compressibility (1/GPa) = 0.01754839
#
# Stress axis : x y z
#
# Youngs Moduli (GPa) = 70.88727 63.34123 54.50841
#
# Poissons Ratio (x) = 0.31832 0.31072
# Poissons Ratio (y) = 0.35624 0.25183
# Poissons Ratio (z) = 0.40409 0.29263
#
# Static dielectric constant tensor:
#      x y z
#    x 3.581480 0.000000 0.000000 
#    y 0.000000 3.633880 0.000000 
#    z 0.000000 0.000000 3.651460 
# 
# 
# High freq. dielectric constant tensor:
#      x y z
#    x 1.791310 0.000000 0.000000 
#    y 0.000000 1.797290 0.000000 
#    z 0.000000 0.000000 1.787010 
# 
# From -- ./inp_files/21746.got.cif
#   From: 2010.03.12/outbox.cif.g09.slc.cpg/sg51_11_cif.got.tgz:21746.got - 2010.04.16 13:43:02.
