data_PCOD8207374
_publ_section_title
;
Structure prediction by ZEFSAII (Michael W. Deem and Ramdas Pophale) SiO2 
 PCOD8207374
Probable space group: P M M A
;
_chemical_formula_sum "Si O2"
_cell_formula_units_Z 64
_cell_length_a 19.176305
_cell_length_b 19.465189
_cell_length_c 9.757677
_cell_angle_alpha 90.000000
_cell_angle_beta 90.000000
_cell_angle_gamma 90.000000
_cell_volume 3642.252008
_symmetry_space_group_name_H-M "P M M A"
_symmetry_group_IT_number 51
_symmetry_cell_setting 'orthorhombic'
loop_
_space_group_symop_operation_xyz
x,y,z
1/2-x,-y,z
1/2+x,-y,-z
-x,y,-z
-x,-y,-z
1/2+x,y,-z
1/2-x,y,z
x,-y,z
loop_
_atom_site_type_symbol
_atom_site_label
_atom_site_fract_x
_atom_site_fract_y
_atom_site_fract_z
Si Si1 0.077363 0.077628 0.054443
Si Si2 0.526307 0.419773 0.144973
Si Si3 0.544606 0.677972 0.639280
Si Si4 0.671009 0.311235 0.469343
Si Si5 0.829699 0.077512 0.193646
Si Si6 0.452819 0.170910 0.303653
Si Si7 0.395101 0.169624 0.595437
Si Si8 0.825393 0.422125 0.238193
O O1 0.082889 0.128677 0.182403
O O2 0.099677 0.000000 0.097592
O O3 0.127065 0.107165 0.935043
O O4 0.000000 0.077295 0.000000
O O5 0.509116 0.500000 0.162197
O O6 0.487997 0.382599 0.270945
O O7 0.609292 0.404708 0.141140
O O8 0.500000 0.391156 0.000000
O O9 0.500000 0.690103 0.500000
O O10 0.625045 0.662983 0.598645
O O11 0.546906 0.747754 0.727477
O O12 0.750000 0.291320 0.515233
O O13 0.632649 0.247745 0.392932
O O14 0.672601 0.374914 0.369334
O O15 0.750000 0.080545 0.148936
O O16 0.838860 0.120683 0.332993
O O17 0.854576 0.000000 0.224577
O O18 0.405833 0.152558 0.435849
O O19 0.533549 0.152608 0.324680
O O20 0.750000 0.412097 0.161819
O O21 0.832745 0.500000 0.291419
#
# Coordination Sequence:
#
# PCOD8207374 Si02
#       8
#     8   8   8   8   8   8   8   8
#     4  10  20  35  54  77 106 140 177 222 271 319
#     4  10  21  36  54  81 112 145 183 222 271 325
#     4  11  19  36  55  80 108 141 180 221 265 314
#     4  10  19  33  54  79 110 139 175 223 268 315
#     4  10  21  37  55  77 107 143 183 223 267 324
#     4  10  19  33  54  82 109 133 177 223 275 318
#     4  10  18  33  54  79 108 139 172 223 270 319
#     4   9  17  31  53  79 105 137 179 224 267 314
#
# _framework density 17.571546000000001
#
# number of rings (size 3 to 8) (size 9 to 14) (size 15 to 20)
#    0.000    2.000    5.000    0.375    0.000    1.750 
#    2.250    5.000    0.000    2.250    0.000    0.000 
#    0.000    0.000    0.000    0.000    0.000    0.000 
#
# Total GULP energy -793240.274886 kJ/mol
# GULP energy per Si atom -12394.379295 kJ/mol
# Density = 1.753155 g / cm^3
# Si number density = 17.571546 Si / 1000 Ang^3
#
#
#
# Elastic Constant Matrix: (Units=GPa)
#
#
# Indices 1 2 3 4 5 6 
#
# 1 109.8611 39.5867 51.1288 0.0000 0.0000 0.0000
# 2 39.5867 74.4192 52.6402 0.0000 0.0000 0.0000
# 3 51.1288 52.6402 85.2277 0.0000 0.0000 0.0000
# 4 0.0000 0.0000 0.0000 18.8495 0.0000 0.0000
# 5 0.0000 0.0000 0.0000 0.0000 26.8018 0.0000
# 6 0.0000 0.0000 0.0000 0.0000 0.0000 20.9233
#
#
#
# Elastic Compliance Matrix: (Units=1/GPa)
#
#
# Indices 1 2 3 4 5 6 
#
# 1 0.012877 -0.002461 -0.006205 0.000000 0.000000 0.000000
# 2 -0.002461 0.024333 -0.013553 0.000000 0.000000 0.000000
# 3 -0.006205 -0.013553 0.023827 0.000000 0.000000 0.000000
# 4 0.000000 0.000000 0.000000 0.053052 0.000000 0.000000
# 5 0.000000 0.000000 0.000000 0.000000 0.037311 0.000000
# 6 0.000000 0.000000 0.000000 0.000000 0.000000 0.047794
#
#
# Mechanical properties :
#
#
# Convention : Reuss Voigt Hill
#
# Bulk Modulus (GPa) = 60.24414 61.80214 61.02314
# Shear Modulus (GPa) = 20.06718 21.72507 20.89613
#
# Velocity S-wave (km/s) = 3.38306 3.52003 3.45222
# Velocity P-wave (km/s) = 7.04412 7.19506 7.11999
#
# Compressibility (1/GPa) = 0.01659913
#
# Stress axis : x y z
#
# Youngs Moduli (GPa) = 77.65842 41.09672 41.96972
#
# Poissons Ratio (x) = 0.10112 0.26043
# Poissons Ratio (y) = 0.19108 0.56881
# Poissons Ratio (z) = 0.48189 0.55698
#
# Static dielectric constant tensor:
#      x y z
#    x 3.693920 0.000000 0.000000 
#    y 0.000000 3.290170 0.000000 
#    z 0.000000 0.000000 3.047120 
# 
# 
# High freq. dielectric constant tensor:
#      x y z
#    x 1.690380 0.000000 0.000000 
#    y 0.000000 1.680180 0.000000 
#    z 0.000000 0.000000 1.651920 
# 
# From -- ./inp_files/10094.got.cif
#   From: 2010.03.12/outbox.cif.g09.slc.cpg/sg51_6_cif.got.tgz:10094.got - 2010.04.16 13:43:02.
