data_PCOD8207443
_publ_section_title
;
Structure prediction by ZEFSAII (Michael W. Deem and Ramdas Pophale) SiO2 
 PCOD8207443
Probable space group: P M M A
;
_chemical_formula_sum "Si O2"
_cell_formula_units_Z 48
_cell_length_a 16.327384
_cell_length_b 17.041521
_cell_length_c 9.415327
_cell_angle_alpha 90.000000
_cell_angle_beta 90.000000
_cell_angle_gamma 90.000000
_cell_volume 2619.753136
_symmetry_space_group_name_H-M "P M M A"
_symmetry_group_IT_number 51
_symmetry_cell_setting 'orthorhombic'
loop_
_space_group_symop_operation_xyz
x,y,z
1/2-x,-y,z
1/2+x,-y,-z
-x,y,-z
-x,-y,-z
1/2+x,y,-z
1/2-x,y,z
x,-y,z
loop_
_atom_site_type_symbol
_atom_site_label
_atom_site_fract_x
_atom_site_fract_y
_atom_site_fract_z
Si Si1 0.154042 0.781439 0.016985
Si Si2 0.067936 0.253011 0.301299
Si Si3 0.500966 0.412787 0.668959
Si Si4 0.654512 0.913712 0.198158
Si Si5 0.112855 0.789176 0.601089
Si Si6 0.160199 0.657468 0.788863
O O1 0.250000 0.789656 0.051224
O O2 0.102690 0.786876 0.161112
O O3 0.121139 0.853784 0.921425
O O4 0.136562 0.698235 0.939213
O O5 0.123224 0.224463 0.433178
O O6 0.065829 0.347784 0.277047
O O7 0.976846 0.226953 0.336823
O O8 0.500000 0.402768 0.500000
O O9 0.531378 0.500000 0.711249
O O10 0.410342 0.401942 0.737217
O O11 0.750000 0.923570 0.177029
O O12 0.636469 0.877931 0.355036
O O13 0.612786 0.000000 0.185284
O O14 0.173129 0.727964 0.676683
O O15 0.250000 0.615389 0.799791
#
# Coordination Sequence:
#
# PCOD8207443 Si02
#       6
#     8   8   8   8   8   8
#     4   9  19  33  53  76 102 138 177 214 257 311
#     4  10  18  34  50  77 105 135 172 216 254 307
#     4  10  19  34  53  76 104 133 171 217 266 307
#     4   9  18  34  53  75 103 134 171 214 258 307
#     4   9  17  31  51  75 100 136 173 209 253 305
#     4   9  17  32  51  74  99 133 178 216 252 307
#
# _framework density 18.322337000000001
#
# number of rings (size 3 to 8) (size 9 to 14) (size 15 to 20)
#    0.000    2.667    3.333    1.500    0.000    7.667 
#    0.000    5.833    0.000    3.500    0.000    0.000 
#    0.000    0.000    0.000    0.000    0.000    0.000 
#
# Total GULP energy -594721.604824 kJ/mol
# GULP energy per Si atom -12390.033434 kJ/mol
# Density = 1.828063 g / cm^3
# Si number density = 18.322337 Si / 1000 Ang^3
#
#
#
# Elastic Constant Matrix: (Units=GPa)
#
#
# Indices 1 2 3 4 5 6 
#
# 1 34.0707 14.0479 32.9428 0.0000 0.0000 0.0000
# 2 14.0479 113.8867 38.4368 0.0000 0.0000 0.0000
# 3 32.9428 38.4368 113.9632 0.0000 0.0000 0.0000
# 4 0.0000 0.0000 0.0000 17.9588 0.0000 0.0000
# 5 0.0000 0.0000 0.0000 0.0000 20.3135 0.0000
# 6 0.0000 0.0000 0.0000 0.0000 0.0000 15.8825
#
#
#
# Elastic Compliance Matrix: (Units=1/GPa)
#
#
# Indices 1 2 3 4 5 6 
#
# 1 0.040879 -0.001190 -0.011415 0.000000 0.000000 0.000000
# 2 -0.001190 0.009943 -0.003010 0.000000 0.000000 0.000000
# 3 -0.011415 -0.003010 0.013090 0.000000 0.000000 0.000000
# 4 0.000000 0.000000 0.000000 0.055683 0.000000 0.000000
# 5 0.000000 0.000000 0.000000 0.000000 0.049228 0.000000
# 6 0.000000 0.000000 0.000000 0.000000 0.000000 0.062962
#
#
# Mechanical properties :
#
#
# Convention : Reuss Voigt Hill
#
# Bulk Modulus (GPa) = 30.59778 48.08618 39.34198
# Shear Modulus (GPa) = 18.25426 22.59718 20.42572
#
# Velocity S-wave (km/s) = 3.15982 3.51567 3.34248
# Velocity P-wave (km/s) = 5.48166 6.54075 6.03449
#
# Compressibility (1/GPa) = 0.03268211
#
# Stress axis : x y z
#
# Youngs Moduli (GPa) = 24.46254 100.57152 76.39626
#
# Poissons Ratio (x) = 0.11965 0.87209
# Poissons Ratio (y) = 0.02910 0.22993
# Poissons Ratio (z) = 0.27925 0.30269
#
# Static dielectric constant tensor:
#      x y z
#    x 3.325430 0.000000 0.000000 
#    y 0.000000 3.617130 0.000000 
#    z 0.000000 0.000000 3.381060 
# 
# 
# High freq. dielectric constant tensor:
#      x y z
#    x 1.694270 0.000000 0.000000 
#    y 0.000000 1.694190 0.000000 
#    z 0.000000 0.000000 1.702980 
# 
# From -- ./inp_files/9812.got.cif
#   From: 2010.03.12/outbox.cif.g09.slc.cpg/sg51_5_cif.got.tgz:9812.got - 2010.04.16 13:43:02.
