data_PCOD8207408
_publ_section_title
;
Structure prediction by ZEFSAII (Michael W. Deem and Ramdas Pophale) SiO2 
 PCOD8207408
Probable space group: P M M A
;
_chemical_formula_sum "Si O2"
_cell_formula_units_Z 48
_cell_length_a 8.986265
_cell_length_b 16.995353
_cell_length_c 15.391200
_cell_angle_alpha 90.000000
_cell_angle_beta 90.000000
_cell_angle_gamma 90.000000
_cell_volume 2350.617108
_symmetry_space_group_name_H-M "P M M A"
_symmetry_group_IT_number 51
_symmetry_cell_setting 'orthorhombic'
loop_
_space_group_symop_operation_xyz
x,y,z
1/2-x,-y,z
1/2+x,-y,-z
-x,y,-z
-x,-y,-z
1/2+x,y,-z
1/2-x,y,z
x,-y,z
loop_
_atom_site_type_symbol
_atom_site_label
_atom_site_fract_x
_atom_site_fract_y
_atom_site_fract_z
Si Si1 0.426049 0.677511 0.588681
Si Si2 0.426138 0.686211 0.085664
Si Si3 0.924626 0.842677 0.142771
Si Si4 0.416705 0.000000 0.349570
Si Si5 0.580172 0.000000 0.857360
Si Si6 0.577739 0.154485 0.345617
Si Si7 0.421261 0.591866 0.255970
O O1 0.500000 0.647546 0.500000
O O2 0.250000 0.671439 0.581131
O O3 0.478064 0.767063 0.606163
O O4 0.477751 0.620887 0.665415
O O5 0.250000 0.690049 0.074633
O O6 0.491694 0.773347 0.093834
O O7 0.473575 0.634249 0.168008
O O8 0.500000 0.647370 0.000000
O O9 0.750000 0.840098 0.122070
O O10 0.957753 0.833673 0.244595
O O11 0.993650 0.923860 0.106935
O O12 0.426164 0.000000 0.246265
O O13 0.493817 0.079065 0.385512
O O14 0.250000 0.000000 0.384742
O O15 0.750000 0.000000 0.890648
O O16 0.750000 0.138884 0.361016
O O17 0.250000 0.611975 0.277028
O O18 0.446513 0.500000 0.242343
#
# Coordination Sequence:
#
# PCOD8207408 Si02
#       7
#     8   8   8   4   4   8   8
#     4  11  23  40  63  93 124 161 203 249 302 360
#     4  11  23  39  62  91 124 160 200 247 299 359
#     4  10  18  33  56  83 117 158 204 251 300 353
#     4   9  17  27  48  81 114 152 202 249 294 346
#     4   9  17  29  48  81 118 156 203 249 299 353
#     4   9  18  33  54  80 116 157 200 247 298 351
#     4  10  23  44  68  93 122 157 197 245 301 361
#
# _framework density 20.420169999999999
#
# number of rings (size 3 to 8) (size 9 to 14) (size 15 to 20)
#    0.000    2.000    1.667    2.000    0.000    5.667 
#    0.000    0.833    0.000    0.000    0.000    0.000 
#    0.000    0.000    0.000    0.000    0.000    0.000 
#
# Total GULP energy -595380.868805 kJ/mol
# GULP energy per Si atom -12403.768100 kJ/mol
# Density = 2.037369 g / cm^3
# Si number density = 20.420170 Si / 1000 Ang^3
#
#
#
# Elastic Constant Matrix: (Units=GPa)
#
#
# Indices 1 2 3 4 5 6 
#
# 1 95.2590 44.7316 51.1160 0.0000 0.0000 0.0000
# 2 44.7316 112.8606 49.8382 0.0000 0.0000 0.0000
# 3 51.1160 49.8382 104.0583 0.0000 0.0000 0.0000
# 4 0.0000 0.0000 0.0000 1.1816 0.0000 0.0000
# 5 0.0000 0.0000 0.0000 0.0000 29.6545 0.0000
# 6 0.0000 0.0000 0.0000 0.0000 0.0000 32.2346
#
#
#
# Elastic Compliance Matrix: (Units=1/GPa)
#
#
# Indices 1 2 3 4 5 6 
#
# 1 0.015257 -0.003472 -0.005832 0.000000 0.000000 0.000000
# 2 -0.003472 0.012027 -0.004055 0.000000 0.000000 0.000000
# 3 -0.005832 -0.004055 0.014417 0.000000 0.000000 0.000000
# 4 0.000000 0.000000 0.000000 0.846302 0.000000 0.000000
# 5 0.000000 0.000000 0.000000 0.000000 0.033722 0.000000
# 6 0.000000 0.000000 0.000000 0.000000 0.000000 0.031023
#
#
# Mechanical properties :
#
#
# Convention : Reuss Voigt Hill
#
# Bulk Modulus (GPa) = 66.73780 67.06104 66.89942
# Shear Modulus (GPa) = 5.07893 23.71361 14.39627
#
# Velocity S-wave (km/s) = 1.57880 3.41146 2.65807
# Velocity P-wave (km/s) = 6.00639 6.95911 6.50023
#
# Compressibility (1/GPa) = 0.01498401
#
# Stress axis : x y z
#
# Youngs Moduli (GPa) = 65.54167 83.14539 69.36307
#
# Poissons Ratio (x) = 0.28867 0.40453
# Poissons Ratio (y) = 0.22755 0.28126
# Poissons Ratio (z) = 0.38224 0.33714
#
# Static dielectric constant tensor:
#      x y z
#    x 3.701220 0.000000 0.000000 
#    y 0.000000 3.755990 0.000000 
#    z 0.000000 0.000000 3.614300 
# 
# 
# High freq. dielectric constant tensor:
#      x y z
#    x 1.802040 0.000000 0.000000 
#    y 0.000000 1.799030 0.000000 
#    z 0.000000 0.000000 1.789330 
# 
# From -- ./inp_files/21198.got.cif
#   From: 2010.03.12/outbox.cif.g09.slc.cpg/sg51_11_cif.got.tgz:21198.got - 2010.04.16 13:43:02.
