data_PCOD8207075
_publ_section_title
;
Structure prediction by ZEFSAII (Michael W. Deem and Ramdas Pophale) SiO2 
 PCOD8207075
Probable space group: P M M A
;
_chemical_formula_sum "Si O2"
_cell_formula_units_Z 64
_cell_length_a 8.642612
_cell_length_b 25.843102
_cell_length_c 14.734075
_cell_angle_alpha 90.000000
_cell_angle_beta 90.000000
_cell_angle_gamma 90.000000
_cell_volume 3290.883697
_symmetry_space_group_name_H-M "P M M A"
_symmetry_group_IT_number 51
_symmetry_cell_setting 'orthorhombic'
loop_
_space_group_symop_operation_xyz
x,y,z
1/2-x,-y,z
1/2+x,-y,-z
-x,y,-z
-x,-y,-z
1/2+x,y,-z
1/2-x,y,z
x,-y,z
loop_
_atom_site_type_symbol
_atom_site_label
_atom_site_fract_x
_atom_site_fract_y
_atom_site_fract_z
Si Si1 0.066572 0.353817 0.403162
Si Si2 0.430597 0.556338 0.275738
Si Si3 0.567548 0.057930 0.404883
Si Si4 0.429530 0.390307 0.096734
Si Si5 0.566708 0.851295 0.275771
Si Si6 0.567648 0.818478 0.900333
Si Si7 0.433036 0.712212 0.900291
Si Si8 0.933521 0.236559 0.598236
O O1 0.250000 0.355974 0.406819
O O2 0.996495 0.396221 0.333120
O O3 0.015336 0.295345 0.376380
O O4 0.000000 0.369329 0.500000
O O5 0.250000 0.555587 0.297485
O O6 0.502661 0.500000 0.301733
O O7 0.456435 0.563658 0.167857
O O8 0.500000 0.077345 0.500000
O O9 0.750000 0.058797 0.413543
O O10 0.510961 0.097232 0.327743
O O11 0.507757 0.000000 0.381394
O O12 0.250000 0.376813 0.082529
O O13 0.513050 0.341016 0.146359
O O14 0.500000 0.406823 0.000000
O O15 0.750000 0.847186 0.269117
O O16 0.495813 0.858295 0.174663
O O17 0.503467 0.800572 0.325732
O O18 0.750000 0.821215 0.908065
O O19 0.513554 0.763030 0.859847
O O20 0.500000 0.830069 0.000000
O O21 0.250000 0.720035 0.898876
O O22 0.500000 0.704510 0.000000
O O23 0.750000 0.230143 0.595916
O O24 0.000000 0.220984 0.500000
#
# Coordination Sequence:
#
# PCOD8207075 Si02
#       8
#     8   8   8   8   8   8   8   8
#     4   9  19  36  56  77 101 134 171 215 268 324
#     4   9  19  35  54  75  99 132 175 218 266 327
#     4   9  19  36  58  84 117 155 194 237 282 328
#     4  10  19  32  52  75 102 136 173 215 266 321
#     4  11  22  35  55  85 117 151 191 233 279 331
#     4  11  22  37  55  78 112 150 190 232 278 328
#     4  10  18  31  50  74 102 135 174 217 265 318
#     4  10  20  34  53  79 112 147 181 223 277 337
#
# _framework density 19.447664
#
# number of rings (size 3 to 8) (size 9 to 14) (size 15 to 20)
#    0.000    2.125    0.000    5.250    1.750    3.000 
#    0.000    1.250    0.000    3.000    0.000    0.000 
#    0.000    0.000    0.000    0.000    0.000    0.000 
#
# Total GULP energy -793299.887907 kJ/mol
# GULP energy per Si atom -12395.310749 kJ/mol
# Density = 1.940340 g / cm^3
# Si number density = 19.447664 Si / 1000 Ang^3
#
#
#
# Elastic Constant Matrix: (Units=GPa)
#
#
# Indices 1 2 3 4 5 6 
#
# 1 86.0521 36.0309 40.3811 0.0000 0.0000 0.0000
# 2 36.0309 113.4460 74.0249 0.0000 0.0000 0.0000
# 3 40.3811 74.0249 124.2941 0.0000 0.0000 0.0000
# 4 0.0000 0.0000 0.0000 -33.2523 0.0000 0.0000
# 5 0.0000 0.0000 0.0000 0.0000 30.4588 0.0000
# 6 0.0000 0.0000 0.0000 0.0000 0.0000 18.1619
#
#
#
# Elastic Compliance Matrix: (Units=1/GPa)
#
#
# Indices 1 2 3 4 5 6 
#
# 1 0.014112 -0.002438 -0.003133 0.000000 0.000000 0.000000
# 2 -0.002438 0.014839 -0.008045 0.000000 0.000000 0.000000
# 3 -0.003133 -0.008045 0.013855 0.000000 0.000000 0.000000
# 4 0.000000 0.000000 0.000000 -0.030073 0.000000 0.000000
# 5 0.000000 0.000000 0.000000 0.000000 0.032831 0.000000
# 6 0.000000 0.000000 0.000000 0.000000 0.000000 0.055060
#
#
# Mechanical properties :
#
#
# Convention : Reuss Voigt Hill
#
# Bulk Modulus (GPa) = 64.21263 69.40735 66.80999
# Shear Modulus (GPa) = 37.58078 14.63070 26.10574
#
# Velocity S-wave (km/s) = 4.40068 2.74581 3.66780
# Velocity P-wave (km/s) = 7.67536 6.76900 7.23639
#
# Compressibility (1/GPa) = 0.01557326
#
# Stress axis : x y z
#
# Youngs Moduli (GPa) = 70.86327 67.39118 72.17717
#
# Poissons Ratio (x) = 0.16428 0.22612
# Poissons Ratio (y) = 0.17274 0.58070
# Poissons Ratio (z) = 0.22200 0.54219
#
# Static dielectric constant tensor:
#      x y z
#    x 3.453500 0.000000 0.000000 
#    y 0.000000 3.980360 0.000000 
#    z 0.000000 0.000000 3.432270 
# 
# 
# High freq. dielectric constant tensor:
#      x y z
#    x 1.750500 0.000000 0.000000 
#    y 0.000000 1.748130 0.000000 
#    z 0.000000 0.000000 1.754290 
# 
# From -- ./inp_files/22314.got.cif
#   From: 2010.03.12/outbox.cif.g09.slc.cpg/sg51_12_cif.got.tgz:22314.got - 2010.04.16 13:43:02.
