data_PCOD8207213
_publ_section_title
;
Structure prediction by ZEFSAII (Michael W. Deem and Ramdas Pophale) SiO2 
 PCOD8207213
Probable space group: P M M A
;
_chemical_formula_sum "Si O2"
_cell_formula_units_Z 48
_cell_length_a 9.009719
_cell_length_b 9.586500
_cell_length_c 29.621143
_cell_angle_alpha 90.000000
_cell_angle_beta 90.000000
_cell_angle_gamma 90.000000
_cell_volume 2558.427624
_symmetry_space_group_name_H-M "P M M A"
_symmetry_group_IT_number 51
_symmetry_cell_setting 'orthorhombic'
loop_
_space_group_symop_operation_xyz
x,y,z
1/2-x,-y,z
1/2+x,-y,-z
-x,y,-z
-x,-y,-z
1/2+x,y,-z
1/2-x,y,z
x,-y,z
loop_
_atom_site_type_symbol
_atom_site_label
_atom_site_fract_x
_atom_site_fract_y
_atom_site_fract_z
Si Si1 0.425841 0.254615 0.107947
Si Si2 0.073483 0.337974 0.206011
Si Si3 0.074029 0.162470 0.715508
Si Si4 0.573307 0.000000 0.950630
Si Si5 0.575154 0.159255 0.453541
Si Si6 0.073696 0.341013 0.629961
Si Si7 0.925279 0.500000 0.952625
O O1 0.250000 0.255701 0.111529
O O2 0.487308 0.277346 0.158434
O O3 0.484937 0.121732 0.081495
O O4 0.486081 0.372938 0.075737
O O5 0.250000 0.326733 0.209546
O O6 0.024357 0.500000 0.211912
O O7 0.000672 0.237849 0.242490
O O8 0.250000 0.172431 0.720529
O O9 0.017809 0.247289 0.671691
O O10 0.024330 0.000000 0.712275
O O11 0.750000 0.000000 0.958005
O O12 0.500000 0.000000 0.000000
O O13 0.500000 0.205526 0.500000
O O14 0.750000 0.173168 0.459535
O O15 0.515578 0.264377 0.415162
O O16 0.532061 0.000000 0.440625
O O17 0.250000 0.345451 0.629778
O O18 0.010728 0.500000 0.632820
O O19 0.750000 0.500000 0.958995
O O20 0.000000 0.500000 0.000000
#
# Coordination Sequence:
#
# PCOD8207213 Si02
#       7
#     8   8   8   4   8   8   4
#     4   9  18  33  53  74  98 132 169 204 247 305
#     4  10  20  36  57  80 105 136 176 218 260 313
#     4  10  21  36  55  80 108 138 174 219 267 316
#     4  10  20  34  52  74 100 132 168 206 249 298
#     4   9  17  30  49  73 101 135 174 215 258 307
#     4   9  17  31  52  75 101 137 178 215 258 314
#     4  10  18  32  52  74 100 128 164 204 245 296
#
# _framework density 18.761524000000001
#
# number of rings (size 3 to 8) (size 9 to 14) (size 15 to 20)
#    0.000    2.500    0.833    1.500    1.167    3.667 
#    0.000    2.500    0.000    3.000    0.000    0.000 
#    0.000    0.000    0.000    0.000    0.000    0.000 
#
# Total GULP energy -594848.053222 kJ/mol
# GULP energy per Si atom -12392.667775 kJ/mol
# Density = 1.871882 g / cm^3
# Si number density = 18.761524 Si / 1000 Ang^3
#
#
#
# Elastic Constant Matrix: (Units=GPa)
#
#
# Indices 1 2 3 4 5 6 
#
# 1 18.8933 27.6490 31.5018 0.0000 0.0000 0.0000
# 2 27.6490 194.0148 116.2564 0.0000 0.0000 0.0000
# 3 31.5018 116.2564 200.5915 0.0000 0.0000 0.0000
# 4 0.0000 0.0000 0.0000 -242.5639 0.0000 0.0000
# 5 0.0000 0.0000 0.0000 0.0000 32.8548 0.0000
# 6 0.0000 0.0000 0.0000 0.0000 0.0000 24.0882
#
#
#
# Elastic Compliance Matrix: (Units=1/GPa)
#
#
# Indices 1 2 3 4 5 6 
#
# 1 0.075474 -0.005597 -0.008609 0.000000 0.000000 0.000000
# 2 -0.005597 0.008312 -0.003938 0.000000 0.000000 0.000000
# 3 -0.008609 -0.003938 0.008620 0.000000 0.000000 0.000000
# 4 0.000000 0.000000 0.000000 -0.004123 0.000000 0.000000
# 5 0.000000 0.000000 0.000000 0.000000 0.030437 0.000000
# 6 0.000000 0.000000 0.000000 0.000000 0.000000 0.041514
#
#
# Mechanical properties :
#
#
# Convention : Reuss Voigt Hill
#
# Bulk Modulus (GPa) = 17.82000 84.92378 51.37189
# Shear Modulus (GPa) = 23.23123 -21.25135 0.98994
#
# Velocity S-wave (km/s) = 3.52268 -3.36923 0.72718
# Velocity P-wave (km/s) = 5.10534 5.49796 5.30528
#
# Compressibility (1/GPa) = 0.05611672
#
# Stress axis : x y z
#
# Youngs Moduli (GPa) = 13.24964 120.31186 116.01379
#
# Poissons Ratio (x) = 0.67342 0.99873
# Poissons Ratio (y) = 0.07416 0.45688
# Poissons Ratio (z) = 0.11406 0.47381
#
# Static dielectric constant tensor:
#      x y z
#    x 2.982100 0.000000 0.000000 
#    y 0.000000 5.299220 0.000000 
#    z 0.000000 0.000000 3.639260 
# 
# 
# High freq. dielectric constant tensor:
#      x y z
#    x 1.680700 0.000000 0.000000 
#    y 0.000000 1.746360 0.000000 
#    z 0.000000 0.000000 1.746160 
# 
# From -- ./inp_files/37203.got.cif
#   From: 2010.03.12/outbox.cif.g09.slc.cpg/sg51_19_cif.got.tgz:37203.got - 2010.04.16 13:43:02.
