data_PCOD8207249
_publ_section_title
;
Structure prediction by ZEFSAII (Michael W. Deem and Ramdas Pophale) SiO2 
 PCOD8207249
Probable space group: P M M A
;
_chemical_formula_sum "Si O2"
_cell_formula_units_Z 44
_cell_length_a 8.923822
_cell_length_b 17.491014
_cell_length_c 14.438569
_cell_angle_alpha 90.000000
_cell_angle_beta 90.000000
_cell_angle_gamma 90.000000
_cell_volume 2253.668523
_symmetry_space_group_name_H-M "P M M A"
_symmetry_group_IT_number 51
_symmetry_cell_setting 'orthorhombic'
loop_
_space_group_symop_operation_xyz
x,y,z
1/2-x,-y,z
1/2+x,-y,-z
-x,y,-z
-x,-y,-z
1/2+x,y,-z
1/2-x,y,z
x,-y,z
loop_
_atom_site_type_symbol
_atom_site_label
_atom_site_fract_x
_atom_site_fract_y
_atom_site_fract_z
Si Si1 0.081236 0.090956 0.908748
Si Si2 0.071509 0.500000 0.599502
Si Si3 0.428127 0.790281 0.598628
Si Si4 0.426100 0.411872 0.907030
Si Si5 0.572501 0.644662 0.286606
Si Si6 0.575972 0.089719 0.721468
O O1 0.250000 0.123651 0.904159
O O2 0.991938 0.118920 0.818565
O O3 0.083835 0.000000 0.913352
O O4 0.000000 0.124045 0.000000
O O5 0.250000 0.500000 0.591337
O O6 0.010572 0.425500 0.652847
O O7 0.000000 0.500000 0.500000
O O8 0.500000 0.772217 0.500000
O O9 0.250000 0.794539 0.588507
O O10 0.481510 0.724213 0.669294
O O11 0.490375 0.870223 0.636989
O O12 0.250000 0.403802 0.918070
O O13 0.472613 0.500000 0.891461
O O14 0.485880 0.363198 0.819087
O O15 0.500000 0.378384 0.000000
O O16 0.750000 0.639580 0.286155
O O17 0.750000 0.111165 0.719323
O O18 0.549646 0.000000 0.708741
#
# Coordination Sequence:
#
# PCOD8207249 Si02
#       6
#     8   4   8   8   8   8
#     4   9  16  28  50  81 114 145 177 217 268 326
#     4  10  18  32  53  78 106 140 181 222 263 312
#     4  11  23  39  58  80 108 143 183 230 287 344
#     4   9  16  30  53  80 110 145 183 221 261 311
#     4   9  18  34  56  79 108 147 183 217 266 327
#     4  10  21  38  59  82 108 142 187 236 286 341
#
# _framework density 19.523723
#
# number of rings (size 3 to 8) (size 9 to 14) (size 15 to 20)
#    0.000    2.364    0.909    2.182    0.000    3.636 
#    0.000    4.545    0.000    2.182    0.000    0.000 
#    0.000    0.000    0.000    0.000    0.000    0.000 
#
# Total GULP energy -545629.748768 kJ/mol
# GULP energy per Si atom -12400.676108 kJ/mol
# Density = 1.947929 g / cm^3
# Si number density = 19.523723 Si / 1000 Ang^3
#
#
#
# Elastic Constant Matrix: (Units=GPa)
#
#
# Indices 1 2 3 4 5 6 
#
# 1 86.3910 38.5231 56.4954 0.0000 0.0000 0.0000
# 2 38.5231 65.9626 57.4512 0.0000 0.0000 0.0000
# 3 56.4954 57.4512 185.2612 0.0000 0.0000 0.0000
# 4 0.0000 0.0000 0.0000 30.9203 0.0000 0.0000
# 5 0.0000 0.0000 0.0000 0.0000 40.7546 0.0000
# 6 0.0000 0.0000 0.0000 0.0000 0.0000 13.8279
#
#
#
# Elastic Compliance Matrix: (Units=1/GPa)
#
#
# Indices 1 2 3 4 5 6 
#
# 1 0.016667 -0.007271 -0.002828 0.000000 0.000000 0.000000
# 2 -0.007271 0.023942 -0.005207 0.000000 0.000000 0.000000
# 3 -0.002828 -0.005207 0.007875 0.000000 0.000000 0.000000
# 4 0.000000 0.000000 0.000000 0.032341 0.000000 0.000000
# 5 0.000000 0.000000 0.000000 0.000000 0.024537 0.000000
# 6 0.000000 0.000000 0.000000 0.000000 0.000000 0.072318
#
#
# Mechanical properties :
#
#
# Convention : Reuss Voigt Hill
#
# Bulk Modulus (GPa) = 55.95435 71.39490 63.67463
# Shear Modulus (GPa) = 23.33745 29.44357 26.39051
#
# Velocity S-wave (km/s) = 3.46112 3.88763 3.68056
# Velocity P-wave (km/s) = 6.68538 7.53653 7.12368
#
# Compressibility (1/GPa) = 0.01787171
#
# Stress axis : x y z
#
# Youngs Moduli (GPa) = 60.00021 41.76816 126.98459
#
# Poissons Ratio (x) = 0.30368 0.35909
# Poissons Ratio (y) = 0.43624 0.66125
# Poissons Ratio (z) = 0.16967 0.21750
#
# Static dielectric constant tensor:
#      x y z
#    x 3.387110 0.000000 0.000000 
#    y 0.000000 3.409340 0.000000 
#    z 0.000000 0.000000 3.770970 
# 
# 
# High freq. dielectric constant tensor:
#      x y z
#    x 1.746200 0.000000 0.000000 
#    y 0.000000 1.737250 0.000000 
#    z 0.000000 0.000000 1.776080 
# 
# From -- ./inp_files/20885.got.cif
#   From: 2010.03.12/outbox.cif.g09.slc.cpg/sg51_11_cif.got.tgz:20885.got - 2010.04.16 13:43:02.
