data_PCOD8207649
_publ_section_title
;
Structure prediction by ZEFSAII (Michael W. Deem and Ramdas Pophale) SiO2 
 PCOD8207649
Probable space group: P M M A
;
_chemical_formula_sum "Si O2"
_cell_formula_units_Z 64
_cell_length_a 35.475192
_cell_length_b 9.185918
_cell_length_c 12.505475
_cell_angle_alpha 90.000000
_cell_angle_beta 90.000000
_cell_angle_gamma 90.000000
_cell_volume 4075.186710
_symmetry_space_group_name_H-M "P M M A"
_symmetry_group_IT_number 51
_symmetry_cell_setting 'orthorhombic'
loop_
_space_group_symop_operation_xyz
x,y,z
1/2-x,-y,z
1/2+x,-y,-z
-x,y,-z
-x,-y,-z
1/2+x,y,-z
1/2-x,y,z
x,-y,z
loop_
_atom_site_type_symbol
_atom_site_label
_atom_site_fract_x
_atom_site_fract_y
_atom_site_fract_z
Si Si1 0.207485 0.328873 0.200132
Si Si2 0.573871 0.164726 0.377940
Si Si3 0.851704 0.329656 0.385371
Si Si4 0.501095 0.664954 0.372433
Si Si5 0.206045 0.830403 0.758371
Si Si6 0.145435 0.669402 0.366900
Si Si7 0.705236 0.839035 0.004295
Si Si8 0.071578 0.164306 0.367740
O O1 0.250000 0.271176 0.222012
O O2 0.207526 0.500000 0.187378
O O3 0.181484 0.279174 0.298584
O O4 0.190621 0.266146 0.089394
O O5 0.611502 0.247366 0.340689
O O6 0.537932 0.249926 0.330423
O O7 0.571370 0.164037 0.504973
O O8 0.574281 0.000000 0.333198
O O9 0.856948 0.500000 0.363862
O O10 0.815247 0.270601 0.325383
O O11 0.845415 0.296522 0.510225
O O12 0.500000 0.664491 0.500000
O O13 0.501978 0.500000 0.328749
O O14 0.464465 0.746337 0.325304
O O15 0.250000 0.797094 0.744022
O O16 0.197570 0.000000 0.736145
O O17 0.191984 0.787357 0.877974
O O18 0.136322 0.500000 0.349892
O O19 0.109397 0.758899 0.325527
O O20 0.750000 0.842817 0.006157
O O21 0.689337 0.000000 0.980560
O O22 0.069718 0.000000 0.323073
#
# Coordination Sequence:
#
# PCOD8207649 Si02
#       8
#     8   8   8   8   8   8   8   8
#     4   9  17  29  45  63  83 109 141 177 216 256
#     4   9  16  26  39  55  79 110 142 175 210 248
#     4  10  19  29  42  61  86 116 148 178 209 250
#     4   9  15  23  37  56  78 105 138 174 211 250
#     4   9  18  32  47  62  83 111 141 176 219 260
#     4   9  18  30  41  57  86 119 145 173 212 253
#     4   8  15  29  47  64  81 102 132 174 221 261
#     4   9  16  25  38  56  78 107 143 177 208 246
#
# _framework density 15.704803
#
# number of rings (size 3 to 8) (size 9 to 14) (size 15 to 20)
#    0.000    3.000    0.000    2.250    0.000    6.750 
#    0.000    2.500    0.000    1.500    0.000    0.000 
#    0.000    1.000    0.000   10.500    0.000    8.875 
#
# Total GULP energy -793413.841149 kJ/mol
# GULP energy per Si atom -12397.091268 kJ/mol
# Density = 1.566906 g / cm^3
# Si number density = 15.704803 Si / 1000 Ang^3
#
#
#
# Elastic Constant Matrix: (Units=GPa)
#
#
# Indices 1 2 3 4 5 6 
#
# 1 101.8728 60.8733 41.3092 0.0000 0.0000 0.0000
# 2 60.8733 98.3517 35.2032 0.0000 0.0000 0.0000
# 3 41.3092 35.2032 51.6486 0.0000 0.0000 0.0000
# 4 0.0000 0.0000 0.0000 19.7513 0.0000 0.0000
# 5 0.0000 0.0000 0.0000 0.0000 1.3778 0.0000
# 6 0.0000 0.0000 0.0000 0.0000 0.0000 30.7190
#
#
#
# Elastic Compliance Matrix: (Units=1/GPa)
#
#
# Indices 1 2 3 4 5 6 
#
# 1 0.018370 -0.008083 -0.009183 0.000000 0.000000 0.000000
# 2 -0.008083 0.017005 -0.005126 0.000000 0.000000 0.000000
# 3 -0.009183 -0.005126 0.030200 0.000000 0.000000 0.000000
# 4 0.000000 0.000000 0.000000 0.050630 0.000000 0.000000
# 5 0.000000 0.000000 0.000000 0.000000 0.725788 0.000000
# 6 0.000000 0.000000 0.000000 0.000000 0.000000 0.032553
#
#
# Mechanical properties :
#
#
# Convention : Reuss Voigt Hill
#
# Bulk Modulus (GPa) = 48.09681 58.51607 53.30644
# Shear Modulus (GPa) = 5.39806 18.00212 11.70009
#
# Velocity S-wave (km/s) = 1.85598 3.38935 2.73243
# Velocity P-wave (km/s) = 5.94011 7.25657 6.63109
#
# Compressibility (1/GPa) = 0.02079140
#
# Stress axis : x y z
#
# Youngs Moduli (GPa) = 54.43753 58.80655 33.11243
#
# Poissons Ratio (x) = 0.47531 0.30408
# Poissons Ratio (y) = 0.44000 0.16973
# Poissons Ratio (z) = 0.49991 0.30143
#
# Static dielectric constant tensor:
#      x y z
#    x 3.038430 0.000000 0.000000 
#    y 0.000000 3.143930 0.000000 
#    z 0.000000 0.000000 2.692160 
# 
# 
# High freq. dielectric constant tensor:
#      x y z
#    x 1.597990 0.000000 0.000000 
#    y 0.000000 1.613820 0.000000 
#    z 0.000000 0.000000 1.549840 
# 
# From -- ./inp_files/19516.got.cif
#   From: 2010.03.12/outbox.cif.g09.slc.cpg/sg51_10_cif.got.tgz:19516.got - 2010.04.16 13:43:02.
