data_PCOD8207526
_publ_section_title
;
Structure prediction by ZEFSAII (Michael W. Deem and Ramdas Pophale) SiO2 
 PCOD8207526
Probable space group: P M M A
;
_chemical_formula_sum "Si O2"
_cell_formula_units_Z 64
_cell_length_a 27.176745
_cell_length_b 14.914403
_cell_length_c 8.374525
_cell_angle_alpha 90.000000
_cell_angle_beta 90.000000
_cell_angle_gamma 90.000000
_cell_volume 3394.403736
_symmetry_space_group_name_H-M "P M M A"
_symmetry_group_IT_number 51
_symmetry_cell_setting 'orthorhombic'
loop_
_space_group_symop_operation_xyz
x,y,z
1/2-x,-y,z
1/2+x,-y,-z
-x,y,-z
-x,-y,-z
1/2+x,y,-z
1/2-x,y,z
x,-y,z
loop_
_atom_site_type_symbol
_atom_site_label
_atom_site_fract_x
_atom_site_fract_y
_atom_site_fract_z
Si Si1 0.354764 0.771553 0.000464
Si Si2 0.915071 0.300178 0.717579
Si Si3 0.195686 0.904036 0.215697
Si Si4 0.919322 0.103001 0.208280
Si Si5 0.019396 0.259076 0.676471
Si Si6 0.361412 0.839800 0.497219
Si Si7 0.600169 0.600563 0.419013
Si Si8 0.807994 0.304688 0.310833
O O1 0.391726 0.847865 0.936858
O O2 0.326440 0.715294 0.867930
O O3 0.382542 0.703856 0.122019
O O4 0.312852 0.823187 0.096051
O O5 0.902426 0.221013 0.590263
O O6 0.905704 0.389543 0.611873
O O7 0.972181 0.296588 0.773493
O O8 0.250000 0.892996 0.284214
O O9 0.160354 0.906162 0.367749
O O10 0.188946 0.000000 0.127041
O O11 0.967075 0.163427 0.245517
O O12 0.885658 0.100750 0.365445
O O13 0.933306 0.000000 0.162805
O O14 0.065613 0.328639 0.679379
O O15 0.000000 0.243789 0.500000
O O16 0.317957 0.779582 0.573843
O O17 0.584250 0.500000 0.372426
O O18 0.657570 0.614134 0.372627
O O19 0.750000 0.330039 0.313401
#
# Coordination Sequence:
#
# PCOD8207526 Si02
#       8
#     8   8   8   8   8   8   8   8
#     4  10  20  36  51  76 113 156 182 225 277 337
#     4   9  19  35  58  77 115 144 180 231 281 326
#     4  10  19  30  47  74 106 144 195 243 278 319
#     4  11  20  33  53  79 114 154 193 229 270 327
#     4  10  18  37  56  84 108 145 187 236 283 320
#     4   9  17  34  50  77 105 147 189 237 270 320
#     4  10  20  38  63  88 108 136 185 234 284 336
#     4  10  19  35  58  81 109 147 183 221 278 335
#
# _framework density 18.854562999999999
#
# number of rings (size 3 to 8) (size 9 to 14) (size 15 to 20)
#    0.000    2.125    5.000    1.500    0.000    3.250 
#    0.000    3.125    0.000    6.750    0.000    0.000 
#    0.000    0.000    0.000    0.000    0.000    0.000 
#
# Total GULP energy -793062.472643 kJ/mol
# GULP energy per Si atom -12391.601135 kJ/mol
# Density = 1.881165 g / cm^3
# Si number density = 18.854563 Si / 1000 Ang^3
#
#
#
# Elastic Constant Matrix: (Units=GPa)
#
#
# Indices 1 2 3 4 5 6 
#
# 1 127.6329 34.7251 21.7757 0.0000 0.0000 0.0000
# 2 34.7251 85.8357 15.2138 0.0000 0.0000 0.0000
# 3 21.7757 15.2138 59.6386 0.0000 0.0000 0.0000
# 4 0.0000 0.0000 0.0000 18.1383 0.0000 0.0000
# 5 0.0000 0.0000 0.0000 0.0000 19.3430 0.0000
# 6 0.0000 0.0000 0.0000 0.0000 0.0000 11.9521
#
#
#
# Elastic Compliance Matrix: (Units=1/GPa)
#
#
# Indices 1 2 3 4 5 6 
#
# 1 0.009149 -0.003256 -0.002510 0.000000 0.000000 0.000000
# 2 -0.003256 0.013361 -0.002219 0.000000 0.000000 0.000000
# 3 -0.002510 -0.002219 0.018250 0.000000 0.000000 0.000000
# 4 0.000000 0.000000 0.000000 0.055132 0.000000 0.000000
# 5 0.000000 0.000000 0.000000 0.000000 0.051698 0.000000
# 6 0.000000 0.000000 0.000000 0.000000 0.000000 0.083667
#
#
# Mechanical properties :
#
#
# Convention : Reuss Voigt Hill
#
# Bulk Modulus (GPa) = 40.34055 46.28182 43.31119
# Shear Modulus (GPa) = 19.57008 23.31286 21.44147
#
# Velocity S-wave (km/s) = 3.22522 3.52014 3.37590
# Velocity P-wave (km/s) = 5.94234 6.41264 6.18197
#
# Compressibility (1/GPa) = 0.02478895
#
# Stress axis : x y z
#
# Youngs Moduli (GPa) = 109.29950 74.84504 54.79376
#
# Poissons Ratio (x) = 0.24373 0.13753
# Poissons Ratio (y) = 0.35593 0.12161
# Poissons Ratio (z) = 0.27433 0.16611
#
# Static dielectric constant tensor:
#      x y z
#    x 3.703440 0.000000 0.000000 
#    y 0.000000 3.203730 0.000000 
#    z 0.000000 0.000000 3.417150 
# 
# 
# High freq. dielectric constant tensor:
#      x y z
#    x 1.736880 0.000000 0.000000 
#    y 0.000000 1.703660 0.000000 
#    z 0.000000 0.000000 1.725650 
# 
# From -- ./inp_files/13258.got.cif
#   From: 2010.03.12/outbox.cif.g09.slc.cpg/sg51_7_cif.got.tgz:13258.got - 2010.04.16 13:43:02.
