data_PCOD8207220
_publ_section_title
;
Structure prediction by ZEFSAII (Michael W. Deem and Ramdas Pophale) SiO2 
 PCOD8207220
Probable space group: P M M A
;
_chemical_formula_sum "Si O2"
_cell_formula_units_Z 44
_cell_length_a 8.814492
_cell_length_b 14.009468
_cell_length_c 20.795388
_cell_angle_alpha 90.000000
_cell_angle_beta 90.000000
_cell_angle_gamma 90.000000
_cell_volume 2567.946428
_symmetry_space_group_name_H-M "P M M A"
_symmetry_group_IT_number 51
_symmetry_cell_setting 'orthorhombic'
loop_
_space_group_symop_operation_xyz
x,y,z
1/2-x,-y,z
1/2+x,-y,-z
-x,y,-z
-x,-y,-z
1/2+x,y,-z
1/2-x,y,z
x,-y,z
loop_
_atom_site_type_symbol
_atom_site_label
_atom_site_fract_x
_atom_site_fract_y
_atom_site_fract_z
Si Si1 0.071206 0.794087 0.691124
Si Si2 0.080971 0.887533 0.191683
Si Si3 0.428649 0.889653 0.432230
Si Si4 0.579104 0.886137 0.064363
Si Si5 0.925095 0.604283 0.675240
Si Si6 0.930004 0.500000 0.430970
O O1 0.250000 0.794703 0.683489
O O2 0.023808 0.865018 0.747637
O O3 0.997197 0.825496 0.624150
O O4 0.011650 0.688909 0.712086
O O5 0.250000 0.844528 0.200998
O O6 0.008936 0.845031 0.126412
O O7 0.090897 0.000000 0.185109
O O8 0.500000 0.857597 0.500000
O O9 0.250000 0.872784 0.435238
O O10 0.468431 0.000000 0.417900
O O11 0.750000 0.847035 0.066406
O O12 0.577462 0.000000 0.064569
O O13 0.500000 0.846625 0.000000
O O14 0.750000 0.632124 0.665845
O O15 0.939898 0.500000 0.711061
O O16 0.006709 0.594170 0.605608
O O17 0.750000 0.500000 0.433113
O O18 0.000000 0.500000 0.500000
#
# Coordination Sequence:
#
# PCOD8207220 Si02
#       6
#     8   8   8   8   8   4
#     4  12  23  34  52  75 100 129 163 206 251 301
#     4  10  20  33  49  71 101 137 175 212 249 292
#     4  10  21  37  54  71  94 125 163 205 247 294
#     4   9  16  27  44  67  97 133 171 208 247 292
#     4   9  20  37  54  71  93 122 154 195 243 295
#     4  10  18  32  52  74  96 118 147 186 237 294
#
# _framework density 17.134312999999999
#
# number of rings (size 3 to 8) (size 9 to 14) (size 15 to 20)
#    0.545    1.455    0.000    4.909    0.000    7.273 
#    0.000    3.636    0.000    0.000    0.000    0.000 
#    0.000    0.727    0.000    2.727    0.000    4.182 
#
# Total GULP energy -545429.666729 kJ/mol
# GULP energy per Si atom -12396.128789 kJ/mol
# Density = 1.709531 g / cm^3
# Si number density = 17.134313 Si / 1000 Ang^3
#
#
#
# Elastic Constant Matrix: (Units=GPa)
#
#
# Indices 1 2 3 4 5 6 
#
# 1 138.2288 28.9469 46.4906 0.0000 0.0000 0.0000
# 2 28.9469 40.1088 20.0608 0.0000 0.0000 0.0000
# 3 46.4906 20.0608 100.2413 0.0000 0.0000 0.0000
# 4 0.0000 0.0000 0.0000 4.1369 0.0000 0.0000
# 5 0.0000 0.0000 0.0000 0.0000 32.9463 0.0000
# 6 0.0000 0.0000 0.0000 0.0000 0.0000 24.1638
#
#
#
# Elastic Compliance Matrix: (Units=1/GPa)
#
#
# Indices 1 2 3 4 5 6 
#
# 1 0.009436 -0.005135 -0.003349 0.000000 0.000000 0.000000
# 2 -0.005135 0.030500 -0.003722 0.000000 0.000000 0.000000
# 3 -0.003349 -0.003722 0.012274 0.000000 0.000000 0.000000
# 4 0.000000 0.000000 0.000000 0.241725 0.000000 0.000000
# 5 0.000000 0.000000 0.000000 0.000000 0.030352 0.000000
# 6 0.000000 0.000000 0.000000 0.000000 0.000000 0.041384
#
#
# Mechanical properties :
#
#
# Convention : Reuss Voigt Hill
#
# Bulk Modulus (GPa) = 35.97397 52.17503 44.07450
# Shear Modulus (GPa) = 12.52037 24.45478 18.48758
#
# Velocity S-wave (km/s) = 2.70611 3.78198 3.28835
# Velocity P-wave (km/s) = 5.55022 7.04187 6.34006
#
# Compressibility (1/GPa) = 0.02779788
#
# Stress axis : x y z
#
# Youngs Moduli (GPa) = 105.97709 32.78693 81.47393
#
# Poissons Ratio (x) = 0.16837 0.27282
# Poissons Ratio (y) = 0.54421 0.30326
# Poissons Ratio (z) = 0.35488 0.12204
#
# Static dielectric constant tensor:
#      x y z
#    x 3.485330 0.000000 0.000000 
#    y 0.000000 3.047710 0.000000 
#    z 0.000000 0.000000 3.110100 
# 
# 
# High freq. dielectric constant tensor:
#      x y z
#    x 1.685800 0.000000 0.000000 
#    y 0.000000 1.621640 0.000000 
#    z 0.000000 0.000000 1.645320 
# 
# From -- ./inp_files/27412.got.cif
#   From: 2010.03.12/outbox.cif.g09.slc.cpg/sg51_14_cif.got.tgz:27412.got - 2010.04.16 13:43:02.
