data_PCOD8207917
_publ_section_title
;
Structure prediction by ZEFSAII (Michael W. Deem and Ramdas Pophale) SiO2 
 PCOD8207917
Probable space group: P M M A
;
_chemical_formula_sum "Si O2"
_cell_formula_units_Z 56
_cell_length_a 8.990227
_cell_length_b 21.750281
_cell_length_c 18.140828
_cell_angle_alpha 90.000000
_cell_angle_beta 90.000000
_cell_angle_gamma 90.000000
_cell_volume 3547.256845
_symmetry_space_group_name_H-M "P M M A"
_symmetry_group_IT_number 51
_symmetry_cell_setting 'orthorhombic'
loop_
_space_group_symop_operation_xyz
x,y,z
1/2-x,-y,z
1/2+x,-y,-z
-x,y,-z
-x,-y,-z
1/2+x,y,-z
1/2-x,y,z
x,-y,z
loop_
_atom_site_type_symbol
_atom_site_label
_atom_site_fract_x
_atom_site_fract_y
_atom_site_fract_z
Si Si1 0.927088 0.205047 0.579012
Si Si2 0.421907 0.069112 0.178062
Si Si3 0.914363 0.249987 0.196585
Si Si4 0.575956 0.181016 0.921940
Si Si5 0.416644 0.867219 0.698834
Si Si6 0.575524 0.685302 0.336730
Si Si7 0.923623 0.431419 0.424994
O O1 0.750000 0.203623 0.573180
O O2 0.000000 0.197478 0.500000
O O3 0.983209 0.147354 0.627670
O O4 0.977577 0.269548 0.613704
O O5 0.250000 0.081734 0.196000
O O6 0.475587 0.116608 0.114975
O O7 0.511615 0.077612 0.254029
O O8 0.448932 0.000000 0.148629
O O9 0.750000 0.260917 0.162922
O O10 0.912748 0.192251 0.250353
O O11 0.962728 0.307086 0.249293
O O12 0.027899 0.238482 0.129650
O O13 0.750000 0.183934 0.933908
O O14 0.500000 0.187461 0.000000
O O15 0.250000 0.885961 0.674347
O O16 0.750000 0.700754 0.349999
O O17 0.535915 0.615511 0.359294
O O18 0.750000 0.431129 0.440975
O O19 0.978194 0.500000 0.402478
O O20 0.000000 0.408935 0.500000
#
# Coordination Sequence:
#
# PCOD8207917 Si02
#       7
#     8   8   8   8   8   8   8
#     4  11  20  29  43  63  86 111 141 180 225 267
#     4   9  18  32  48  66  88 115 146 175 204 245
#     4   8  15  28  44  61  83 110 140 176 215 255
#     4  10  19  30  45  65  90 117 142 171 209 253
#     4   9  17  30  46  64  85 109 140 177 217 259
#     4   9  17  29  44  63  87 115 149 186 220 257
#     4   9  17  28  41  59  87 123 158 189 221 256
#
# _framework density 15.786846000000001
#
# number of rings (size 3 to 8) (size 9 to 14) (size 15 to 20)
#    0.000    2.714    0.000    3.429    0.000    6.286 
#    0.000    0.000    0.000    0.429    0.000    0.000 
#    0.000    0.571    0.000    1.000    0.000    1.429 
#
# Total GULP energy -694167.527609 kJ/mol
# GULP energy per Si atom -12395.848707 kJ/mol
# Density = 1.575091 g / cm^3
# Si number density = 15.786846 Si / 1000 Ang^3
#
#
#
# Elastic Constant Matrix: (Units=GPa)
#
#
# Indices 1 2 3 4 5 6 
#
# 1 81.6841 24.6475 54.8628 0.0000 0.0000 0.0000
# 2 24.6475 67.0215 51.7264 0.0000 0.0000 0.0000
# 3 54.8628 51.7264 116.4612 0.0000 0.0000 0.0000
# 4 0.0000 0.0000 0.0000 19.8571 0.0000 0.0000
# 5 0.0000 0.0000 0.0000 0.0000 25.7467 0.0000
# 6 0.0000 0.0000 0.0000 0.0000 0.0000 17.1002
#
#
#
# Elastic Compliance Matrix: (Units=1/GPa)
#
#
# Indices 1 2 3 4 5 6 
#
# 1 0.017909 -0.000114 -0.008386 0.000000 0.000000 0.000000
# 2 -0.000114 0.022704 -0.010030 0.000000 0.000000 0.000000
# 3 -0.008386 -0.010030 0.016992 0.000000 0.000000 0.000000
# 4 0.000000 0.000000 0.000000 0.050360 0.000000 0.000000
# 5 0.000000 0.000000 0.000000 0.000000 0.038840 0.000000
# 6 0.000000 0.000000 0.000000 0.000000 0.000000 0.058479
#
#
# Mechanical properties :
#
#
# Convention : Reuss Voigt Hill
#
# Bulk Modulus (GPa) = 48.67499 58.62668 53.65083
# Shear Modulus (GPa) = 20.06486 21.46948 20.76717
#
# Velocity S-wave (km/s) = 3.56896 3.69176 3.63088
# Velocity P-wave (km/s) = 6.91974 7.44239 7.18582
#
# Compressibility (1/GPa) = 0.02054443
#
# Stress axis : x y z
#
# Youngs Moduli (GPa) = 55.83746 44.04573 58.85114
#
# Poissons Ratio (x) = 0.00502 0.49353
# Poissons Ratio (y) = 0.00636 0.59029
# Poissons Ratio (z) = 0.46826 0.44179
#
# Static dielectric constant tensor:
#      x y z
#    x 3.122690 0.000000 0.000000 
#    y 0.000000 3.034500 0.000000 
#    z 0.000000 0.000000 3.045770 
# 
# 
# High freq. dielectric constant tensor:
#      x y z
#    x 1.613830 0.000000 0.000000 
#    y 0.000000 1.575370 0.000000 
#    z 0.000000 0.000000 1.592280 
# 
# From -- ./inp_files/28232.got.cif
#   From: 2010.03.12/outbox.cif.g09.slc.cpg/sg51_15_cif.got.tgz:28232.got - 2010.04.16 13:43:02.
