data_PCOD8207875
_publ_section_title
;
Structure prediction by ZEFSAII (Michael W. Deem and Ramdas Pophale) SiO2 
 PCOD8207875
Probable space group: P M M A
;
_chemical_formula_sum "Si O2"
_cell_formula_units_Z 64
_cell_length_a 9.317577
_cell_length_b 28.179343
_cell_length_c 14.736824
_cell_angle_alpha 90.000000
_cell_angle_beta 90.000000
_cell_angle_gamma 90.000000
_cell_volume 3869.347641
_symmetry_space_group_name_H-M "P M M A"
_symmetry_group_IT_number 51
_symmetry_cell_setting 'orthorhombic'
loop_
_space_group_symop_operation_xyz
x,y,z
1/2-x,-y,z
1/2+x,-y,-z
-x,y,-z
-x,-y,-z
1/2+x,y,-z
1/2-x,y,z
x,-y,z
loop_
_atom_site_type_symbol
_atom_site_label
_atom_site_fract_x
_atom_site_fract_y
_atom_site_fract_z
Si Si1 0.918595 0.879421 0.410277
Si Si2 0.913436 0.083332 0.915366
Si Si3 0.414702 0.770128 0.587166
Si Si4 0.082432 0.740246 0.783138
Si Si5 0.917469 0.346958 0.094265
Si Si6 0.581436 0.193128 0.911051
Si Si7 0.084208 0.449950 0.907793
Si Si8 0.585434 0.946538 0.718847
O O1 0.750000 0.888238 0.422222
O O2 0.955121 0.824594 0.390226
O O3 0.000000 0.896865 0.500000
O O4 0.976285 0.910844 0.328175
O O5 0.750000 0.078022 0.943775
O O6 0.952636 0.138043 0.897301
O O7 0.949692 0.053750 0.825688
O O8 0.000000 0.062149 0.000000
O O9 0.500000 0.750729 0.500000
O O10 0.250000 0.766292 0.559747
O O11 0.450019 0.738170 0.675358
O O12 0.250000 0.752410 0.799526
O O13 0.037279 0.690529 0.828859
O O14 0.983804 0.781296 0.823808
O O15 0.750000 0.342110 0.071313
O O16 0.954411 0.399202 0.138373
O O17 0.000000 0.337620 0.000000
O O18 0.750000 0.204064 0.920085
O O19 0.500000 0.212955 0.000000
O O20 0.250000 0.448927 0.933562
O O21 0.050622 0.500000 0.852876
O O22 0.000000 0.452148 0.000000
O O23 0.750000 0.929918 0.702373
O O24 0.562237 0.000000 0.682575
#
# Coordination Sequence:
#
# PCOD8207875 Si02
#       8
#     8   8   8   8   8   8   8   8
#     4  10  20  35  55  75  93 114 141 173 212 259
#     4   9  19  34  50  68  90 117 149 183 215 248
#     4   9  19  34  51  70  90 113 142 178 217 259
#     4  10  19  30  44  64  91 118 144 178 221 263
#     4   9  17  27  39  58  87 120 150 182 218 255
#     4  10  19  30  45  65  89 118 150 180 211 251
#     4   8  13  22  36  53  75 108 149 186 217 250
#     4  10  21  36  52  71  95 119 143 175 215 256
#
# _framework density 16.540257
#
# number of rings (size 3 to 8) (size 9 to 14) (size 15 to 20)
#    0.000    2.625    0.000    1.875    0.000    4.250 
#    0.000    0.000    0.000    0.000    0.000    0.000 
#    0.000    0.500    0.000    0.375    0.000    1.000 
#
# Total GULP energy -793181.817217 kJ/mol
# GULP energy per Si atom -12393.465894 kJ/mol
# Density = 1.650261 g / cm^3
# Si number density = 16.540257 Si / 1000 Ang^3
#
#
#
# Elastic Constant Matrix: (Units=GPa)
#
#
# Indices 1 2 3 4 5 6 
#
# 1 56.9589 30.4828 37.8433 0.0000 0.0000 0.0000
# 2 30.4828 74.3154 43.6980 0.0000 0.0000 0.0000
# 3 37.8433 43.6980 85.1750 0.0000 0.0000 0.0000
# 4 0.0000 0.0000 0.0000 9.1657 0.0000 0.0000
# 5 0.0000 0.0000 0.0000 0.0000 29.0579 0.0000
# 6 0.0000 0.0000 0.0000 0.0000 0.0000 13.1085
#
#
#
# Elastic Compliance Matrix: (Units=1/GPa)
#
#
# Indices 1 2 3 4 5 6 
#
# 1 0.026466 -0.005644 -0.008863 0.000000 0.000000 0.000000
# 2 -0.005644 0.020473 -0.007996 0.000000 0.000000 0.000000
# 3 -0.008863 -0.007996 0.019780 0.000000 0.000000 0.000000
# 4 0.000000 0.000000 0.000000 0.109102 0.000000 0.000000
# 5 0.000000 0.000000 0.000000 0.000000 0.034414 0.000000
# 6 0.000000 0.000000 0.000000 0.000000 0.000000 0.076287
#
#
# Mechanical properties :
#
#
# Convention : Reuss Voigt Hill
#
# Bulk Modulus (GPa) = 46.05483 48.94416 47.49950
# Shear Modulus (GPa) = 14.75950 17.22811 15.99380
#
# Velocity S-wave (km/s) = 2.99044 3.23086 3.11298
# Velocity P-wave (km/s) = 6.31096 6.60100 6.45761
#
# Compressibility (1/GPa) = 0.02171325
#
# Stress axis : x y z
#
# Youngs Moduli (GPa) = 37.78469 48.84535 50.55513
#
# Poissons Ratio (x) = 0.27570 0.44807
# Poissons Ratio (y) = 0.21327 0.40422
# Poissons Ratio (z) = 0.33489 0.39055
#
# Static dielectric constant tensor:
#      x y z
#    x 3.112870 0.000000 0.000000 
#    y 0.000000 3.463140 0.000000 
#    z 0.000000 0.000000 2.954920 
# 
# 
# High freq. dielectric constant tensor:
#      x y z
#    x 1.641550 0.000000 0.000000 
#    y 0.000000 1.629930 0.000000 
#    z 0.000000 0.000000 1.610390 
# 
# From -- ./inp_files/22570.got.cif
#   From: 2010.03.12/outbox.cif.g09.slc.cpg/sg51_12_cif.got.tgz:22570.got - 2010.04.16 13:43:02.
