data_PCOD8207237
_publ_section_title
;
Structure prediction by ZEFSAII (Michael W. Deem and Ramdas Pophale) SiO2 
 PCOD8207237
Probable space group: P M M A
;
_chemical_formula_sum "Si O2"
_cell_formula_units_Z 64
_cell_length_a 19.172654
_cell_length_b 9.017248
_cell_length_c 20.975186
_cell_angle_alpha 90.000000
_cell_angle_beta 90.000000
_cell_angle_gamma 90.000000
_cell_volume 3626.286137
_symmetry_space_group_name_H-M "P M M A"
_symmetry_group_IT_number 51
_symmetry_cell_setting 'orthorhombic'
loop_
_space_group_symop_operation_xyz
x,y,z
1/2-x,-y,z
1/2+x,-y,-z
-x,y,-z
-x,-y,-z
1/2+x,y,-z
1/2-x,y,z
x,-y,z
loop_
_atom_site_type_symbol
_atom_site_label
_atom_site_fract_x
_atom_site_fract_y
_atom_site_fract_z
Si Si1 0.170772 0.671798 0.496689
Si Si2 0.953847 0.824845 0.560232
Si Si3 0.536495 0.173450 0.062677
Si Si4 0.969162 0.174978 0.313872
Si Si5 0.172395 0.828906 0.001379
Si Si6 0.170263 0.325839 0.133334
Si Si7 0.958929 0.177251 0.813388
Si Si8 0.672333 0.827264 0.369847
O O1 0.250000 0.698860 0.474520
O O2 0.152174 0.500000 0.500373
O O3 0.121866 0.750016 0.444698
O O4 0.157514 0.739191 0.566012
O O5 0.000000 0.775542 0.500000
O O6 0.990295 0.764015 0.624252
O O7 0.943865 0.000000 0.562153
O O8 0.504862 0.240549 0.127467
O O9 0.520842 0.000000 0.064804
O O10 0.500000 0.242780 0.000000
O O11 0.619309 0.207071 0.056479
O O12 0.886834 0.218716 0.318382
O O13 0.003446 0.240852 0.249884
O O14 0.976606 0.000000 0.311624
O O15 0.250000 0.794577 0.975944
O O16 0.153647 0.730463 0.062313
O O17 0.164493 0.000000 0.022898
O O18 0.250000 0.286805 0.152072
O O19 0.156677 0.500000 0.135791
O O20 0.118945 0.244042 0.182806
O O21 0.954050 0.000000 0.812646
O O22 0.750000 0.792105 0.342543
O O23 0.664859 0.000000 0.387354
#
# Coordination Sequence:
#
# PCOD8207237 Si02
#       8
#     8   8   8   8   8   8   8   8
#     4  10  20  32  48  75 105 130 164 207 249 295
#     4  10  18  32  53  74  98 127 163 206 248 293
#     4   9  15  26  46  73  98 122 157 199 240 278
#     4   9  18  32  50  76 101 127 166 206 242 285
#     4   9  16  28  48  72  97 128 165 199 238 290
#     4  10  20  33  49  71  98 125 160 206 249 289
#     4  10  19  33  52  71  99 133 163 199 240 290
#     4   9  16  30  52  74  99 132 166 200 243 292
#
# _framework density 17.648910999999998
#
# number of rings (size 3 to 8) (size 9 to 14) (size 15 to 20)
#    0.000    2.500    2.500    0.750    0.000    1.750 
#    0.000    3.750    0.000    7.500    0.000    0.000 
#    0.000    5.000    0.000    0.000    0.000    0.000 
#
# Total GULP energy -793356.011958 kJ/mol
# GULP energy per Si atom -12396.187687 kJ/mol
# Density = 1.760874 g / cm^3
# Si number density = 17.648911 Si / 1000 Ang^3
#
#
#
# Elastic Constant Matrix: (Units=GPa)
#
#
# Indices 1 2 3 4 5 6 
#
# 1 151.2623 35.4017 78.5319 0.0000 0.0000 0.0000
# 2 35.4017 34.5285 24.5809 0.0000 0.0000 0.0000
# 3 78.5319 24.5809 121.9109 0.0000 0.0000 0.0000
# 4 0.0000 0.0000 0.0000 5.5934 0.0000 0.0000
# 5 0.0000 0.0000 0.0000 0.0000 30.4998 0.0000
# 6 0.0000 0.0000 0.0000 0.0000 0.0000 19.5348
#
#
#
# Elastic Compliance Matrix: (Units=1/GPa)
#
#
# Indices 1 2 3 4 5 6 
#
# 1 0.011399 -0.007542 -0.005822 0.000000 0.000000 0.000000
# 2 -0.007542 0.038806 -0.002966 0.000000 0.000000 0.000000
# 3 -0.005822 -0.002966 0.012551 0.000000 0.000000 0.000000
# 4 0.000000 0.000000 0.000000 0.178781 0.000000 0.000000
# 5 0.000000 0.000000 0.000000 0.000000 0.032787 0.000000
# 6 0.000000 0.000000 0.000000 0.000000 0.000000 0.051191
#
#
# Mechanical properties :
#
#
# Convention : Reuss Voigt Hill
#
# Bulk Modulus (GPa) = 33.22760 64.97008 49.09884
# Shear Modulus (GPa) = 13.57928 22.40475 17.99201
#
# Velocity S-wave (km/s) = 2.77684 3.56683 3.19633
# Velocity P-wave (km/s) = 5.39898 7.33863 6.44222
#
# Compressibility (1/GPa) = 0.03009546
#
# Stress axis : x y z
#
# Youngs Moduli (GPa) = 87.72685 25.76911 79.67356
#
# Poissons Ratio (x) = 0.19436 0.46387
# Poissons Ratio (y) = 0.66168 0.23630
# Poissons Ratio (z) = 0.51076 0.07643
#
# Static dielectric constant tensor:
#      x y z
#    x 3.608920 0.000000 0.000000 
#    y 0.000000 3.002900 0.000000 
#    z 0.000000 0.000000 3.231680 
# 
# 
# High freq. dielectric constant tensor:
#      x y z
#    x 1.702050 0.000000 0.000000 
#    y 0.000000 1.651670 0.000000 
#    z 0.000000 0.000000 1.651560 
# 
# From -- ./inp_files/33888.got.cif
#   From: 2010.03.12/outbox.cif.g09.slc.cpg/sg51_17_cif.got.tgz:33888.got - 2010.04.16 13:43:02.
