data_PCOD8207605
_publ_section_title
;
Structure prediction by ZEFSAII (Michael W. Deem and Ramdas Pophale) SiO2 
 PCOD8207605
Probable space group: P M M A
;
_chemical_formula_sum "Si O2"
_cell_formula_units_Z 48
_cell_length_a 8.933674
_cell_length_b 21.123848
_cell_length_c 19.461922
_cell_angle_alpha 90.000000
_cell_angle_beta 90.000000
_cell_angle_gamma 90.000000
_cell_volume 3672.728812
_symmetry_space_group_name_H-M "P M M A"
_symmetry_group_IT_number 51
_symmetry_cell_setting 'orthorhombic'
loop_
_space_group_symop_operation_xyz
x,y,z
1/2-x,-y,z
1/2+x,-y,-z
-x,y,-z
-x,-y,-z
1/2+x,y,-z
1/2-x,y,z
x,-y,z
loop_
_atom_site_type_symbol
_atom_site_label
_atom_site_fract_x
_atom_site_fract_y
_atom_site_fract_z
Si Si1 0.423354 0.500000 0.072633
Si Si2 0.426541 0.241288 0.925724
Si Si3 0.925408 0.119115 0.161644
Si Si4 0.926347 0.072780 0.705943
Si Si5 0.073185 0.635392 0.074686
Si Si6 0.918484 0.075329 0.432626
Si Si7 0.573890 0.000000 0.073352
O O1 0.250000 0.500000 0.055066
O O2 0.461413 0.433229 0.111795
O O3 0.500000 0.500000 0.000000
O O4 0.250000 0.248111 0.935657
O O5 0.468278 0.183841 0.875990
O O6 0.493689 0.304689 0.888788
O O7 0.500000 0.229326 0.000000
O O8 0.750000 0.113658 0.176990
O O9 0.012444 0.116668 0.233325
O O10 0.980780 0.061702 0.114060
O O11 0.750000 0.079336 0.700731
O O12 0.995397 0.098670 0.635105
O O13 0.975063 0.000000 0.719187
O O14 0.250000 0.648030 0.069863
O O15 0.000000 0.632648 0.000000
O O16 0.750000 0.101726 0.430650
O O17 0.000000 0.103249 0.500000
O O18 0.919579 0.000000 0.435835
O O19 0.750000 0.000000 0.062760
O O20 0.500000 0.000000 0.000000
#
# Coordination Sequence:
#
# PCOD8207605 Si02
#       7
#     4   8   8   8   8   8   4
#     4   8  14  22  34  52  70  88 110 134 167 210
#     4  10  19  29  40  54  70  91 119 152 189 229
#     4  10  20  32  43  53  69  93 120 152 191 231
#     4  10  19  29  42  59  75  92 117 149 184 223
#     4   9  15  24  37  52  70  90 111 139 174 215
#     4   9  16  26  41  59  79  99 116 138 170 212
#     4  10  20  32  44  54  65  84 115 154 196 234
#
# _framework density 13.069300999999999
#
# number of rings (size 3 to 8) (size 9 to 14) (size 15 to 20)
#    0.000    2.500    0.833    3.500    0.000    5.333 
#    0.000    0.000    0.000    0.000    0.000    0.000 
#    0.000    0.000    0.000    0.000    0.000    0.000 
#
# Total GULP energy -594818.501866 kJ/mol
# GULP energy per Si atom -12392.052122 kJ/mol
# Density = 1.303955 g / cm^3
# Si number density = 13.069301 Si / 1000 Ang^3
#
#
#
# Elastic Constant Matrix: (Units=GPa)
#
#
# Indices 1 2 3 4 5 6 
#
# 1 66.7655 38.9001 39.3797 0.0000 0.0000 0.0000
# 2 38.9001 104.2281 39.7547 0.0000 0.0000 0.0000
# 3 39.3797 39.7547 85.4853 0.0000 0.0000 0.0000
# 4 0.0000 0.0000 0.0000 2.5080 0.0000 0.0000
# 5 0.0000 0.0000 0.0000 0.0000 22.5312 0.0000
# 6 0.0000 0.0000 0.0000 0.0000 0.0000 16.8574
#
#
#
# Elastic Compliance Matrix: (Units=1/GPa)
#
#
# Indices 1 2 3 4 5 6 
#
# 1 0.022893 -0.005497 -0.007990 0.000000 0.000000 0.000000
# 2 -0.005497 0.012983 -0.003506 0.000000 0.000000 0.000000
# 3 -0.007990 -0.003506 0.017009 0.000000 0.000000 0.000000
# 4 0.000000 0.000000 0.000000 0.398725 0.000000 0.000000
# 5 0.000000 0.000000 0.000000 0.000000 0.044383 0.000000
# 6 0.000000 0.000000 0.000000 0.000000 0.000000 0.059321
#
#
# Mechanical properties :
#
#
# Convention : Reuss Voigt Hill
#
# Bulk Modulus (GPa) = 52.90810 54.72754 53.81782
# Shear Modulus (GPa) = 8.39494 17.60895 13.00195
#
# Velocity S-wave (km/s) = 2.53719 3.67461 3.15754
# Velocity P-wave (km/s) = 7.01097 7.74400 7.38658
#
# Compressibility (1/GPa) = 0.01890070
#
# Stress axis : x y z
#
# Youngs Moduli (GPa) = 43.68191 77.02441 58.79360
#
# Poissons Ratio (x) = 0.42338 0.46974
# Poissons Ratio (y) = 0.24010 0.20610
# Poissons Ratio (z) = 0.34900 0.27001
#
# Static dielectric constant tensor:
#      x y z
#    x 2.753940 0.000000 0.000000 
#    y 0.000000 3.017650 0.000000 
#    z 0.000000 0.000000 2.415210 
# 
# 
# High freq. dielectric constant tensor:
#      x y z
#    x 1.514010 0.000000 0.000000 
#    y 0.000000 1.477130 0.000000 
#    z 0.000000 0.000000 1.458530 
# 
# From -- ./inp_files/28128.got.cif
#   From: 2010.03.12/outbox.cif.g09.slc.cpg/sg51_15_cif.got.tgz:28128.got - 2010.04.16 13:43:02.
