data_PCOD8207321
_publ_section_title
;
Structure prediction by ZEFSAII (Michael W. Deem and Ramdas Pophale) SiO2 
 PCOD8207321
Probable space group: P M M A
;
_chemical_formula_sum "Si O2"
_cell_formula_units_Z 48
_cell_length_a 19.084959
_cell_length_b 8.986346
_cell_length_c 15.187896
_cell_angle_alpha 90.000000
_cell_angle_beta 90.000000
_cell_angle_gamma 90.000000
_cell_volume 2604.785599
_symmetry_space_group_name_H-M "P M M A"
_symmetry_group_IT_number 51
_symmetry_cell_setting 'orthorhombic'
loop_
_space_group_symop_operation_xyz
x,y,z
1/2-x,-y,z
1/2+x,-y,-z
-x,y,-z
-x,-y,-z
1/2+x,y,-z
1/2-x,y,z
x,-y,z
loop_
_atom_site_type_symbol
_atom_site_label
_atom_site_fract_x
_atom_site_fract_y
_atom_site_fract_z
Si Si1 0.924797 0.676680 0.470779
Si Si2 0.580873 0.676748 0.272221
Si Si3 0.831227 0.173757 0.125526
Si Si4 0.671415 0.322385 0.626929
Si Si5 0.427968 0.324228 0.220272
Si Si6 0.420292 0.326308 0.021705
O O1 0.929045 0.500000 0.474523
O O2 0.905911 0.728855 0.372425
O O3 0.865353 0.735258 0.537543
O O4 0.000000 0.742522 0.500000
O O5 0.584820 0.500000 0.262091
O O6 0.640928 0.747416 0.213009
O O7 0.505299 0.738535 0.241020
O O8 0.750000 0.212421 0.115995
O O9 0.845247 0.000000 0.134409
O O10 0.869154 0.232162 0.038579
O O11 0.750000 0.257668 0.630419
O O12 0.672735 0.500000 0.629044
O O13 0.628432 0.259397 0.710745
O O14 0.431966 0.500000 0.231086
O O15 0.404356 0.280190 0.122232
O O16 0.406297 0.500000 0.004402
O O17 0.500000 0.285874 0.000000
#
# Coordination Sequence:
#
# PCOD8207321 Si02
#       6
#     8   8   8   8   8   8
#     4   9  15  25  46  75 107 141 173 213 265 313
#     4  10  18  32  56  81 106 139 180 223 265 315
#     4  11  25  41  54  75 110 146 180 224 274 318
#     4   9  16  25  39  68 109 141 167 208 264 321
#     4   9  16  28  48  76 106 135 168 213 269 322
#     4  10  19  34  58  84 106 133 176 225 269 321
#
# _framework density 18.427620000000001
#
# number of rings (size 3 to 8) (size 9 to 14) (size 15 to 20)
#    0.000    2.333    3.333    0.500    0.000    3.000 
#    0.000    3.333    0.000    0.500    0.000    0.000 
#    0.000    4.000    0.000    0.000    0.000    0.000 
#
# Total GULP energy -595166.561670 kJ/mol
# GULP energy per Si atom -12399.303368 kJ/mol
# Density = 1.838568 g / cm^3
# Si number density = 18.427620 Si / 1000 Ang^3
#
#
#
# Elastic Constant Matrix: (Units=GPa)
#
#
# Indices 1 2 3 4 5 6 
#
# 1 135.6007 37.2997 85.1328 0.0000 0.0000 0.0000
# 2 37.2997 28.6032 34.0619 0.0000 0.0000 0.0000
# 3 85.1328 34.0619 175.4037 0.0000 0.0000 0.0000
# 4 0.0000 0.0000 0.0000 1.1945 0.0000 0.0000
# 5 0.0000 0.0000 0.0000 0.0000 34.4720 0.0000
# 6 0.0000 0.0000 0.0000 0.0000 0.0000 15.6516
#
#
#
# Elastic Compliance Matrix: (Units=1/GPa)
#
#
# Indices 1 2 3 4 5 6 
#
# 1 0.013393 -0.012649 -0.004044 0.000000 0.000000 0.000000
# 2 -0.012649 0.057425 -0.005012 0.000000 0.000000 0.000000
# 3 -0.004044 -0.005012 0.008637 0.000000 0.000000 0.000000
# 4 0.000000 0.000000 0.000000 0.837185 0.000000 0.000000
# 5 0.000000 0.000000 0.000000 0.000000 0.029009 0.000000
# 6 0.000000 0.000000 0.000000 0.000000 0.000000 0.063891
#
#
# Mechanical properties :
#
#
# Convention : Reuss Voigt Hill
#
# Bulk Modulus (GPa) = 27.74351 72.51071 50.12711
# Shear Modulus (GPa) = 4.69499 22.47115 13.58307
#
# Velocity S-wave (km/s) = 1.59791 3.49582 2.71791
# Velocity P-wave (km/s) = 4.30029 7.46516 6.09185
#
# Compressibility (1/GPa) = 0.03604447
#
# Stress axis : x y z
#
# Youngs Moduli (GPa) = 74.66681 17.41410 115.77868
#
# Poissons Ratio (x) = 0.22027 0.46820
# Poissons Ratio (y) = 0.94447 0.58030
# Poissons Ratio (z) = 0.30195 0.08728
#
# Static dielectric constant tensor:
#      x y z
#    x 3.515620 0.000000 0.000000 
#    y 0.000000 2.796960 0.000000 
#    z 0.000000 0.000000 3.694890 
# 
# 
# High freq. dielectric constant tensor:
#      x y z
#    x 1.717370 0.000000 0.000000 
#    y 0.000000 1.650410 0.000000 
#    z 0.000000 0.000000 1.736170 
# 
# From -- ./inp_files/25052.got.cif
#   From: 2010.03.12/outbox.cif.g09.slc.cpg/sg51_13_cif.got.tgz:25052.got - 2010.04.16 13:43:02.
