data_PCOD8207069
_publ_section_title
;
Structure prediction by ZEFSAII (Michael W. Deem and Ramdas Pophale) SiO2 
 PCOD8207069
Probable space group: P M M A
;
_chemical_formula_sum "Si O2"
_cell_formula_units_Z 56
_cell_length_a 19.108051
_cell_length_b 9.114030
_cell_length_c 17.458264
_cell_angle_alpha 90.000000
_cell_angle_beta 90.000000
_cell_angle_gamma 90.000000
_cell_volume 3040.380245
_symmetry_space_group_name_H-M "P M M A"
_symmetry_group_IT_number 51
_symmetry_cell_setting 'orthorhombic'
loop_
_space_group_symop_operation_xyz
x,y,z
1/2-x,-y,z
1/2+x,-y,-z
-x,y,-z
-x,-y,-z
1/2+x,y,-z
1/2-x,y,z
x,-y,z
loop_
_atom_site_type_symbol
_atom_site_label
_atom_site_fract_x
_atom_site_fract_y
_atom_site_fract_z
Si Si1 0.079804 0.834773 0.526021
Si Si2 0.170738 0.325076 0.961357
Si Si3 0.670839 0.166242 0.755621
Si Si4 0.956892 0.669134 0.329571
Si Si5 0.939936 0.326451 0.158411
Si Si6 0.615716 0.668772 0.618728
Si Si7 0.091184 0.673365 0.111933
O O1 0.087888 0.762572 0.609744
O O2 0.123037 0.738201 0.465570
O O3 0.000000 0.834823 0.500000
O O4 0.109617 0.000000 0.528806
O O5 0.250000 0.262767 0.959141
O O6 0.171708 0.500000 0.962309
O O7 0.128160 0.267151 0.887069
O O8 0.130331 0.266775 0.036503
O O9 0.750000 0.169190 0.785675
O O10 0.668236 0.243481 0.673167
O O11 0.623605 0.254449 0.813873
O O12 0.643023 0.000000 0.748456
O O13 0.933807 0.500000 0.336553
O O14 0.941239 0.735360 0.245068
O O15 0.038617 0.685860 0.346373
O O16 0.937337 0.500000 0.164536
O O17 0.009293 0.282553 0.110238
O O18 0.638457 0.500000 0.613647
O O19 0.100978 0.500000 0.120024
#
# Coordination Sequence:
#
# PCOD8207069 Si02
#       7
#     8   8   8   8   8   8   8
#     4   9  17  28  45  71 101 132 163 201 251 302
#     4   9  17  28  47  76 105 132 167 213 261 310
#     4  11  23  35  48  70 103 140 171 208 263 319
#     4   9  16  28  46  71  98 129 167 210 256 298
#     4   9  16  28  47  73 104 134 168 214 265 305
#     4  10  18  31  50  72  98 130 171 213 252 299
#     4  10  18  32  52  75  99 131 173 216 258 306
#
# _framework density 18.418749999999999
#
# number of rings (size 3 to 8) (size 9 to 14) (size 15 to 20)
#    0.000    2.429    1.429    2.143    0.000    5.714 
#    0.000    0.000    0.000    3.429    0.000    2.000 
#    0.000    0.000    0.000    0.000    0.000    0.000 
#
# Total GULP energy -694304.260068 kJ/mol
# GULP energy per Si atom -12398.290358 kJ/mol
# Density = 1.837683 g / cm^3
# Si number density = 18.418750 Si / 1000 Ang^3
#
#
#
# Elastic Constant Matrix: (Units=GPa)
#
#
# Indices 1 2 3 4 5 6 
#
# 1 82.4196 19.3321 57.0776 0.0000 0.0000 0.0000
# 2 19.3321 51.1316 37.1631 0.0000 0.0000 0.0000
# 3 57.0776 37.1631 144.6247 0.0000 0.0000 0.0000
# 4 0.0000 0.0000 0.0000 7.1759 0.0000 0.0000
# 5 0.0000 0.0000 0.0000 0.0000 15.8967 0.0000
# 6 0.0000 0.0000 0.0000 0.0000 0.0000 12.2708
#
#
#
# Elastic Compliance Matrix: (Units=1/GPa)
#
#
# Indices 1 2 3 4 5 6 
#
# 1 0.016844 -0.001890 -0.006162 0.000000 0.000000 0.000000
# 2 -0.001890 0.024261 -0.005488 0.000000 0.000000 0.000000
# 3 -0.006162 -0.005488 0.010757 0.000000 0.000000 0.000000
# 4 0.000000 0.000000 0.000000 0.139355 0.000000 0.000000
# 5 0.000000 0.000000 0.000000 0.000000 0.062906 0.000000
# 6 0.000000 0.000000 0.000000 0.000000 0.000000 0.081494
#
#
# Mechanical properties :
#
#
# Convention : Reuss Voigt Hill
#
# Bulk Modulus (GPa) = 40.35339 56.14685 48.25012
# Shear Modulus (GPa) = 13.47868 18.04223 15.76046
#
# Velocity S-wave (km/s) = 2.70810 3.13318 2.92837
# Velocity P-wave (km/s) = 5.63337 6.60597 6.13896
#
# Compressibility (1/GPa) = 0.02478106
#
# Stress axis : x y z
#
# Youngs Moduli (GPa) = 59.36996 41.21874 92.96632
#
# Poissons Ratio (x) = 0.07789 0.57285
# Poissons Ratio (y) = 0.11219 0.51023
# Poissons Ratio (z) = 0.36583 0.22622
#
# Static dielectric constant tensor:
#      x y z
#    x 3.247120 0.000000 0.000000 
#    y 0.000000 3.174000 0.000000 
#    z 0.000000 0.000000 3.616550 
# 
# 
# High freq. dielectric constant tensor:
#      x y z
#    x 1.683680 0.000000 0.000000 
#    y 0.000000 1.685360 0.000000 
#    z 0.000000 0.000000 1.725520 
# 
# From -- ./inp_files/30455.got.cif
#   From: 2010.03.12/outbox.cif.g09.slc.cpg/sg51_16_cif.got.tgz:30455.got - 2010.04.16 13:43:02.
