data_PCOD8207823
_publ_section_title
;
Structure prediction by ZEFSAII (Michael W. Deem and Ramdas Pophale) SiO2 
 PCOD8207823
Probable space group: P M M A
;
_chemical_formula_sum "Si O2"
_cell_formula_units_Z 64
_cell_length_a 9.729658
_cell_length_b 14.197625
_cell_length_c 30.609131
_cell_angle_alpha 90.000000
_cell_angle_beta 90.000000
_cell_angle_gamma 90.000000
_cell_volume 4228.285230
_symmetry_space_group_name_H-M "P M M A"
_symmetry_group_IT_number 51
_symmetry_cell_setting 'orthorhombic'
loop_
_space_group_symop_operation_xyz
x,y,z
1/2-x,-y,z
1/2+x,-y,-z
-x,y,-z
-x,-y,-z
1/2+x,y,-z
1/2-x,y,z
x,-y,z
loop_
_atom_site_type_symbol
_atom_site_label
_atom_site_fract_x
_atom_site_fract_y
_atom_site_fract_z
Si Si1 0.411439 0.608280 0.365082
Si Si2 0.098307 0.611780 0.462967
Si Si3 0.592949 0.104609 0.830777
Si Si4 0.590991 0.703084 0.870136
Si Si5 0.407800 0.292839 0.705723
Si Si6 0.591416 0.390978 0.959475
Si Si7 0.091711 0.389753 0.796122
Si Si8 0.406405 0.104814 0.748737
O O1 0.250000 0.624034 0.357655
O O2 0.450754 0.500000 0.356037
O O3 0.453516 0.637554 0.414377
O O4 0.495974 0.674237 0.333127
O O5 0.250000 0.653890 0.470722
O O6 0.104389 0.500000 0.467363
O O7 0.000000 0.656088 0.500000
O O8 0.750000 0.107597 0.814703
O O9 0.567335 0.183890 0.867608
O O10 0.500996 0.130516 0.789464
O O11 0.556430 0.000000 0.849246
O O12 0.750000 0.676356 0.861928
O O13 0.544716 0.670261 0.918005
O O14 0.501830 0.649532 0.834505
O O15 0.250000 0.317510 0.694399
O O16 0.452398 0.342650 0.750622
O O17 0.430568 0.180362 0.710397
O O18 0.750000 0.373462 0.971514
O O19 0.563590 0.500000 0.948360
O O20 0.500000 0.357026 0.000000
O O21 0.250000 0.366257 0.807048
O O22 0.066161 0.500000 0.791494
O O23 0.250000 0.111875 0.765691
O O24 0.439224 0.000000 0.730605
#
# Coordination Sequence:
#
# PCOD8207823 Si02
#       8
#     8   8   8   8   8   8   8   8
#     4   9  18  30  42  59  86 120 154 184 216 257
#     4   8  14  25  40  58  80 107 143 185 222 256
#     4   9  17  29  46  68  90 111 139 176 217 258
#     4  10  19  31  48  68  89 113 144 179 214 256
#     4  10  19  30  43  61  87 117 149 181 214 256
#     4   9  18  32  48  66  87 111 141 176 213 254
#     4  10  20  31  42  61  90 119 147 180 213 248
#     4   9  17  30  47  64  84 112 145 182 221 257
#
# _framework density 15.13616
#
# number of rings (size 3 to 8) (size 9 to 14) (size 15 to 20)
#    0.000    2.750    1.250    1.500    0.000    3.500 
#    0.000    2.500    0.000    0.375    0.000    0.000 
#    0.000    0.500    0.000    1.125    0.000    1.750 
#
# Total GULP energy -793427.195447 kJ/mol
# GULP energy per Si atom -12397.299929 kJ/mol
# Density = 1.510171 g / cm^3
# Si number density = 15.136160 Si / 1000 Ang^3
#
#
#
# Elastic Constant Matrix: (Units=GPa)
#
#
# Indices 1 2 3 4 5 6 
#
# 1 63.1260 38.9336 63.7573 0.0000 0.0000 0.0000
# 2 38.9336 81.0486 56.6872 0.0000 0.0000 0.0000
# 3 63.7573 56.6872 121.2468 0.0000 0.0000 0.0000
# 4 0.0000 0.0000 0.0000 9.2473 0.0000 0.0000
# 5 0.0000 0.0000 0.0000 0.0000 30.0802 0.0000
# 6 0.0000 0.0000 0.0000 0.0000 0.0000 19.2984
#
#
#
# Elastic Compliance Matrix: (Units=1/GPa)
#
#
# Indices 1 2 3 4 5 6 
#
# 1 0.035622 -0.005959 -0.015945 0.000000 0.000000 0.000000
# 2 -0.005959 0.019330 -0.005904 0.000000 0.000000 0.000000
# 3 -0.015945 -0.005904 0.019393 0.000000 0.000000 0.000000
# 4 0.000000 0.000000 0.000000 0.108140 0.000000 0.000000
# 5 0.000000 0.000000 0.000000 0.000000 0.033244 0.000000
# 6 0.000000 0.000000 0.000000 0.000000 0.000000 0.051818
#
#
# Mechanical properties :
#
#
# Convention : Reuss Voigt Hill
#
# Bulk Modulus (GPa) = 53.39707 64.90861 59.15284
# Shear Modulus (GPa) = 15.17883 18.79474 16.98678
#
# Velocity S-wave (km/s) = 3.17017 3.52761 3.35366
# Velocity P-wave (km/s) = 6.98243 7.71805 7.35944
#
# Compressibility (1/GPa) = 0.01872762
#
# Stress axis : x y z
#
# Youngs Moduli (GPa) = 28.07291 51.73238 51.56545
#
# Poissons Ratio (x) = 0.30828 0.82223
# Poissons Ratio (y) = 0.16729 0.30444
# Poissons Ratio (z) = 0.44763 0.30543
#
# Static dielectric constant tensor:
#      x y z
#    x 3.126590 0.000000 0.000000 
#    y 0.000000 2.984290 0.000000 
#    z 0.000000 0.000000 2.818350 
# 
# 
# High freq. dielectric constant tensor:
#      x y z
#    x 1.585900 0.000000 0.000000 
#    y 0.000000 1.566730 0.000000 
#    z 0.000000 0.000000 1.560510 
# 
# From -- ./inp_files/37614.got.cif
#   From: 2010.03.12/outbox.cif.g09.slc.cpg/sg51_19_cif.got.tgz:37614.got - 2010.04.16 13:43:02.
