data_PCOD8207729
_publ_section_title
;
Structure prediction by ZEFSAII (Michael W. Deem and Ramdas Pophale) SiO2 
 PCOD8207729
Probable space group: P M M A
;
_chemical_formula_sum "Si O2"
_cell_formula_units_Z 52
_cell_length_a 8.893966
_cell_length_b 12.742830
_cell_length_c 27.666653
_cell_angle_alpha 90.000000
_cell_angle_beta 90.000000
_cell_angle_gamma 90.000000
_cell_volume 3135.580662
_symmetry_space_group_name_H-M "P M M A"
_symmetry_group_IT_number 51
_symmetry_cell_setting 'orthorhombic'
loop_
_space_group_symop_operation_xyz
x,y,z
1/2-x,-y,z
1/2+x,-y,-z
-x,y,-z
-x,-y,-z
1/2+x,y,-z
1/2-x,y,z
x,-y,z
loop_
_atom_site_type_symbol
_atom_site_label
_atom_site_fract_x
_atom_site_fract_y
_atom_site_fract_z
Si Si1 0.923072 0.382878 0.223281
Si Si2 0.425594 0.500000 0.051623
Si Si3 0.417186 0.125303 0.547474
Si Si4 0.928368 0.188039 0.743729
Si Si5 0.428753 0.678117 0.125463
Si Si6 0.572766 0.881488 0.157536
Si Si7 0.415361 0.877856 0.359739
O O1 0.750000 0.345072 0.221390
O O2 0.935055 0.500000 0.243878
O O3 0.022080 0.309433 0.257968
O O4 0.992358 0.378676 0.170047
O O5 0.250000 0.500000 0.043764
O O6 0.472544 0.607186 0.079328
O O7 0.500000 0.500000 0.000000
O O8 0.500000 0.168763 0.500000
O O9 0.250000 0.169442 0.545128
O O10 0.488767 0.172135 0.596701
O O11 0.420004 0.000000 0.547996
O O12 0.750000 0.174744 0.750451
O O13 0.986558 0.139689 0.693244
O O14 0.010778 0.130953 0.788064
O O15 0.250000 0.681927 0.133597
O O16 0.492089 0.797736 0.121588
O O17 0.750000 0.859749 0.157519
O O18 0.537523 0.000000 0.139645
O O19 0.250000 0.825788 0.360938
O O20 0.402648 0.000000 0.369849
#
# Coordination Sequence:
#
# PCOD8207729 Si02
#       7
#     8   4   8   8   8   8   8
#     4  10  19  30  46  67  92 123 154 186 228 274
#     4  10  22  36  54  80 104 126 154 196 243 286
#     4   9  16  25  38  55  75 104 142 182 224 267
#     4  10  19  29  44  65  90 122 157 192 230 272
#     4  10  19  33  52  74  99 125 159 196 233 279
#     4  10  20  32  47  70  99 130 164 197 230 275
#     4   9  17  28  40  56  82 114 147 183 222 265
#
# _framework density 16.583850000000002
#
# number of rings (size 3 to 8) (size 9 to 14) (size 15 to 20)
#    0.000    2.308    0.769    4.615    0.000    7.077 
#    0.000    1.538    0.000    0.462    0.000    0.000 
#    0.000    0.615    0.000    2.000    0.000    2.923 
#
# Total GULP energy -644474.118604 kJ/mol
# GULP energy per Si atom -12393.733050 kJ/mol
# Density = 1.654610 g / cm^3
# Si number density = 16.583850 Si / 1000 Ang^3
#
#
#
# Elastic Constant Matrix: (Units=GPa)
#
#
# Indices 1 2 3 4 5 6 
#
# 1 82.7898 25.1166 45.0074 0.0000 0.0000 0.0000
# 2 25.1166 80.5191 28.3987 0.0000 0.0000 0.0000
# 3 45.0074 28.3987 105.1064 0.0000 0.0000 0.0000
# 4 0.0000 0.0000 0.0000 15.6989 0.0000 0.0000
# 5 0.0000 0.0000 0.0000 0.0000 27.9995 0.0000
# 6 0.0000 0.0000 0.0000 0.0000 0.0000 22.1078
#
#
#
# Elastic Compliance Matrix: (Units=1/GPa)
#
#
# Indices 1 2 3 4 5 6 
#
# 1 0.016336 -0.002906 -0.006210 0.000000 0.000000 0.000000
# 2 -0.002906 0.014244 -0.002605 0.000000 0.000000 0.000000
# 3 -0.006210 -0.002605 0.012877 0.000000 0.000000 0.000000
# 4 0.000000 0.000000 0.000000 0.063699 0.000000 0.000000
# 5 0.000000 0.000000 0.000000 0.000000 0.035715 0.000000
# 6 0.000000 0.000000 0.000000 0.000000 0.000000 0.045233
#
#
# Mechanical properties :
#
#
# Convention : Reuss Voigt Hill
#
# Bulk Modulus (GPa) = 49.95702 51.71786 50.83744
# Shear Modulus (GPa) = 22.91290 24.48742 23.70016
#
# Velocity S-wave (km/s) = 3.72107 3.84680 3.78446
# Velocity P-wave (km/s) = 6.97504 7.14030 7.05815
#
# Compressibility (1/GPa) = 0.02001721
#
# Stress axis : x y z
#
# Youngs Moduli (GPa) = 61.21301 70.20337 77.65666
#
# Poissons Ratio (x) = 0.20398 0.48227
# Poissons Ratio (y) = 0.17786 0.20226
# Poissons Ratio (z) = 0.38015 0.18285
#
# Static dielectric constant tensor:
#      x y z
#    x 3.318440 0.000000 0.000000 
#    y 0.000000 3.095760 0.000000 
#    z 0.000000 0.000000 2.931780 
# 
# 
# High freq. dielectric constant tensor:
#      x y z
#    x 1.654180 0.000000 0.000000 
#    y 0.000000 1.611020 0.000000 
#    z 0.000000 0.000000 1.617700 
# 
# From -- ./inp_files/36362.got.cif
#   From: 2010.03.12/outbox.cif.g09.slc.cpg/sg51_19_cif.got.tgz:36362.got - 2010.04.16 13:43:02.
