data_PCOD8207219
_publ_section_title
;
Structure prediction by ZEFSAII (Michael W. Deem and Ramdas Pophale) SiO2 
 PCOD8207219
Probable space group: P M M A
;
_chemical_formula_sum "Si O2"
_cell_formula_units_Z 56
_cell_length_a 8.692376
_cell_length_b 15.476939
_cell_length_c 30.020007
_cell_angle_alpha 90.000000
_cell_angle_beta 90.000000
_cell_angle_gamma 90.000000
_cell_volume 4038.632763
_symmetry_space_group_name_H-M "P M M A"
_symmetry_group_IT_number 51
_symmetry_cell_setting 'orthorhombic'
loop_
_space_group_symop_operation_xyz
x,y,z
1/2-x,-y,z
1/2+x,-y,-z
-x,y,-z
-x,-y,-z
1/2+x,y,-z
1/2-x,y,z
x,-y,z
loop_
_atom_site_type_symbol
_atom_site_label
_atom_site_fract_x
_atom_site_fract_y
_atom_site_fract_z
Si Si1 0.928124 0.398700 0.186127
Si Si2 0.922948 0.602978 0.544770
Si Si3 0.433299 0.500000 0.951092
Si Si4 0.933491 0.175930 0.049317
Si Si5 0.566071 0.000000 0.950673
Si Si6 0.931743 0.336912 0.900825
Si Si7 0.421958 0.397358 0.276673
Si Si8 0.422896 0.396962 0.634331
O O1 0.750000 0.378578 0.177469
O O2 0.963652 0.500000 0.180365
O O3 0.032123 0.345858 0.151466
O O4 0.972815 0.366766 0.235539
O O5 0.750000 0.636828 0.545911
O O6 0.930985 0.500000 0.544565
O O7 0.000000 0.640176 0.500000
O O8 0.006210 0.639927 0.588634
O O9 0.250000 0.500000 0.952027
O O10 0.492433 0.583835 0.926208
O O11 0.500000 0.500000 0.000000
O O12 0.750000 0.173031 0.046598
O O13 0.989730 0.250579 0.081705
O O14 0.999326 0.087335 0.071398
O O15 0.000000 0.191867 0.000000
O O16 0.750000 0.000000 0.949909
O O17 0.500000 0.000000 0.000000
O O18 0.750000 0.334828 0.909265
O O19 0.250000 0.362011 0.269597
O O20 0.423032 0.500000 0.279471
O O21 0.486787 0.359415 0.322992
O O22 0.250000 0.363183 0.637703
O O23 0.430144 0.500000 0.634067
#
# Coordination Sequence:
#
# PCOD8207219 Si02
#       8
#     8   8   4   8   4   8   8   8
#     4  10  19  31  45  59  77 100 128 159 193 230
#     4   9  15  21  28  38  53  73  96 124 162 209
#     4  12  24  38  50  64  84 110 138 166 195 230
#     4  11  21  35  52  71  92 113 136 162 194 231
#     4  10  18  32  52  74  94 112 134 160 192 228
#     4  12  23  35  49  66  86 110 137 166 197 233
#     4   9  16  25  37  51  66  85 112 145 181 218
#     4   9  15  22  31  43  58  76 101 133 170 211
#
# _framework density 13.866078
#
# number of rings (size 3 to 8) (size 9 to 14) (size 15 to 20)
#    0.000    1.857    0.714    6.857    0.000    5.714 
#    0.000    0.000    0.000    0.000    0.000    0.000 
#    0.000    0.000    0.000    0.000    0.000    0.000 
#
# Total GULP energy -694325.654224 kJ/mol
# GULP energy per Si atom -12398.672397 kJ/mol
# Density = 1.383452 g / cm^3
# Si number density = 13.866078 Si / 1000 Ang^3
#
#
#
# Elastic Constant Matrix: (Units=GPa)
#
#
# Indices 1 2 3 4 5 6 
#
# 1 123.7837 28.6677 40.7612 0.0000 0.0000 0.0000
# 2 28.6677 58.0523 26.5389 0.0000 0.0000 0.0000
# 3 40.7612 26.5389 102.6365 0.0000 0.0000 0.0000
# 4 0.0000 0.0000 0.0000 5.9761 0.0000 0.0000
# 5 0.0000 0.0000 0.0000 0.0000 29.2263 0.0000
# 6 0.0000 0.0000 0.0000 0.0000 0.0000 16.0992
#
#
#
# Elastic Compliance Matrix: (Units=1/GPa)
#
#
# Indices 1 2 3 4 5 6 
#
# 1 0.009884 -0.003500 -0.003020 0.000000 0.000000 0.000000
# 2 -0.003500 0.020775 -0.003982 0.000000 0.000000 0.000000
# 3 -0.003020 -0.003982 0.011972 0.000000 0.000000 0.000000
# 4 0.000000 0.000000 0.000000 0.167334 0.000000 0.000000
# 5 0.000000 0.000000 0.000000 0.000000 0.034216 0.000000
# 6 0.000000 0.000000 0.000000 0.000000 0.000000 0.062115
#
#
# Mechanical properties :
#
#
# Convention : Reuss Voigt Hill
#
# Bulk Modulus (GPa) = 46.23982 52.93424 49.58703
# Shear Modulus (GPa) = 14.94733 22.82729 18.88731
#
# Velocity S-wave (km/s) = 3.28682 4.06183 3.69470
# Velocity P-wave (km/s) = 6.91550 7.76248 7.35120
#
# Compressibility (1/GPa) = 0.02162638
#
# Stress axis : x y z
#
# Youngs Moduli (GPa) = 101.17602 48.13583 83.52739
#
# Poissons Ratio (x) = 0.16848 0.25227
# Poissons Ratio (y) = 0.35413 0.33258
# Poissons Ratio (z) = 0.30557 0.19166
#
# Static dielectric constant tensor:
#      x y z
#    x 2.991710 0.000000 0.000000 
#    y 0.000000 2.457660 0.000000 
#    z 0.000000 0.000000 2.875960 
# 
# 
# High freq. dielectric constant tensor:
#      x y z
#    x 1.555250 0.000000 0.000000 
#    y 0.000000 1.455700 0.000000 
#    z 0.000000 0.000000 1.530620 
# 
# From -- ./inp_files/37505.got.cif
#   From: 2010.03.12/outbox.cif.g09.slc.cpg/sg51_19_cif.got.tgz:37505.got - 2010.04.16 13:43:02.
