data_PCOD8207348
_publ_section_title
;
Structure prediction by ZEFSAII (Michael W. Deem and Ramdas Pophale) SiO2 
 PCOD8207348
Probable space group: P M M A
;
_chemical_formula_sum "Si O2"
_cell_formula_units_Z 56
_cell_length_a 14.764712
_cell_length_b 14.097877
_cell_length_c 12.779904
_cell_angle_alpha 90.000000
_cell_angle_beta 90.000000
_cell_angle_gamma 90.000000
_cell_volume 2660.150995
_symmetry_space_group_name_H-M "P M M A"
_symmetry_group_IT_number 51
_symmetry_cell_setting 'orthorhombic'
loop_
_space_group_symop_operation_xyz
x,y,z
1/2-x,-y,z
1/2+x,-y,-z
-x,y,-z
-x,-y,-z
1/2+x,y,-z
1/2-x,y,z
x,-y,z
loop_
_atom_site_type_symbol
_atom_site_label
_atom_site_fract_x
_atom_site_fract_y
_atom_site_fract_z
Si Si1 0.582419 0.604007 0.421102
Si Si2 0.142175 0.894114 0.749787
Si Si3 0.852332 0.196468 0.459365
Si Si4 0.645783 0.253065 0.842224
Si Si5 0.354247 0.255621 0.918134
Si Si6 0.012586 0.391193 0.811948
Si Si7 0.357866 0.893198 0.330237
O O1 0.500000 0.606519 0.500000
O O2 0.630504 0.500000 0.428562
O O3 0.648525 0.689063 0.453865
O O4 0.549486 0.622141 0.304204
O O5 0.250000 0.894426 0.744767
O O6 0.100408 0.849692 0.642943
O O7 0.110067 0.831174 0.847480
O O8 0.103783 0.000000 0.764035
O O9 0.750000 0.160570 0.460891
O O10 0.898806 0.158064 0.565785
O O11 0.750000 0.278830 0.816040
O O12 0.586575 0.345347 0.818418
O O13 0.610630 0.165441 0.771636
O O14 0.634526 0.222658 0.962612
O O15 0.250000 0.282429 0.892579
O O16 0.416733 0.346037 0.894075
O O17 0.001844 0.500000 0.843683
O O18 0.250000 0.894779 0.334892
O O19 0.396493 0.000000 0.322487
#
# Coordination Sequence:
#
# PCOD8207348 Si02
#       7
#     8   8   8   8   8   8   8
#     4  10  21  36  55  80 113 154 193 235 293 355
#     4   9  17  31  54  84 115 148 185 229 286 345
#     4  10  18  32  57  85 114 147 188 241 293 346
#     4  10  22  39  60  85 116 154 200 249 292 344
#     4  10  21  38  59  87 119 154 197 243 293 355
#     4  11  23  40  62  86 118 157 196 245 302 354
#     4   9  18  34  58  87 117 155 201 245 295 352
#
# _framework density 21.051437
#
# number of rings (size 3 to 8) (size 9 to 14) (size 15 to 20)
#    0.000    2.143    1.429    1.714    0.000    4.286 
#    0.000    6.429    0.000    8.571    0.000    0.000 
#    0.000    0.000    0.000    0.000    0.000    0.000 
#
# Total GULP energy -694330.200865 kJ/mol
# GULP energy per Si atom -12398.753587 kJ/mol
# Density = 2.100352 g / cm^3
# Si number density = 21.051437 Si / 1000 Ang^3
#
#
#
# Elastic Constant Matrix: (Units=GPa)
#
#
# Indices 1 2 3 4 5 6 
#
# 1 39.1865 41.8071 25.8104 0.0000 0.0000 0.0000
# 2 41.8071 196.2719 84.9370 0.0000 0.0000 0.0000
# 3 25.8104 84.9370 152.3114 0.0000 0.0000 0.0000
# 4 0.0000 0.0000 0.0000 29.1451 0.0000 0.0000
# 5 0.0000 0.0000 0.0000 0.0000 19.4774 0.0000
# 6 0.0000 0.0000 0.0000 0.0000 0.0000 17.3691
#
#
#
# Elastic Compliance Matrix: (Units=1/GPa)
#
#
# Indices 1 2 3 4 5 6 
#
# 1 0.033596 -0.006185 -0.002244 0.000000 0.000000 0.000000
# 2 -0.006185 0.007854 -0.003332 0.000000 0.000000 0.000000
# 3 -0.002244 -0.003332 0.008804 0.000000 0.000000 0.000000
# 4 0.000000 0.000000 0.000000 0.034311 0.000000 0.000000
# 5 0.000000 0.000000 0.000000 0.000000 0.051341 0.000000
# 6 0.000000 0.000000 0.000000 0.000000 0.000000 0.057574
#
#
# Mechanical properties :
#
#
# Convention : Reuss Voigt Hill
#
# Bulk Modulus (GPa) = 37.40831 76.98652 57.19742
# Shear Modulus (GPa) = 22.13250 28.87935 25.50592
#
# Velocity S-wave (km/s) = 3.24598 3.70786 3.48458
# Velocity P-wave (km/s) = 5.64420 7.41492 6.58931
#
# Compressibility (1/GPa) = 0.02673203
#
# Stress axis : x y z
#
# Youngs Moduli (GPa) = 29.76580 127.31904 113.58755
#
# Poissons Ratio (x) = 0.78747 0.25489
# Poissons Ratio (y) = 0.18410 0.37846
# Poissons Ratio (z) = 0.06679 0.42421
#
# Static dielectric constant tensor:
#      x y z
#    x 3.468500 0.000000 0.000000 
#    y 0.000000 4.025740 0.000000 
#    z 0.000000 0.000000 3.897910 
# 
# 
# High freq. dielectric constant tensor:
#      x y z
#    x 1.802380 0.000000 0.000000 
#    y 0.000000 1.825780 0.000000 
#    z 0.000000 0.000000 1.839360 
# 
# From -- ./inp_files/16566.got.cif
#   From: 2010.03.12/outbox.cif.g09.slc.cpg/sg51_9_cif.got.tgz:16566.got - 2010.04.16 13:43:02.
