data_PCOD8207463
_publ_section_title
;
Structure prediction by ZEFSAII (Michael W. Deem and Ramdas Pophale) SiO2 
 PCOD8207463
Probable space group: P M M A
;
_chemical_formula_sum "Si O2"
_cell_formula_units_Z 52
_cell_length_a 8.863739
_cell_length_b 13.504403
_cell_length_c 23.857372
_cell_angle_alpha 90.000000
_cell_angle_beta 90.000000
_cell_angle_gamma 90.000000
_cell_volume 2855.715584
_symmetry_space_group_name_H-M "P M M A"
_symmetry_group_IT_number 51
_symmetry_cell_setting 'orthorhombic'
loop_
_space_group_symop_operation_xyz
x,y,z
1/2-x,-y,z
1/2+x,-y,-z
-x,y,-z
-x,-y,-z
1/2+x,y,-z
1/2-x,y,z
x,-y,z
loop_
_atom_site_type_symbol
_atom_site_label
_atom_site_fract_x
_atom_site_fract_y
_atom_site_fract_z
Si Si1 0.577960 0.683463 0.620800
Si Si2 0.074233 0.717968 0.838826
Si Si3 0.921227 0.112201 0.776839
Si Si4 0.081251 0.389477 0.257524
Si Si5 0.427269 0.613047 0.058612
Si Si6 0.570590 0.108064 0.650422
Si Si7 0.427983 0.500000 0.560579
O O1 0.750000 0.666874 0.599977
O O2 0.567745 0.677257 0.687694
O O3 0.521758 0.798109 0.610650
O O4 0.475246 0.601263 0.591578
O O5 0.250000 0.717070 0.851471
O O6 0.022047 0.826642 0.820176
O O7 0.037964 0.642051 0.788859
O O8 0.988516 0.686725 0.894649
O O9 0.750000 0.153939 0.777832
O O10 0.989590 0.120503 0.714023
O O11 0.925050 0.000000 0.797951
O O12 0.250000 0.381775 0.231977
O O13 0.043976 0.500000 0.277091
O O14 0.250000 0.626025 0.053351
O O15 0.471067 0.500000 0.074251
O O16 0.500000 0.644259 0.000000
O O17 0.750000 0.106934 0.653750
O O18 0.514478 0.000000 0.626651
O O19 0.250000 0.500000 0.555358
O O20 0.500000 0.500000 0.500000
#
# Coordination Sequence:
#
# PCOD8207463 Si02
#       7
#     8   8   8   8   8   8   4
#     4  10  18  34  58  82 112 146 183 227 274 323
#     4  12  23  32  48  76 111 144 178 220 270 325
#     4   9  17  32  53  75 103 142 185 222 263 320
#     4  10  19  32  50  74 107 146 182 218 266 322
#     4  10  21  38  58  77 100 134 178 225 272 324
#     4   8  14  27  52  83 111 143 182 222 268 327
#     4  12  26  42  60  82 112 148 193 232 275 330
#
# _framework density 18.209095000000001
#
# number of rings (size 3 to 8) (size 9 to 14) (size 15 to 20)
#    0.000    2.000    2.308    3.923    0.000    4.000 
#    0.000    0.000    0.000    1.385    0.000    0.000 
#    0.000    0.000    0.000    0.000    0.000    0.000 
#
# Total GULP energy -644507.609773 kJ/mol
# GULP energy per Si atom -12394.377111 kJ/mol
# Density = 1.816765 g / cm^3
# Si number density = 18.209095 Si / 1000 Ang^3
#
#
#
# Elastic Constant Matrix: (Units=GPa)
#
#
# Indices 1 2 3 4 5 6 
#
# 1 76.7192 34.9876 32.0059 0.0000 0.0000 0.0000
# 2 34.9876 147.9901 41.0628 0.0000 0.0000 0.0000
# 3 32.0059 41.0628 66.5857 0.0000 0.0000 0.0000
# 4 0.0000 0.0000 0.0000 11.7857 0.0000 0.0000
# 5 0.0000 0.0000 0.0000 0.0000 26.3288 0.0000
# 6 0.0000 0.0000 0.0000 0.0000 0.0000 21.4528
#
#
#
# Elastic Compliance Matrix: (Units=1/GPa)
#
#
# Indices 1 2 3 4 5 6 
#
# 1 0.016824 -0.002092 -0.006797 0.000000 0.000000 0.000000
# 2 -0.002092 0.008412 -0.004182 0.000000 0.000000 0.000000
# 3 -0.006797 -0.004182 0.020865 0.000000 0.000000 0.000000
# 4 0.000000 0.000000 0.000000 0.084849 0.000000 0.000000
# 5 0.000000 0.000000 0.000000 0.000000 0.037981 0.000000
# 6 0.000000 0.000000 0.000000 0.000000 0.000000 0.046614
#
#
# Mechanical properties :
#
#
# Convention : Reuss Voigt Hill
#
# Bulk Modulus (GPa) = 50.10282 56.37862 53.24072
# Shear Modulus (GPa) = 20.13376 24.12939 22.13157
#
# Velocity S-wave (km/s) = 3.32881 3.64418 3.49006
# Velocity P-wave (km/s) = 6.50766 6.98110 6.74853
#
# Compressibility (1/GPa) = 0.01995896
#
# Stress axis : x y z
#
# Youngs Moduli (GPa) = 59.43904 118.87543 47.92810
#
# Poissons Ratio (x) = 0.24863 0.32577
# Poissons Ratio (y) = 0.12432 0.20045
# Poissons Ratio (z) = 0.40401 0.49718
#
# Static dielectric constant tensor:
#      x y z
#    x 3.153150 0.000000 0.000000 
#    y 0.000000 3.806750 0.000000 
#    z 0.000000 0.000000 3.116950 
# 
# 
# High freq. dielectric constant tensor:
#      x y z
#    x 1.683590 0.000000 0.000000 
#    y 0.000000 1.722770 0.000000 
#    z 0.000000 0.000000 1.673360 
# 
# From -- ./inp_files/31757.got.cif
#   From: 2010.03.12/outbox.cif.g09.slc.cpg/sg51_16_cif.got.tgz:31757.got - 2010.04.16 13:43:02.
