data_PCOD8207217
_publ_section_title
;
Structure prediction by ZEFSAII (Michael W. Deem and Ramdas Pophale) SiO2 
 PCOD8207217
Probable space group: P M M A
;
_chemical_formula_sum "Si O2"
_cell_formula_units_Z 48
_cell_length_a 8.797654
_cell_length_b 9.953543
_cell_length_c 29.170570
_cell_angle_alpha 90.000000
_cell_angle_beta 90.000000
_cell_angle_gamma 90.000000
_cell_volume 2554.403439
_symmetry_space_group_name_H-M "P M M A"
_symmetry_group_IT_number 51
_symmetry_cell_setting 'orthorhombic'
loop_
_space_group_symop_operation_xyz
x,y,z
1/2-x,-y,z
1/2+x,-y,-z
-x,y,-z
-x,-y,-z
1/2+x,y,-z
1/2-x,y,z
x,-y,z
loop_
_atom_site_type_symbol
_atom_site_label
_atom_site_fract_x
_atom_site_fract_y
_atom_site_fract_z
Si Si1 0.428776 0.153119 0.047696
Si Si2 0.568973 0.500000 0.449175
Si Si3 0.927242 0.346076 0.121475
Si Si4 0.927712 0.652839 0.781184
Si Si5 0.430340 0.245756 0.606741
Si Si6 0.070397 0.841881 0.705911
Si Si7 0.430371 0.000000 0.549138
O O1 0.250000 0.165768 0.043211
O O2 0.484645 0.248787 0.087706
O O3 0.478610 0.000000 0.058629
O O4 0.500000 0.202184 0.000000
O O5 0.750000 0.500000 0.454593
O O6 0.500000 0.500000 0.500000
O O7 0.508113 0.377497 0.418506
O O8 0.750000 0.313855 0.118665
O O9 0.962279 0.500000 0.107824
O O10 0.983082 0.316050 0.172471
O O11 0.750000 0.671953 0.790405
O O12 0.962724 0.500000 0.764393
O O13 0.982470 0.762333 0.744981
O O14 0.250000 0.244175 0.607663
O O15 0.487834 0.225975 0.658641
O O16 0.494723 0.126434 0.576177
O O17 0.250000 0.822721 0.712365
O O18 0.028308 0.000000 0.706904
O O19 0.500000 0.000000 0.500000
O O20 0.250000 0.000000 0.545943
#
# Coordination Sequence:
#
# PCOD8207217 Si02
#       7
#     8   4   8   8   8   8   4
#     4  10  21  37  58  85 118 157 198 240 287 337
#     4  10  20  34  52  76 104 136 174 216 263 316
#     4  10  21  38  60  86 114 148 193 239 283 336
#     4  10  22  39  58  82 113 147 182 227 282 337
#     4   9  18  33  53  76 102 134 174 217 262 317
#     4  10  20  36  58  83 108 139 183 230 273 326
#     4  10  18  32  52  74 102 134 170 212 259 314
#
# _framework density 18.791080000000001
#
# number of rings (size 3 to 8) (size 9 to 14) (size 15 to 20)
#    0.000    2.167    0.833    2.000    1.167    4.333 
#    0.000    1.667    0.000    0.000    0.000    0.000 
#    0.000    0.000    0.000    0.000    0.000    0.000 
#
# Total GULP energy -595149.936318 kJ/mol
# GULP energy per Si atom -12398.957007 kJ/mol
# Density = 1.874831 g / cm^3
# Si number density = 18.791080 Si / 1000 Ang^3
#
#
#
# Elastic Constant Matrix: (Units=GPa)
#
#
# Indices 1 2 3 4 5 6 
#
# 1 40.6515 24.3467 21.2076 0.0000 0.0000 0.0000
# 2 24.3467 126.4474 64.5572 0.0000 0.0000 0.0000
# 3 21.2076 64.5572 108.8965 0.0000 0.0000 0.0000
# 4 0.0000 0.0000 0.0000 27.9062 0.0000 0.0000
# 5 0.0000 0.0000 0.0000 0.0000 36.6056 0.0000
# 6 0.0000 0.0000 0.0000 0.0000 0.0000 18.1379
#
#
#
# Elastic Compliance Matrix: (Units=1/GPa)
#
#
# Indices 1 2 3 4 5 6 
#
# 1 0.028613 -0.003821 -0.003307 0.000000 0.000000 0.000000
# 2 -0.003821 0.011851 -0.006282 0.000000 0.000000 0.000000
# 3 -0.003307 -0.006282 0.013551 0.000000 0.000000 0.000000
# 4 0.000000 0.000000 0.000000 0.035834 0.000000 0.000000
# 5 0.000000 0.000000 0.000000 0.000000 0.027318 0.000000
# 6 0.000000 0.000000 0.000000 0.000000 0.000000 0.055133
#
#
# Mechanical properties :
#
#
# Convention : Reuss Voigt Hill
#
# Bulk Modulus (GPa) = 36.77032 55.13539 45.95285
# Shear Modulus (GPa) = 24.01702 27.58887 25.80294
#
# Velocity S-wave (km/s) = 3.57894 3.83585 3.70962
# Velocity P-wave (km/s) = 6.05713 7.00166 6.54646
#
# Compressibility (1/GPa) = 0.02719585
#
# Stress axis : x y z
#
# Youngs Moduli (GPa) = 34.94912 84.38000 73.79474
#
# Poissons Ratio (x) = 0.32239 0.24407
# Poissons Ratio (y) = 0.13353 0.46355
# Poissons Ratio (z) = 0.11559 0.53005
#
# Static dielectric constant tensor:
#      x y z
#    x 3.296610 0.000000 0.000000 
#    y 0.000000 3.684840 0.000000 
#    z 0.000000 0.000000 2.996800 
# 
# 
# High freq. dielectric constant tensor:
#      x y z
#    x 1.716080 0.000000 0.000000 
#    y 0.000000 1.740880 0.000000 
#    z 0.000000 0.000000 1.740240 
# 
# From -- ./inp_files/37225.got.cif
#   From: 2010.03.12/outbox.cif.g09.slc.cpg/sg51_19_cif.got.tgz:37225.got - 2010.04.16 13:43:02.
