data_PCOD8207661
_publ_section_title
;
Structure prediction by ZEFSAII (Michael W. Deem and Ramdas Pophale) SiO2 
 PCOD8207661
Probable space group: P M M A
;
_chemical_formula_sum "Si O2"
_cell_formula_units_Z 36
_cell_length_a 9.123329
_cell_length_b 12.693034
_cell_length_c 19.509133
_cell_angle_alpha 90.000000
_cell_angle_beta 90.000000
_cell_angle_gamma 90.000000
_cell_volume 2259.210767
_symmetry_space_group_name_H-M "P M M A"
_symmetry_group_IT_number 51
_symmetry_cell_setting 'orthorhombic'
loop_
_space_group_symop_operation_xyz
x,y,z
1/2-x,-y,z
1/2+x,-y,-z
-x,y,-z
-x,-y,-z
1/2+x,y,-z
1/2-x,y,z
x,-y,z
loop_
_atom_site_type_symbol
_atom_site_label
_atom_site_fract_x
_atom_site_fract_y
_atom_site_fract_z
Si Si1 0.420551 0.118955 0.068369
Si Si2 0.578264 0.377395 0.297512
Si Si3 0.078544 0.694705 0.165822
Si Si4 0.084331 0.625364 0.433721
Si Si5 0.078549 0.500000 0.072143
O O1 0.250000 0.126097 0.052097
O O2 0.461644 0.193776 0.131623
O O3 0.468856 0.000000 0.087451
O O4 0.500000 0.158987 0.000000
O O5 0.750000 0.356831 0.304962
O O6 0.542969 0.500000 0.284934
O O7 0.514659 0.310896 0.234830
O O8 0.500265 0.335885 0.366183
O O9 0.250000 0.684715 0.183977
O O10 0.029927 0.602499 0.114409
O O11 0.250000 0.669483 0.432869
O O12 0.085472 0.500000 0.436683
O O13 0.000000 0.670900 0.500000
O O14 0.250000 0.500000 0.057583
O O15 0.000000 0.500000 0.000000
#
# Coordination Sequence:
#
# PCOD8207661 Si02
#       5
#     8   8   8   8   4
#     4   9  18  32  49  67  86 111 145 186 230 272
#     4  10  19  29  42  62  88 118 151 185 221 263
#     4  10  19  31  45  62  87 117 147 181 222 269
#     4   9  16  26  41  60  85 118 153 186 217 255
#     4  10  20  30  42  60  83 112 145 178 216 262
#
# _framework density 15.934768
#
# number of rings (size 3 to 8) (size 9 to 14) (size 15 to 20)
#    0.000    2.444    1.111    2.000    0.000    5.333 
#    0.000    0.000    0.000    0.000    0.000    0.000 
#    0.000    0.889    0.000    2.444    0.000    3.556 
#
# Total GULP energy -446464.028492 kJ/mol
# GULP energy per Si atom -12401.778569 kJ/mol
# Density = 1.589850 g / cm^3
# Si number density = 15.934768 Si / 1000 Ang^3
#
#
#
# Elastic Constant Matrix: (Units=GPa)
#
#
# Indices 1 2 3 4 5 6 
#
# 1 88.6926 30.3886 74.5169 0.0000 0.0000 0.0000
# 2 30.3886 55.6227 44.4106 0.0000 0.0000 0.0000
# 3 74.5169 44.4106 155.4398 0.0000 0.0000 0.0000
# 4 0.0000 0.0000 0.0000 15.0618 0.0000 0.0000
# 5 0.0000 0.0000 0.0000 0.0000 38.0387 0.0000
# 6 0.0000 0.0000 0.0000 0.0000 0.0000 11.4797
#
#
#
# Elastic Compliance Matrix: (Units=1/GPa)
#
#
# Indices 1 2 3 4 5 6 
#
# 1 0.019592 -0.004152 -0.008206 0.000000 0.000000 0.000000
# 2 -0.004152 0.024171 -0.004916 0.000000 0.000000 0.000000
# 3 -0.008206 -0.004916 0.011772 0.000000 0.000000 0.000000
# 4 0.000000 0.000000 0.000000 0.066393 0.000000 0.000000
# 5 0.000000 0.000000 0.000000 0.000000 0.026289 0.000000
# 6 0.000000 0.000000 0.000000 0.000000 0.000000 0.087110
#
#
# Mechanical properties :
#
#
# Convention : Reuss Voigt Hill
#
# Bulk Modulus (GPa) = 47.64624 66.48748 57.06686
# Shear Modulus (GPa) = 18.05901 22.94531 20.50216
#
# Velocity S-wave (km/s) = 3.37012 3.79879 3.59085
# Velocity P-wave (km/s) = 6.71635 7.81386 7.28580
#
# Compressibility (1/GPa) = 0.02098801
#
# Stress axis : x y z
#
# Youngs Moduli (GPa) = 51.04154 41.37136 84.94936
#
# Poissons Ratio (x) = 0.17177 0.69710
# Poissons Ratio (y) = 0.21191 0.41758
# Poissons Ratio (z) = 0.41885 0.20337
#
# Static dielectric constant tensor:
#      x y z
#    x 3.082030 0.000000 0.000000 
#    y 0.000000 2.813620 0.000000 
#    z 0.000000 0.000000 3.062840 
# 
# 
# High freq. dielectric constant tensor:
#      x y z
#    x 1.620810 0.000000 0.000000 
#    y 0.000000 1.564090 0.000000 
#    z 0.000000 0.000000 1.618030 
# 
# From -- ./inp_files/20360.got.cif
#   From: 2010.03.12/outbox.cif.g09.slc.cpg/sg51_11_cif.got.tgz:20360.got - 2010.04.16 13:43:02.
