data_PCOD8207017
_publ_section_title
;
Structure prediction by ZEFSAII (Michael W. Deem and Ramdas Pophale) SiO2 
 PCOD8207017
Probable space group: P M M A
;
_chemical_formula_sum "Si O2"
_cell_formula_units_Z 64
_cell_length_a 29.084151
_cell_length_b 8.972205
_cell_length_c 12.346577
_cell_angle_alpha 90.000000
_cell_angle_beta 90.000000
_cell_angle_gamma 90.000000
_cell_volume 3221.826490
_symmetry_space_group_name_H-M "P M M A"
_symmetry_group_IT_number 51
_symmetry_cell_setting 'orthorhombic'
loop_
_space_group_symop_operation_xyz
x,y,z
1/2-x,-y,z
1/2+x,-y,-z
-x,y,-z
-x,-y,-z
1/2+x,y,-z
1/2-x,y,z
x,-y,z
loop_
_atom_site_type_symbol
_atom_site_label
_atom_site_fract_x
_atom_site_fract_y
_atom_site_fract_z
Si Si1 0.392335 0.172605 0.381021
Si Si2 0.559149 0.328111 0.815001
Si Si3 0.679198 0.672000 0.322103
Si Si4 0.699113 0.171394 0.109422
Si Si5 0.590789 0.168648 0.376492
Si Si6 0.965390 0.170678 0.176557
Si Si7 0.110497 0.672986 0.967269
Si Si8 0.699163 0.327930 0.565240
O O1 0.423200 0.254859 0.294215
O O2 0.416622 0.204602 0.496770
O O3 0.339630 0.229183 0.377287
O O4 0.391701 0.000000 0.351607
O O5 0.550170 0.500000 0.791941
O O6 0.511303 0.257846 0.853917
O O7 0.596305 0.302439 0.908674
O O8 0.684867 0.500000 0.289824
O O9 0.703600 0.772370 0.232639
O O10 0.625566 0.712945 0.325260
O O11 0.701665 0.707231 0.437709
O O12 0.750000 0.188021 0.056633
O O13 0.662593 0.268823 0.042739
O O14 0.683031 0.000000 0.108699
O O15 0.544089 0.183306 0.306444
O O16 0.610637 0.000000 0.365640
O O17 0.922432 0.235981 0.111789
O O18 0.971985 0.000000 0.141850
O O19 0.108315 0.500000 0.934587
O O20 0.750000 0.292011 0.613361
O O21 0.686043 0.500000 0.584477
#
# Coordination Sequence:
#
# PCOD8207017 Si02
#       8
#     8   8   8   8   8   8   8   8
#     4  10  21  38  59  84 117 155 198 243 292 348
#     4  11  25  43  61  84 116 154 200 249 297 348
#     4  10  18  30  53  84 119 156 192 232 283 344
#     4  11  23  37  56  85 120 155 191 236 292 351
#     4   9  19  35  56  86 123 156 187 233 289 342
#     4  11  22  38  64  93 121 153 191 238 297 355
#     4  11  24  42  63  87 117 153 196 247 294 344
#     4   9  18  33  54  82 116 154 196 240 288 344
#
# _framework density 19.864509999999999
#
# number of rings (size 3 to 8) (size 9 to 14) (size 15 to 20)
#    0.000    1.750    1.250    3.000    0.000    7.250 
#    0.000    3.125    0.000    0.750    0.000    0.000 
#    0.000    0.000    0.000    0.000    0.000    0.000 
#
# Total GULP energy -793642.627935 kJ/mol
# GULP energy per Si atom -12400.666061 kJ/mol
# Density = 1.981930 g / cm^3
# Si number density = 19.864510 Si / 1000 Ang^3
#
#
#
# Elastic Constant Matrix: (Units=GPa)
#
#
# Indices 1 2 3 4 5 6 
#
# 1 101.4316 51.0682 30.3059 0.0000 0.0000 0.0000
# 2 51.0682 113.9446 38.1458 0.0000 0.0000 0.0000
# 3 30.3059 38.1458 58.9760 0.0000 0.0000 0.0000
# 4 0.0000 0.0000 0.0000 28.5819 0.0000 0.0000
# 5 0.0000 0.0000 0.0000 0.0000 6.2697 0.0000
# 6 0.0000 0.0000 0.0000 0.0000 0.0000 33.4800
#
#
#
# Elastic Compliance Matrix: (Units=1/GPa)
#
#
# Indices 1 2 3 4 5 6 
#
# 1 0.013375 -0.004714 -0.003824 0.000000 0.000000 0.000000
# 2 -0.004714 0.012863 -0.005898 0.000000 0.000000 0.000000
# 3 -0.003824 -0.005898 0.022735 0.000000 0.000000 0.000000
# 4 0.000000 0.000000 0.000000 0.034987 0.000000 0.000000
# 5 0.000000 0.000000 0.000000 0.000000 0.159498 0.000000
# 6 0.000000 0.000000 0.000000 0.000000 0.000000 0.029869
#
#
# Mechanical properties :
#
#
# Convention : Reuss Voigt Hill
#
# Bulk Modulus (GPa) = 49.74472 57.04356 53.39414
# Shear Modulus (GPa) = 16.18651 23.98848 20.08749
#
# Velocity S-wave (km/s) = 2.85765 3.47883 3.18343
# Velocity P-wave (km/s) = 5.99871 6.70187 6.36001
#
# Compressibility (1/GPa) = 0.02010263
#
# Stress axis : x y z
#
# Youngs Moduli (GPa) = 74.76719 77.73969 43.98417
#
# Poissons Ratio (x) = 0.36649 0.16818
# Poissons Ratio (y) = 0.35248 0.25940
# Poissons Ratio (z) = 0.28588 0.45847
#
# Static dielectric constant tensor:
#      x y z
#    x 3.710130 0.000000 0.000000 
#    y 0.000000 3.732280 0.000000 
#    z 0.000000 0.000000 3.493890 
# 
# 
# High freq. dielectric constant tensor:
#      x y z
#    x 1.773940 0.000000 0.000000 
#    y 0.000000 1.785690 0.000000 
#    z 0.000000 0.000000 1.758570 
# 
# From -- ./inp_files/19585.got.cif
#   From: 2010.03.12/outbox.cif.g09.slc.cpg/sg51_10_cif.got.tgz:19585.got - 2010.04.16 13:43:02.
