data_PCOD8207630
_publ_section_title
;
Structure prediction by ZEFSAII (Michael W. Deem and Ramdas Pophale) SiO2 
 PCOD8207630
Probable space group: P M M A
;
_chemical_formula_sum "Si O2"
_cell_formula_units_Z 64
_cell_length_a 9.209562
_cell_length_b 21.340962
_cell_length_c 21.141787
_cell_angle_alpha 90.000000
_cell_angle_beta 90.000000
_cell_angle_gamma 90.000000
_cell_volume 4155.226113
_symmetry_space_group_name_H-M "P M M A"
_symmetry_group_IT_number 51
_symmetry_cell_setting 'orthorhombic'
loop_
_space_group_symop_operation_xyz
x,y,z
1/2-x,-y,z
1/2+x,-y,-z
-x,y,-z
-x,-y,-z
1/2+x,y,-z
1/2-x,y,z
x,-y,z
loop_
_atom_site_type_symbol
_atom_site_label
_atom_site_fract_x
_atom_site_fract_y
_atom_site_fract_z
Si Si1 0.086763 0.654677 0.837670
Si Si2 0.921310 0.928829 0.435063
Si Si3 0.912819 0.070185 0.207465
Si Si4 0.084954 0.743965 0.245114
Si Si5 0.091448 0.754569 0.945248
Si Si6 0.582921 0.425967 0.935921
Si Si7 0.084024 0.161440 0.676029
Si Si8 0.588093 0.158197 0.869170
O O1 0.250000 0.630442 0.819640
O O2 0.104771 0.711960 0.884651
O O3 0.003090 0.680779 0.775304
O O4 0.994227 0.601162 0.873147
O O5 0.750000 0.923799 0.445046
O O6 0.974155 0.875637 0.385601
O O7 0.000000 0.912456 0.500000
O O8 0.961451 0.000000 0.412762
O O9 0.750000 0.075461 0.180400
O O10 0.929466 0.111210 0.269178
O O11 0.022006 0.092627 0.153353
O O12 0.953255 0.000000 0.226850
O O13 0.250000 0.725079 0.262798
O O14 0.084084 0.791799 0.187255
O O15 0.010923 0.776992 0.306478
O O16 0.250000 0.771782 0.971434
O O17 0.006201 0.817862 0.927988
O O18 0.000000 0.719279 0.000000
O O19 0.750000 0.402020 0.940099
O O20 0.577890 0.500000 0.928379
O O21 0.500000 0.405191 0.000000
O O22 0.250000 0.183769 0.667161
O O23 0.750000 0.146386 0.893118
#
# Coordination Sequence:
#
# PCOD8207630 Si02
#       8
#     8   8   8   8   8   8   8   8
#     4  10  19  30  45  63  83 107 135 168 205 244
#     4   9  17  28  41  58  82 113 147 181 215 252
#     4   9  16  26  41  58  74  94 120 151 189 233
#     4   9  17  28  42  60  81 103 129 165 207 247
#     4  10  19  29  42  59  76  95 120 151 189 232
#     4  10  20  32  45  62  86 116 148 180 212 247
#     4   9  16  27  42  59  80 105 135 169 205 245
#     4   9  17  28  40  55  75  95 116 147 187 231
#
# _framework density 15.402290000000001
#
# number of rings (size 3 to 8) (size 9 to 14) (size 15 to 20)
#    0.000    2.625    0.000    2.625    0.000    8.500 
#    0.000    0.000    0.000    2.625    0.000    0.000 
#    0.000    0.000    0.000    0.000    0.000    0.625 
#
# Total GULP energy -793204.907259 kJ/mol
# GULP energy per Si atom -12393.826676 kJ/mol
# Density = 1.536723 g / cm^3
# Si number density = 15.402290 Si / 1000 Ang^3
#
#
#
# Elastic Constant Matrix: (Units=GPa)
#
#
# Indices 1 2 3 4 5 6 
#
# 1 114.9541 31.6593 34.0806 0.0000 0.0000 0.0000
# 2 31.6593 42.4759 22.9806 0.0000 0.0000 0.0000
# 3 34.0806 22.9806 48.6754 0.0000 0.0000 0.0000
# 4 0.0000 0.0000 0.0000 24.5354 0.0000 0.0000
# 5 0.0000 0.0000 0.0000 0.0000 22.3211 0.0000
# 6 0.0000 0.0000 0.0000 0.0000 0.0000 45.0916
#
#
#
# Elastic Compliance Matrix: (Units=1/GPa)
#
#
# Indices 1 2 3 4 5 6 
#
# 1 0.011986 -0.005901 -0.005607 0.000000 0.000000 0.000000
# 2 -0.005901 0.034524 -0.012168 0.000000 0.000000 0.000000
# 3 -0.005607 -0.012168 0.030215 0.000000 0.000000 0.000000
# 4 0.000000 0.000000 0.000000 0.040757 0.000000 0.000000
# 5 0.000000 0.000000 0.000000 0.000000 0.044801 0.000000
# 6 0.000000 0.000000 0.000000 0.000000 0.000000 0.022177
#
#
# Mechanical properties :
#
#
# Convention : Reuss Voigt Hill
#
# Bulk Modulus (GPa) = 34.04329 42.61626 38.32977
# Shear Modulus (GPa) = 20.69517 26.21529 23.45523
#
# Velocity S-wave (km/s) = 3.66955 4.13005 3.90659
# Velocity P-wave (km/s) = 6.33284 7.10436 6.72967
#
# Compressibility (1/GPa) = 0.02937437
#
# Stress axis : x y z
#
# Youngs Moduli (GPa) = 83.42773 28.96530 33.09665
#
# Poissons Ratio (x) = 0.17092 0.18556
# Poissons Ratio (y) = 0.49228 0.40272
# Poissons Ratio (z) = 0.46774 0.35245
#
# Static dielectric constant tensor:
#      x y z
#    x 3.284070 0.000000 0.000000 
#    y 0.000000 2.791600 0.000000 
#    z 0.000000 0.000000 2.759330 
# 
# 
# High freq. dielectric constant tensor:
#      x y z
#    x 1.607750 0.000000 0.000000 
#    y 0.000000 1.560700 0.000000 
#    z 0.000000 0.000000 1.549340 
# 
# From -- ./inp_files/32541.got.cif
#   From: 2010.03.12/outbox.cif.g09.slc.cpg/sg51_17_cif.got.tgz:32541.got - 2010.04.16 13:43:02.
