data_PCOD8207077
_publ_section_title
;
Structure prediction by ZEFSAII (Michael W. Deem and Ramdas Pophale) SiO2 
 PCOD8207077
Probable space group: P M M A
;
_chemical_formula_sum "Si O2"
_cell_formula_units_Z 52
_cell_length_a 8.766840
_cell_length_b 16.464205
_cell_length_c 19.152295
_cell_angle_alpha 90.000000
_cell_angle_beta 90.000000
_cell_angle_gamma 90.000000
_cell_volume 2764.424084
_symmetry_space_group_name_H-M "P M M A"
_symmetry_group_IT_number 51
_symmetry_cell_setting 'orthorhombic'
loop_
_space_group_symop_operation_xyz
x,y,z
1/2-x,-y,z
1/2+x,-y,-z
-x,y,-z
-x,-y,-z
1/2+x,y,-z
1/2-x,y,z
x,-y,z
loop_
_atom_site_type_symbol
_atom_site_label
_atom_site_fract_x
_atom_site_fract_y
_atom_site_fract_z
Si Si1 0.920788 0.000000 0.815262
Si Si2 0.070852 0.826769 0.687946
Si Si3 0.924179 0.174775 0.838639
Si Si4 0.072742 0.592213 0.194422
Si Si5 0.930314 0.500000 0.424163
Si Si6 0.572728 0.349675 0.331290
Si Si7 0.423784 0.000000 0.673531
Si Si8 0.571040 0.688595 0.075089
O O1 0.938635 0.080558 0.862224
O O2 0.051515 0.000000 0.756647
O O3 0.750000 0.000000 0.780497
O O4 0.250000 0.837649 0.705180
O O5 0.046719 0.743975 0.641890
O O6 0.981355 0.815131 0.759753
O O7 0.010830 0.910635 0.648337
O O8 0.750000 0.205787 0.842087
O O9 0.023480 0.225193 0.892840
O O10 0.250000 0.607562 0.181677
O O11 0.034458 0.500000 0.212734
O O12 0.017378 0.645629 0.259060
O O13 0.984037 0.616148 0.124756
O O14 0.750000 0.500000 0.430826
O O15 0.988095 0.582259 0.385403
O O16 0.000000 0.500000 0.500000
O O17 0.750000 0.366238 0.316115
O O18 0.250000 0.000000 0.651356
O O19 0.750000 0.685383 0.067389
O O20 0.500000 0.675012 0.000000
#
# Coordination Sequence:
#
# PCOD8207077 Si02
#       8
#     4   8   8   8   4   8   4   8
#     4   8  16  28  45  69 100 135 168 213 269 324
#     4   9  16  27  47  75 105 140 176 218 268 319
#     4  10  18  31  50  74 103 135 175 220 271 325
#     4  11  23  38  58  83 107 134 173 218 265 324
#     4  10  22  38  56  82 117 152 185 224 264 318
#     4  10  19  33  55  82 111 145 183 219 266 319
#     4   8  14  24  40  69 106 135 171 217 263 314
#     4  12  25  40  56  74 100 136 178 227 280 329
#
# _framework density 18.810428999999999
#
# number of rings (size 3 to 8) (size 9 to 14) (size 15 to 20)
#    0.000    2.000    2.308    2.308    0.000    2.462 
#    0.000    0.385    0.000    0.000    0.000    0.538 
#    0.000    0.000    0.000    0.000    0.000    0.000 
#
# Total GULP energy -644205.166443 kJ/mol
# GULP energy per Si atom -12388.560893 kJ/mol
# Density = 1.876762 g / cm^3
# Si number density = 18.810429 Si / 1000 Ang^3
#
#
#
# Elastic Constant Matrix: (Units=GPa)
#
#
# Indices 1 2 3 4 5 6 
#
# 1 73.4493 30.4053 15.6631 0.0000 0.0000 0.0000
# 2 30.4053 176.4456 42.1231 0.0000 0.0000 0.0000
# 3 15.6631 42.1231 59.9238 0.0000 0.0000 0.0000
# 4 0.0000 0.0000 0.0000 15.4950 0.0000 0.0000
# 5 0.0000 0.0000 0.0000 0.0000 23.1016 0.0000
# 6 0.0000 0.0000 0.0000 0.0000 0.0000 22.0823
#
#
#
# Elastic Compliance Matrix: (Units=1/GPa)
#
#
# Indices 1 2 3 4 5 6 
#
# 1 0.014972 -0.001978 -0.002523 0.000000 0.000000 0.000000
# 2 -0.001978 0.007072 -0.004454 0.000000 0.000000 0.000000
# 3 -0.002523 -0.004454 0.020478 0.000000 0.000000 0.000000
# 4 0.000000 0.000000 0.000000 0.064537 0.000000 0.000000
# 5 0.000000 0.000000 0.000000 0.000000 0.043287 0.000000
# 6 0.000000 0.000000 0.000000 0.000000 0.000000 0.045285
#
#
# Mechanical properties :
#
#
# Convention : Reuss Voigt Hill
#
# Bulk Modulus (GPa) = 40.63083 54.02241 47.32662
# Shear Modulus (GPa) = 22.54853 26.91093 24.72973
#
# Velocity S-wave (km/s) = 3.46602 3.78648 3.62979
# Velocity P-wave (km/s) = 6.13716 6.92086 6.54076
#
# Compressibility (1/GPa) = 0.02461185
#
# Stress axis : x y z
#
# Youngs Moduli (GPa) = 66.79343 141.41172 48.83219
#
# Poissons Ratio (x) = 0.27965 0.12321
# Poissons Ratio (y) = 0.13209 0.21750
# Poissons Ratio (z) = 0.16853 0.62985
#
# Static dielectric constant tensor:
#      x y z
#    x 3.454860 0.000000 0.000000 
#    y 0.000000 4.249060 0.000000 
#    z 0.000000 0.000000 3.024870 
# 
# 
# High freq. dielectric constant tensor:
#      x y z
#    x 1.731290 0.000000 0.000000 
#    y 0.000000 1.768460 0.000000 
#    z 0.000000 0.000000 1.664550 
# 
# From -- ./inp_files/27986.got.cif
#   From: 2010.03.12/outbox.cif.g09.slc.cpg/sg51_14_cif.got.tgz:27986.got - 2010.04.16 13:43:02.
