data_PCOD8207549
_publ_section_title
;
Structure prediction by ZEFSAII (Michael W. Deem and Ramdas Pophale) SiO2 
 PCOD8207549
Probable space group: P M M A
;
_chemical_formula_sum "Si O2"
_cell_formula_units_Z 64
_cell_length_a 9.208790
_cell_length_b 26.010129
_cell_length_c 18.249633
_cell_angle_alpha 90.000000
_cell_angle_beta 90.000000
_cell_angle_gamma 90.000000
_cell_volume 4371.185234
_symmetry_space_group_name_H-M "P M M A"
_symmetry_group_IT_number 51
_symmetry_cell_setting 'orthorhombic'
loop_
_space_group_symop_operation_xyz
x,y,z
1/2-x,-y,z
1/2+x,-y,-z
-x,y,-z
-x,-y,-z
1/2+x,y,-z
1/2-x,y,z
x,-y,z
loop_
_atom_site_type_symbol
_atom_site_label
_atom_site_fract_x
_atom_site_fract_y
_atom_site_fract_z
Si Si1 0.411948 0.293433 0.305030
Si Si2 0.917720 0.059993 0.573805
Si Si3 0.417752 0.759846 0.576111
Si Si4 0.082809 0.137728 0.668957
Si Si5 0.579832 0.442124 0.925483
Si Si6 0.920627 0.250397 0.925044
Si Si7 0.422238 0.653244 0.165357
Si Si8 0.910351 0.189574 0.786566
O O1 0.250000 0.307864 0.333393
O O2 0.517558 0.286291 0.374345
O O3 0.476227 0.336950 0.249175
O O4 0.403735 0.241814 0.258633
O O5 0.750000 0.075897 0.564981
O O6 0.000000 0.076019 0.500000
O O7 0.989121 0.089930 0.640955
O O8 0.935375 0.000000 0.590411
O O9 0.500000 0.761830 0.500000
O O10 0.250000 0.747832 0.562090
O O11 0.440763 0.814352 0.615109
O O12 0.250000 0.121436 0.673901
O O13 0.026718 0.151111 0.750537
O O14 0.750000 0.436336 0.940578
O O15 0.539582 0.500000 0.900527
O O16 0.528165 0.403191 0.861682
O O17 0.500000 0.427088 0.000000
O O18 0.750000 0.254748 0.939810
O O19 0.982225 0.303824 0.891120
O O20 0.955793 0.203395 0.869572
O O21 0.000000 0.237682 0.000000
O O22 0.250000 0.659029 0.167504
O O23 0.750000 0.163963 0.785013
#
# Coordination Sequence:
#
# PCOD8207549 Si02
#       8
#     8   8   8   8   8   8   8   8
#     4   8  14  26  41  53  70  99 131 162 194 229
#     4  10  20  32  45  61  82 108 137 168 198 227
#     4  10  19  28  39  58  81 103 129 158 190 230
#     4  10  19  29  43  61  80 105 135 165 196 230
#     4   9  16  25  37  54  77 104 134 167 198 229
#     4   9  16  25  38  56  78 105 135 166 199 235
#     4   8  14  25  39  54  74 103 136 164 196 236
#     4   8  15  27  40  54  75 103 132 162 197 235
#
# _framework density 14.641339
#
# number of rings (size 3 to 8) (size 9 to 14) (size 15 to 20)
#    0.000    3.000    0.000    3.375    0.000    3.750 
#    0.000    2.500    0.000    0.000    0.000    0.000 
#    0.000    1.000    0.000    2.500    0.000    3.250 
#
# Total GULP energy -793314.764994 kJ/mol
# GULP energy per Si atom -12395.543203 kJ/mol
# Density = 1.460801 g / cm^3
# Si number density = 14.641339 Si / 1000 Ang^3
#
#
#
# Elastic Constant Matrix: (Units=GPa)
#
#
# Indices 1 2 3 4 5 6 
#
# 1 80.1712 35.0692 49.9322 0.0000 0.0000 0.0000
# 2 35.0692 53.7829 33.2826 0.0000 0.0000 0.0000
# 3 49.9322 33.2826 86.4691 0.0000 0.0000 0.0000
# 4 0.0000 0.0000 0.0000 24.7273 0.0000 0.0000
# 5 0.0000 0.0000 0.0000 0.0000 26.2562 0.0000
# 6 0.0000 0.0000 0.0000 0.0000 0.0000 14.1162
#
#
#
# Elastic Compliance Matrix: (Units=1/GPa)
#
#
# Indices 1 2 3 4 5 6 
#
# 1 0.022121 -0.008557 -0.009480 0.000000 0.000000 0.000000
# 2 -0.008557 0.027717 -0.005727 0.000000 0.000000 0.000000
# 3 -0.009480 -0.005727 0.019244 0.000000 0.000000 0.000000
# 4 0.000000 0.000000 0.000000 0.040441 0.000000 0.000000
# 5 0.000000 0.000000 0.000000 0.000000 0.038086 0.000000
# 6 0.000000 0.000000 0.000000 0.000000 0.000000 0.070841
#
#
# Mechanical properties :
#
#
# Convention : Reuss Voigt Hill
#
# Bulk Modulus (GPa) = 46.39800 50.77680 48.58740
# Shear Modulus (GPa) = 18.30409 19.82922 19.06665
#
# Velocity S-wave (km/s) = 3.53960 3.68412 3.61258
# Velocity P-wave (km/s) = 6.96158 7.26998 7.11745
#
# Compressibility (1/GPa) = 0.02155266
#
# Stress axis : x y z
#
# Youngs Moduli (GPa) = 45.20602 36.07873 51.96550
#
# Poissons Ratio (x) = 0.30874 0.49264
# Poissons Ratio (y) = 0.38685 0.29761
# Poissons Ratio (z) = 0.42856 0.20662
#
# Static dielectric constant tensor:
#      x y z
#    x 2.911500 0.000000 0.000000 
#    y 0.000000 2.751700 0.000000 
#    z 0.000000 0.000000 2.922850 
# 
# 
# High freq. dielectric constant tensor:
#      x y z
#    x 1.558370 0.000000 0.000000 
#    y 0.000000 1.526370 0.000000 
#    z 0.000000 0.000000 1.549030 
# 
# From -- ./inp_files/28668.got.cif
#   From: 2010.03.12/outbox.cif.g09.slc.cpg/sg51_15_cif.got.tgz:28668.got - 2010.04.16 13:43:02.
