data_PCOD8207994
_publ_section_title
;
Structure prediction by ZEFSAII (Michael W. Deem and Ramdas Pophale) SiO2 
 PCOD8207994
Probable space group: P M M A
;
_chemical_formula_sum "Si O2"
_cell_formula_units_Z 40
_cell_length_a 9.170719
_cell_length_b 18.624808
_cell_length_c 13.651880
_cell_angle_alpha 90.000000
_cell_angle_beta 90.000000
_cell_angle_gamma 90.000000
_cell_volume 2331.780430
_symmetry_space_group_name_H-M "P M M A"
_symmetry_group_IT_number 51
_symmetry_cell_setting 'orthorhombic'
loop_
_space_group_symop_operation_xyz
x,y,z
1/2-x,-y,z
1/2+x,-y,-z
-x,y,-z
-x,-y,-z
1/2+x,y,-z
1/2-x,y,z
x,-y,z
loop_
_atom_site_type_symbol
_atom_site_label
_atom_site_fract_x
_atom_site_fract_y
_atom_site_fract_z
Si Si1 0.582012 0.210079 0.730827
Si Si2 0.920939 0.714247 0.102012
Si Si3 0.419996 0.081184 0.401723
Si Si4 0.081264 0.346781 0.398210
Si Si5 0.082825 0.580879 0.769559
O O1 0.750000 0.211378 0.765404
O O2 0.479830 0.225652 0.823345
O O3 0.535824 0.132702 0.688023
O O4 0.555474 0.267882 0.645500
O O5 0.750000 0.725685 0.087401
O O6 0.959177 0.634998 0.142875
O O7 0.000000 0.724849 0.000000
O O8 0.500000 0.106128 0.500000
O O9 0.250000 0.088272 0.424101
O O10 0.464062 0.000000 0.372539
O O11 0.250000 0.363768 0.414979
O O12 0.000000 0.352969 0.500000
O O13 0.017568 0.406000 0.324449
O O14 0.250000 0.593655 0.737866
O O15 0.057130 0.500000 0.807871
#
# Coordination Sequence:
#
# PCOD8207994 Si02
#       5
#     8   8   8   8   8
#     4   9  18  32  49  70  97 127 160 197 234 275
#     4  10  20  34  53  74  94 119 153 194 240 286
#     4   9  17  29  47  73 104 135 163 192 229 273
#     4  10  19  30  46  68  94 126 161 195 232 275
#     4   9  19  35  51  68  92 121 154 192 234 282
#
# _framework density 17.154274000000001
#
# number of rings (size 3 to 8) (size 9 to 14) (size 15 to 20)
#    0.000    2.600    0.000    1.800    0.000    3.600 
#    0.000    0.000    0.000    0.600    0.000    0.000 
#    0.000    0.000    0.000    0.000    0.000    0.000 
#
# Total GULP energy -496075.599977 kJ/mol
# GULP energy per Si atom -12401.889999 kJ/mol
# Density = 1.711523 g / cm^3
# Si number density = 17.154274 Si / 1000 Ang^3
#
#
#
# Elastic Constant Matrix: (Units=GPa)
#
#
# Indices 1 2 3 4 5 6 
#
# 1 86.0717 41.2628 68.1335 0.0000 0.0000 0.0000
# 2 41.2628 99.7823 56.5204 0.0000 0.0000 0.0000
# 3 68.1335 56.5204 128.9488 0.0000 0.0000 0.0000
# 4 0.0000 0.0000 0.0000 15.3638 0.0000 0.0000
# 5 0.0000 0.0000 0.0000 0.0000 30.7646 0.0000
# 6 0.0000 0.0000 0.0000 0.0000 0.0000 22.6724
#
#
#
# Elastic Compliance Matrix: (Units=1/GPa)
#
#
# Indices 1 2 3 4 5 6 
#
# 1 0.020687 -0.003144 -0.009553 0.000000 0.000000 0.000000
# 2 -0.003144 0.013810 -0.004392 0.000000 0.000000 0.000000
# 3 -0.009553 -0.004392 0.014727 0.000000 0.000000 0.000000
# 4 0.000000 0.000000 0.000000 0.065088 0.000000 0.000000
# 5 0.000000 0.000000 0.000000 0.000000 0.032505 0.000000
# 6 0.000000 0.000000 0.000000 0.000000 0.000000 0.044106
#
#
# Mechanical properties :
#
#
# Convention : Reuss Voigt Hill
#
# Bulk Modulus (GPa) = 66.45577 71.84847 69.15212
# Shear Modulus (GPa) = 21.72820 23.68591 22.70705
#
# Velocity S-wave (km/s) = 3.56284 3.71989 3.64221
# Velocity P-wave (km/s) = 7.46654 7.77333 7.62148
#
# Compressibility (1/GPa) = 0.01504760
#
# Stress axis : x y z
#
# Youngs Moduli (GPa) = 48.33937 72.41359 67.90048
#
# Poissons Ratio (x) = 0.22765 0.64863
# Poissons Ratio (y) = 0.15197 0.29821
# Poissons Ratio (z) = 0.46177 0.31803
#
# Static dielectric constant tensor:
#      x y z
#    x 3.298320 0.000000 0.000000 
#    y 0.000000 3.301120 0.000000 
#    z 0.000000 0.000000 3.024910 
# 
# 
# High freq. dielectric constant tensor:
#      x y z
#    x 1.669560 0.000000 0.000000 
#    y 0.000000 1.656090 0.000000 
#    z 0.000000 0.000000 1.648540 
# 
# From -- ./inp_files/14009.got.cif
#   From: 2010.03.12/outbox.cif.g09.slc.cpg/sg51_8_cif.got.tgz:14009.got - 2010.04.16 13:43:02.
