data_PCOD8207787
_publ_section_title
;
Structure prediction by ZEFSAII (Michael W. Deem and Ramdas Pophale) SiO2 
 PCOD8207787
Probable space group: P M M A
;
_chemical_formula_sum "Si O2"
_cell_formula_units_Z 44
_cell_length_a 15.989136
_cell_length_b 13.851704
_cell_length_c 10.546681
_cell_angle_alpha 90.000000
_cell_angle_beta 90.000000
_cell_angle_gamma 90.000000
_cell_volume 2335.844938
_symmetry_space_group_name_H-M "P M M A"
_symmetry_group_IT_number 51
_symmetry_cell_setting 'orthorhombic'
loop_
_space_group_symop_operation_xyz
x,y,z
1/2-x,-y,z
1/2+x,-y,-z
-x,y,-z
-x,-y,-z
1/2+x,y,-z
1/2-x,y,z
x,-y,z
loop_
_atom_site_type_symbol
_atom_site_label
_atom_site_fract_x
_atom_site_fract_y
_atom_site_fract_z
Si Si1 0.657750 0.226282 0.935373
Si Si2 0.551885 0.108144 0.750807
Si Si3 0.655710 0.276902 0.354640
Si Si4 0.130407 0.893062 0.826068
Si Si5 0.000000 0.788699 0.500000
Si Si6 0.150646 0.607538 0.890412
O O1 0.750000 0.254189 0.888347
O O2 0.611137 0.188740 0.811391
O O3 0.664785 0.142433 0.039760
O O4 0.614125 0.320759 0.000695
O O5 0.469490 0.106562 0.836274
O O6 0.530448 0.140626 0.609744
O O7 0.591799 0.000000 0.747410
O O8 0.750000 0.300190 0.409704
O O9 0.662958 0.172742 0.288464
O O10 0.580954 0.276349 0.459089
O O11 0.627042 0.355427 0.249960
O O12 0.165235 0.000000 0.800269
O O13 0.250000 0.608882 0.902088
O O14 0.114070 0.500000 0.910333
#
# Coordination Sequence:
#
# PCOD8207787 Si02
#       6
#     8   8   8   8   4   8
#     4  10  19  29  47  77 104 125 157 205 263 320
#     4  10  20  33  48  67  98 141 176 202 242 296
#     4   9  18  32  52  76  99 131 175 219 261 303
#     4   9  17  30  48  69  96 130 166 205 252 307
#     4  10  21  36  51  68 102 142 183 222 247 288
#     4   8  15  31  55  79 102 130 166 211 266 322
#
# _framework density 18.836866000000001
#
# number of rings (size 3 to 8) (size 9 to 14) (size 15 to 20)
#    0.000    2.727    0.000    3.000    0.000    5.455 
#    0.000    0.455    0.000   20.727    0.000    5.091 
#    0.000    0.000    0.000    0.000    0.000    0.182 
#
# Total GULP energy -545244.432128 kJ/mol
# GULP energy per Si atom -12391.918912 kJ/mol
# Density = 1.879399 g / cm^3
# Si number density = 18.836866 Si / 1000 Ang^3
#
#
#
# Elastic Constant Matrix: (Units=GPa)
#
#
# Indices 1 2 3 4 5 6 
#
# 1 82.3271 30.9091 40.7719 0.0000 0.0000 0.0000
# 2 30.9091 133.3301 41.8737 0.0000 0.0000 0.0000
# 3 40.7719 41.8737 82.3360 0.0000 0.0000 0.0000
# 4 0.0000 0.0000 0.0000 17.4027 0.0000 0.0000
# 5 0.0000 0.0000 0.0000 0.0000 25.6857 0.0000
# 6 0.0000 0.0000 0.0000 0.0000 0.0000 23.3569
#
#
#
# Elastic Compliance Matrix: (Units=1/GPa)
#
#
# Indices 1 2 3 4 5 6 
#
# 1 0.016336 -0.001483 -0.007335 0.000000 0.000000 0.000000
# 2 -0.001483 0.009061 -0.003873 0.000000 0.000000 0.000000
# 3 -0.007335 -0.003873 0.017747 0.000000 0.000000 0.000000
# 4 0.000000 0.000000 0.000000 0.057462 0.000000 0.000000
# 5 0.000000 0.000000 0.000000 0.000000 0.038932 0.000000
# 6 0.000000 0.000000 0.000000 0.000000 0.000000 0.042814
#
#
# Mechanical properties :
#
#
# Convention : Reuss Voigt Hill
#
# Bulk Modulus (GPa) = 56.30473 58.34475 57.32474
# Shear Modulus (GPa) = 23.40205 25.58498 24.49352
#
# Velocity S-wave (km/s) = 3.52853 3.68943 3.60988
# Velocity P-wave (km/s) = 6.82322 7.01357 6.91905
#
# Compressibility (1/GPa) = 0.01776050
#
# Stress axis : x y z
#
# Youngs Moduli (GPa) = 61.21347 110.36860 56.34602
#
# Poissons Ratio (x) = 0.16373 0.41330
# Poissons Ratio (y) = 0.09081 0.21825
# Poissons Ratio (z) = 0.44901 0.42749
#
# Static dielectric constant tensor:
#      x y z
#    x 3.474440 0.000000 0.000000 
#    y 0.000000 3.603620 0.000000 
#    z 0.000000 0.000000 3.188070 
# 
# 
# High freq. dielectric constant tensor:
#      x y z
#    x 1.724310 0.000000 0.000000 
#    y 0.000000 1.720660 0.000000 
#    z 0.000000 0.000000 1.705110 
# 
# From -- ./inp_files/9490.got.cif
#   From: 2010.03.12/outbox.cif.g09.slc.cpg/sg51_5_cif.got.tgz:9490.got - 2010.04.16 13:43:02.
