data_PCOD8207038
_publ_section_title
;
Structure prediction by ZEFSAII (Michael W. Deem and Ramdas Pophale) SiO2 
 PCOD8207038
Probable space group: P M M A
;
_chemical_formula_sum "Si O2"
_cell_formula_units_Z 64
_cell_length_a 21.144972
_cell_length_b 9.250771
_cell_length_c 18.858483
_cell_angle_alpha 90.000000
_cell_angle_beta 90.000000
_cell_angle_gamma 90.000000
_cell_volume 3688.856824
_symmetry_space_group_name_H-M "P M M A"
_symmetry_group_IT_number 51
_symmetry_cell_setting 'orthorhombic'
loop_
_space_group_symop_operation_xyz
x,y,z
1/2-x,-y,z
1/2+x,-y,-z
-x,y,-z
-x,-y,-z
1/2+x,y,-z
1/2-x,y,z
x,-y,z
loop_
_atom_site_type_symbol
_atom_site_label
_atom_site_fract_x
_atom_site_fract_y
_atom_site_fract_z
Si Si1 0.567527 0.662785 0.537314
Si Si2 0.883773 0.166406 0.412200
Si Si3 0.178084 0.661800 0.701912
Si Si4 0.821968 0.166740 0.023114
Si Si5 0.438321 0.671407 0.045304
Si Si6 0.517776 0.833856 0.661524
Si Si7 0.483284 0.835894 0.175181
Si Si8 0.372930 0.160880 0.826457
O O1 0.500000 0.663461 0.500000
O O2 0.593565 0.500000 0.545158
O O3 0.613826 0.757169 0.488597
O O4 0.564409 0.734589 0.615070
O O5 0.828071 0.241555 0.368296
O O6 0.946697 0.187659 0.365730
O O7 0.867860 0.000000 0.425373
O O8 0.250000 0.662967 0.726670
O O9 0.154066 0.500000 0.685106
O O10 0.137386 0.721881 0.766350
O O11 0.750000 0.208200 0.000778
O O12 0.827297 0.189847 0.107467
O O13 0.836465 0.000000 0.003694
O O14 0.872808 0.268273 0.985421
O O15 0.433536 0.500000 0.047289
O O16 0.442748 0.731018 0.125397
O O17 0.500000 0.720875 0.000000
O O18 0.522467 0.784895 0.743167
O O19 0.538243 0.000000 0.651973
O O20 0.555091 0.825994 0.148020
O O21 0.458326 0.000000 0.167430
O O22 0.360801 0.000000 0.794643
#
# Coordination Sequence:
#
# PCOD8207038 Si02
#       8
#     8   8   8   8   8   8   8   8
#     4   9  17  28  44  69  97 127 158 194 244 295
#     4  10  18  31  49  68  93 129 171 212 249 293
#     4  11  23  34  45  67 101 139 176 215 259 307
#     4  10  21  37  58  80 102 136 182 227 269 317
#     4  11  23  36  52  78 109 142 177 218 271 326
#     4   9  17  30  47  71  98 127 164 204 250 300
#     4  10  19  33  54  77 103 138 176 217 263 310
#     4  10  19  34  54  75 100 135 178 219 259 308
#
# _framework density 17.349549
#
# number of rings (size 3 to 8) (size 9 to 14) (size 15 to 20)
#    0.000    2.000    2.500    1.875    0.000    5.750 
#    0.000    0.000    0.000    0.000    0.000    0.875 
#    0.000    1.000    0.000    0.000    0.000    0.000 
#
# Total GULP energy -793589.662554 kJ/mol
# GULP energy per Si atom -12399.838477 kJ/mol
# Density = 1.731006 g / cm^3
# Si number density = 17.349549 Si / 1000 Ang^3
#
#
#
# Elastic Constant Matrix: (Units=GPa)
#
#
# Indices 1 2 3 4 5 6 
#
# 1 60.3680 39.4457 34.8988 0.0000 0.0000 0.0000
# 2 39.4457 114.6627 56.7922 0.0000 0.0000 0.0000
# 3 34.8988 56.7922 98.7303 0.0000 0.0000 0.0000
# 4 0.0000 0.0000 0.0000 25.9128 0.0000 0.0000
# 5 0.0000 0.0000 0.0000 0.0000 21.7943 0.0000
# 6 0.0000 0.0000 0.0000 0.0000 0.0000 22.7568
#
#
#
# Elastic Compliance Matrix: (Units=1/GPa)
#
#
# Indices 1 2 3 4 5 6 
#
# 1 0.023012 -0.005437 -0.005007 0.000000 0.000000 0.000000
# 2 -0.005437 0.013480 -0.005833 0.000000 0.000000 0.000000
# 3 -0.005007 -0.005833 0.015253 0.000000 0.000000 0.000000
# 4 0.000000 0.000000 0.000000 0.038591 0.000000 0.000000
# 5 0.000000 0.000000 0.000000 0.000000 0.045884 0.000000
# 6 0.000000 0.000000 0.000000 0.000000 0.000000 0.043943
#
#
# Mechanical properties :
#
#
# Convention : Reuss Voigt Hill
#
# Bulk Modulus (GPa) = 52.10045 59.55939 55.82992
# Shear Modulus (GPa) = 22.81927 23.60107 23.21017
#
# Velocity S-wave (km/s) = 3.63059 3.69226 3.66156
# Velocity P-wave (km/s) = 6.90435 7.25125 7.07992
#
# Compressibility (1/GPa) = 0.01919369
#
# Stress axis : x y z
#
# Youngs Moduli (GPa) = 43.45574 74.18217 65.55889
#
# Poissons Ratio (x) = 0.40329 0.32825
# Poissons Ratio (y) = 0.23625 0.38238
# Poissons Ratio (z) = 0.21758 0.43267
#
# Static dielectric constant tensor:
#      x y z
#    x 2.949540 0.000000 0.000000 
#    y 0.000000 3.328700 0.000000 
#    z 0.000000 0.000000 3.175710 
# 
# 
# High freq. dielectric constant tensor:
#      x y z
#    x 1.629890 0.000000 0.000000 
#    y 0.000000 1.678110 0.000000 
#    z 0.000000 0.000000 1.665910 
# 
# From -- ./inp_files/30566.got.cif
#   From: 2010.03.12/outbox.cif.g09.slc.cpg/sg51_16_cif.got.tgz:30566.got - 2010.04.16 13:43:02.
