data_PCOD8207121
_publ_section_title
;
Structure prediction by ZEFSAII (Michael W. Deem and Ramdas Pophale) SiO2 
 PCOD8207121
Probable space group: P M M A
;
_chemical_formula_sum "Si O2"
_cell_formula_units_Z 40
_cell_length_a 9.870897
_cell_length_b 9.086129
_cell_length_c 24.316387
_cell_angle_alpha 90.000000
_cell_angle_beta 90.000000
_cell_angle_gamma 90.000000
_cell_volume 2180.894038
_symmetry_space_group_name_H-M "P M M A"
_symmetry_group_IT_number 51
_symmetry_cell_setting 'orthorhombic'
loop_
_space_group_symop_operation_xyz
x,y,z
1/2-x,-y,z
1/2+x,-y,-z
-x,y,-z
-x,-y,-z
1/2+x,y,-z
1/2-x,y,z
x,-y,z
loop_
_atom_site_type_symbol
_atom_site_label
_atom_site_fract_x
_atom_site_fract_y
_atom_site_fract_z
Si Si1 0.405279 0.827907 0.350193
Si Si2 0.995769 0.825627 0.868087
Si Si3 0.750000 0.825216 0.941124
Si Si4 0.593228 0.328956 0.762304
Si Si5 0.093877 0.174540 0.549401
Si Si6 0.250000 0.825462 0.936109
O O1 0.250000 0.791596 0.368886
O O2 0.446215 0.739769 0.295984
O O3 0.514466 0.777572 0.395589
O O4 0.418479 0.000000 0.337552
O O5 0.876622 0.768317 0.906846
O O6 0.995249 0.748533 0.809039
O O7 0.124325 0.769826 0.901265
O O8 0.991557 0.000000 0.858388
O O9 0.750000 0.000000 0.945818
O O10 0.750000 0.756731 0.002515
O O11 0.750000 0.298631 0.775446
O O12 0.558278 0.500000 0.760576
O O13 0.250000 0.236488 0.548159
O O14 0.000000 0.237249 0.500000
O O15 0.101550 0.000000 0.544675
O O16 0.250000 0.000000 0.941733
#
# Coordination Sequence:
#
# PCOD8207121 Si02
#       6
#     8   8   4   8   8   4
#     4   9  17  30  50  74  99 129 167 207 246 292
#     4  10  18  31  52  76 100 129 165 204 248 300
#     4   9  16  28  51  77 101 127 160 201 248 301
#     4  10  20  34  52  72  97 131 172 214 253 296
#     4   9  16  27  46  75 108 136 162 198 246 294
#     4   9  18  30  47  77 107 127 154 203 256 299
#
# _framework density 18.341101999999999
#
# number of rings (size 3 to 8) (size 9 to 14) (size 15 to 20)
#    0.000    2.600    1.000    1.800    0.000    5.600 
#    1.800    0.500    0.000    4.200    0.000    0.000 
#    0.000    0.000    0.000    0.000    0.000    0.000 
#
# Total GULP energy -495838.163376 kJ/mol
# GULP energy per Si atom -12395.954084 kJ/mol
# Density = 1.829936 g / cm^3
# Si number density = 18.341102 Si / 1000 Ang^3
#
#
#
# Elastic Constant Matrix: (Units=GPa)
#
#
# Indices 1 2 3 4 5 6 
#
# 1 148.4970 24.2706 89.3477 0.0000 0.0000 0.0000
# 2 24.2706 37.6333 44.5727 0.0000 0.0000 0.0000
# 3 89.3477 44.5727 170.2729 0.0000 0.0000 0.0000
# 4 0.0000 0.0000 0.0000 -0.6798 0.0000 0.0000
# 5 0.0000 0.0000 0.0000 0.0000 23.5011 0.0000
# 6 0.0000 0.0000 0.0000 0.0000 0.0000 15.4653
#
#
#
# Elastic Compliance Matrix: (Units=1/GPa)
#
#
# Indices 1 2 3 4 5 6 
#
# 1 0.009844 -0.000334 -0.005078 0.000000 0.000000 0.000000
# 2 -0.000334 0.038524 -0.009909 0.000000 0.000000 0.000000
# 3 -0.005078 -0.009909 0.011131 0.000000 0.000000 0.000000
# 4 0.000000 0.000000 0.000000 -1.470926 0.000000 0.000000
# 5 0.000000 0.000000 0.000000 0.000000 0.042551 0.000000
# 6 0.000000 0.000000 0.000000 0.000000 0.000000 0.064661
#
#
# Mechanical properties :
#
#
# Convention : Reuss Voigt Hill
#
# Bulk Modulus (GPa) = 34.65384 74.75389 54.70387
# Shear Modulus (GPa) = -3.95585 20.87145 8.45780
#
# Velocity S-wave (km/s) = -1.47021 3.37703 2.14974
# Velocity P-wave (km/s) = 4.00663 7.48678 6.00437
#
# Compressibility (1/GPa) = 0.02885683
#
# Stress axis : x y z
#
# Youngs Moduli (GPa) = 101.58343 25.95773 89.83552
#
# Poissons Ratio (x) = 0.00868 0.45619
# Poissons Ratio (y) = 0.03396 0.89019
# Poissons Ratio (z) = 0.51584 0.25722
#
# Static dielectric constant tensor:
#      x y z
#    x 3.506500 0.000000 0.000000 
#    y 0.000000 2.862920 0.000000 
#    z 0.000000 0.000000 3.487330 
# 
# 
# High freq. dielectric constant tensor:
#      x y z
#    x 1.710970 0.000000 0.000000 
#    y 0.000000 1.658290 0.000000 
#    z 0.000000 0.000000 1.726740 
# 
# From -- ./inp_files/36018.got.cif
#   From: 2010.03.12/outbox.cif.g09.slc.cpg/sg51_19_cif.got.tgz:36018.got - 2010.04.16 13:43:02.
