data_PCOD8207641
_publ_section_title
;
Structure prediction by ZEFSAII (Michael W. Deem and Ramdas Pophale) SiO2 
 PCOD8207641
Probable space group: P M M A
;
_chemical_formula_sum "Si O2"
_cell_formula_units_Z 64
_cell_length_a 28.748083
_cell_length_b 9.267761
_cell_length_c 15.549790
_cell_angle_alpha 90.000000
_cell_angle_beta 90.000000
_cell_angle_gamma 90.000000
_cell_volume 4142.936186
_symmetry_space_group_name_H-M "P M M A"
_symmetry_group_IT_number 51
_symmetry_cell_setting 'orthorhombic'
loop_
_space_group_symop_operation_xyz
x,y,z
1/2-x,-y,z
1/2+x,-y,-z
-x,y,-z
-x,-y,-z
1/2+x,y,-z
1/2-x,y,z
x,-y,z
loop_
_atom_site_type_symbol
_atom_site_label
_atom_site_fract_x
_atom_site_fract_y
_atom_site_fract_z
Si Si1 0.603149 0.666218 0.837743
Si Si2 0.444709 0.840723 0.494957
Si Si3 0.801229 0.168744 0.087918
Si Si4 0.546261 0.171318 0.317984
Si Si5 0.950071 0.668555 0.667482
Si Si6 0.446650 0.170162 0.011125
Si Si7 0.395611 0.170021 0.841522
Si Si8 0.198572 0.333267 0.086637
O O1 0.593816 0.500000 0.860604
O O2 0.587887 0.700543 0.740691
O O3 0.572990 0.759387 0.902997
O O4 0.658292 0.703443 0.844422
O O5 0.500000 0.846350 0.500000
O O6 0.428579 0.792569 0.590761
O O7 0.428538 0.728633 0.421984
O O8 0.425130 0.000000 0.472080
O O9 0.750000 0.211786 0.123575
O O10 0.840803 0.212792 0.157117
O O11 0.804154 0.000000 0.068174
O O12 0.812338 0.245138 0.998783
O O13 0.497321 0.250975 0.307291
O O14 0.580244 0.232873 0.243869
O O15 0.536827 0.000000 0.310953
O O16 0.960533 0.500000 0.656361
O O17 0.440261 0.000000 0.021034
O O18 0.500000 0.214198 0.000000
O O19 0.419691 0.231056 0.927664
O O20 0.402479 0.000000 0.839489
O O21 0.250000 0.292996 0.123788
O O22 0.197068 0.500000 0.060540
#
# Coordination Sequence:
#
# PCOD8207641 Si02
#       8
#     8   8   8   8   8   8   8   8
#     4  10  20  31  42  61  87 114 143 176 215 254
#     4   8  15  28  45  63  81 107 142 175 208 246
#     4   9  16  27  44  64  84 106 137 178 218 251
#     4   9  17  30  46  62  84 113 144 174 203 246
#     4  10  19  29  42  62  88 113 138 173 215 252
#     4  10  19  29  42  60  84 117 151 174 199 242
#     4   9  16  27  42  62  85 110 140 173 207 244
#     4   9  17  30  46  61  80 109 144 180 216 253
#
# _framework density 15.447982
#
# number of rings (size 3 to 8) (size 9 to 14) (size 15 to 20)
#    0.000    2.750    1.250    1.875    0.000    4.500 
#    0.000    1.250    0.000    0.000    0.000    0.875 
#    0.000    1.000    0.000    0.000    0.000    0.000 
#
# Total GULP energy -793199.565091 kJ/mol
# GULP energy per Si atom -12393.743205 kJ/mol
# Density = 1.541282 g / cm^3
# Si number density = 15.447982 Si / 1000 Ang^3
#
#
#
# Elastic Constant Matrix: (Units=GPa)
#
#
# Indices 1 2 3 4 5 6 
#
# 1 101.8678 33.8603 56.9157 0.0000 0.0000 0.0000
# 2 33.8603 41.5192 36.9144 0.0000 0.0000 0.0000
# 3 56.9157 36.9144 108.6222 0.0000 0.0000 0.0000
# 4 0.0000 0.0000 0.0000 17.8193 0.0000 0.0000
# 5 0.0000 0.0000 0.0000 0.0000 13.2223 0.0000
# 6 0.0000 0.0000 0.0000 0.0000 0.0000 11.8024
#
#
#
# Elastic Compliance Matrix: (Units=1/GPa)
#
#
# Indices 1 2 3 4 5 6 
#
# 1 0.015439 -0.007736 -0.005461 0.000000 0.000000 0.000000
# 2 -0.007736 0.038390 -0.008993 0.000000 0.000000 0.000000
# 3 -0.005461 -0.008993 0.015124 0.000000 0.000000 0.000000
# 4 0.000000 0.000000 0.000000 0.056119 0.000000 0.000000
# 5 0.000000 0.000000 0.000000 0.000000 0.075630 0.000000
# 6 0.000000 0.000000 0.000000 0.000000 0.000000 0.084728
#
#
# Mechanical properties :
#
#
# Convention : Reuss Voigt Hill
#
# Bulk Modulus (GPa) = 40.69477 56.37667 48.53572
# Shear Modulus (GPa) = 14.79291 16.85674 15.82483
#
# Velocity S-wave (km/s) = 3.09786 3.30691 3.20409
# Velocity P-wave (km/s) = 6.26067 7.15224 6.72125
#
# Compressibility (1/GPa) = 0.02457318
#
# Stress axis : x y z
#
# Youngs Moduli (GPa) = 64.77073 26.04860 66.12139
#
# Poissons Ratio (x) = 0.20151 0.36107
# Poissons Ratio (y) = 0.50107 0.59463
# Poissons Ratio (z) = 0.35369 0.23425
#
# Static dielectric constant tensor:
#      x y z
#    x 3.085130 0.000000 0.000000 
#    y 0.000000 2.889380 0.000000 
#    z 0.000000 0.000000 3.210220 
# 
# 
# High freq. dielectric constant tensor:
#      x y z
#    x 1.577240 0.000000 0.000000 
#    y 0.000000 1.583070 0.000000 
#    z 0.000000 0.000000 1.581640 
# 
# From -- ./inp_files/26629.got.cif
#   From: 2010.03.12/outbox.cif.g09.slc.cpg/sg51_14_cif.got.tgz:26629.got - 2010.04.16 13:43:02.
