data_PCOD8207796
_publ_section_title
;
Structure prediction by ZEFSAII (Michael W. Deem and Ramdas Pophale) SiO2 
 PCOD8207796
Probable space group: P M M A
;
_chemical_formula_sum "Si O2"
_cell_formula_units_Z 64
_cell_length_a 18.155154
_cell_length_b 13.939620
_cell_length_c 14.188602
_cell_angle_alpha 90.000000
_cell_angle_beta 90.000000
_cell_angle_gamma 90.000000
_cell_volume 3590.793899
_symmetry_space_group_name_H-M "P M M A"
_symmetry_group_IT_number 51
_symmetry_cell_setting 'orthorhombic'
loop_
_space_group_symop_operation_xyz
x,y,z
1/2-x,-y,z
1/2+x,-y,-z
-x,y,-z
-x,-y,-z
1/2+x,y,-z
1/2-x,y,z
x,-y,z
loop_
_atom_site_type_symbol
_atom_site_label
_atom_site_fract_x
_atom_site_fract_y
_atom_site_fract_z
Si Si1 0.331419 0.107859 0.102060
Si Si2 0.076571 0.243416 0.771335
Si Si3 0.409596 0.892604 0.398362
Si Si4 0.065708 0.107745 0.940303
Si Si5 0.664554 0.612749 0.103236
Si Si6 0.915339 0.892464 0.389268
Si Si7 0.663015 0.393674 0.892364
Si Si8 0.591555 0.758338 0.764417
O O1 0.250000 0.156893 0.111812
O O2 0.396593 0.158830 0.158795
O O3 0.326524 0.000000 0.139453
O O4 0.355904 0.111224 0.993560
O O5 0.077947 0.156785 0.842453
O O6 0.120771 0.333353 0.813542
O O7 0.112890 0.194881 0.677779
O O8 0.992505 0.275572 0.753207
O O9 0.386912 0.868864 0.505575
O O10 0.496846 0.893201 0.385966
O O11 0.377367 0.806632 0.332497
O O12 0.379962 0.000000 0.371569
O O13 0.040394 0.000000 0.917705
O O14 0.000000 0.157893 0.000000
O O15 0.750000 0.636171 0.117746
O O16 0.649179 0.500000 0.114326
O O17 0.639026 0.645971 0.997014
O O18 0.887449 0.000000 0.359855
O O19 0.750000 0.399069 0.891504
O O20 0.629762 0.500000 0.879469
O O21 0.636938 0.332365 0.802720
#
# Coordination Sequence:
#
# PCOD8207796 Si02
#       8
#     8   8   8   8   8   8   8   8
#     4  10  20  31  43  64  97 135 168 194 230 291
#     4  11  20  28  50  77  96 124 166 205 250 295
#     4   8  15  28  47  70 100 133 163 197 239 288
#     4  10  19  30  42  64 103 138 161 193 240 289
#     4   9  20  38  55  70  94 130 168 207 252 303
#     4   8  15  29  47  71 100 131 166 200 236 287
#     4   9  19  35  51  67  93 130 164 194 237 296
#     4  11  19  28  47  75  99 121 157 205 252 289
#
# _framework density 17.823356
#
# number of rings (size 3 to 8) (size 9 to 14) (size 15 to 20)
#    0.000    2.500    1.250    3.375    0.000    3.000 
#    0.000    1.250    0.000    3.375    0.000    8.750 
#    0.000    0.000    0.000    0.000    0.000    0.000 
#
# Total GULP energy -792843.929554 kJ/mol
# GULP energy per Si atom -12388.186399 kJ/mol
# Density = 1.778279 g / cm^3
# Si number density = 17.823356 Si / 1000 Ang^3
#
#
#
# Elastic Constant Matrix: (Units=GPa)
#
#
# Indices 1 2 3 4 5 6 
#
# 1 43.9735 23.6707 20.3630 0.0000 0.0000 0.0000
# 2 23.6707 86.2491 58.8570 0.0000 0.0000 0.0000
# 3 20.3630 58.8570 109.7301 0.0000 0.0000 0.0000
# 4 0.0000 0.0000 0.0000 33.4382 0.0000 0.0000
# 5 0.0000 0.0000 0.0000 0.0000 14.2956 0.0000
# 6 0.0000 0.0000 0.0000 0.0000 0.0000 23.2134
#
#
#
# Elastic Compliance Matrix: (Units=1/GPa)
#
#
# Indices 1 2 3 4 5 6 
#
# 1 0.026866 -0.006264 -0.001626 0.000000 0.000000 0.000000
# 2 -0.006264 0.019749 -0.009430 0.000000 0.000000 0.000000
# 3 -0.001626 -0.009430 0.014473 0.000000 0.000000 0.000000
# 4 0.000000 0.000000 0.000000 0.029906 0.000000 0.000000
# 5 0.000000 0.000000 0.000000 0.000000 0.069952 0.000000
# 6 0.000000 0.000000 0.000000 0.000000 0.000000 0.043079
#
#
# Mechanical properties :
#
#
# Convention : Reuss Voigt Hill
#
# Bulk Modulus (GPa) = 37.81049 49.52600 43.66824
# Shear Modulus (GPa) = 20.20370 23.32691 21.76531
#
# Velocity S-wave (km/s) = 3.37048 3.62164 3.49831
# Velocity P-wave (km/s) = 6.03381 6.73319 6.39307
#
# Compressibility (1/GPa) = 0.02644769
#
# Stress axis : x y z
#
# Youngs Moduli (GPa) = 37.22245 50.63600 69.09269
#
# Poissons Ratio (x) = 0.31717 0.11233
# Poissons Ratio (y) = 0.23315 0.65158
# Poissons Ratio (z) = 0.06052 0.47752
#
# Static dielectric constant tensor:
#      x y z
#    x 3.223560 0.000000 0.000000 
#    y 0.000000 3.321980 0.000000 
#    z 0.000000 0.000000 3.430230 
# 
# 
# High freq. dielectric constant tensor:
#      x y z
#    x 1.660690 0.000000 0.000000 
#    y 0.000000 1.680380 0.000000 
#    z 0.000000 0.000000 1.676810 
# 
# From -- ./inp_files/25351.got.cif
#   From: 2010.03.12/outbox.cif.g09.slc.cpg/sg51_13_cif.got.tgz:25351.got - 2010.04.16 13:43:02.
