data_PCOD8207743
_publ_section_title
;
Structure prediction by ZEFSAII (Michael W. Deem and Ramdas Pophale) SiO2 
 PCOD8207743
Probable space group: P M M A
;
_chemical_formula_sum "Si O2"
_cell_formula_units_Z 64
_cell_length_a 9.274484
_cell_length_b 19.136570
_cell_length_c 20.750716
_cell_angle_alpha 90.000000
_cell_angle_beta 90.000000
_cell_angle_gamma 90.000000
_cell_volume 3682.874682
_symmetry_space_group_name_H-M "P M M A"
_symmetry_group_IT_number 51
_symmetry_cell_setting 'orthorhombic'
loop_
_space_group_symop_operation_xyz
x,y,z
1/2-x,-y,z
1/2+x,-y,-z
-x,y,-z
-x,-y,-z
1/2+x,y,-z
1/2-x,y,z
x,-y,z
loop_
_atom_site_type_symbol
_atom_site_label
_atom_site_fract_x
_atom_site_fract_y
_atom_site_fract_z
Si Si1 0.408876 0.582882 0.558540
Si Si2 0.590805 0.083044 0.558627
Si Si3 0.912773 0.173784 0.061054
Si Si4 0.081764 0.662058 0.188546
Si Si5 0.586185 0.340088 0.061758
Si Si6 0.421819 0.077844 0.300737
Si Si7 0.417596 0.581686 0.702199
Si Si8 0.082513 0.825253 0.186123
O O1 0.500000 0.616194 0.500000
O O2 0.250000 0.614627 0.551496
O O3 0.402975 0.500000 0.551619
O O4 0.469020 0.601490 0.629628
O O5 0.500000 0.115976 0.500000
O O6 0.750000 0.115550 0.553053
O O7 0.521145 0.101605 0.628497
O O8 0.598732 0.000000 0.552335
O O9 0.750000 0.144412 0.059728
O O10 0.911519 0.257006 0.058588
O O11 0.992401 0.147645 0.125182
O O12 0.000000 0.143752 0.000000
O O13 0.250000 0.644609 0.179556
O O14 0.056318 0.743989 0.199155
O O15 0.996619 0.634688 0.125752
O O16 0.020423 0.623729 0.250615
O O17 0.750000 0.369378 0.062031
O O18 0.500000 0.370051 0.000000
O O19 0.250000 0.076721 0.304053
O O20 0.476950 0.132415 0.247612
O O21 0.478677 0.000000 0.283469
O O22 0.250000 0.602022 0.712429
O O23 0.439260 0.500000 0.715266
O O24 0.250000 0.840962 0.172476
#
# Coordination Sequence:
#
# PCOD8207743 Si02
#       8
#     8   8   8   8   8   8   8   8
#     4   8  14  25  42  64  87 110 140 180 222 260
#     4   8  13  22  38  60  83 107 139 179 219 257
#     4   9  16  26  42  64  88 114 145 182 221 259
#     4  10  19  29  44  68  94 119 148 182 221 264
#     4   9  16  27  44  65  89 116 147 184 222 260
#     4   8  14  26  45  66  87 115 149 181 217 263
#     4   9  18  32  48  66  90 120 151 183 221 264
#     4   9  17  29  45  66  91 117 146 182 221 261
#
# _framework density 17.37773
#
# number of rings (size 3 to 8) (size 9 to 14) (size 15 to 20)
#    0.000    3.250    0.000    2.625    0.000    4.250 
#    0.000    1.875    0.000    2.625    0.000    3.500 
#    0.000    0.000    0.000    0.000    0.000    0.000 
#
# Total GULP energy -793221.663357 kJ/mol
# GULP energy per Si atom -12394.088490 kJ/mol
# Density = 1.733818 g / cm^3
# Si number density = 17.377730 Si / 1000 Ang^3
#
#
#
# Elastic Constant Matrix: (Units=GPa)
#
#
# Indices 1 2 3 4 5 6 
#
# 1 105.2805 26.1872 84.3449 0.0000 0.0000 0.0000
# 2 26.1872 25.6240 39.6179 0.0000 0.0000 0.0000
# 3 84.3449 39.6179 182.8737 0.0000 0.0000 0.0000
# 4 0.0000 0.0000 0.0000 27.0484 0.0000 0.0000
# 5 0.0000 0.0000 0.0000 0.0000 37.4715 0.0000
# 6 0.0000 0.0000 0.0000 0.0000 0.0000 10.8251
#
#
#
# Elastic Compliance Matrix: (Units=1/GPa)
#
#
# Indices 1 2 3 4 5 6 
#
# 1 0.015948 -0.007407 -0.005751 0.000000 0.000000 0.000000
# 2 -0.007407 0.062122 -0.010042 0.000000 0.000000 0.000000
# 3 -0.005751 -0.010042 0.010296 0.000000 0.000000 0.000000
# 4 0.000000 0.000000 0.000000 0.036971 0.000000 0.000000
# 5 0.000000 0.000000 0.000000 0.000000 0.026687 0.000000
# 6 0.000000 0.000000 0.000000 0.000000 0.000000 0.092378
#
#
# Mechanical properties :
#
#
# Convention : Reuss Voigt Hill
#
# Bulk Modulus (GPa) = 23.82860 68.23091 46.02975
# Shear Modulus (GPa) = 16.40475 25.97755 21.19115
#
# Velocity S-wave (km/s) = 3.07581 3.87056 3.49584
# Velocity P-wave (km/s) = 5.13381 7.70218 6.54521
#
# Compressibility (1/GPa) = 0.04196638
#
# Stress axis : x y z
#
# Youngs Moduli (GPa) = 62.70307 16.09747 97.12358
#
# Poissons Ratio (x) = 0.11923 0.55855
# Poissons Ratio (y) = 0.46444 0.97529
# Poissons Ratio (z) = 0.36060 0.16165
#
# Static dielectric constant tensor:
#      x y z
#    x 3.331250 0.000000 0.000000 
#    y 0.000000 2.721210 0.000000 
#    z 0.000000 0.000000 3.561040 
# 
# 
# High freq. dielectric constant tensor:
#      x y z
#    x 1.663890 0.000000 0.000000 
#    y 0.000000 1.607200 0.000000 
#    z 0.000000 0.000000 1.690490 
# 
# From -- ./inp_files/32564.got.cif
#   From: 2010.03.12/outbox.cif.g09.slc.cpg/sg51_17_cif.got.tgz:32564.got - 2010.04.16 13:43:02.
