data_PCOD8207719
_publ_section_title
;
Structure prediction by ZEFSAII (Michael W. Deem and Ramdas Pophale) SiO2 
 PCOD8207719
Probable space group: P M M A
;
_chemical_formula_sum "Si O2"
_cell_formula_units_Z 48
_cell_length_a 20.556830
_cell_length_b 9.278548
_cell_length_c 15.012073
_cell_angle_alpha 90.000000
_cell_angle_beta 90.000000
_cell_angle_gamma 90.000000
_cell_volume 2863.365782
_symmetry_space_group_name_H-M "P M M A"
_symmetry_group_IT_number 51
_symmetry_cell_setting 'orthorhombic'
loop_
_space_group_symop_operation_xyz
x,y,z
1/2-x,-y,z
1/2+x,-y,-z
-x,y,-z
-x,-y,-z
1/2+x,y,-z
1/2-x,y,z
x,-y,z
loop_
_atom_site_type_symbol
_atom_site_label
_atom_site_fract_x
_atom_site_fract_y
_atom_site_fract_z
Si Si1 0.321242 0.662452 0.520850
Si Si2 0.320453 0.664980 0.866021
Si Si3 0.493697 0.165093 0.736269
Si Si4 0.962074 0.668881 0.087668
Si Si5 0.449786 0.668536 0.422766
Si Si6 0.346628 0.836653 0.692944
O O1 0.250000 0.671113 0.474286
O O2 0.336334 0.500000 0.553882
O O3 0.376671 0.708941 0.451754
O O4 0.318943 0.764837 0.605273
O O5 0.250000 0.687555 0.916338
O O6 0.327680 0.500000 0.835752
O O7 0.384565 0.705818 0.924247
O O8 0.317176 0.759664 0.778248
O O9 0.493571 0.244777 0.830934
O O10 0.541841 0.243821 0.668321
O O11 0.423880 0.174811 0.690750
O O12 0.515614 0.000000 0.750880
O O13 0.972864 0.500000 0.105164
O O14 0.000000 0.720261 0.000000
O O15 0.500000 0.717542 0.500000
O O16 0.459227 0.500000 0.402101
O O17 0.322434 0.000000 0.695673
#
# Coordination Sequence:
#
# PCOD8207719 Si02
#       6
#     8   8   8   8   8   8
#     4  10  20  32  46  66  94 127 163 203 244 282
#     4   9  17  29  46  68  95 124 153 189 235 288
#     4  10  20  32  49  73  99 128 161 201 243 285
#     4   9  18  33  53  74  96 124 160 199 242 291
#     4  10  19  32  51  71  93 127 168 202 235 280
#     4  10  19  29  43  67  98 128 158 191 233 287
#
# _framework density 16.763487999999999
#
# number of rings (size 3 to 8) (size 9 to 14) (size 15 to 20)
#    0.000    2.333    1.667    1.500    0.000    5.333 
#    0.000    0.000    0.000    1.000    0.000    4.667 
#    0.000    0.000    0.000    0.000    0.000    0.000 
#
# Total GULP energy -594975.566633 kJ/mol
# GULP energy per Si atom -12395.324305 kJ/mol
# Density = 1.672533 g / cm^3
# Si number density = 16.763488 Si / 1000 Ang^3
#
#
#
# Elastic Constant Matrix: (Units=GPa)
#
#
# Indices 1 2 3 4 5 6 
#
# 1 128.3626 43.0786 69.2091 0.0000 0.0000 0.0000
# 2 43.0786 71.6762 47.7727 0.0000 0.0000 0.0000
# 3 69.2091 47.7727 98.3659 0.0000 0.0000 0.0000
# 4 0.0000 0.0000 0.0000 -124.8649 0.0000 0.0000
# 5 0.0000 0.0000 0.0000 0.0000 17.6597 0.0000
# 6 0.0000 0.0000 0.0000 0.0000 0.0000 13.5440
#
#
#
# Elastic Compliance Matrix: (Units=1/GPa)
#
#
# Indices 1 2 3 4 5 6 
#
# 1 0.012850 -0.002509 -0.007823 0.000000 0.000000 0.000000
# 2 -0.002509 0.021119 -0.008491 0.000000 0.000000 0.000000
# 3 -0.007823 -0.008491 0.019794 0.000000 0.000000 0.000000
# 4 0.000000 0.000000 0.000000 -0.008009 0.000000 0.000000
# 5 0.000000 0.000000 0.000000 0.000000 0.056626 0.000000
# 6 0.000000 0.000000 0.000000 0.000000 0.000000 0.073834
#
#
# Mechanical properties :
#
#
# Convention : Reuss Voigt Hill
#
# Bulk Modulus (GPa) = 62.04648 68.72506 65.38577
# Shear Modulus (GPa) = 22.80673 -9.50930 6.64871
#
# Velocity S-wave (km/s) = 3.69250 -2.38431 1.99369
# Velocity P-wave (km/s) = 7.43455 5.78843 6.66253
#
# Compressibility (1/GPa) = 0.01611695
#
# Stress axis : x y z
#
# Youngs Moduli (GPa) = 77.81928 47.34997 50.52057
#
# Poissons Ratio (x) = 0.11882 0.39520
# Poissons Ratio (y) = 0.19528 0.42898
# Poissons Ratio (z) = 0.60875 0.40206
#
# Static dielectric constant tensor:
#      x y z
#    x 3.390650 0.000000 0.000000 
#    y 0.000000 3.195760 0.000000 
#    z 0.000000 0.000000 2.833070 
# 
# 
# High freq. dielectric constant tensor:
#      x y z
#    x 1.653510 0.000000 0.000000 
#    y 0.000000 1.650090 0.000000 
#    z 0.000000 0.000000 1.606330 
# 
# From -- ./inp_files/18614.got.cif
#   From: 2010.03.12/outbox.cif.g09.slc.cpg/sg51_10_cif.got.tgz:18614.got - 2010.04.16 13:43:02.
