data_PCOD8207613
_publ_section_title
;
Structure prediction by ZEFSAII (Michael W. Deem and Ramdas Pophale) SiO2 
 PCOD8207613
Probable space group: P M M A
;
_chemical_formula_sum "Si O2"
_cell_formula_units_Z 56
_cell_length_a 9.195039
_cell_length_b 17.973453
_cell_length_c 22.492940
_cell_angle_alpha 90.000000
_cell_angle_beta 90.000000
_cell_angle_gamma 90.000000
_cell_volume 3717.331747
_symmetry_space_group_name_H-M "P M M A"
_symmetry_group_IT_number 51
_symmetry_cell_setting 'orthorhombic'
loop_
_space_group_symop_operation_xyz
x,y,z
1/2-x,-y,z
1/2+x,-y,-z
-x,y,-z
-x,-y,-z
1/2+x,y,-z
1/2-x,y,z
x,-y,z
loop_
_atom_site_type_symbol
_atom_site_label
_atom_site_fract_x
_atom_site_fract_y
_atom_site_fract_z
Si Si1 0.084394 0.310856 0.270421
Si Si2 0.413659 0.412485 0.056231
Si Si3 0.911347 0.581336 0.618962
Si Si4 0.088483 0.201220 0.656450
Si Si5 0.922776 0.586093 0.177085
Si Si6 0.092396 0.685481 0.551000
Si Si7 0.420416 0.913965 0.560584
O O1 0.250000 0.297131 0.247776
O O2 0.084177 0.363782 0.326292
O O3 0.014151 0.230540 0.289560
O O4 0.988276 0.353298 0.221799
O O5 0.250000 0.378518 0.060611
O O6 0.399844 0.500000 0.047522
O O7 0.506586 0.393395 0.114263
O O8 0.500000 0.377784 0.000000
O O9 0.750000 0.578990 0.592207
O O10 0.961705 0.500000 0.640957
O O11 0.016729 0.607366 0.566433
O O12 0.250000 0.182543 0.682007
O O13 0.102976 0.266470 0.609458
O O14 0.023777 0.130589 0.619418
O O15 0.750000 0.596688 0.173590
O O16 0.960506 0.500000 0.194809
O O17 0.250000 0.668848 0.524471
O O18 0.000000 0.727438 0.500000
O O19 0.500000 0.888249 0.500000
O O20 0.250000 0.897142 0.551239
O O21 0.452682 0.000000 0.573429
#
# Coordination Sequence:
#
# PCOD8207613 Si02
#       7
#     8   8   8   8   8   8   8
#     4  10  19  30  44  60  77 100 132 167 203 241
#     4   9  16  26  40  58  81 108 139 176 216 254
#     4   9  18  31  43  53  67  88 116 153 194 233
#     4   9  18  31  44  59  80 103 127 156 192 237
#     4  10  19  29  42  60  82 109 141 177 215 252
#     4  10  19  29  41  55  70  90 116 147 185 229
#     4   9  17  29  46  67  88 108 130 159 197 242
#
# _framework density 15.064569000000001
#
# number of rings (size 3 to 8) (size 9 to 14) (size 15 to 20)
#    0.000    2.571    0.000    2.571    0.000    5.429 
#    0.000    0.000    0.000    0.000    0.000    0.000 
#    0.000    0.000    0.000    0.000    0.000    0.714 
#
# Total GULP energy -693860.633473 kJ/mol
# GULP energy per Si atom -12390.368455 kJ/mol
# Density = 1.503028 g / cm^3
# Si number density = 15.064569 Si / 1000 Ang^3
#
#
#
# Elastic Constant Matrix: (Units=GPa)
#
#
# Indices 1 2 3 4 5 6 
#
# 1 107.1293 27.7833 46.7185 0.0000 0.0000 0.0000
# 2 27.7833 61.2467 26.1058 0.0000 0.0000 0.0000
# 3 46.7185 26.1058 67.2838 0.0000 0.0000 0.0000
# 4 0.0000 0.0000 0.0000 -58.6538 0.0000 0.0000
# 5 0.0000 0.0000 0.0000 0.0000 27.9151 0.0000
# 6 0.0000 0.0000 0.0000 0.0000 0.0000 15.5324
#
#
#
# Elastic Compliance Matrix: (Units=1/GPa)
#
#
# Indices 1 2 3 4 5 6 
#
# 1 0.013724 -0.002593 -0.008523 0.000000 0.000000 0.000000
# 2 -0.002593 0.020052 -0.005980 0.000000 0.000000 0.000000
# 3 -0.008523 -0.005980 0.023101 0.000000 0.000000 0.000000
# 4 0.000000 0.000000 0.000000 -0.017049 0.000000 0.000000
# 5 0.000000 0.000000 0.000000 0.000000 0.035823 0.000000
# 6 0.000000 0.000000 0.000000 0.000000 0.000000 0.064381
#
#
# Mechanical properties :
#
#
# Convention : Reuss Voigt Hill
#
# Bulk Modulus (GPa) = 44.08156 48.54166 46.31161
# Shear Modulus (GPa) = 27.50493 5.96224 16.73358
#
# Velocity S-wave (km/s) = 4.27758 1.99158 3.33647
# Velocity P-wave (km/s) = 7.32954 6.13032 6.75659
#
# Compressibility (1/GPa) = 0.02268522
#
# Stress axis : x y z
#
# Youngs Moduli (GPa) = 72.86606 49.86924 43.28861
#
# Poissons Ratio (x) = 0.12929 0.36896
# Poissons Ratio (y) = 0.18891 0.25887
# Poissons Ratio (z) = 0.62105 0.29822
#
# Static dielectric constant tensor:
#      x y z
#    x 3.326870 0.000000 0.000000 
#    y 0.000000 2.757840 0.000000 
#    z 0.000000 0.000000 2.811850 
# 
# 
# High freq. dielectric constant tensor:
#      x y z
#    x 1.593700 0.000000 0.000000 
#    y 0.000000 1.536240 0.000000 
#    z 0.000000 0.000000 1.551760 
# 
# From -- ./inp_files/32229.got.cif
#   From: 2010.03.12/outbox.cif.g09.slc.cpg/sg51_17_cif.got.tgz:32229.got - 2010.04.16 13:43:02.
