data_PCOD8207110
_publ_section_title
;
Structure prediction by ZEFSAII (Michael W. Deem and Ramdas Pophale) SiO2 
 PCOD8207110
Probable space group: P M M A
;
_chemical_formula_sum "Si O2"
_cell_formula_units_Z 56
_cell_length_a 17.054997
_cell_length_b 17.743656
_cell_length_c 9.603748
_cell_angle_alpha 90.000000
_cell_angle_beta 90.000000
_cell_angle_gamma 90.000000
_cell_volume 2906.267011
_symmetry_space_group_name_H-M "P M M A"
_symmetry_group_IT_number 51
_symmetry_cell_setting 'orthorhombic'
loop_
_space_group_symop_operation_xyz
x,y,z
1/2-x,-y,z
1/2+x,-y,-z
-x,y,-z
-x,-y,-z
1/2+x,y,-z
1/2-x,y,z
x,-y,z
loop_
_atom_site_type_symbol
_atom_site_label
_atom_site_fract_x
_atom_site_fract_y
_atom_site_fract_z
Si Si1 0.158680 0.701382 0.988054
Si Si2 0.840429 0.085323 0.700778
Si Si3 0.576077 0.083596 0.427124
Si Si4 0.839525 0.694581 0.475733
Si Si5 0.901961 0.791188 0.240248
Si Si6 0.419322 0.758154 0.253465
Si Si7 0.843130 0.415987 0.244675
O O1 0.250000 0.693348 0.019296
O O2 0.138706 0.780052 0.909187
O O3 0.126934 0.634675 0.885856
O O4 0.114177 0.703152 0.134047
O O5 0.750000 0.099755 0.735877
O O6 0.851374 0.087992 0.533579
O O7 0.889377 0.154932 0.766696
O O8 0.865766 0.000000 0.752323
O O9 0.500000 0.123476 0.500000
O O10 0.593749 0.120931 0.278431
O O11 0.551422 0.000000 0.386439
O O12 0.750000 0.688545 0.529162
O O13 0.845077 0.757733 0.357756
O O14 0.894471 0.718836 0.602585
O O15 0.867411 0.617738 0.396464
O O16 0.987680 0.753850 0.242816
O O17 0.750000 0.417100 0.236877
O O18 0.878468 0.500000 0.230844
#
# Coordination Sequence:
#
# PCOD8207110 Si02
#       7
#     8   8   8   8   8   8   8
#     4  10  22  37  56  78 106 144 183 223 268 323
#     4  10  20  32  50  76 107 143 179 222 274 318
#     4  10  18  31  51  77 105 136 179 227 273 317
#     4  10  19  32  56  82 106 136 175 221 267 317
#     4  11  20  34  53  78 106 144 180 224 268 323
#     4  12  21  34  53  81 112 142 180 226 270 321
#     4   8  16  34  58  82 107 138 176 218 269 327
#
# _framework density 19.268705000000001
#
# number of rings (size 3 to 8) (size 9 to 14) (size 15 to 20)
#    0.000    1.857    2.857    3.429    0.000    0.571 
#    0.000    1.429    0.000   19.714    0.000    0.000 
#    0.000    0.000    0.000    0.000    0.000    0.000 
#
# Total GULP energy -693853.979065 kJ/mol
# GULP energy per Si atom -12390.249626 kJ/mol
# Density = 1.922485 g / cm^3
# Si number density = 19.268705 Si / 1000 Ang^3
#
#
#
# Elastic Constant Matrix: (Units=GPa)
#
#
# Indices 1 2 3 4 5 6 
#
# 1 23.5907 7.4758 -1.4788 0.0000 0.0000 0.0000
# 2 7.4758 101.3464 23.2620 0.0000 0.0000 0.0000
# 3 -1.4788 23.2620 68.8988 0.0000 0.0000 0.0000
# 4 0.0000 0.0000 0.0000 23.9103 0.0000 0.0000
# 5 0.0000 0.0000 0.0000 0.0000 25.7479 0.0000
# 6 0.0000 0.0000 0.0000 0.0000 0.0000 16.3909
#
#
#
# Elastic Compliance Matrix: (Units=1/GPa)
#
#
# Indices 1 2 3 4 5 6 
#
# 1 0.043709 -0.003728 0.002197 0.000000 0.000000 0.000000
# 2 -0.003728 0.011014 -0.003799 0.000000 0.000000 0.000000
# 3 0.002197 -0.003799 0.015844 0.000000 0.000000 0.000000
# 4 0.000000 0.000000 0.000000 0.041823 0.000000 0.000000
# 5 0.000000 0.000000 0.000000 0.000000 0.038838 0.000000
# 6 0.000000 0.000000 0.000000 0.000000 0.000000 0.061009
#
#
# Mechanical properties :
#
#
# Convention : Reuss Voigt Hill
#
# Bulk Modulus (GPa) = 16.69273 28.03933 22.36603
# Shear Modulus (GPa) = 20.58748 24.18163 22.38455
#
# Velocity S-wave (km/s) = 3.27225 3.54640 3.41208
# Velocity P-wave (km/s) = 4.79153 5.59934 5.21111
#
# Compressibility (1/GPa) = 0.05990630
#
# Stress axis : x y z
#
# Youngs Moduli (GPa) = 22.87868 90.79283 63.11651
#
# Poissons Ratio (x) = 0.33852 -0.13866
# Poissons Ratio (y) = 0.08530 0.23976
# Poissons Ratio (z) = -0.05026 0.34489
#
# Static dielectric constant tensor:
#      x y z
#    x 3.461890 0.000000 0.000000 
#    y 0.000000 3.821130 0.000000 
#    z 0.000000 0.000000 3.484240 
# 
# 
# High freq. dielectric constant tensor:
#      x y z
#    x 1.744200 0.000000 0.000000 
#    y 0.000000 1.737560 0.000000 
#    z 0.000000 0.000000 1.728730 
# 
# From -- ./inp_files/8533.got.cif
#   From: 2010.03.12/outbox.cif.g09.slc.cpg/sg51_5_cif.got.tgz:8533.got - 2010.04.16 13:43:02.
