data_PCOD8207098
_publ_section_title
;
Structure prediction by ZEFSAII (Michael W. Deem and Ramdas Pophale) SiO2 
 PCOD8207098
Probable space group: P M M A
;
_chemical_formula_sum "Si O2"
_cell_formula_units_Z 64
_cell_length_a 8.933676
_cell_length_b 14.183238
_cell_length_c 30.971841
_cell_angle_alpha 90.000000
_cell_angle_beta 90.000000
_cell_angle_gamma 90.000000
_cell_volume 3924.394057
_symmetry_space_group_name_H-M "P M M A"
_symmetry_group_IT_number 51
_symmetry_cell_setting 'orthorhombic'
loop_
_space_group_symop_operation_xyz
x,y,z
1/2-x,-y,z
1/2+x,-y,-z
-x,y,-z
-x,-y,-z
1/2+x,y,-z
1/2-x,y,z
x,-y,z
loop_
_atom_site_type_symbol
_atom_site_label
_atom_site_fract_x
_atom_site_fract_y
_atom_site_fract_z
Si Si1 0.572263 0.894426 0.791346
Si Si2 0.425513 0.109658 0.629937
Si Si3 0.420682 0.605388 0.167361
Si Si4 0.925771 0.107461 0.044485
Si Si5 0.576281 0.791566 0.877649
Si Si6 0.918488 0.887992 0.542362
Si Si7 0.924356 0.607517 0.256540
Si Si8 0.427529 0.218321 0.291988
O O1 0.750000 0.895884 0.790246
O O2 0.516854 0.845652 0.835245
O O3 0.512277 0.837007 0.750185
O O4 0.506336 0.000000 0.789437
O O5 0.250000 0.129233 0.630740
O O6 0.489329 0.144573 0.584182
O O7 0.505815 0.169614 0.666266
O O8 0.462522 0.000000 0.637756
O O9 0.250000 0.617784 0.184006
O O10 0.448319 0.500000 0.149038
O O11 0.451730 0.679791 0.129150
O O12 0.527121 0.627233 0.207454
O O13 0.750000 0.117467 0.039219
O O14 0.980561 0.176229 0.081852
O O15 0.972799 0.000000 0.055536
O O16 0.000000 0.140568 0.000000
O O17 0.750000 0.814411 0.886339
O O18 0.750000 0.847576 0.544814
O O19 0.000000 0.846344 0.500000
O O20 0.914632 0.000000 0.539540
O O21 0.750000 0.629721 0.260560
O O22 0.961466 0.500000 0.269419
O O23 0.014672 0.674392 0.289230
O O24 0.250000 0.216896 0.295295
#
# Coordination Sequence:
#
# PCOD8207098 Si02
#       8
#     8   8   8   8   8   8   8   8
#     4   9  17  28  43  66  95 126 159 192 228 273
#     4  10  20  32  45  65  96 133 169 205 247 294
#     4   9  17  31  51  74  98 124 158 196 235 283
#     4  10  21  36  53  74  98 125 156 192 234 279
#     4  10  18  31  51  74  98 126 157 193 236 280
#     4   9  16  27  44  65  89 121 163 209 252 293
#     4  10  20  33  49  69  94 124 159 203 251 292
#     4  11  20  32  48  67  94 130 168 203 240 288
#
# _framework density 16.308249
#
# number of rings (size 3 to 8) (size 9 to 14) (size 15 to 20)
#    0.000    2.250    1.250    2.625    0.000    5.250 
#    0.000    0.000    0.000    2.625    0.000    0.000 
#    0.000    0.500    0.000    1.875    0.000    2.875 
#
# Total GULP energy -793672.623396 kJ/mol
# GULP energy per Si atom -12401.134741 kJ/mol
# Density = 1.627113 g / cm^3
# Si number density = 16.308249 Si / 1000 Ang^3
#
#
#
# Elastic Constant Matrix: (Units=GPa)
#
#
# Indices 1 2 3 4 5 6 
#
# 1 80.4640 43.2214 54.0339 0.0000 0.0000 0.0000
# 2 43.2214 94.6323 59.9093 0.0000 0.0000 0.0000
# 3 54.0339 59.9093 129.5793 0.0000 0.0000 0.0000
# 4 0.0000 0.0000 0.0000 9.4098 0.0000 0.0000
# 5 0.0000 0.0000 0.0000 0.0000 31.3731 0.0000
# 6 0.0000 0.0000 0.0000 0.0000 0.0000 21.4099
#
#
#
# Elastic Compliance Matrix: (Units=1/GPa)
#
#
# Indices 1 2 3 4 5 6 
#
# 1 0.018882 -0.005145 -0.005495 0.000000 0.000000 0.000000
# 2 -0.005145 0.016342 -0.005410 0.000000 0.000000 0.000000
# 3 -0.005495 -0.005410 0.012510 0.000000 0.000000 0.000000
# 4 0.000000 0.000000 0.000000 0.106272 0.000000 0.000000
# 5 0.000000 0.000000 0.000000 0.000000 0.031874 0.000000
# 6 0.000000 0.000000 0.000000 0.000000 0.000000 0.046707
#
#
# Mechanical properties :
#
#
# Convention : Reuss Voigt Hill
#
# Bulk Modulus (GPa) = 63.96484 68.77832 66.37158
# Shear Modulus (GPa) = 18.52546 22.27263 20.39905
#
# Velocity S-wave (km/s) = 3.37405 3.69958 3.54056
# Velocity P-wave (km/s) = 7.38150 7.77912 7.58292
#
# Compressibility (1/GPa) = 0.01563359
#
# Stress axis : x y z
#
# Youngs Moduli (GPa) = 52.96179 61.19145 79.93733
#
# Poissons Ratio (x) = 0.31484 0.43923
# Poissons Ratio (y) = 0.27250 0.43246
# Poissons Ratio (z) = 0.29101 0.33105
#
# Static dielectric constant tensor:
#      x y z
#    x 3.079340 0.000000 0.000000 
#    y 0.000000 3.125060 0.000000 
#    z 0.000000 0.000000 3.017630 
# 
# 
# High freq. dielectric constant tensor:
#      x y z
#    x 1.629210 0.000000 0.000000 
#    y 0.000000 1.609390 0.000000 
#    z 0.000000 0.000000 1.614880 
# 
# From -- ./inp_files/37564.got.cif
#   From: 2010.03.12/outbox.cif.g09.slc.cpg/sg51_19_cif.got.tgz:37564.got - 2010.04.16 13:43:02.
