data_PCOD8207799
_publ_section_title
;
Structure prediction by ZEFSAII (Michael W. Deem and Ramdas Pophale) SiO2 
 PCOD8207799
Probable space group: P M M A
;
_chemical_formula_sum "Si O2"
_cell_formula_units_Z 52
_cell_length_a 8.678837
_cell_length_b 18.210307
_cell_length_c 24.960953
_cell_angle_alpha 90.000000
_cell_angle_beta 90.000000
_cell_angle_gamma 90.000000
_cell_volume 3944.935999
_symmetry_space_group_name_H-M "P M M A"
_symmetry_group_IT_number 51
_symmetry_cell_setting 'orthorhombic'
loop_
_space_group_symop_operation_xyz
x,y,z
1/2-x,-y,z
1/2+x,-y,-z
-x,y,-z
-x,-y,-z
1/2+x,y,-z
1/2-x,y,z
x,-y,z
loop_
_atom_site_type_symbol
_atom_site_label
_atom_site_fract_x
_atom_site_fract_y
_atom_site_fract_z
Si Si1 0.072375 0.414090 0.775964
Si Si2 0.577593 0.587458 0.668198
Si Si3 0.067443 0.226433 0.940276
Si Si4 0.568054 0.500000 0.058587
Si Si5 0.930170 0.079524 0.941633
Si Si6 0.931789 0.582826 0.552628
Si Si7 0.069008 0.637117 0.119664
O O1 0.250000 0.398496 0.788243
O O2 0.032623 0.500000 0.781907
O O3 0.033766 0.386267 0.715960
O O4 0.968495 0.368640 0.817383
O O5 0.750000 0.615816 0.680772
O O6 0.579331 0.500000 0.663630
O O7 0.519659 0.618825 0.610165
O O8 0.250000 0.235057 0.942177
O O9 0.018929 0.147677 0.913977
O O10 0.994854 0.286711 0.901941
O O11 0.000000 0.234757 0.000000
O O12 0.750000 0.500000 0.055058
O O13 0.514781 0.428229 0.089270
O O14 0.500000 0.500000 0.000000
O O15 0.750000 0.098745 0.945547
O O16 0.954757 0.000000 0.912161
O O17 0.000000 0.071965 0.000000
O O18 0.750000 0.583805 0.548667
O O19 0.997175 0.500000 0.551827
O O20 0.000000 0.624748 0.500000
O O21 0.250000 0.631804 0.109681
#
# Coordination Sequence:
#
# PCOD8207799 Si02
#       7
#     8   8   8   4   8   8   8
#     4  10  19  30  43  57  72  89 117 156 190 224
#     4   8  14  24  36  49  66  88 114 142 177 220
#     4  11  21  33  47  63  83 102 123 151 183 223
#     4  12  24  38  50  62  76  92 119 152 189 232
#     4   9  16  27  44  65  86 105 124 144 170 211
#     4   8  13  20  30  45  65  87 109 136 170 213
#     4  12  23  35  48  60  75  98 124 153 192 230
#
# _framework density 13.181456000000001
#
# number of rings (size 3 to 8) (size 9 to 14) (size 15 to 20)
#    0.000    2.154    0.769    6.692    0.000    2.154 
#    0.000    3.077    0.000    0.000    0.000    0.000 
#    0.000    0.000    0.000    0.000    0.000    0.000 
#
# Total GULP energy -644351.148589 kJ/mol
# GULP energy per Si atom -12391.368242 kJ/mol
# Density = 1.315145 g / cm^3
# Si number density = 13.181456 Si / 1000 Ang^3
#
#
#
# Elastic Constant Matrix: (Units=GPa)
#
#
# Indices 1 2 3 4 5 6 
#
# 1 85.6893 25.5408 33.9031 0.0000 0.0000 0.0000
# 2 25.5408 63.9992 29.5467 0.0000 0.0000 0.0000
# 3 33.9031 29.5467 91.8440 0.0000 0.0000 0.0000
# 4 0.0000 0.0000 0.0000 34.1098 0.0000 0.0000
# 5 0.0000 0.0000 0.0000 0.0000 22.5626 0.0000
# 6 0.0000 0.0000 0.0000 0.0000 0.0000 6.7553
#
#
#
# Elastic Compliance Matrix: (Units=1/GPa)
#
#
# Indices 1 2 3 4 5 6 
#
# 1 0.014442 -0.003878 -0.004083 0.000000 0.000000 0.000000
# 2 -0.003878 0.019392 -0.004807 0.000000 0.000000 0.000000
# 3 -0.004083 -0.004807 0.013942 0.000000 0.000000 0.000000
# 4 0.000000 0.000000 0.000000 0.029317 0.000000 0.000000
# 5 0.000000 0.000000 0.000000 0.000000 0.044321 0.000000
# 6 0.000000 0.000000 0.000000 0.000000 0.000000 0.148031
#
#
# Mechanical properties :
#
#
# Convention : Reuss Voigt Hill
#
# Bulk Modulus (GPa) = 44.96693 46.61262 45.78978
# Shear Modulus (GPa) = 16.53469 22.85501 19.69485
#
# Velocity S-wave (km/s) = 3.54558 4.16850 3.86960
# Velocity P-wave (km/s) = 7.13788 7.65556 7.40125
#
# Compressibility (1/GPa) = 0.02223856
#
# Stress axis : x y z
#
# Youngs Moduli (GPa) = 69.24452 51.56730 71.72695
#
# Poissons Ratio (x) = 0.19999 0.29288
# Poissons Ratio (y) = 0.26854 0.34479
# Poissons Ratio (z) = 0.28275 0.24788
#
# Static dielectric constant tensor:
#      x y z
#    x 2.921650 0.000000 0.000000 
#    y 0.000000 2.417320 0.000000 
#    z 0.000000 0.000000 2.810650 
# 
# 
# High freq. dielectric constant tensor:
#      x y z
#    x 1.518470 0.000000 0.000000 
#    y 0.000000 1.451040 0.000000 
#    z 0.000000 0.000000 1.488890 
# 
# From -- ./inp_files/35058.got.cif
#   From: 2010.03.12/outbox.cif.g09.slc.cpg/sg51_18_cif.got.tgz:35058.got - 2010.04.16 13:43:02.
