data_PCOD8207469
_publ_section_title
;
Structure prediction by ZEFSAII (Michael W. Deem and Ramdas Pophale) SiO2 
 PCOD8207469
Probable space group: P M M A
;
_chemical_formula_sum "Si O2"
_cell_formula_units_Z 64
_cell_length_a 14.669362
_cell_length_b 8.637843
_cell_length_c 26.159805
_cell_angle_alpha 90.000000
_cell_angle_beta 90.000000
_cell_angle_gamma 90.000000
_cell_volume 3314.751947
_symmetry_space_group_name_H-M "P M M A"
_symmetry_group_IT_number 51
_symmetry_cell_setting 'orthorhombic'
loop_
_space_group_symop_operation_xyz
x,y,z
1/2-x,-y,z
1/2+x,-y,-z
-x,y,-z
-x,-y,-z
1/2+x,y,-z
1/2-x,y,z
x,-y,z
loop_
_atom_site_type_symbol
_atom_site_label
_atom_site_fract_x
_atom_site_fract_y
_atom_site_fract_z
Si Si1 0.353641 0.326276 0.108951
Si Si2 0.350201 0.180250 0.893824
Si Si3 0.854183 0.816033 0.361662
Si Si4 0.645870 0.816741 0.636845
Si Si5 0.995065 0.181108 0.820574
Si Si6 0.998439 0.816836 0.443304
Si Si7 0.501076 0.318733 0.710314
Si Si8 0.107133 0.173660 0.003753
O O1 0.250000 0.320919 0.126952
O O2 0.393047 0.500000 0.115045
O O3 0.405431 0.207103 0.145661
O O4 0.360180 0.279265 0.049911
O O5 0.250000 0.209997 0.871212
O O6 0.421010 0.250402 0.853544
O O7 0.374021 0.000000 0.899778
O O8 0.357149 0.250808 0.950879
O O9 0.750000 0.752150 0.362752
O O10 0.908670 0.756028 0.312247
O O11 0.909235 0.758227 0.412122
O O12 0.853302 0.000000 0.359023
O O13 0.750000 0.755196 0.633778
O O14 0.591618 0.767746 0.585437
O O15 0.593658 0.743927 0.684749
O O16 0.644331 0.000000 0.643897
O O17 0.991589 0.279902 0.769510
O O18 0.005480 0.000000 0.807380
O O19 0.000000 0.742118 0.500000
O O20 0.992914 0.000000 0.447608
O O21 0.495408 0.500000 0.701485
O O22 0.146621 0.000000 0.011591
O O23 0.000000 0.167628 0.000000
#
# Coordination Sequence:
#
# PCOD8207469 Si02
#       8
#     8   8   8   8   8   8   8   8
#     4  11  24  39  55  80 113 146 179 218 269 324
#     4   9  18  33  55  82 108 134 169 214 261 313
#     4   9  18  34  56  81 110 148 192 231 270 323
#     4   9  18  34  56  81 109 145 188 227 268 324
#     4  11  22  39  60  81 106 138 180 225 275 329
#     4   8  14  26  48  83 121 148 177 226 280 321
#     4  11  23  38  56  79 108 141 180 230 285 333
#     4  10  18  34  59  84 107 139 180 217 258 314
#
# _framework density 19.307628999999999
#
# number of rings (size 3 to 8) (size 9 to 14) (size 15 to 20)
#    0.000    2.250    1.250    3.000    0.000    3.750 
#    0.000    3.750    0.000    7.875    0.000    7.000 
#    0.000    0.000    0.000    0.000    0.000    0.000 
#
# Total GULP energy -793464.789516 kJ/mol
# GULP energy per Si atom -12397.887336 kJ/mol
# Density = 1.926368 g / cm^3
# Si number density = 19.307629 Si / 1000 Ang^3
#
#
#
# Elastic Constant Matrix: (Units=GPa)
#
#
# Indices 1 2 3 4 5 6 
#
# 1 152.9299 25.7493 61.7332 0.0000 0.0000 0.0000
# 2 25.7493 34.6196 14.2814 0.0000 0.0000 0.0000
# 3 61.7332 14.2814 140.0504 0.0000 0.0000 0.0000
# 4 0.0000 0.0000 0.0000 11.7930 0.0000 0.0000
# 5 0.0000 0.0000 0.0000 0.0000 -52.7146 0.0000
# 6 0.0000 0.0000 0.0000 0.0000 0.0000 8.9140
#
#
#
# Elastic Compliance Matrix: (Units=1/GPa)
#
#
# Indices 1 2 3 4 5 6 
#
# 1 0.008748 -0.005132 -0.003333 0.000000 0.000000 0.000000
# 2 -0.005132 0.033164 -0.001120 0.000000 0.000000 0.000000
# 3 -0.003333 -0.001120 0.008724 0.000000 0.000000 0.000000
# 4 0.000000 0.000000 0.000000 0.084796 0.000000 0.000000
# 5 0.000000 0.000000 0.000000 0.000000 -0.018970 0.000000
# 6 0.000000 0.000000 0.000000 0.000000 0.000000 0.112184
#
#
# Mechanical properties :
#
#
# Convention : Reuss Voigt Hill
#
# Bulk Modulus (GPa) = 31.77923 59.01418 45.39670
# Shear Modulus (GPa) = 19.35703 8.65422 14.00562
#
# Velocity S-wave (km/s) = 3.16976 2.11944 2.69623
# Velocity P-wave (km/s) = 5.46732 6.05152 5.76682
#
# Compressibility (1/GPa) = 0.03146710
#
# Stress axis : x y z
#
# Youngs Moduli (GPa) = 114.30633 30.15287 114.63169
#
# Poissons Ratio (x) = 0.15474 0.38206
# Poissons Ratio (y) = 0.58662 0.12836
# Poissons Ratio (z) = 0.38097 0.03376
#
# Static dielectric constant tensor:
#      x y z
#    x 3.717680 0.000000 0.000000 
#    y 0.000000 3.222750 0.000000 
#    z 0.000000 0.000000 3.656480 
# 
# 
# High freq. dielectric constant tensor:
#      x y z
#    x 1.760880 0.000000 0.000000 
#    y 0.000000 1.718350 0.000000 
#    z 0.000000 0.000000 1.751590 
# 
# From -- ./inp_files/35824.got.cif
#   From: 2010.03.12/outbox.cif.g09.slc.cpg/sg51_18_cif.got.tgz:35824.got - 2010.04.16 13:43:02.
