data_PCOD8207650
_publ_section_title
;
Structure prediction by ZEFSAII (Michael W. Deem and Ramdas Pophale) SiO2 
 PCOD8207650
Probable space group: P M M A
;
_chemical_formula_sum "Si O2"
_cell_formula_units_Z 56
_cell_length_a 9.054066
_cell_length_b 13.681563
_cell_length_c 28.914048
_cell_angle_alpha 90.000000
_cell_angle_beta 90.000000
_cell_angle_gamma 90.000000
_cell_volume 3581.692259
_symmetry_space_group_name_H-M "P M M A"
_symmetry_group_IT_number 51
_symmetry_cell_setting 'orthorhombic'
loop_
_space_group_symop_operation_xyz
x,y,z
1/2-x,-y,z
1/2+x,-y,-z
-x,y,-z
-x,-y,-z
1/2+x,y,-z
1/2-x,y,z
x,-y,z
loop_
_atom_site_type_symbol
_atom_site_label
_atom_site_fract_x
_atom_site_fract_y
_atom_site_fract_z
Si Si1 0.077849 0.112600 0.769466
Si Si2 0.577162 0.219944 0.137337
Si Si3 0.923736 0.282381 0.722331
Si Si4 0.423794 0.386647 0.637874
Si Si5 0.424084 0.887978 0.953793
Si Si6 0.923127 0.389622 0.816074
Si Si7 0.916579 0.616151 0.544903
O O1 0.250000 0.130765 0.759280
O O2 0.037588 0.145317 0.821460
O O3 0.981421 0.173365 0.732811
O O4 0.034381 0.000000 0.763792
O O5 0.750000 0.238656 0.134605
O O6 0.517479 0.174011 0.089735
O O7 0.500378 0.324240 0.144933
O O8 0.750000 0.280164 0.712614
O O9 0.965353 0.352191 0.765110
O O10 0.007186 0.322608 0.678106
O O11 0.250000 0.368849 0.635242
O O12 0.461665 0.500000 0.646939
O O13 0.495149 0.349692 0.590150
O O14 0.250000 0.878044 0.959432
O O15 0.470976 0.000000 0.945489
O O16 0.500000 0.846266 0.000000
O O17 0.750000 0.382794 0.824204
O O18 0.981254 0.500000 0.821107
O O19 0.750000 0.657900 0.546527
O O20 0.913163 0.500000 0.542074
O O21 0.000000 0.659067 0.500000
#
# Coordination Sequence:
#
# PCOD8207650 Si02
#       7
#     8   8   8   8   8   8   8
#     4   9  17  30  47  65  87 115 144 175 213 257
#     4   9  17  29  46  67  88 112 143 176 210 251
#     4  10  19  30  44  63  88 116 146 180 218 260
#     4  10  19  29  42  61  86 117 152 187 221 259
#     4   9  17  29  45  66  91 115 138 168 209 256
#     4   9  18  31  45  62  86 115 145 178 216 255
#     4   9  16  26  40  58  82 113 148 184 222 263
#
# _framework density 15.635068
#
# number of rings (size 3 to 8) (size 9 to 14) (size 15 to 20)
#    0.000    2.714    0.000    2.143    0.000    6.571 
#    0.000    0.000    0.000    3.000    0.000    0.000 
#    0.000    0.571    0.000    2.143    0.000    3.286 
#
# Total GULP energy -694455.048147 kJ/mol
# GULP energy per Si atom -12400.983003 kJ/mol
# Density = 1.559948 g / cm^3
# Si number density = 15.635068 Si / 1000 Ang^3
#
#
#
# Elastic Constant Matrix: (Units=GPa)
#
#
# Indices 1 2 3 4 5 6 
#
# 1 67.4958 40.3082 55.7912 0.0000 0.0000 0.0000
# 2 40.3082 95.7321 59.2302 0.0000 0.0000 0.0000
# 3 55.7912 59.2302 134.0263 0.0000 0.0000 0.0000
# 4 0.0000 0.0000 0.0000 21.4853 0.0000 0.0000
# 5 0.0000 0.0000 0.0000 0.0000 30.5671 0.0000
# 6 0.0000 0.0000 0.0000 0.0000 0.0000 23.0855
#
#
#
# Elastic Compliance Matrix: (Units=1/GPa)
#
#
# Indices 1 2 3 4 5 6 
#
# 1 0.024540 -0.005522 -0.007775 0.000000 0.000000 0.000000
# 2 -0.005522 0.015619 -0.004604 0.000000 0.000000 0.000000
# 3 -0.007775 -0.004604 0.012732 0.000000 0.000000 0.000000
# 4 0.000000 0.000000 0.000000 0.046543 0.000000 0.000000
# 5 0.000000 0.000000 0.000000 0.000000 0.032715 0.000000
# 6 0.000000 0.000000 0.000000 0.000000 0.000000 0.043317
#
#
# Mechanical properties :
#
#
# Convention : Reuss Voigt Hill
#
# Bulk Modulus (GPa) = 58.51470 67.54593 63.03032
# Shear Modulus (GPa) = 23.04502 24.48923 23.76712
#
# Velocity S-wave (km/s) = 3.84335 3.96195 3.90310
# Velocity P-wave (km/s) = 7.56318 8.01403 7.79187
#
# Compressibility (1/GPa) = 0.01708972
#
# Stress axis : x y z
#
# Youngs Moduli (GPa) = 40.74930 64.02262 78.54040
#
# Poissons Ratio (x) = 0.35355 0.61065
# Poissons Ratio (y) = 0.22503 0.36159
# Poissons Ratio (z) = 0.31682 0.29476
#
# Static dielectric constant tensor:
#      x y z
#    x 3.024590 0.000000 0.000000 
#    y 0.000000 2.848450 0.000000 
#    z 0.000000 0.000000 3.028030 
# 
# 
# High freq. dielectric constant tensor:
#      x y z
#    x 1.606970 0.000000 0.000000 
#    y 0.000000 1.569160 0.000000 
#    z 0.000000 0.000000 1.596970 
# 
# From -- ./inp_files/37498.got.cif
#   From: 2010.03.12/outbox.cif.g09.slc.cpg/sg51_19_cif.got.tgz:37498.got - 2010.04.16 13:43:02.
