data_PCOD8207333
_publ_section_title
;
Structure prediction by ZEFSAII (Michael W. Deem and Ramdas Pophale) SiO2 
 PCOD8207333
Probable space group: P M M A
;
_chemical_formula_sum "Si O2"
_cell_formula_units_Z 64
_cell_length_a 18.458335
_cell_length_b 14.539049
_cell_length_c 11.983927
_cell_angle_alpha 90.000000
_cell_angle_beta 90.000000
_cell_angle_gamma 90.000000
_cell_volume 3216.086187
_symmetry_space_group_name_H-M "P M M A"
_symmetry_group_IT_number 51
_symmetry_cell_setting 'orthorhombic'
loop_
_space_group_symop_operation_xyz
x,y,z
1/2-x,-y,z
1/2+x,-y,-z
-x,y,-z
-x,-y,-z
1/2+x,y,-z
1/2-x,y,z
x,-y,z
loop_
_atom_site_type_symbol
_atom_site_label
_atom_site_fract_x
_atom_site_fract_y
_atom_site_fract_z
Si Si1 0.331702 0.278608 0.624347
Si Si2 0.391900 0.727613 0.384602
Si Si3 0.522129 0.101656 0.625128
Si Si4 0.876626 0.104756 0.242466
Si Si5 0.523718 0.392682 0.334542
Si Si6 0.952744 0.604864 0.903246
Si Si7 0.334673 0.102861 0.004408
Si Si8 0.831664 0.270709 0.848488
O O1 0.250000 0.320232 0.641780
O O2 0.342906 0.262457 0.493168
O O3 0.332100 0.180960 0.688401
O O4 0.396149 0.347513 0.661992
O O5 0.417747 0.826444 0.340098
O O6 0.460702 0.658553 0.407861
O O7 0.340567 0.702157 0.281644
O O8 0.500000 0.130048 0.500000
O O9 0.458101 0.110108 0.713521
O O10 0.555941 0.000000 0.624842
O O11 0.846140 0.000000 0.261989
O O12 0.875705 0.128969 0.110990
O O13 0.528350 0.500000 0.370374
O O14 0.496059 0.379629 0.209992
O O15 0.935244 0.500000 0.926948
O O16 0.876896 0.654891 0.914838
O O17 0.000000 0.649183 0.000000
O O18 0.250000 0.108718 0.976239
O O19 0.356185 0.169439 0.107456
O O20 0.356722 0.000000 0.042461
O O21 0.750000 0.286579 0.883739
#
# Coordination Sequence:
#
# PCOD8207333 Si02
#       8
#     8   8   8   8   8   8   8   8
#     4  12  24  36  58  89 119 150 194 246 293 342
#     4  11  21  39  58  83 117 156 198 238 284 348
#     4  10  18  32  56  83 112 147 190 239 286 336
#     4  10  20  36  58  85 115 149 193 239 290 346
#     4  10  22  41  62  84 115 155 194 233 290 356
#     4   9  20  39  63  88 115 150 192 239 292 352
#     4   9  19  36  55  79 117 159 193 229 283 350
#     4  10  22  37  59  86 117 156 196 240 291 340
#
# _framework density 19.899965000000002
#
# number of rings (size 3 to 8) (size 9 to 14) (size 15 to 20)
#    0.000    1.875    2.500    1.125    1.750    2.750 
#    0.000    0.000    0.000    9.375    0.000    0.000 
#    0.000    0.000    0.000    0.000    0.000    0.000 
#
# Total GULP energy -793076.281732 kJ/mol
# GULP energy per Si atom -12391.816902 kJ/mol
# Density = 1.985467 g / cm^3
# Si number density = 19.899965 Si / 1000 Ang^3
#
#
#
# Elastic Constant Matrix: (Units=GPa)
#
#
# Indices 1 2 3 4 5 6 
#
# 1 102.3752 54.2212 28.7443 0.0000 0.0000 0.0000
# 2 54.2212 102.0252 32.8535 0.0000 0.0000 0.0000
# 3 28.7443 32.8535 69.8655 0.0000 0.0000 0.0000
# 4 0.0000 0.0000 0.0000 29.6676 0.0000 0.0000
# 5 0.0000 0.0000 0.0000 0.0000 25.1264 0.0000
# 6 0.0000 0.0000 0.0000 0.0000 0.0000 22.5878
#
#
#
# Elastic Compliance Matrix: (Units=1/GPa)
#
#
# Indices 1 2 3 4 5 6 
#
# 1 0.014003 -0.006584 -0.002665 0.000000 0.000000 0.000000
# 2 -0.006584 0.014646 -0.004178 0.000000 0.000000 0.000000
# 3 -0.002665 -0.004178 0.017375 0.000000 0.000000 0.000000
# 4 0.000000 0.000000 0.000000 0.033707 0.000000 0.000000
# 5 0.000000 0.000000 0.000000 0.000000 0.039799 0.000000
# 6 0.000000 0.000000 0.000000 0.000000 0.000000 0.044272
#
#
# Mechanical properties :
#
#
# Convention : Reuss Voigt Hill
#
# Bulk Modulus (GPa) = 52.16779 56.21153 54.18966
# Shear Modulus (GPa) = 25.37480 26.03948 25.70714
#
# Velocity S-wave (km/s) = 3.57475 3.62127 3.59809
# Velocity P-wave (km/s) = 6.58106 6.76706 6.67471
#
# Compressibility (1/GPa) = 0.01916891
#
# Stress axis : x y z
#
# Youngs Moduli (GPa) = 71.41159 68.27837 57.55514
#
# Poissons Ratio (x) = 0.44953 0.15340
# Poissons Ratio (y) = 0.47016 0.24049
# Poissons Ratio (z) = 0.19034 0.28529
#
# Static dielectric constant tensor:
#      x y z
#    x 3.480190 0.000000 0.000000 
#    y 0.000000 3.819830 0.000000 
#    z 0.000000 0.000000 3.725160 
# 
# 
# High freq. dielectric constant tensor:
#      x y z
#    x 1.761820 0.000000 0.000000 
#    y 0.000000 1.777270 0.000000 
#    z 0.000000 0.000000 1.783500 
# 
# From -- ./inp_files/17573.got.cif
#   From: 2010.03.12/outbox.cif.g09.slc.cpg/sg51_9_cif.got.tgz:17573.got - 2010.04.16 13:43:02.
