data_PCOD8207456
_publ_section_title
;
Structure prediction by ZEFSAII (Michael W. Deem and Ramdas Pophale) SiO2 
 PCOD8207456
Probable space group: P M M A
;
_chemical_formula_sum "Si O2"
_cell_formula_units_Z 30
_cell_length_a 13.970331
_cell_length_b 11.155068
_cell_length_c 9.861080
_cell_angle_alpha 90.000000
_cell_angle_beta 90.000000
_cell_angle_gamma 90.000000
_cell_volume 1536.750631
_symmetry_space_group_name_H-M "P M M A"
_symmetry_group_IT_number 51
_symmetry_cell_setting 'orthorhombic'
loop_
_space_group_symop_operation_xyz
x,y,z
1/2-x,-y,z
1/2+x,-y,-z
-x,y,-z
-x,-y,-z
1/2+x,y,-z
1/2-x,y,z
x,-y,z
loop_
_atom_site_type_symbol
_atom_site_label
_atom_site_fract_x
_atom_site_fract_y
_atom_site_fract_z
Si Si1 0.750000 0.634002 0.994436
Si Si2 0.750000 0.741909 0.285350
Si Si3 0.951944 0.362299 0.354592
Si Si4 0.926314 0.748986 0.877419
Si Si5 0.750000 0.000000 0.197252
Si Si6 0.393427 0.000000 0.043887
O O1 0.750000 0.500000 0.051094
O O2 0.843283 0.652507 0.901877
O O3 0.750000 0.720296 0.123816
O O4 0.656547 0.686692 0.357361
O O5 0.750000 0.885912 0.298242
O O6 0.950193 0.500000 0.303970
O O7 0.000000 0.351926 0.500000
O O8 0.016994 0.281115 0.258159
O O9 0.874526 0.879939 0.867664
O O10 0.000000 0.744903 0.000000
O O11 0.840406 0.000000 0.098983
O O12 0.500000 0.000000 0.000000
#
# Coordination Sequence:
#
# PCOD8207456 Si02
#       6
#     4   4   8   8   2   4
#     4  12  22  33  60  94 123 154 204 266 310 366
#     4  12  22  41  66  92 121 167 216 253 320 381
#     4  11  25  43  63  91 132 172 209 260 320 382
#     4  11  21  37  60  92 121 158 211 259 310 368
#     4  12  20  40  64  96 126 164 206 264 322 370
#     4  10  18  34  56  87 124 155 193 256 313 355
#
# _framework density 19.521708
#
# number of rings (size 3 to 8) (size 9 to 14) (size 15 to 20)
#    0.000    0.800    5.333    3.600    0.000    2.133 
#    0.000    4.000    0.000    0.000    0.000    0.000 
#    0.000    0.000    0.000    0.000    0.000    0.000 
#
# Total GULP energy -372005.447826 kJ/mol
# GULP energy per Si atom -12400.181594 kJ/mol
# Density = 1.947728 g / cm^3
# Si number density = 19.521708 Si / 1000 Ang^3
#
#
#
# Elastic Constant Matrix: (Units=GPa)
#
#
# Indices 1 2 3 4 5 6 
#
# 1 130.9622 28.1294 34.0418 0.0000 0.0000 0.0000
# 2 28.1294 134.3344 31.9752 0.0000 0.0000 0.0000
# 3 34.0418 31.9752 72.8174 0.0000 0.0000 0.0000
# 4 0.0000 0.0000 0.0000 68.9477 0.0000 0.0000
# 5 0.0000 0.0000 0.0000 0.0000 32.7136 0.0000
# 6 0.0000 0.0000 0.0000 0.0000 0.0000 30.3608
#
#
#
# Elastic Compliance Matrix: (Units=1/GPa)
#
#
# Indices 1 2 3 4 5 6 
#
# 1 0.008803 -0.000965 -0.003692 0.000000 0.000000 0.000000
# 2 -0.000965 0.008419 -0.003246 0.000000 0.000000 0.000000
# 3 -0.003692 -0.003246 0.016884 0.000000 0.000000 0.000000
# 4 0.000000 0.000000 0.000000 0.014504 0.000000 0.000000
# 5 0.000000 0.000000 0.000000 0.000000 0.030568 0.000000
# 6 0.000000 0.000000 0.000000 0.000000 0.000000 0.032937
#
#
# Mechanical properties :
#
#
# Convention : Reuss Voigt Hill
#
# Bulk Modulus (GPa) = 54.64084 58.48964 56.56524
# Shear Modulus (GPa) = 37.30812 42.66892 39.98852
#
# Velocity S-wave (km/s) = 4.37637 4.68024 4.53085
# Velocity P-wave (km/s) = 7.32034 7.69627 7.51065
#
# Compressibility (1/GPa) = 0.01830133
#
# Stress axis : x y z
#
# Youngs Moduli (GPa) = 113.60345 118.78345 59.22731
#
# Poissons Ratio (x) = 0.11457 0.21864
# Poissons Ratio (y) = 0.10957 0.19224
# Poissons Ratio (z) = 0.41938 0.38555
#
# Static dielectric constant tensor:
#      x y z
#    x 0.000000 0.000000 0.000000 
#    y 0.000000 0.000000 0.000000 
#    z 0.000000 0.000000 0.000000 
# 
# 
# High freq. dielectric constant tensor:
#      x y z
#    x 1.782030 0.000000 0.000000 
#    y 0.000000 1.780600 0.000000 
#    z 0.000000 0.000000 1.719130 
# 
# From -- ./inp_files/7524.got.cif
#   From: 2010.03.12/outbox.cif.g09.slc.cpg/sg51_4_cif.got.tgz:7524.got - 2010.04.16 13:43:02.
