data_PCOD8207876
_publ_section_title
;
Structure prediction by ZEFSAII (Michael W. Deem and Ramdas Pophale) SiO2 
 PCOD8207876
Probable space group: P M M A
;
_chemical_formula_sum "Si O2"
_cell_formula_units_Z 64
_cell_length_a 8.812686
_cell_length_b 30.889376
_cell_length_c 14.376588
_cell_angle_alpha 90.000000
_cell_angle_beta 90.000000
_cell_angle_gamma 90.000000
_cell_volume 3913.571372
_symmetry_space_group_name_H-M "P M M A"
_symmetry_group_IT_number 51
_symmetry_cell_setting 'orthorhombic'
loop_
_space_group_symop_operation_xyz
x,y,z
1/2-x,-y,z
1/2+x,-y,-z
-x,y,-z
-x,-y,-z
1/2+x,y,-z
1/2-x,y,z
x,-y,z
loop_
_atom_site_type_symbol
_atom_site_label
_atom_site_fract_x
_atom_site_fract_y
_atom_site_fract_z
Si Si1 0.569845 0.860149 0.897531
Si Si2 0.925764 0.550458 0.096977
Si Si3 0.072309 0.749895 0.593972
Si Si4 0.570003 0.218016 0.207273
Si Si5 0.070636 0.651086 0.594806
Si Si6 0.573045 0.045638 0.900488
Si Si7 0.571263 0.380313 0.777288
Si Si8 0.070577 0.701989 0.100288
O O1 0.750000 0.851998 0.903168
O O2 0.492892 0.827835 0.825517
O O3 0.528817 0.908117 0.854842
O O4 0.500000 0.853634 0.000000
O O5 0.750000 0.563368 0.093595
O O6 0.949564 0.500000 0.117144
O O7 0.010104 0.575856 0.177951
O O8 0.000000 0.564278 0.000000
O O9 0.250000 0.751678 0.579762
O O10 0.021719 0.776781 0.684756
O O11 0.016979 0.700665 0.609013
O O12 0.000000 0.769826 0.500000
O O13 0.750000 0.220497 0.195298
O O14 0.496754 0.255010 0.144907
O O15 0.250000 0.646851 0.591906
O O16 0.000000 0.632594 0.500000
O O17 0.005368 0.622338 0.677193
O O18 0.750000 0.046329 0.917543
O O19 0.528189 0.000000 0.846690
O O20 0.500000 0.044027 0.000000
O O21 0.750000 0.383152 0.765649
O O22 0.522636 0.338964 0.838038
O O23 0.250000 0.707136 0.091686
O O24 0.000000 0.694436 0.000000
#
# Coordination Sequence:
#
# PCOD8207876 Si02
#       8
#     8   8   8   8   8   8   8   8
#     4  10  19  30  44  64  91 127 164 199 239 283
#     4  10  21  37  57  80 106 136 168 204 246 292
#     4   9  19  33  51  71  92 122 157 199 242 283
#     4  11  21  34  48  66  94 128 162 195 237 284
#     4  10  19  34  54  77 103 130 163 204 247 291
#     4   8  14  25  41  60  83 113 153 198 240 281
#     4  11  22  35  54  79 103 132 167 204 246 291
#     4  11  23  35  48  68  96 130 166 201 236 277
#
# _framework density 16.353349000000001
#
# number of rings (size 3 to 8) (size 9 to 14) (size 15 to 20)
#    0.000    2.000    1.250    3.000    0.000    5.250 
#    0.000    0.000    0.000    0.375    0.000    0.000 
#    0.000    0.500    0.000    1.125    0.000    2.000 
#
# Total GULP energy -793357.897292 kJ/mol
# GULP energy per Si atom -12396.217145 kJ/mol
# Density = 1.631613 g / cm^3
# Si number density = 16.353349 Si / 1000 Ang^3
#
#
#
# Elastic Constant Matrix: (Units=GPa)
#
#
# Indices 1 2 3 4 5 6 
#
# 1 65.2967 35.0575 44.8019 0.0000 0.0000 0.0000
# 2 35.0575 87.2840 53.3801 0.0000 0.0000 0.0000
# 3 44.8019 53.3801 123.6661 0.0000 0.0000 0.0000
# 4 0.0000 0.0000 0.0000 13.1374 0.0000 0.0000
# 5 0.0000 0.0000 0.0000 0.0000 29.4574 0.0000
# 6 0.0000 0.0000 0.0000 0.0000 0.0000 18.8467
#
#
#
# Elastic Compliance Matrix: (Units=1/GPa)
#
#
# Indices 1 2 3 4 5 6 
#
# 1 0.022114 -0.005411 -0.005676 0.000000 0.000000 0.000000
# 2 -0.005411 0.016890 -0.005330 0.000000 0.000000 0.000000
# 3 -0.005676 -0.005330 0.012443 0.000000 0.000000 0.000000
# 4 0.000000 0.000000 0.000000 0.076119 0.000000 0.000000
# 5 0.000000 0.000000 0.000000 0.000000 0.033947 0.000000
# 6 0.000000 0.000000 0.000000 0.000000 0.000000 0.053060
#
#
# Mechanical properties :
#
#
# Convention : Reuss Voigt Hill
#
# Bulk Modulus (GPa) = 53.72493 60.30285 57.01389
# Shear Modulus (GPa) = 19.71516 21.82212 20.76864
#
# Velocity S-wave (km/s) = 3.47590 3.65692 3.56756
# Velocity P-wave (km/s) = 7.00236 7.40174 7.20482
#
# Compressibility (1/GPa) = 0.01861333
#
# Stress axis : x y z
#
# Youngs Moduli (GPa) = 45.21979 59.20693 80.36420
#
# Poissons Ratio (x) = 0.32036 0.45614
# Poissons Ratio (y) = 0.24468 0.42836
# Poissons Ratio (z) = 0.25667 0.31559
#
# Static dielectric constant tensor:
#      x y z
#    x 3.194950 0.000000 0.000000 
#    y 0.000000 3.377030 0.000000 
#    z 0.000000 0.000000 3.012880 
# 
# 
# High freq. dielectric constant tensor:
#      x y z
#    x 1.645420 0.000000 0.000000 
#    y 0.000000 1.623750 0.000000 
#    z 0.000000 0.000000 1.608970 
# 
# From -- ./inp_files/22565.got.cif
#   From: 2010.03.12/outbox.cif.g09.slc.cpg/sg51_12_cif.got.tgz:22565.got - 2010.04.16 13:43:02.
