data_PCOD8207425
_publ_section_title
;
Structure prediction by ZEFSAII (Michael W. Deem and Ramdas Pophale) SiO2 
 PCOD8207425
Probable space group: P M M A
;
_chemical_formula_sum "Si O2"
_cell_formula_units_Z 32
_cell_length_a 8.631560
_cell_length_b 12.231329
_cell_length_c 14.866089
_cell_angle_alpha 90.000000
_cell_angle_beta 90.000000
_cell_angle_gamma 90.000000
_cell_volume 1569.494038
_symmetry_space_group_name_H-M "P M M A"
_symmetry_group_IT_number 51
_symmetry_cell_setting 'orthorhombic'
loop_
_space_group_symop_operation_xyz
x,y,z
1/2-x,-y,z
1/2+x,-y,-z
-x,y,-z
-x,-y,-z
1/2+x,y,-z
1/2-x,y,z
x,-y,z
loop_
_atom_site_type_symbol
_atom_site_label
_atom_site_fract_x
_atom_site_fract_y
_atom_site_fract_z
Si Si1 0.066269 0.736863 0.899990
Si Si2 0.067955 0.721136 0.598507
Si Si3 0.933548 0.500000 0.599734
Si Si4 0.570493 0.500000 0.096550
Si Si5 0.070740 0.128012 0.256673
O O1 0.250000 0.756570 0.901089
O O2 0.024466 0.615849 0.857183
O O3 0.984959 0.826542 0.838779
O O4 0.000000 0.749189 0.000000
O O5 0.250000 0.706604 0.589741
O O6 0.000000 0.743690 0.500000
O O7 0.997597 0.611062 0.644915
O O8 0.028132 0.822279 0.661990
O O9 0.750000 0.500000 0.601153
O O10 0.000000 0.500000 0.500000
O O11 0.750000 0.500000 0.079808
O O12 0.500000 0.500000 0.000000
O O13 0.250000 0.156364 0.271600
O O14 0.039504 0.000000 0.256522
#
# Coordination Sequence:
#
# PCOD8207425 Si02
#       5
#     8   8   4   4   8
#     4  10  20  37  61  88 119 153 191 237 293 353
#     4  11  22  39  63  90 121 155 193 239 294 352
#     4  10  18  33  58  89 123 155 191 234 286 347
#     4   8  16  31  54  85 117 147 181 226 280 343
#     4  11  25  43  60  82 114 154 203 251 294 348
#
# _framework density 20.388736000000002
#
# number of rings (size 3 to 8) (size 9 to 14) (size 15 to 20)
#    0.000    1.750    0.000    6.375    0.000    5.000 
#    0.000    3.750    0.000    0.000    0.000    0.000 
#    0.000    0.000    0.000    0.000    0.000    0.000 
#
# Total GULP energy -396632.376298 kJ/mol
# GULP energy per Si atom -12394.761759 kJ/mol
# Density = 2.034233 g / cm^3
# Si number density = 20.388736 Si / 1000 Ang^3
#
#
#
# Elastic Constant Matrix: (Units=GPa)
#
#
# Indices 1 2 3 4 5 6 
#
# 1 137.9737 68.5559 38.3475 0.0000 0.0000 0.0000
# 2 68.5559 135.2934 56.2833 0.0000 0.0000 0.0000
# 3 38.3475 56.2833 93.1530 0.0000 0.0000 0.0000
# 4 0.0000 0.0000 0.0000 40.6740 0.0000 0.0000
# 5 0.0000 0.0000 0.0000 0.0000 32.0014 0.0000
# 6 0.0000 0.0000 0.0000 0.0000 0.0000 31.3603
#
#
#
# Elastic Compliance Matrix: (Units=1/GPa)
#
#
# Indices 1 2 3 4 5 6 
#
# 1 0.009818 -0.004400 -0.001384 0.000000 0.000000 0.000000
# 2 -0.004400 0.011844 -0.005345 0.000000 0.000000 0.000000
# 3 -0.001384 -0.005345 0.014534 0.000000 0.000000 0.000000
# 4 0.000000 0.000000 0.000000 0.024586 0.000000 0.000000
# 5 0.000000 0.000000 0.000000 0.000000 0.031249 0.000000
# 6 0.000000 0.000000 0.000000 0.000000 0.000000 0.031887
#
#
# Mechanical properties :
#
#
# Convention : Reuss Voigt Hill
#
# Bulk Modulus (GPa) = 71.73564 76.97705 74.35634
# Shear Modulus (GPa) = 33.15160 34.35604 33.75382
#
# Velocity S-wave (km/s) = 4.03671 4.10939 4.07321
# Velocity P-wave (km/s) = 7.54898 7.76870 7.65963
#
# Compressibility (1/GPa) = 0.01394007
#
# Stress axis : x y z
#
# Youngs Moduli (GPa) = 101.85010 84.42836 68.80308
#
# Poissons Ratio (x) = 0.37145 0.09520
# Poissons Ratio (y) = 0.44810 0.36777
# Poissons Ratio (z) = 0.14092 0.45129
#
# Static dielectric constant tensor:
#      x y z
#    x 3.806080 0.000000 0.000000 
#    y 0.000000 4.439980 0.000000 
#    z 0.000000 0.000000 3.448390 
# 
# 
# High freq. dielectric constant tensor:
#      x y z
#    x 1.812340 0.000000 0.000000 
#    y 0.000000 1.808740 0.000000 
#    z 0.000000 0.000000 1.782020 
# 
# From -- ./inp_files/20156.got.cif
#   From: 2010.03.12/outbox.cif.g09.slc.cpg/sg51_11_cif.got.tgz:20156.got - 2010.04.16 13:43:02.
