data_PCOD8207429
_publ_section_title
;
Structure prediction by ZEFSAII (Michael W. Deem and Ramdas Pophale) SiO2 
 PCOD8207429
Probable space group: P M M A
;
_chemical_formula_sum "Si O2"
_cell_formula_units_Z 64
_cell_length_a 15.152328
_cell_length_b 9.155815
_cell_length_c 24.175933
_cell_angle_alpha 90.000000
_cell_angle_beta 90.000000
_cell_angle_gamma 90.000000
_cell_volume 3353.973409
_symmetry_space_group_name_H-M "P M M A"
_symmetry_group_IT_number 51
_symmetry_cell_setting 'orthorhombic'
loop_
_space_group_symop_operation_xyz
x,y,z
1/2-x,-y,z
1/2+x,-y,-z
-x,y,-z
-x,-y,-z
1/2+x,y,-z
1/2-x,y,z
x,-y,z
loop_
_atom_site_type_symbol
_atom_site_label
_atom_site_fract_x
_atom_site_fract_y
_atom_site_fract_z
Si Si1 0.647070 0.170673 0.378821
Si Si2 0.895682 0.665742 0.998041
Si Si3 0.350748 0.165993 0.110720
Si Si4 0.651440 0.326415 0.607649
Si Si5 0.002287 0.327633 0.687451
Si Si6 0.846589 0.326724 0.118186
Si Si7 0.354410 0.338563 0.514038
Si Si8 0.987566 0.672438 0.814463
O O1 0.750000 0.207150 0.369295
O O2 0.592195 0.249682 0.330985
O O3 0.613363 0.229332 0.438286
O O4 0.628502 0.000000 0.376754
O O5 0.862443 0.500000 0.988314
O O6 0.860267 0.730876 0.055843
O O7 0.858699 0.765887 0.949844
O O8 0.000000 0.670294 0.000000
O O9 0.250000 0.173123 0.130284
O O10 0.405444 0.254436 0.155763
O O11 0.385020 0.000000 0.108229
O O12 0.750000 0.262861 0.620121
O O13 0.656913 0.500000 0.609506
O O14 0.581471 0.268169 0.652523
O O15 0.617081 0.278694 0.546487
O O16 0.015337 0.500000 0.679884
O O17 0.984803 0.284454 0.750511
O O18 0.750000 0.275971 0.139560
O O19 0.853744 0.500000 0.116967
O O20 0.921462 0.265543 0.159238
O O21 0.250000 0.351340 0.513811
O O22 0.395107 0.500000 0.525398
O O23 0.979471 0.500000 0.823407
#
# Coordination Sequence:
#
# PCOD8207429 Si02
#       8
#     8   8   8   8   8   8   8   8
#     4  10  21  36  53  75 108 146 180 218 266 322
#     4  10  18  33  59  85 110 140 177 223 274 328
#     4  11  24  39  56  81 114 150 185 223 270 323
#     4   8  15  30  52  79 108 135 169 219 277 330
#     4  10  21  35  56  82 106 138 182 229 272 318
#     4   9  17  31  53  80 108 137 171 217 272 323
#     4   8  14  28  52  77 102 134 172 217 269 325
#     4  10  21  38  57  80 108 141 185 231 271 316
#
# _framework density 19.081844
#
# number of rings (size 3 to 8) (size 9 to 14) (size 15 to 20)
#    0.000    2.500    1.250    1.875    0.000    4.500 
#    0.000    5.625    0.000    1.500    0.000    0.000 
#    0.000    0.000    0.000    0.000    0.000    0.000 
#
# Total GULP energy -793493.752248 kJ/mol
# GULP energy per Si atom -12398.339879 kJ/mol
# Density = 1.903841 g / cm^3
# Si number density = 19.081844 Si / 1000 Ang^3
#
#
#
# Elastic Constant Matrix: (Units=GPa)
#
#
# Indices 1 2 3 4 5 6 
#
# 1 95.4159 32.8484 54.7093 0.0000 0.0000 0.0000
# 2 32.8484 51.0222 48.9436 0.0000 0.0000 0.0000
# 3 54.7093 48.9436 134.1364 0.0000 0.0000 0.0000
# 4 0.0000 0.0000 0.0000 -13.9049 0.0000 0.0000
# 5 0.0000 0.0000 0.0000 0.0000 15.8292 0.0000
# 6 0.0000 0.0000 0.0000 0.0000 0.0000 20.9740
#
#
#
# Elastic Compliance Matrix: (Units=1/GPa)
#
#
# Indices 1 2 3 4 5 6 
#
# 1 0.014685 -0.005706 -0.003908 0.000000 0.000000 0.000000
# 2 -0.005706 0.032371 -0.009484 0.000000 0.000000 0.000000
# 3 -0.003908 -0.009484 0.012509 0.000000 0.000000 0.000000
# 4 0.000000 0.000000 0.000000 -0.071917 0.000000 0.000000
# 5 0.000000 0.000000 0.000000 0.000000 0.063174 0.000000
# 6 0.000000 0.000000 0.000000 0.000000 0.000000 0.047678
#
#
# Mechanical properties :
#
#
# Convention : Reuss Voigt Hill
#
# Bulk Modulus (GPa) = 46.79489 61.50858 54.15173
# Shear Modulus (GPa) = 34.76583 14.18455 24.47519
#
# Velocity S-wave (km/s) = 4.27304 2.72941 3.58529
# Velocity P-wave (km/s) = 6.99440 6.49900 6.75124
#
# Compressibility (1/GPa) = 0.02136986
#
# Stress axis : x y z
#
# Youngs Moduli (GPa) = 68.09497 30.89220 79.94004
#
# Poissons Ratio (x) = 0.17628 0.31237
# Poissons Ratio (y) = 0.38856 0.75815
# Poissons Ratio (z) = 0.26609 0.29298
#
# Static dielectric constant tensor:
#      x y z
#    x 4.020480 0.000000 0.000000 
#    y 0.000000 3.196310 0.000000 
#    z 0.000000 0.000000 3.651980 
# 
# 
# High freq. dielectric constant tensor:
#      x y z
#    x 1.749090 0.000000 0.000000 
#    y 0.000000 1.703320 0.000000 
#    z 0.000000 0.000000 1.743360 
# 
# From -- ./inp_files/35734.got.cif
#   From: 2010.03.12/outbox.cif.g09.slc.cpg/sg51_18_cif.got.tgz:35734.got - 2010.04.16 13:43:02.
