data_PCOD8207543
_publ_section_title
;
Structure prediction by ZEFSAII (Michael W. Deem and Ramdas Pophale) SiO2 
 PCOD8207543
Probable space group: P M M A
;
_chemical_formula_sum "Si O2"
_cell_formula_units_Z 64
_cell_length_a 13.870035
_cell_length_b 9.205989
_cell_length_c 34.186545
_cell_angle_alpha 90.000000
_cell_angle_beta 90.000000
_cell_angle_gamma 90.000000
_cell_volume 4365.190692
_symmetry_space_group_name_H-M "P M M A"
_symmetry_group_IT_number 51
_symmetry_cell_setting 'orthorhombic'
loop_
_space_group_symop_operation_xyz
x,y,z
1/2-x,-y,z
1/2+x,-y,-z
-x,y,-z
-x,-y,-z
1/2+x,y,-z
1/2-x,y,z
x,-y,z
loop_
_atom_site_type_symbol
_atom_site_label
_atom_site_fract_x
_atom_site_fract_y
_atom_site_fract_z
Si Si1 0.135561 0.338923 0.217433
Si Si2 0.359547 0.671750 0.130226
Si Si3 0.957001 0.827998 0.561133
Si Si4 0.361881 0.329205 0.367437
Si Si5 0.539754 0.828217 0.938653
Si Si6 0.364534 0.162428 0.290358
Si Si7 0.356137 0.828165 0.517627
Si Si8 0.856089 0.172274 0.016221
O O1 0.250000 0.347736 0.220733
O O2 0.092764 0.500000 0.224609
O O3 0.108134 0.282956 0.174076
O O4 0.093070 0.231388 0.250373
O O5 0.250000 0.723636 0.122050
O O6 0.367017 0.500000 0.125025
O O7 0.432507 0.749718 0.101152
O O8 0.926380 0.739882 0.598938
O O9 0.890070 0.776198 0.525181
O O10 0.067286 0.782658 0.550912
O O11 0.947134 0.000000 0.568874
O O12 0.250000 0.292561 0.375412
O O13 0.379957 0.500000 0.365370
O O14 0.397523 0.259881 0.326829
O O15 0.430973 0.779466 0.950151
O O16 0.547103 0.000000 0.932392
O O17 0.609906 0.774523 0.973457
O O18 0.250000 0.158101 0.288066
O O19 0.406434 0.000000 0.295017
O O20 0.250000 0.762463 0.526939
O O21 0.351921 0.000000 0.516363
O O22 0.750000 0.237095 0.025314
O O23 0.853638 0.000000 0.015054
#
# Coordination Sequence:
#
# PCOD8207543 Si02
#       8
#     8   8   8   8   8   8   8   8
#     4   8  14  25  38  51  72 103 131 151 181 229
#     4   9  17  27  38  54  79 108 131 155 192 232
#     4   9  16  26  42  61  78 101 135 169 196 228
#     4  10  19  28  38  54  79 109 135 161 196 234
#     4   9  16  25  40  59  74  96 133 168 194 226
#     4   9  16  25  38  56  76  99 129 162 191 222
#     4   8  14  25  41  60  81 104 130 163 203 238
#     4   8  14  25  39  55  77 102 127 160 202 238
#
# _framework density 14.661445000000001
#
# number of rings (size 3 to 8) (size 9 to 14) (size 15 to 20)
#    0.000    3.250    0.000    3.750    0.000    4.000 
#    0.000    3.750    0.000    2.250    0.000    0.000 
#    0.000    1.000    0.000    9.750    0.000    3.000 
#
# Total GULP energy -793182.584205 kJ/mol
# GULP energy per Si atom -12393.477878 kJ/mol
# Density = 1.462807 g / cm^3
# Si number density = 14.661445 Si / 1000 Ang^3
#
#
#
# Elastic Constant Matrix: (Units=GPa)
#
#
# Indices 1 2 3 4 5 6 
#
# 1 88.5273 27.3722 53.6343 0.0000 0.0000 0.0000
# 2 27.3722 55.7666 52.5283 0.0000 0.0000 0.0000
# 3 53.6343 52.5283 132.1927 0.0000 0.0000 0.0000
# 4 0.0000 0.0000 0.0000 13.8475 0.0000 0.0000
# 5 0.0000 0.0000 0.0000 0.0000 19.0063 0.0000
# 6 0.0000 0.0000 0.0000 0.0000 0.0000 12.1037
#
#
#
# Elastic Compliance Matrix: (Units=1/GPa)
#
#
# Indices 1 2 3 4 5 6 
#
# 1 0.015217 -0.002643 -0.005124 0.000000 0.000000 0.000000
# 2 -0.002643 0.029117 -0.010498 0.000000 0.000000 0.000000
# 3 -0.005124 -0.010498 0.013815 0.000000 0.000000 0.000000
# 4 0.000000 0.000000 0.000000 0.072215 0.000000 0.000000
# 5 0.000000 0.000000 0.000000 0.000000 0.052614 0.000000
# 6 0.000000 0.000000 0.000000 0.000000 0.000000 0.082619
#
#
# Mechanical properties :
#
#
# Convention : Reuss Voigt Hill
#
# Bulk Modulus (GPa) = 46.25224 60.39513 53.32368
# Shear Modulus (GPa) = 16.16372 18.52162 17.34267
#
# Velocity S-wave (km/s) = 3.32394 3.55813 3.44303
# Velocity P-wave (km/s) = 6.80785 7.62647 7.22875
#
# Compressibility (1/GPa) = 0.02162058
#
# Stress axis : x y z
#
# Youngs Moduli (GPa) = 65.71392 34.34381 72.38448
#
# Poissons Ratio (x) = 0.09076 0.37090
# Poissons Ratio (y) = 0.17367 0.75988
# Poissons Ratio (z) = 0.33672 0.36054
#
# Static dielectric constant tensor:
#      x y z
#    x 2.906780 0.000000 0.000000 
#    y 0.000000 2.705650 0.000000 
#    z 0.000000 0.000000 2.897990 
# 
# 
# High freq. dielectric constant tensor:
#      x y z
#    x 1.520830 0.000000 0.000000 
#    y 0.000000 1.544450 0.000000 
#    z 0.000000 0.000000 1.561060 
# 
# From -- ./inp_files/37839.got.cif
#   From: 2010.03.12/outbox.cif.g09.slc.cpg/sg51_19_cif.got.tgz:37839.got - 2010.04.16 13:43:02.
