data_PCOD8207306
_publ_section_title
;
Structure prediction by ZEFSAII (Michael W. Deem and Ramdas Pophale) SiO2 
 PCOD8207306
Probable space group: P M M A
;
_chemical_formula_sum "Si O2"
_cell_formula_units_Z 64
_cell_length_a 14.477242
_cell_length_b 8.802640
_cell_length_c 25.145709
_cell_angle_alpha 90.000000
_cell_angle_beta 90.000000
_cell_angle_gamma 90.000000
_cell_volume 3204.517594
_symmetry_space_group_name_H-M "P M M A"
_symmetry_group_IT_number 51
_symmetry_cell_setting 'orthorhombic'
loop_
_space_group_symop_operation_xyz
x,y,z
1/2-x,-y,z
1/2+x,-y,-z
-x,y,-z
-x,-y,-z
1/2+x,y,-z
1/2-x,y,z
x,-y,z
loop_
_atom_site_type_symbol
_atom_site_label
_atom_site_fract_x
_atom_site_fract_y
_atom_site_fract_z
Si Si1 0.956314 0.175062 0.124292
Si Si2 0.352930 0.825580 0.080629
Si Si3 0.477191 0.681130 0.680476
Si Si4 0.602603 0.329785 0.521409
Si Si5 0.645071 0.178290 0.631602
Si Si6 0.150667 0.323339 0.589187
Si Si7 0.644901 0.320317 0.221697
Si Si8 0.356062 0.674115 0.969447
O O1 0.903638 0.276737 0.166902
O O2 0.918690 0.216998 0.066222
O O3 0.067359 0.207052 0.124547
O O4 0.935340 0.000000 0.136811
O O5 0.250000 0.794052 0.104720
O O6 0.360357 0.000000 0.061401
O O7 0.370662 0.717775 0.030586
O O8 0.479570 0.500000 0.681491
O O9 0.581264 0.744566 0.677106
O O10 0.426341 0.747177 0.627739
O O11 0.420143 0.743878 0.731028
O O12 0.500000 0.334986 0.500000
O O13 0.636944 0.500000 0.536425
O O14 0.615625 0.225506 0.572401
O O15 0.656314 0.256626 0.470776
O O16 0.750000 0.229380 0.642841
O O17 0.633411 0.000000 0.636677
O O18 0.250000 0.299292 0.617117
O O19 0.126398 0.500000 0.582432
O O20 0.750000 0.254602 0.225208
O O21 0.650266 0.500000 0.225311
O O22 0.250000 0.696667 0.952323
O O23 0.386919 0.500000 0.961817
#
# Coordination Sequence:
#
# PCOD8207306 Si02
#       8
#     8   8   8   8   8   8   8   8
#     4  11  22  35  55  82 112 150 192 230 272 328
#     4   9  19  36  55  77 109 149 191 231 273 324
#     4  10  20  38  61  82 105 137 183 232 276 325
#     4  10  18  32  55  83 111 143 184 225 266 320
#     4  11  24  39  55  79 114 152 186 224 274 328
#     4   9  16  28  51  81 108 135 172 219 269 321
#     4  10  22  40  62  87 113 140 174 224 283 334
#     4  10  20  33  52  81 116 151 187 230 281 333
#
# _framework density 19.971805
#
# number of rings (size 3 to 8) (size 9 to 14) (size 15 to 20)
#    0.000    2.000    1.250    2.625    0.000    8.750 
#    0.000    0.625    0.000    3.375    0.000    0.000 
#    0.000    0.000    0.000    0.000    0.000    0.000 
#
# Total GULP energy -793261.907127 kJ/mol
# GULP energy per Si atom -12394.717299 kJ/mol
# Density = 1.992635 g / cm^3
# Si number density = 19.971805 Si / 1000 Ang^3
#
#
#
# Elastic Constant Matrix: (Units=GPa)
#
#
# Indices 1 2 3 4 5 6 
#
# 1 149.2267 27.7321 59.6174 0.0000 0.0000 0.0000
# 2 27.7321 31.4641 16.2199 0.0000 0.0000 0.0000
# 3 59.6174 16.2199 75.3231 0.0000 0.0000 0.0000
# 4 0.0000 0.0000 0.0000 15.5945 0.0000 0.0000
# 5 0.0000 0.0000 0.0000 0.0000 32.5127 0.0000
# 6 0.0000 0.0000 0.0000 0.0000 0.0000 -17.5701
#
#
#
# Elastic Compliance Matrix: (Units=1/GPa)
#
#
# Indices 1 2 3 4 5 6 
#
# 1 0.010626 -0.005658 -0.007192 0.000000 0.000000 0.000000
# 2 -0.005658 0.038764 -0.003869 0.000000 0.000000 0.000000
# 3 -0.007192 -0.003869 0.019802 0.000000 0.000000 0.000000
# 4 0.000000 0.000000 0.000000 0.064125 0.000000 0.000000
# 5 0.000000 0.000000 0.000000 0.000000 0.030757 0.000000
# 6 0.000000 0.000000 0.000000 0.000000 0.000000 -0.056915
#
#
# Mechanical properties :
#
#
# Convention : Reuss Voigt Hill
#
# Bulk Modulus (GPa) = 27.96942 51.46138 39.71540
# Shear Modulus (GPa) = 32.78374 16.27039 24.52707
#
# Velocity S-wave (km/s) = 4.05594 2.85734 3.50821
# Velocity P-wave (km/s) = 5.99742 6.05878 6.02818
#
# Compressibility (1/GPa) = 0.03575333
#
# Stress axis : x y z
#
# Youngs Moduli (GPa) = 94.10931 25.79730 50.50099
#
# Poissons Ratio (x) = 0.14596 0.36320
# Poissons Ratio (y) = 0.53248 0.19539
# Poissons Ratio (z) = 0.67683 0.09981
#
# Static dielectric constant tensor:
#      x y z
#    x 4.051430 0.000000 0.000000 
#    y 0.000000 3.362390 0.000000 
#    z 0.000000 0.000000 3.556140 
# 
# 
# High freq. dielectric constant tensor:
#      x y z
#    x 1.801210 0.000000 0.000000 
#    y 0.000000 1.750910 0.000000 
#    z 0.000000 0.000000 1.757490 
# 
# From -- ./inp_files/35731.got.cif
#   From: 2010.03.12/outbox.cif.g09.slc.cpg/sg51_18_cif.got.tgz:35731.got - 2010.04.16 13:43:02.
