data_PCOD8207239
_publ_section_title
;
Structure prediction by ZEFSAII (Michael W. Deem and Ramdas Pophale) SiO2 
 PCOD8207239
Probable space group: P M M A
;
_chemical_formula_sum "Si O2"
_cell_formula_units_Z 48
_cell_length_a 31.146959
_cell_length_b 8.968577
_cell_length_c 9.342705
_cell_angle_alpha 90.000000
_cell_angle_beta 90.000000
_cell_angle_gamma 90.000000
_cell_volume 2609.827652
_symmetry_space_group_name_H-M "P M M A"
_symmetry_group_IT_number 51
_symmetry_cell_setting 'orthorhombic'
loop_
_space_group_symop_operation_xyz
x,y,z
1/2-x,-y,z
1/2+x,-y,-z
-x,y,-z
-x,-y,-z
1/2+x,y,-z
1/2-x,y,z
x,-y,z
loop_
_atom_site_type_symbol
_atom_site_label
_atom_site_fract_x
_atom_site_fract_y
_atom_site_fract_z
Si Si1 0.324716 0.322357 0.168990
Si Si2 0.414823 0.666622 0.838775
Si Si3 0.498056 0.833396 0.829168
Si Si4 0.328771 0.177368 0.863047
Si Si5 0.750000 0.821812 0.652775
Si Si6 0.750000 0.824191 0.328326
Si Si7 0.419752 0.335496 0.178511
O O1 0.317740 0.500000 0.161246
O O2 0.317654 0.255343 0.012283
O O3 0.292164 0.245105 0.275903
O O4 0.372447 0.282755 0.227990
O O5 0.408649 0.500000 0.776804
O O6 0.458037 0.736805 0.771651
O O7 0.374062 0.768073 0.798170
O O8 0.419676 0.660618 0.008004
O O9 0.542855 0.772435 0.764145
O O10 0.491899 0.000000 0.772027
O O11 0.500000 0.829164 0.000000
O O12 0.329879 0.000000 0.885258
O O13 0.292487 0.231542 0.752728
O O14 0.750000 0.764457 0.489836
O O15 0.750000 0.000000 0.667552
O O16 0.750000 0.000000 0.330240
O O17 0.429726 0.500000 0.238460
#
# Coordination Sequence:
#
# PCOD8207239 Si02
#       7
#     8   8   8   8   4   4   8
#     4  10  20  34  51  75 103 130 163 203 247 294
#     4   9  16  26  40  63  96 130 161 196 241 288
#     4   9  15  22  36  61  92 125 161 197 233 280
#     4  10  18  32  53  75  99 130 167 205 246 292
#     4  11  22  37  54  72  96 129 166 203 246 294
#     4   9  21  37  52  72  98 127 162 205 250 294
#     4   8  15  26  40  60  92 128 156 190 238 286
#
# _framework density 18.392019999999999
#
# number of rings (size 3 to 8) (size 9 to 14) (size 15 to 20)
#    0.000    2.667    0.000    3.750    0.000    7.333 
#    0.000    4.583    0.000    0.000    0.000    1.167 
#    0.000    9.333    0.000    0.000    0.000    0.000 
#
# Total GULP energy -595026.533480 kJ/mol
# GULP energy per Si atom -12396.386114 kJ/mol
# Density = 1.835016 g / cm^3
# Si number density = 18.392020 Si / 1000 Ang^3
#
#
#
# Elastic Constant Matrix: (Units=GPa)
#
#
# Indices 1 2 3 4 5 6 
#
# 1 175.9883 72.6542 53.5797 0.0000 0.0000 0.0000
# 2 72.6542 119.3157 34.8794 0.0000 0.0000 0.0000
# 3 53.5797 34.8794 57.6589 0.0000 0.0000 0.0000
# 4 0.0000 0.0000 0.0000 7.2571 0.0000 0.0000
# 5 0.0000 0.0000 0.0000 0.0000 -1.4336 0.0000
# 6 0.0000 0.0000 0.0000 0.0000 0.0000 38.0232
#
#
#
# Elastic Compliance Matrix: (Units=1/GPa)
#
#
# Indices 1 2 3 4 5 6 
#
# 1 0.009115 -0.003735 -0.006211 0.000000 0.000000 0.000000
# 2 -0.003735 0.011712 -0.003614 0.000000 0.000000 0.000000
# 3 -0.006211 -0.003614 0.025301 0.000000 0.000000 0.000000
# 4 0.000000 0.000000 0.000000 0.137796 0.000000 0.000000
# 5 0.000000 0.000000 0.000000 0.000000 -0.697551 0.000000
# 6 0.000000 0.000000 0.000000 0.000000 0.000000 0.026300
#
#
# Mechanical properties :
#
#
# Convention : Reuss Voigt Hill
#
# Bulk Modulus (GPa) = 52.60872 75.02105 63.81489
# Shear Modulus (GPa) = -11.01634 21.55932 5.27149
#
# Velocity S-wave (km/s) = -2.45005 3.42747 1.69482
# Velocity P-wave (km/s) = 4.54561 7.51944 6.21307
#
# Compressibility (1/GPa) = 0.01900826
#
# Stress axis : x y z
#
# Youngs Moduli (GPa) = 109.71056 85.38381 39.52375
#
# Poissons Ratio (x) = 0.31888 0.24548
# Poissons Ratio (y) = 0.40973 0.14285
# Poissons Ratio (z) = 0.68140 0.30861
#
# Static dielectric constant tensor:
#      x y z
#    x 3.785330 0.000000 0.000000 
#    y 0.000000 3.522990 0.000000 
#    z 0.000000 0.000000 2.877420 
# 
# 
# High freq. dielectric constant tensor:
#      x y z
#    x 1.736560 0.000000 0.000000 
#    y 0.000000 1.721580 0.000000 
#    z 0.000000 0.000000 1.642450 
# 
# From -- ./inp_files/12937.got.cif
#   From: 2010.03.12/outbox.cif.g09.slc.cpg/sg51_7_cif.got.tgz:12937.got - 2010.04.16 13:43:02.
