data_PCOD8207617
_publ_section_title
;
Structure prediction by ZEFSAII (Michael W. Deem and Ramdas Pophale) SiO2 
 PCOD8207617
Probable space group: P M M A
;
_chemical_formula_sum "Si O2"
_cell_formula_units_Z 64
_cell_length_a 9.031999
_cell_length_b 17.310803
_cell_length_c 28.601230
_cell_angle_alpha 90.000000
_cell_angle_beta 90.000000
_cell_angle_gamma 90.000000
_cell_volume 4471.835356
_symmetry_space_group_name_H-M "P M M A"
_symmetry_group_IT_number 51
_symmetry_cell_setting 'orthorhombic'
loop_
_space_group_symop_operation_xyz
x,y,z
1/2-x,-y,z
1/2+x,-y,-z
-x,y,-z
-x,-y,-z
1/2+x,y,-z
1/2-x,y,z
x,-y,z
loop_
_atom_site_type_symbol
_atom_site_label
_atom_site_fract_x
_atom_site_fract_y
_atom_site_fract_z
Si Si1 0.087581 0.821595 0.457563
Si Si2 0.413526 0.910799 0.609278
Si Si3 0.920542 0.590493 0.452292
Si Si4 0.082597 0.907847 0.953852
Si Si5 0.912981 0.691563 0.619079
Si Si6 0.574329 0.089188 0.232460
Si Si7 0.574520 0.179929 0.686568
Si Si8 0.584277 0.090958 0.863093
O O1 0.250000 0.849796 0.473351
O O2 0.101398 0.761584 0.416316
O O3 0.000000 0.781390 0.500000
O O4 0.988503 0.893952 0.440805
O O5 0.250000 0.871287 0.612725
O O6 0.523087 0.882233 0.649062
O O7 0.392414 0.000000 0.616289
O O8 0.750000 0.612670 0.458210
O O9 0.946112 0.500000 0.445766
O O10 0.000000 0.619256 0.500000
O O11 0.978769 0.628711 0.404004
O O12 0.250000 0.875893 0.953614
O O13 0.996458 0.874334 0.908760
O O14 0.083933 0.000000 0.952962
O O15 0.000000 0.877085 0.000000
O O16 0.750000 0.653794 0.626252
O O17 0.967477 0.732390 0.667927
O O18 0.750000 0.097139 0.233023
O O19 0.506419 0.154997 0.265947
O O20 0.513838 0.111690 0.181707
O O21 0.529366 0.000000 0.245579
O O22 0.750000 0.173927 0.693490
O O23 0.750000 0.126135 0.858355
O O24 0.596615 0.000000 0.869090
#
# Coordination Sequence:
#
# PCOD8207617 Si02
#       8
#     8   8   8   8   8   8   8   8
#     4  10  20  32  45  60  76  95 119 144 173 209
#     4  10  20  32  44  57  72  91 117 148 181 217
#     4  10  20  32  48  70  91 109 126 143 168 205
#     4   9  15  22  32  46  65  89 117 150 190 238
#     4   9  19  33  47  63  81 101 123 146 173 208
#     4  10  19  29  41  57  76  98 126 161 200 239
#     4  10  20  32  45  60  76  96 123 152 185 223
#     4   9  16  25  36  50  68  91 120 155 196 238
#
# _framework density 14.311797
#
# number of rings (size 3 to 8) (size 9 to 14) (size 15 to 20)
#    0.000    2.375    0.000    4.125    0.000   11.250 
#    0.000    0.000    0.000    0.000    0.000    0.000 
#    0.000    0.000    0.000    0.000    0.000    0.000 
#
# Total GULP energy -793040.189996 kJ/mol
# GULP energy per Si atom -12391.252969 kJ/mol
# Density = 1.427922 g / cm^3
# Si number density = 14.311797 Si / 1000 Ang^3
#
#
#
# Elastic Constant Matrix: (Units=GPa)
#
#
# Indices 1 2 3 4 5 6 
#
# 1 108.7566 26.2886 51.0302 0.0000 0.0000 0.0000
# 2 26.2886 31.9797 23.5849 0.0000 0.0000 0.0000
# 3 51.0302 23.5849 90.2198 0.0000 0.0000 0.0000
# 4 0.0000 0.0000 0.0000 8.4333 0.0000 0.0000
# 5 0.0000 0.0000 0.0000 0.0000 27.7649 0.0000
# 6 0.0000 0.0000 0.0000 0.0000 0.0000 10.8583
#
#
#
# Elastic Compliance Matrix: (Units=1/GPa)
#
#
# Indices 1 2 3 4 5 6 
#
# 1 0.013624 -0.006834 -0.005920 0.000000 0.000000 0.000000
# 2 -0.006834 0.042166 -0.007157 0.000000 0.000000 0.000000
# 3 -0.005920 -0.007157 0.016303 0.000000 0.000000 0.000000
# 4 0.000000 0.000000 0.000000 0.118578 0.000000 0.000000
# 5 0.000000 0.000000 0.000000 0.000000 0.036017 0.000000
# 6 0.000000 0.000000 0.000000 0.000000 0.000000 0.092096
#
#
# Mechanical properties :
#
#
# Convention : Reuss Voigt Hill
#
# Bulk Modulus (GPa) = 30.98691 48.08481 39.53586
# Shear Modulus (GPa) = 13.53678 18.08146 15.80912
#
# Velocity S-wave (km/s) = 3.07880 3.55828 3.32719
# Velocity P-wave (km/s) = 5.85978 7.11005 6.51497
#
# Compressibility (1/GPa) = 0.03227170
#
# Stress axis : x y z
#
# Youngs Moduli (GPa) = 73.39790 23.71564 61.33685
#
# Poissons Ratio (x) = 0.16207 0.36310
# Poissons Ratio (y) = 0.50160 0.43902
# Poissons Ratio (z) = 0.43449 0.16974
#
# Static dielectric constant tensor:
#      x y z
#    x 3.142800 0.000000 0.000000 
#    y 0.000000 2.468880 0.000000 
#    z 0.000000 0.000000 2.958500 
# 
# 
# High freq. dielectric constant tensor:
#      x y z
#    x 1.571070 0.000000 0.000000 
#    y 0.000000 1.482950 0.000000 
#    z 0.000000 0.000000 1.534980 
# 
# From -- ./inp_files/36414.got.cif
#   From: 2010.03.12/outbox.cif.g09.slc.cpg/sg51_19_cif.got.tgz:36414.got - 2010.04.16 13:43:02.
