data_PCOD8207107
_publ_section_title
;
Structure prediction by ZEFSAII (Michael W. Deem and Ramdas Pophale) SiO2 
 PCOD8207107
Probable space group: P M M A
;
_chemical_formula_sum "Si O2"
_cell_formula_units_Z 64
_cell_length_a 19.467476
_cell_length_b 9.114158
_cell_length_c 19.683156
_cell_angle_alpha 90.000000
_cell_angle_beta 90.000000
_cell_angle_gamma 90.000000
_cell_volume 3492.375522
_symmetry_space_group_name_H-M "P M M A"
_symmetry_group_IT_number 51
_symmetry_cell_setting 'orthorhombic'
loop_
_space_group_symop_operation_xyz
x,y,z
1/2-x,-y,z
1/2+x,-y,-z
-x,y,-z
-x,-y,-z
1/2+x,y,-z
1/2-x,y,z
x,-y,z
loop_
_atom_site_type_symbol
_atom_site_label
_atom_site_fract_x
_atom_site_fract_y
_atom_site_fract_z
Si Si1 0.330057 0.169847 0.108932
Si Si2 0.577610 0.333832 0.525572
Si Si3 0.457882 0.828552 0.345654
Si Si4 0.584418 0.670560 0.157380
Si Si5 0.935393 0.672953 0.796492
Si Si6 0.391491 0.833460 0.600235
Si Si7 0.829080 0.670674 0.029864
Si Si8 0.173761 0.830774 0.736704
O O1 0.250000 0.190459 0.125069
O O2 0.370628 0.258328 0.165858
O O3 0.348379 0.235325 0.035664
O O4 0.351684 0.000000 0.109990
O O5 0.500000 0.323353 0.500000
O O6 0.600214 0.500000 0.540396
O O7 0.588319 0.238993 0.593716
O O8 0.623831 0.268589 0.464669
O O9 0.440015 0.745923 0.276784
O O10 0.536896 0.798571 0.362657
O O11 0.440985 0.000000 0.337802
O O12 0.599304 0.500000 0.162598
O O13 0.503410 0.706040 0.158405
O O14 0.617604 0.739834 0.223616
O O15 0.620664 0.730153 0.089071
O O16 0.924620 0.500000 0.787212
O O17 0.332971 0.803806 0.655984
O O18 0.391442 0.000000 0.573616
O O19 0.750000 0.696412 0.051989
O O20 0.842532 0.500000 0.013353
O O21 0.250000 0.782241 0.758816
O O22 0.160224 0.000000 0.753697
#
# Coordination Sequence:
#
# PCOD8207107 Si02
#       8
#     8   8   8   8   8   8   8   8
#     4  10  22  40  60  81 104 134 175 220 269 328
#     4   9  17  28  46  72 100 131 170 218 266 314
#     4  10  18  31  51  75 105 139 173 216 268 318
#     4  10  21  35  53  79 111 144 181 223 267 317
#     4  11  22  35  55  82 112 143 175 220 273 321
#     4   9  17  30  47  70 101 138 178 220 265 314
#     4   9  18  35  57  78 105 143 183 221 261 310
#     4  10  20  33  50  74 107 148 189 226 266 315
#
# _framework density 18.325634999999998
#
# number of rings (size 3 to 8) (size 9 to 14) (size 15 to 20)
#    0.000    2.250    1.250    1.875    0.000    5.500 
#    0.000    3.750    0.000    0.750    0.000    1.750 
#    0.000    0.000    0.000    0.000    0.000    0.000 
#
# Total GULP energy -793641.793198 kJ/mol
# GULP energy per Si atom -12400.653019 kJ/mol
# Density = 1.828393 g / cm^3
# Si number density = 18.325635 Si / 1000 Ang^3
#
#
#
# Elastic Constant Matrix: (Units=GPa)
#
#
# Indices 1 2 3 4 5 6 
#
# 1 53.8668 40.8692 44.6155 0.0000 0.0000 0.0000
# 2 40.8692 95.0608 70.4119 0.0000 0.0000 0.0000
# 3 44.6155 70.4119 125.8730 0.0000 0.0000 0.0000
# 4 0.0000 0.0000 0.0000 37.8681 0.0000 0.0000
# 5 0.0000 0.0000 0.0000 0.0000 11.6129 0.0000
# 6 0.0000 0.0000 0.0000 0.0000 0.0000 21.0902
#
#
#
# Elastic Compliance Matrix: (Units=1/GPa)
#
#
# Indices 1 2 3 4 5 6 
#
# 1 0.029846 -0.008530 -0.005807 0.000000 0.000000 0.000000
# 2 -0.008530 0.020400 -0.008388 0.000000 0.000000 0.000000
# 3 -0.005807 -0.008388 0.014695 0.000000 0.000000 0.000000
# 4 0.000000 0.000000 0.000000 0.026407 0.000000 0.000000
# 5 0.000000 0.000000 0.000000 0.000000 0.086111 0.000000
# 6 0.000000 0.000000 0.000000 0.000000 0.000000 0.047415
#
#
# Mechanical properties :
#
#
# Convention : Reuss Voigt Hill
#
# Bulk Modulus (GPa) = 51.30768 65.17710 58.24239
# Shear Modulus (GPa) = 18.06212 22.04117 20.05165
#
# Velocity S-wave (km/s) = 3.14287 3.47183 3.31144
# Velocity P-wave (km/s) = 6.42096 7.19130 6.81702
#
# Compressibility (1/GPa) = 0.01949026
#
# Stress axis : x y z
#
# Youngs Moduli (GPa) = 33.50520 49.01971 68.05041
#
# Poissons Ratio (x) = 0.41815 0.39518
# Poissons Ratio (y) = 0.28581 0.57080
# Poissons Ratio (z) = 0.19457 0.41118
#
# Static dielectric constant tensor:
#      x y z
#    x 3.222000 0.000000 0.000000 
#    y 0.000000 3.436790 0.000000 
#    z 0.000000 0.000000 3.435540 
# 
# 
# High freq. dielectric constant tensor:
#      x y z
#    x 1.681830 0.000000 0.000000 
#    y 0.000000 1.716070 0.000000 
#    z 0.000000 0.000000 1.716520 
# 
# From -- ./inp_files/30683.got.cif
#   From: 2010.03.12/outbox.cif.g09.slc.cpg/sg51_16_cif.got.tgz:30683.got - 2010.04.16 13:43:02.
