data_PCOD8207883
_publ_section_title
;
Structure prediction by ZEFSAII (Michael W. Deem and Ramdas Pophale) SiO2 
 PCOD8207883
Probable space group: P M M A
;
_chemical_formula_sum "Si O2"
_cell_formula_units_Z 64
_cell_length_a 27.174211
_cell_length_b 9.781645
_cell_length_c 14.317950
_cell_angle_alpha 90.000000
_cell_angle_beta 90.000000
_cell_angle_gamma 90.000000
_cell_volume 3805.832600
_symmetry_space_group_name_H-M "P M M A"
_symmetry_group_IT_number 51
_symmetry_cell_setting 'orthorhombic'
loop_
_space_group_symop_operation_xyz
x,y,z
1/2-x,-y,z
1/2+x,-y,-z
-x,y,-z
-x,-y,-z
1/2+x,y,-z
1/2-x,y,z
x,-y,z
loop_
_atom_site_type_symbol
_atom_site_label
_atom_site_fract_x
_atom_site_fract_y
_atom_site_fract_z
Si Si1 0.108897 0.156267 0.626700
Si Si2 0.062938 0.343341 0.269988
Si Si3 0.116539 0.344073 0.092851
Si Si4 0.473244 0.844467 0.777982
Si Si5 0.192757 0.840761 0.770471
Si Si6 0.443127 0.659743 0.482610
Si Si7 0.055609 0.146575 0.975000
Si Si8 0.193886 0.342195 0.945154
O O1 0.061248 0.172994 0.689899
O O2 0.158785 0.199597 0.681692
O O3 0.097604 0.256821 0.540928
O O4 0.114184 0.000000 0.591120
O O5 0.045374 0.500000 0.263354
O O6 0.112046 0.318666 0.205282
O O7 0.073332 0.306452 0.377023
O O8 0.019655 0.252638 0.229270
O O9 0.104804 0.500000 0.070440
O O10 0.074405 0.260086 0.043708
O O11 0.168016 0.303541 0.043903
O O12 0.440310 0.804316 0.867632
O O13 0.492555 0.000000 0.787618
O O14 0.250000 0.809937 0.745653
O O15 0.175235 0.752591 0.860046
O O16 0.184827 0.000000 0.795298
O O17 0.500000 0.706435 0.500000
O O18 0.437932 0.500000 0.507503
O O19 0.083496 0.000000 0.987345
O O20 0.000000 0.121989 0.000000
O O21 0.250000 0.310217 0.965834
O O22 0.184986 0.500000 0.916771
#
# Coordination Sequence:
#
# PCOD8207883 Si02
#       8
#     8   8   8   8   8   8   8   8
#     4  10  20  32  50  74  98 126 161 203 247 295
#     4  10  20  33  47  65  93 127 164 202 239 283
#     4  10  20  32  48  69  94 128 164 200 241 286
#     4  10  19  30  44  66  96 127 159 193 234 284
#     4   9  18  34  55  78 103 130 161 199 246 297
#     4  10  20  34  50  69  95 130 168 206 248 291
#     4  10  19  30  44  65  96 130 158 189 232 283
#     4   9  18  33  52  75 101 128 162 202 243 289
#
# _framework density 16.816295
#
# number of rings (size 3 to 8) (size 9 to 14) (size 15 to 20)
#    0.000    2.250    2.500    0.750    0.000    3.500 
#    0.000    0.000    0.000    0.750    0.000    1.750 
#    0.000    0.000    0.000    0.000    0.000    0.000 
#
# Total GULP energy -793101.856604 kJ/mol
# GULP energy per Si atom -12392.216509 kJ/mol
# Density = 1.677802 g / cm^3
# Si number density = 16.816295 Si / 1000 Ang^3
#
#
#
# Elastic Constant Matrix: (Units=GPa)
#
#
# Indices 1 2 3 4 5 6 
#
# 1 73.0460 39.9343 53.5024 0.0000 0.0000 0.0000
# 2 39.9343 59.3723 56.8796 0.0000 0.0000 0.0000
# 3 53.5024 56.8796 133.5092 0.0000 0.0000 0.0000
# 4 0.0000 0.0000 0.0000 25.3349 0.0000 0.0000
# 5 0.0000 0.0000 0.0000 0.0000 24.7145 0.0000
# 6 0.0000 0.0000 0.0000 0.0000 0.0000 21.6182
#
#
#
# Elastic Compliance Matrix: (Units=1/GPa)
#
#
# Indices 1 2 3 4 5 6 
#
# 1 0.023124 -0.011280 -0.004461 0.000000 0.000000 0.000000
# 2 -0.011280 0.033960 -0.009948 0.000000 0.000000 0.000000
# 3 -0.004461 -0.009948 0.013516 0.000000 0.000000 0.000000
# 4 0.000000 0.000000 0.000000 0.039471 0.000000 0.000000
# 5 0.000000 0.000000 0.000000 0.000000 0.040462 0.000000
# 6 0.000000 0.000000 0.000000 0.000000 0.000000 0.046257
#
#
# Mechanical properties :
#
#
# Convention : Reuss Voigt Hill
#
# Bulk Modulus (GPa) = 52.02202 62.95113 57.48658
# Shear Modulus (GPa) = 19.64051 22.04094 20.84072
#
# Velocity S-wave (km/s) = 3.42123 3.62427 3.52421
# Velocity P-wave (km/s) = 6.82708 7.41820 7.12877
#
# Compressibility (1/GPa) = 0.01922263
#
# Stress axis : x y z
#
# Youngs Moduli (GPa) = 43.24475 29.44649 73.98574
#
# Poissons Ratio (x) = 0.33214 0.33007
# Poissons Ratio (y) = 0.48778 0.73601
# Poissons Ratio (z) = 0.19293 0.29293
#
# Static dielectric constant tensor:
#      x y z
#    x 3.067840 0.000000 0.000000 
#    y 0.000000 3.248180 0.000000 
#    z 0.000000 0.000000 3.491990 
# 
# 
# High freq. dielectric constant tensor:
#      x y z
#    x 1.624140 0.000000 0.000000 
#    y 0.000000 1.653250 0.000000 
#    z 0.000000 0.000000 1.647280 
# 
# From -- ./inp_files/26729.got.cif
#   From: 2010.03.12/outbox.cif.g09.slc.cpg/sg51_14_cif.got.tgz:26729.got - 2010.04.16 13:43:02.
