data_PCOD8207951
_publ_section_title
;
Structure prediction by ZEFSAII (Michael W. Deem and Ramdas Pophale) SiO2 
 PCOD8207951
Probable space group: P M M A
;
_chemical_formula_sum "Si O2"
_cell_formula_units_Z 64
_cell_length_a 9.484962
_cell_length_b 20.096150
_cell_length_c 17.741637
_cell_angle_alpha 90.000000
_cell_angle_beta 90.000000
_cell_angle_gamma 90.000000
_cell_volume 3381.755057
_symmetry_space_group_name_H-M "P M M A"
_symmetry_group_IT_number 51
_symmetry_cell_setting 'orthorhombic'
loop_
_space_group_symop_operation_xyz
x,y,z
1/2-x,-y,z
1/2+x,-y,-z
-x,y,-z
-x,-y,-z
1/2+x,y,-z
1/2-x,y,z
x,-y,z
loop_
_atom_site_type_symbol
_atom_site_label
_atom_site_fract_x
_atom_site_fract_y
_atom_site_fract_z
Si Si1 0.083818 0.101570 0.426317
Si Si2 0.589506 0.072442 0.282664
Si Si3 0.589267 0.617687 0.569679
Si Si4 0.911610 0.575186 0.135402
Si Si5 0.413110 0.286238 0.928831
Si Si6 0.908671 0.242426 0.634185
Si Si7 0.095892 0.576072 0.271206
Si Si8 0.914666 0.786300 0.223518
O O1 0.250000 0.083495 0.432793
O O2 0.056045 0.179801 0.417688
O O3 0.000000 0.076113 0.500000
O O4 0.017084 0.067773 0.352769
O O5 0.750000 0.083254 0.312131
O O6 0.551276 0.133855 0.226521
O O7 0.577586 0.000000 0.241063
O O8 0.500000 0.590372 0.500000
O O9 0.750000 0.595976 0.555925
O O10 0.571253 0.696455 0.577808
O O11 0.529808 0.584650 0.646095
O O12 0.750000 0.571845 0.159586
O O13 0.959565 0.500000 0.108506
O O14 0.936355 0.633203 0.074313
O O15 0.993018 0.604243 0.207875
O O16 0.250000 0.269910 0.942596
O O17 0.467151 0.246168 0.854940
O O18 0.500000 0.259182 0.000000
O O19 0.750000 0.238051 0.665862
O O20 0.008316 0.249717 0.706906
O O21 0.250000 0.612317 0.268115
O O22 0.117330 0.500000 0.251868
O O23 0.750000 0.771966 0.233339
#
# Coordination Sequence:
#
# PCOD8207951 Si02
#       8
#     8   8   8   8   8   8   8   8
#     4  10  19  30  45  67  97 130 163 201 244 289
#     4   9  18  33  52  72  94 124 162 202 245 289
#     4  10  20  31  43  62  89 120 157 202 247 289
#     4   9  18  33  52  74 100 129 161 195 230 274
#     4  10  21  35  52  77 106 132 158 190 230 278
#     4   9  18  31  47  68  92 121 159 200 242 287
#     4   9  18  32  48  66  89 119 157 199 241 286
#     4   9  18  33  53  75  97 123 158 198 236 280
#
# _framework density 18.925083999999998
#
# number of rings (size 3 to 8) (size 9 to 14) (size 15 to 20)
#    0.000    2.625    0.000    1.500    0.000    3.500 
#    0.000    0.000    0.000    0.375    0.000    0.000 
#    0.000    0.000    0.000    0.000    0.000    0.000 
#
# Total GULP energy -793073.888400 kJ/mol
# GULP energy per Si atom -12391.779506 kJ/mol
# Density = 1.888201 g / cm^3
# Si number density = 18.925084 Si / 1000 Ang^3
#
#
#
# Elastic Constant Matrix: (Units=GPa)
#
#
# Indices 1 2 3 4 5 6 
#
# 1 61.6449 13.6035 43.0175 0.0000 0.0000 0.0000
# 2 13.6035 60.4391 19.1257 0.0000 0.0000 0.0000
# 3 43.0175 19.1257 87.6405 0.0000 0.0000 0.0000
# 4 0.0000 0.0000 0.0000 10.1069 0.0000 0.0000
# 5 0.0000 0.0000 0.0000 0.0000 34.3457 0.0000
# 6 0.0000 0.0000 0.0000 0.0000 0.0000 14.3334
#
#
#
# Elastic Compliance Matrix: (Units=1/GPa)
#
#
# Indices 1 2 3 4 5 6 
#
# 1 0.024867 -0.001863 -0.011799 0.000000 0.000000 0.000000
# 2 -0.001863 0.017913 -0.002994 0.000000 0.000000 0.000000
# 3 -0.011799 -0.002994 0.017855 0.000000 0.000000 0.000000
# 4 0.000000 0.000000 0.000000 0.098942 0.000000 0.000000
# 5 0.000000 0.000000 0.000000 0.000000 0.029116 0.000000
# 6 0.000000 0.000000 0.000000 0.000000 0.000000 0.069767
#
#
# Mechanical properties :
#
#
# Convention : Reuss Voigt Hill
#
# Bulk Modulus (GPa) = 36.60181 40.13532 38.36856
# Shear Modulus (GPa) = 16.61791 20.68906 18.65349
#
# Velocity S-wave (km/s) = 2.96647 3.30996 3.14291
# Velocity P-wave (km/s) = 5.57814 5.98843 5.78692
#
# Compressibility (1/GPa) = 0.02732105
#
# Stress axis : x y z
#
# Youngs Moduli (GPa) = 40.21428 55.82681 56.00617
#
# Poissons Ratio (x) = 0.10402 0.66082
# Poissons Ratio (y) = 0.07493 0.16771
# Poissons Ratio (z) = 0.47449 0.16717
#
# Static dielectric constant tensor:
#      x y z
#    x 3.621600 0.000000 0.000000 
#    y 0.000000 3.682470 0.000000 
#    z 0.000000 0.000000 3.156900 
# 
# 
# High freq. dielectric constant tensor:
#      x y z
#    x 1.732630 0.000000 0.000000 
#    y 0.000000 1.739920 0.000000 
#    z 0.000000 0.000000 1.704460 
# 
# From -- ./inp_files/22293.got.cif
#   From: 2010.03.12/outbox.cif.g09.slc.cpg/sg51_12_cif.got.tgz:22293.got - 2010.04.16 13:43:02.
