data_PCOD8207894
_publ_section_title
;
Structure prediction by ZEFSAII (Michael W. Deem and Ramdas Pophale) SiO2 
 PCOD8207894
Probable space group: P M M A
;
_chemical_formula_sum "Si O2"
_cell_formula_units_Z 64
_cell_length_a 9.635720
_cell_length_b 20.798075
_cell_length_c 19.923474
_cell_angle_alpha 90.000000
_cell_angle_beta 90.000000
_cell_angle_gamma 90.000000
_cell_volume 3992.752396
_symmetry_space_group_name_H-M "P M M A"
_symmetry_group_IT_number 51
_symmetry_cell_setting 'orthorhombic'
loop_
_space_group_symop_operation_xyz
x,y,z
1/2-x,-y,z
1/2+x,-y,-z
-x,y,-z
-x,-y,-z
1/2+x,y,-z
1/2-x,y,z
x,-y,z
loop_
_atom_site_type_symbol
_atom_site_label
_atom_site_fract_x
_atom_site_fract_y
_atom_site_fract_z
Si Si1 0.911170 0.927334 0.434474
Si Si2 0.905155 0.380703 0.059307
Si Si3 0.915540 0.767899 0.204836
Si Si4 0.405155 0.226919 0.940811
Si Si5 0.415398 0.624448 0.794643
Si Si6 0.415369 0.309804 0.568154
Si Si7 0.085999 0.812341 0.655782
Si Si8 0.414637 0.429249 0.656813
O O1 0.750000 0.914988 0.452006
O O2 0.965902 0.878624 0.377522
O O3 0.000000 0.913143 0.500000
O O4 0.934626 0.000000 0.408505
O O5 0.750000 0.406666 0.046938
O O6 0.905728 0.303769 0.058789
O O7 0.961884 0.403850 0.132557
O O8 0.000000 0.409246 0.000000
O O9 0.750000 0.765078 0.204527
O O10 0.962898 0.796307 0.132337
O O11 0.974801 0.696203 0.214908
O O12 0.972297 0.809674 0.267764
O O13 0.250000 0.200895 0.953081
O O14 0.500000 0.198226 0.000000
O O15 0.250000 0.626961 0.794353
O O16 0.472415 0.582548 0.732398
O O17 0.500000 0.304858 0.500000
O O18 0.250000 0.309752 0.554375
O O19 0.462294 0.249425 0.613295
O O20 0.465887 0.374932 0.605249
O O21 0.250000 0.811475 0.659047
O O22 0.250000 0.426263 0.659872
O O23 0.465798 0.500000 0.633024
#
# Coordination Sequence:
#
# PCOD8207894 Si02
#       8
#     8   8   8   8   8   8   8   8
#     4   9  17  28  42  61  84 110 138 166 197 234
#     4   8  13  20  33  53  74  96 121 151 187 226
#     4   8  12  20  36  56  75  99 132 164 192 226
#     4   8  13  20  32  51  75 100 125 154 189 228
#     4   8  12  21  36  54  74  96 127 163 193 225
#     4  10  19  30  45  63  81 102 129 161 200 242
#     4   9  15  25  42  62  83 107 135 166 197 231
#     4   9  16  26  41  60  78  97 128 169 203 231
#
# _framework density 16.029043000000001
#
# number of rings (size 3 to 8) (size 9 to 14) (size 15 to 20)
#    0.000    3.375    1.250    1.875    0.000    0.250 
#    0.000    0.000    0.000    2.625    0.000    0.000 
#    0.000    0.500    0.000    0.375    0.000    0.750 
#
# Total GULP energy -792876.400366 kJ/mol
# GULP energy per Si atom -12388.693756 kJ/mol
# Density = 1.599256 g / cm^3
# Si number density = 16.029043 Si / 1000 Ang^3
#
#
#
# Elastic Constant Matrix: (Units=GPa)
#
#
# Indices 1 2 3 4 5 6 
#
# 1 27.7144 14.9748 35.1004 0.0000 0.0000 0.0000
# 2 14.9748 78.3765 56.6944 0.0000 0.0000 0.0000
# 3 35.1004 56.6944 153.9126 0.0000 0.0000 0.0000
# 4 0.0000 0.0000 0.0000 16.5202 0.0000 0.0000
# 5 0.0000 0.0000 0.0000 0.0000 22.6787 0.0000
# 6 0.0000 0.0000 0.0000 0.0000 0.0000 5.2450
#
#
#
# Elastic Compliance Matrix: (Units=1/GPa)
#
#
# Indices 1 2 3 4 5 6 
#
# 1 0.050925 -0.001812 -0.010946 0.000000 0.000000 0.000000
# 2 -0.001812 0.017458 -0.006018 0.000000 0.000000 0.000000
# 3 -0.010946 -0.006018 0.011210 0.000000 0.000000 0.000000
# 4 0.000000 0.000000 0.000000 0.060532 0.000000 0.000000
# 5 0.000000 0.000000 0.000000 0.000000 0.044094 0.000000
# 6 0.000000 0.000000 0.000000 0.000000 0.000000 0.190658
#
#
# Mechanical properties :
#
#
# Convention : Reuss Voigt Hill
#
# Bulk Modulus (GPa) = 23.78586 52.61586 38.20086
# Shear Modulus (GPa) = 11.72494 19.10438 15.41466
#
# Velocity S-wave (km/s) = 2.70752 3.45608 3.10445
# Velocity P-wave (km/s) = 4.96444 6.98731 6.06087
#
# Compressibility (1/GPa) = 0.04204178
#
# Stress axis : x y z
#
# Youngs Moduli (GPa) = 19.63681 57.28066 89.20522
#
# Poissons Ratio (x) = 0.10378 0.97646
# Poissons Ratio (y) = 0.03558 0.53679
# Poissons Ratio (z) = 0.21495 0.34469
#
# Static dielectric constant tensor:
#      x y z
#    x 3.891590 0.000000 0.000000 
#    y 0.000000 2.959490 0.000000 
#    z 0.000000 0.000000 3.495830 
# 
# 
# High freq. dielectric constant tensor:
#      x y z
#    x 1.561170 0.000000 0.000000 
#    y 0.000000 1.579040 0.000000 
#    z 0.000000 0.000000 1.631770 
# 
# From -- ./inp_files/32583.got.cif
#   From: 2010.03.12/outbox.cif.g09.slc.cpg/sg51_17_cif.got.tgz:32583.got - 2010.04.16 13:43:02.
