data_PCOD8207461
_publ_section_title
;
Structure prediction by ZEFSAII (Michael W. Deem and Ramdas Pophale) SiO2 
 PCOD8207461
Probable space group: P M M A
;
_chemical_formula_sum "Si O2"
_cell_formula_units_Z 48
_cell_length_a 14.295820
_cell_length_b 11.593419
_cell_length_c 16.829775
_cell_angle_alpha 90.000000
_cell_angle_beta 90.000000
_cell_angle_gamma 90.000000
_cell_volume 2789.323676
_symmetry_space_group_name_H-M "P M M A"
_symmetry_group_IT_number 51
_symmetry_cell_setting 'orthorhombic'
loop_
_space_group_symop_operation_xyz
x,y,z
1/2-x,-y,z
1/2+x,-y,-z
-x,y,-z
-x,-y,-z
1/2+x,y,-z
1/2-x,y,z
x,-y,z
loop_
_atom_site_type_symbol
_atom_site_label
_atom_site_fract_x
_atom_site_fract_y
_atom_site_fract_z
Si Si1 0.574503 0.738036 0.069842
Si Si2 0.250000 0.136921 0.152326
Si Si3 0.983763 0.863409 0.628718
Si Si4 0.608214 0.500000 0.010001
Si Si5 0.646570 0.135939 0.485807
Si Si6 0.750000 0.134192 0.024746
Si Si7 0.434525 0.742588 0.211410
Si Si8 0.854724 0.500000 0.826122
O O1 0.630508 0.615651 0.060100
O O2 0.655817 0.832405 0.070491
O O3 0.519586 0.757582 0.150742
O O4 0.500000 0.757285 0.000000
O O5 0.156345 0.181034 0.193816
O O6 0.250000 0.000000 0.156428
O O7 0.250000 0.189231 0.063491
O O8 0.899808 0.829041 0.569409
O O9 0.974196 0.782852 0.704773
O O10 0.081820 0.827029 0.588058
O O11 0.981332 0.000000 0.649834
O O12 0.500000 0.500000 0.000000
O O13 0.652719 0.500000 0.922371
O O14 0.750000 0.192715 0.478586
O O15 0.655076 0.000000 0.484219
O O16 0.750000 0.000000 0.014486
O O17 0.408075 0.608807 0.209671
O O18 0.750000 0.500000 0.792868
#
# Coordination Sequence:
#
# PCOD8207461 Si02
#       8
#     8   4   8   4   8   4   8   4
#     4  11  21  37  56  75 103 145 191 235 280 317
#     4  11  22  33  51  77 104 141 183 222 273 330
#     4   9  19  33  53  84 114 142 176 219 276 330
#     4  10  18  34  58  76  92 131 195 244 276 304
#     4   8  15  32  57  81 107 142 183 222 263 319
#     4  11  24  37  49  73 106 149 191 218 271 346
#     4  12  22  36  54  81 113 141 179 231 283 329
#     4  12  22  34  56  82 109 139 181 240 291 323
#
# _framework density 17.208473000000001
#
# number of rings (size 3 to 8) (size 9 to 14) (size 15 to 20)
#    0.000    1.667    5.833    1.500    2.333    1.667 
#    1.500    0.000    0.000    2.000    0.000    1.167 
#    0.000    0.000    0.000    0.000    0.000    0.000 
#
# Total GULP energy -594951.346731 kJ/mol
# GULP energy per Si atom -12394.819724 kJ/mol
# Density = 1.716931 g / cm^3
# Si number density = 17.208473 Si / 1000 Ang^3
#
#
#
# Elastic Constant Matrix: (Units=GPa)
#
#
# Indices 1 2 3 4 5 6 
#
# 1 134.8186 35.5891 66.7706 0.0000 0.0000 0.0000
# 2 35.5891 61.0776 44.5089 0.0000 0.0000 0.0000
# 3 66.7706 44.5089 136.8372 0.0000 0.0000 0.0000
# 4 0.0000 0.0000 0.0000 28.7002 0.0000 0.0000
# 5 0.0000 0.0000 0.0000 0.0000 -67.5762 0.0000
# 6 0.0000 0.0000 0.0000 0.0000 0.0000 19.9743
#
#
#
# Elastic Compliance Matrix: (Units=1/GPa)
#
#
# Indices 1 2 3 4 5 6 
#
# 1 0.010193 -0.003034 -0.003987 0.000000 0.000000 0.000000
# 2 -0.003034 0.022362 -0.005793 0.000000 0.000000 0.000000
# 3 -0.003987 -0.005793 0.011138 0.000000 0.000000 0.000000
# 4 0.000000 0.000000 0.000000 0.034843 0.000000 0.000000
# 5 0.000000 0.000000 0.000000 0.000000 -0.014798 0.000000
# 6 0.000000 0.000000 0.000000 0.000000 0.000000 0.050064
#
#
# Mechanical properties :
#
#
# Convention : Reuss Voigt Hill
#
# Bulk Modulus (GPa) = 55.35675 69.60786 62.48231
# Shear Modulus (GPa) = 34.37570 8.61063 21.49317
#
# Velocity S-wave (km/s) = 4.47430 2.23933 3.53794
# Velocity P-wave (km/s) = 7.67663 6.87195 7.28541
#
# Compressibility (1/GPa) = 0.01806464
#
# Stress axis : x y z
#
# Youngs Moduli (GPa) = 98.10882 44.71834 89.78500
#
# Poissons Ratio (x) = 0.13567 0.35795
# Poissons Ratio (y) = 0.29765 0.52015
# Poissons Ratio (z) = 0.39114 0.25907
#
# Static dielectric constant tensor:
#      x y z
#    x 3.663480 0.000000 0.000000 
#    y 0.000000 2.362370 0.000000 
#    z 0.000000 0.000000 3.057850 
# 
# 
# High freq. dielectric constant tensor:
#      x y z
#    x 1.678720 0.000000 0.000000 
#    y 0.000000 1.646990 0.000000 
#    z 0.000000 0.000000 1.643700 
# 
# From -- ./inp_files/24141.got.cif
#   From: 2010.03.12/outbox.cif.g09.slc.cpg/sg51_13_cif.got.tgz:24141.got - 2010.04.16 13:43:02.
