data_PCOD8207656
_publ_section_title
;
Structure prediction by ZEFSAII (Michael W. Deem and Ramdas Pophale) SiO2 
 PCOD8207656
Probable space group: P M M A
;
_chemical_formula_sum "Si O2"
_cell_formula_units_Z 56
_cell_length_a 9.475981
_cell_length_b 13.585984
_cell_length_c 28.707196
_cell_angle_alpha 90.000000
_cell_angle_beta 90.000000
_cell_angle_gamma 90.000000
_cell_volume 3695.779520
_symmetry_space_group_name_H-M "P M M A"
_symmetry_group_IT_number 51
_symmetry_cell_setting 'orthorhombic'
loop_
_space_group_symop_operation_xyz
x,y,z
1/2-x,-y,z
1/2+x,-y,-z
-x,y,-z
-x,-y,-z
1/2+x,y,-z
1/2-x,y,z
x,-y,z
loop_
_atom_site_type_symbol
_atom_site_label
_atom_site_fract_x
_atom_site_fract_y
_atom_site_fract_z
Si Si1 0.087217 0.113948 0.769543
Si Si2 0.586557 0.225067 0.136850
Si Si3 0.915724 0.276992 0.723434
Si Si4 0.415104 0.385650 0.645222
Si Si5 0.414508 0.886531 0.955413
Si Si6 0.913724 0.387564 0.817807
Si Si7 0.094849 0.616672 0.540889
O O1 0.250000 0.134530 0.756488
O O2 0.056099 0.147158 0.822286
O O3 0.986728 0.171960 0.734020
O O4 0.048958 0.000000 0.765200
O O5 0.750000 0.253689 0.134929
O O6 0.535771 0.176296 0.088885
O O7 0.500071 0.325064 0.144521
O O8 0.750000 0.262097 0.714858
O O9 0.946803 0.351250 0.765735
O O10 0.986611 0.320690 0.677709
O O11 0.250000 0.362465 0.653617
O O12 0.445170 0.500000 0.655132
O O13 0.460702 0.357462 0.592527
O O14 0.250000 0.872091 0.965611
O O15 0.450404 0.000000 0.944958
O O16 0.500000 0.847779 0.000000
O O17 0.750000 0.375119 0.829605
O O18 0.963154 0.500000 0.821616
O O19 0.250000 0.661773 0.534225
O O20 0.101556 0.500000 0.535627
O O21 0.000000 0.663672 0.500000
#
# Coordination Sequence:
#
# PCOD8207656 Si02
#       7
#     8   8   8   8   8   8   8
#     4   9  17  30  47  64  84 112 142 171 207 251
#     4   9  17  29  46  67  87 109 140 174 205 242
#     4  10  19  29  42  62  87 113 142 176 213 252
#     4   9  17  28  41  58  83 115 148 180 212 248
#     4   9  17  29  45  66  91 114 135 164 204 249
#     4   9  18  31  44  60  85 114 142 174 211 248
#     4   8  14  24  37  54  77 106 140 176 212 249
#
# _framework density 15.152419
#
# number of rings (size 3 to 8) (size 9 to 14) (size 15 to 20)
#    0.000    3.000    0.000    2.143    0.000    4.857 
#    0.000    1.429    0.000    3.000    0.000    0.000 
#    0.000    0.571    0.000    1.857    0.000    2.286 
#
# Total GULP energy -694331.207315 kJ/mol
# GULP energy per Si atom -12398.771559 kJ/mol
# Density = 1.511793 g / cm^3
# Si number density = 15.152419 Si / 1000 Ang^3
#
#
#
# Elastic Constant Matrix: (Units=GPa)
#
#
# Indices 1 2 3 4 5 6 
#
# 1 73.4696 53.2195 64.5029 0.0000 0.0000 0.0000
# 2 53.2195 95.8030 57.5044 0.0000 0.0000 0.0000
# 3 64.5029 57.5044 119.7447 0.0000 0.0000 0.0000
# 4 0.0000 0.0000 0.0000 20.4552 0.0000 0.0000
# 5 0.0000 0.0000 0.0000 0.0000 29.3300 0.0000
# 6 0.0000 0.0000 0.0000 0.0000 0.0000 23.0244
#
#
#
# Elastic Compliance Matrix: (Units=1/GPa)
#
#
# Indices 1 2 3 4 5 6 
#
# 1 0.031779 -0.010366 -0.012140 0.000000 0.000000 0.000000
# 2 -0.010366 0.018047 -0.003082 0.000000 0.000000 0.000000
# 3 -0.012140 -0.003082 0.016371 0.000000 0.000000 0.000000
# 4 0.000000 0.000000 0.000000 0.048887 0.000000 0.000000
# 5 0.000000 0.000000 0.000000 0.000000 0.034095 0.000000
# 6 0.000000 0.000000 0.000000 0.000000 0.000000 0.043432
#
#
# Mechanical properties :
#
#
# Convention : Reuss Voigt Hill
#
# Bulk Modulus (GPa) = 66.58429 71.05230 68.81829
# Shear Modulus (GPa) = 20.09690 22.14796 21.12243
#
# Velocity S-wave (km/s) = 3.64581 3.82734 3.73768
# Velocity P-wave (km/s) = 7.85882 8.15628 8.00893
#
# Compressibility (1/GPa) = 0.01501856
#
# Stress axis : x y z
#
# Youngs Moduli (GPa) = 31.46776 55.41094 61.08437
#
# Poissons Ratio (x) = 0.57442 0.74156
# Poissons Ratio (y) = 0.32621 0.18829
# Poissons Ratio (z) = 0.38202 0.17080
#
# Static dielectric constant tensor:
#      x y z
#    x 2.999060 0.000000 0.000000 
#    y 0.000000 2.730160 0.000000 
#    z 0.000000 0.000000 2.926670 
# 
# 
# High freq. dielectric constant tensor:
#      x y z
#    x 1.583870 0.000000 0.000000 
#    y 0.000000 1.551530 0.000000 
#    z 0.000000 0.000000 1.575290 
# 
# From -- ./inp_files/37499.got.cif
#   From: 2010.03.12/outbox.cif.g09.slc.cpg/sg51_19_cif.got.tgz:37499.got - 2010.04.16 13:43:02.
