data_PCOD8207485
_publ_section_title
;
Structure prediction by ZEFSAII (Michael W. Deem and Ramdas Pophale) SiO2 
 PCOD8207485
Probable space group: P M M A
;
_chemical_formula_sum "Si O2"
_cell_formula_units_Z 64
_cell_length_a 23.740275
_cell_length_b 9.259807
_cell_length_c 15.312945
_cell_angle_alpha 90.000000
_cell_angle_beta 90.000000
_cell_angle_gamma 90.000000
_cell_volume 3366.250283
_symmetry_space_group_name_H-M "P M M A"
_symmetry_group_IT_number 51
_symmetry_cell_setting 'orthorhombic'
loop_
_space_group_symop_operation_xyz
x,y,z
1/2-x,-y,z
1/2+x,-y,-z
-x,y,-z
-x,-y,-z
1/2+x,y,-z
1/2-x,y,z
x,-y,z
loop_
_atom_site_type_symbol
_atom_site_label
_atom_site_fract_x
_atom_site_fract_y
_atom_site_fract_z
Si Si1 0.185699 0.169652 0.499750
Si Si2 0.506562 0.663986 0.103087
Si Si3 0.885239 0.670838 0.846461
Si Si4 0.382867 0.166816 0.849748
Si Si5 0.395547 0.833947 0.653413
Si Si6 0.502086 0.330915 0.599232
Si Si7 0.815408 0.331757 0.010037
Si Si8 0.373223 0.669290 0.346736
O O1 0.250000 0.210401 0.521357
O O2 0.147386 0.226051 0.579990
O O3 0.168122 0.245867 0.410210
O O4 0.178388 0.000000 0.486343
O O5 0.518860 0.500000 0.134912
O O6 0.449339 0.726823 0.145707
O O7 0.556211 0.767154 0.132632
O O8 0.500000 0.666707 0.000000
O O9 0.887086 0.500000 0.855326
O O10 0.858760 0.714320 0.752936
O O11 0.847054 0.732602 0.924879
O O12 0.366853 0.184908 0.747944
O O13 0.334983 0.247639 0.904259
O O14 0.384154 0.000000 0.877393
O O15 0.453729 0.747059 0.653867
O O16 0.409940 0.000000 0.634551
O O17 0.500000 0.276891 0.500000
O O18 0.490641 0.500000 0.606532
O O19 0.562212 0.286805 0.637523
O O20 0.750000 0.304875 0.995096
O O21 0.829596 0.500000 0.023671
O O22 0.364236 0.500000 0.363444
#
# Coordination Sequence:
#
# PCOD8207485 Si02
#       8
#     8   8   8   8   8   8   8   8
#     4  10  22  40  58  76 104 145 191 233 271 319
#     4  10  18  34  61  85 111 148 185 222 271 332
#     4   9  18  34  57  85 112 143 182 223 272 330
#     4  11  23  37  56  85 117 146 182 230 283 333
#     4  10  22  38  57  81 110 150 189 222 271 334
#     4  10  19  33  56  86 117 144 174 224 280 326
#     4  10  21  39  60  80 106 145 193 236 275 328
#     4  10  20  35  57  85 114 143 177 221 277 331
#
# _framework density 19.012252
#
# number of rings (size 3 to 8) (size 9 to 14) (size 15 to 20)
#    0.000    2.000    2.500    1.125    0.000    4.500 
#    0.000    3.750    0.000    0.000    0.000    0.000 
#    0.000    0.000    0.000    0.000    0.000    0.000 
#
# Total GULP energy -793722.437546 kJ/mol
# GULP energy per Si atom -12401.913087 kJ/mol
# Density = 1.896898 g / cm^3
# Si number density = 19.012252 Si / 1000 Ang^3
#
#
#
# Elastic Constant Matrix: (Units=GPa)
#
#
# Indices 1 2 3 4 5 6 
#
# 1 85.6801 37.5716 32.1060 0.0000 0.0000 0.0000
# 2 37.5716 50.6250 30.3827 0.0000 0.0000 0.0000
# 3 32.1060 30.3827 100.8843 0.0000 0.0000 0.0000
# 4 0.0000 0.0000 0.0000 27.5405 0.0000 0.0000
# 5 0.0000 0.0000 0.0000 0.0000 18.7224 0.0000
# 6 0.0000 0.0000 0.0000 0.0000 0.0000 19.2738
#
#
#
# Elastic Compliance Matrix: (Units=1/GPa)
#
#
# Indices 1 2 3 4 5 6 
#
# 1 0.017639 -0.011867 -0.002040 0.000000 0.000000 0.000000
# 2 -0.011867 0.032095 -0.005889 0.000000 0.000000 0.000000
# 3 -0.002040 -0.005889 0.012335 0.000000 0.000000 0.000000
# 4 0.000000 0.000000 0.000000 0.036310 0.000000 0.000000
# 5 0.000000 0.000000 0.000000 0.000000 0.053412 0.000000
# 6 0.000000 0.000000 0.000000 0.000000 0.000000 0.051884
#
#
# Mechanical properties :
#
#
# Convention : Reuss Voigt Hill
#
# Bulk Modulus (GPa) = 44.48923 48.59002 46.53962
# Shear Modulus (GPa) = 19.93941 22.24927 21.09434
#
# Velocity S-wave (km/s) = 3.24198 3.42462 3.33455
# Velocity P-wave (km/s) = 6.12087 6.42262 6.27356
#
# Compressibility (1/GPa) = 0.02247735
#
# Stress axis : x y z
#
# Youngs Moduli (GPa) = 56.69097 31.15779 81.06956
#
# Poissons Ratio (x) = 0.36975 0.16536
# Poissons Ratio (y) = 0.67276 0.47743
# Poissons Ratio (z) = 0.11564 0.18349
#
# Static dielectric constant tensor:
#      x y z
#    x 3.413960 0.000000 0.000000 
#    y 0.000000 3.315540 0.000000 
#    z 0.000000 0.000000 3.785680 
# 
# 
# High freq. dielectric constant tensor:
#      x y z
#    x 1.736220 0.000000 0.000000 
#    y 0.000000 1.714950 0.000000 
#    z 0.000000 0.000000 1.754750 
# 
# From -- ./inp_files/26242.got.cif
#   From: 2010.03.12/outbox.cif.g09.slc.cpg/sg51_14_cif.got.tgz:26242.got - 2010.04.16 13:43:02.
