data_PCOD8207271
_publ_section_title
;
Structure prediction by ZEFSAII (Michael W. Deem and Ramdas Pophale) SiO2 
 PCOD8207271
Probable space group: P M M A
;
_chemical_formula_sum "Si O2"
_cell_formula_units_Z 48
_cell_length_a 19.168540
_cell_length_b 14.181603
_cell_length_c 10.165496
_cell_angle_alpha 90.000000
_cell_angle_beta 90.000000
_cell_angle_gamma 90.000000
_cell_volume 2763.394780
_symmetry_space_group_name_H-M "P M M A"
_symmetry_group_IT_number 51
_symmetry_cell_setting 'orthorhombic'
loop_
_space_group_symop_operation_xyz
x,y,z
1/2-x,-y,z
1/2+x,-y,-z
-x,y,-z
-x,-y,-z
1/2+x,y,-z
1/2-x,y,z
x,-y,z
loop_
_atom_site_type_symbol
_atom_site_label
_atom_site_fract_x
_atom_site_fract_y
_atom_site_fract_z
Si Si1 0.329283 0.207706 0.272786
Si Si2 0.171216 0.108933 0.994214
Si Si3 0.456070 0.198322 0.865717
Si Si4 0.067501 0.601524 0.913926
Si Si5 0.041330 0.110965 0.370203
Si Si6 0.330475 0.395328 0.145522
O O1 0.250000 0.193103 0.324138
O O2 0.382854 0.160915 0.375090
O O3 0.348417 0.318776 0.258117
O O4 0.339877 0.161762 0.130845
O O5 0.250000 0.123662 0.941534
O O6 0.118274 0.147836 0.884747
O O7 0.154864 0.000000 0.020486
O O8 0.443178 0.307611 0.819568
O O9 0.498107 0.143564 0.755596
O O10 0.500000 0.196312 0.000000
O O11 0.081697 0.500000 0.840212
O O12 0.130847 0.627629 0.010246
O O13 0.000000 0.586094 0.000000
O O14 0.000000 0.141232 0.500000
O O15 0.053432 0.000000 0.363455
O O16 0.250000 0.386990 0.108069
O O17 0.349974 0.500000 0.198708
#
# Coordination Sequence:
#
# PCOD8207271 Si02
#       6
#     8   8   8   8   8   8
#     4  10  18  32  54  78 104 135 171 214 263 311
#     4  10  19  29  46  76 106 130 166 216 260 301
#     4  11  19  32  54  76 100 134 170 213 261 309
#     4   9  16  26  43  70 102 131 160 199 253 307
#     4  11  24  39  53  74 105 141 180 220 262 315
#     4   9  16  27  47  78 111 136 165 211 263 312
#
# _framework density 17.369938999999999
#
# number of rings (size 3 to 8) (size 9 to 14) (size 15 to 20)
#    0.000    2.000    3.333    2.000    0.000    1.667 
#    0.000    0.833    0.000    3.000    0.000    0.000 
#    0.000    0.000    0.000    0.000    0.000    0.000 
#
# Total GULP energy -594918.543188 kJ/mol
# GULP energy per Si atom -12394.136316 kJ/mol
# Density = 1.733040 g / cm^3
# Si number density = 17.369939 Si / 1000 Ang^3
#
#
#
# Elastic Constant Matrix: (Units=GPa)
#
#
# Indices 1 2 3 4 5 6 
#
# 1 99.6347 42.3753 25.2396 0.0000 0.0000 0.0000
# 2 42.3753 100.2271 16.3039 0.0000 0.0000 0.0000
# 3 25.2396 16.3039 40.5512 0.0000 0.0000 0.0000
# 4 0.0000 0.0000 0.0000 12.3751 0.0000 0.0000
# 5 0.0000 0.0000 0.0000 0.0000 20.8757 0.0000
# 6 0.0000 0.0000 0.0000 0.0000 0.0000 27.3619
#
#
#
# Elastic Compliance Matrix: (Units=1/GPa)
#
#
# Indices 1 2 3 4 5 6 
#
# 1 0.013729 -0.004723 -0.006646 0.000000 0.000000 0.000000
# 2 -0.004723 0.012301 -0.002006 0.000000 0.000000 0.000000
# 3 -0.006646 -0.002006 0.029603 0.000000 0.000000 0.000000
# 4 0.000000 0.000000 0.000000 0.080807 0.000000 0.000000
# 5 0.000000 0.000000 0.000000 0.000000 0.047903 0.000000
# 6 0.000000 0.000000 0.000000 0.000000 0.000000 0.036547
#
#
# Mechanical properties :
#
#
# Convention : Reuss Voigt Hill
#
# Bulk Modulus (GPa) = 34.62291 45.36119 39.99205
# Shear Modulus (GPa) = 19.43496 22.55548 20.99522
#
# Velocity S-wave (km/s) = 3.34860 3.60743 3.48042
# Velocity P-wave (km/s) = 5.90989 6.59718 6.26297
#
# Compressibility (1/GPa) = 0.02888261
#
# Stress axis : x y z
#
# Youngs Moduli (GPa) = 72.83743 81.29652 33.78012
#
# Poissons Ratio (x) = 0.38400 0.22451
# Poissons Ratio (y) = 0.34405 0.06775
# Poissons Ratio (z) = 0.48409 0.16305
#
# Static dielectric constant tensor:
#      x y z
#    x 3.536370 0.000000 0.000000 
#    y 0.000000 3.877930 0.000000 
#    z 0.000000 0.000000 2.522660 
# 
# 
# High freq. dielectric constant tensor:
#      x y z
#    x 1.691900 0.000000 0.000000 
#    y 0.000000 1.702230 0.000000 
#    z 0.000000 0.000000 1.588370 
# 
# From -- ./inp_files/10802.got.cif
#   From: 2010.03.12/outbox.cif.g09.slc.cpg/sg51_6_cif.got.tgz:10802.got - 2010.04.16 13:43:02.
