data_PCOD8207224
_publ_section_title
;
Structure prediction by ZEFSAII (Michael W. Deem and Ramdas Pophale) SiO2 
 PCOD8207224
Probable space group: P M M A
;
_chemical_formula_sum "Si O2"
_cell_formula_units_Z 48
_cell_length_a 8.737568
_cell_length_b 20.715036
_cell_length_c 14.562912
_cell_angle_alpha 90.000000
_cell_angle_beta 90.000000
_cell_angle_gamma 90.000000
_cell_volume 2635.873029
_symmetry_space_group_name_H-M "P M M A"
_symmetry_group_IT_number 51
_symmetry_cell_setting 'orthorhombic'
loop_
_space_group_symop_operation_xyz
x,y,z
1/2-x,-y,z
1/2+x,-y,-z
-x,y,-z
-x,-y,-z
1/2+x,y,-z
1/2-x,y,z
x,-y,z
loop_
_atom_site_type_symbol
_atom_site_label
_atom_site_fract_x
_atom_site_fract_y
_atom_site_fract_z
Si Si1 0.568848 0.687260 0.100377
Si Si2 0.925904 0.427619 0.229656
Si Si3 0.431161 0.072203 0.902891
Si Si4 0.931285 0.762670 0.406839
Si Si5 0.568753 0.809730 0.213696
Si Si6 0.069384 0.622087 0.406699
O O1 0.750000 0.689980 0.091892
O O2 0.515114 0.622572 0.153138
O O3 0.503821 0.749129 0.155884
O O4 0.500000 0.686773 0.000000
O O5 0.750000 0.412298 0.255176
O O6 0.944292 0.500000 0.189990
O O7 0.026606 0.422925 0.321433
O O8 0.250000 0.075575 0.911428
O O9 0.493463 0.122837 0.827496
O O10 0.484860 0.000000 0.874847
O O11 0.500000 0.092788 0.000000
O O12 0.750000 0.757974 0.415884
O O13 0.982448 0.806063 0.320042
O O14 0.000000 0.793633 0.500000
O O15 0.996993 0.691958 0.389931
O O16 0.750000 0.807228 0.207477
O O17 0.250000 0.628133 0.416916
O O18 0.000000 0.591611 0.500000
#
# Coordination Sequence:
#
# PCOD8207224 Si02
#       6
#     8   8   8   8   8   8
#     4  10  20  35  52  73  99 129 166 209 254 298
#     4  10  21  38  56  72  97 135 171 207 254 304
#     4   9  17  30  49  75 105 138 172 205 246 297
#     4  10  18  32  52  75 103 133 167 207 253 300
#     4   9  17  31  52  74 102 135 166 205 251 297
#     4  11  21  34  54  78 104 131 164 207 257 307
#
# _framework density 18.210284000000001
#
# number of rings (size 3 to 8) (size 9 to 14) (size 15 to 20)
#    0.000    2.167    1.667    3.500    0.000    1.667 
#    0.000    1.667    0.000    0.500    0.000    0.000 
#    0.000    0.000    0.000    0.000    0.000    0.667 
#
# Total GULP energy -595146.307399 kJ/mol
# GULP energy per Si atom -12398.881404 kJ/mol
# Density = 1.816884 g / cm^3
# Si number density = 18.210284 Si / 1000 Ang^3
#
#
#
# Elastic Constant Matrix: (Units=GPa)
#
#
# Indices 1 2 3 4 5 6 
#
# 1 57.3385 22.6888 34.5727 0.0000 0.0000 0.0000
# 2 22.6888 120.8316 81.5214 0.0000 0.0000 0.0000
# 3 34.5727 81.5214 159.9576 0.0000 0.0000 0.0000
# 4 0.0000 0.0000 0.0000 31.1712 0.0000 0.0000
# 5 0.0000 0.0000 0.0000 0.0000 30.9666 0.0000
# 6 0.0000 0.0000 0.0000 0.0000 0.0000 13.6664
#
#
#
# Elastic Compliance Matrix: (Units=1/GPa)
#
#
# Indices 1 2 3 4 5 6 
#
# 1 0.020185 -0.001291 -0.003705 0.000000 0.000000 0.000000
# 2 -0.001291 0.012695 -0.006191 0.000000 0.000000 0.000000
# 3 -0.003705 -0.006191 0.010208 0.000000 0.000000 0.000000
# 4 0.000000 0.000000 0.000000 0.032081 0.000000 0.000000
# 5 0.000000 0.000000 0.000000 0.000000 0.032293 0.000000
# 6 0.000000 0.000000 0.000000 0.000000 0.000000 0.073172
#
#
# Mechanical properties :
#
#
# Convention : Reuss Voigt Hill
#
# Bulk Modulus (GPa) = 48.27517 68.41038 58.34278
# Shear Modulus (GPa) = 23.81951 28.45051 26.13501
#
# Velocity S-wave (km/s) = 3.62059 3.95692 3.79248
# Velocity P-wave (km/s) = 6.63668 7.65015 7.16137
#
# Compressibility (1/GPa) = 0.02071458
#
# Stress axis : x y z
#
# Youngs Moduli (GPa) = 49.54204 78.76941 97.96513
#
# Poissons Ratio (x) = 0.10165 0.36296
# Poissons Ratio (y) = 0.06394 0.60652
# Poissons Ratio (z) = 0.18355 0.48767
#
# Static dielectric constant tensor:
#      x y z
#    x 3.334670 0.000000 0.000000 
#    y 0.000000 3.487250 0.000000 
#    z 0.000000 0.000000 3.640180 
# 
# 
# High freq. dielectric constant tensor:
#      x y z
#    x 1.689640 0.000000 0.000000 
#    y 0.000000 1.692290 0.000000 
#    z 0.000000 0.000000 1.710960 
# 
# From -- ./inp_files/21082.got.cif
#   From: 2010.03.12/outbox.cif.g09.slc.cpg/sg51_11_cif.got.tgz:21082.got - 2010.04.16 13:43:02.
