data_PCOD8207599
_publ_section_title
;
Structure prediction by ZEFSAII (Michael W. Deem and Ramdas Pophale) SiO2 
 PCOD8207599
Probable space group: P M M A
;
_chemical_formula_sum "Si O2"
_cell_formula_units_Z 48
_cell_length_a 18.556970
_cell_length_b 15.177762
_cell_length_c 9.368143
_cell_angle_alpha 90.000000
_cell_angle_beta 90.000000
_cell_angle_gamma 90.000000
_cell_volume 2638.568148
_symmetry_space_group_name_H-M "P M M A"
_symmetry_group_IT_number 51
_symmetry_cell_setting 'orthorhombic'
loop_
_space_group_symop_operation_xyz
x,y,z
1/2-x,-y,z
1/2+x,-y,-z
-x,y,-z
-x,-y,-z
1/2+x,y,-z
1/2-x,y,z
x,-y,z
loop_
_atom_site_type_symbol
_atom_site_label
_atom_site_fract_x
_atom_site_fract_y
_atom_site_fract_z
Si Si1 0.915280 0.097537 0.848924
Si Si2 0.086622 0.902392 0.830835
Si Si3 0.070075 0.600608 0.085856
Si Si4 0.168263 0.399549 0.825229
Si Si5 0.421721 0.259926 0.325919
Si Si6 0.091121 0.742928 0.643406
O O1 0.885273 0.174249 0.747212
O O2 0.000996 0.102059 0.840044
O O3 0.889373 0.000000 0.799122
O O4 0.885850 0.116541 0.008424
O O5 0.120996 0.831215 0.721728
O O6 0.110988 0.000000 0.780210
O O7 0.053972 0.500000 0.131614
O O8 0.089356 0.654376 0.227976
O O9 0.139766 0.608088 0.986220
O O10 0.000000 0.638434 0.000000
O O11 0.250000 0.364701 0.821759
O O12 0.163393 0.500000 0.771954
O O13 0.118371 0.343815 0.721268
O O14 0.382755 0.266567 0.479576
O O15 0.505987 0.249370 0.349827
#
# Coordination Sequence:
#
# PCOD8207599 Si02
#       6
#     8   8   8   8   8   8
#     4   8  14  24  40  66  99 134 166 200 246 293
#     4   8  14  25  43  66  96 133 169 203 242 292
#     4  10  19  33  53  74  96 127 169 218 260 296
#     4  10  21  37  55  73  97 133 172 208 253 309
#     4  10  19  28  47  76 105 131 162 208 254 296
#     4  10  19  30  46  74 105 134 164 200 251 305
#
# _framework density 18.191685
#
# number of rings (size 3 to 8) (size 9 to 14) (size 15 to 20)
#    0.000    2.667    1.667    2.000    2.333    1.333 
#    0.000    5.833    0.000    2.500    0.000    0.000 
#    0.000    1.333    0.000    0.000    0.000    0.000 
#
# Total GULP energy -594884.317979 kJ/mol
# GULP energy per Si atom -12393.423291 kJ/mol
# Density = 1.815028 g / cm^3
# Si number density = 18.191685 Si / 1000 Ang^3
#
#
#
# Elastic Constant Matrix: (Units=GPa)
#
#
# Indices 1 2 3 4 5 6 
#
# 1 19.3633 10.1735 8.1767 0.0000 0.0000 0.0000
# 2 10.1735 123.3202 82.7704 0.0000 0.0000 0.0000
# 3 8.1767 82.7704 136.4410 0.0000 0.0000 0.0000
# 4 0.0000 0.0000 0.0000 16.5395 0.0000 0.0000
# 5 0.0000 0.0000 0.0000 0.0000 7.8597 0.0000
# 6 0.0000 0.0000 0.0000 0.0000 0.0000 6.2762
#
#
#
# Elastic Compliance Matrix: (Units=1/GPa)
#
#
# Indices 1 2 3 4 5 6 
#
# 1 0.054050 -0.003854 -0.000901 0.000000 0.000000 0.000000
# 2 -0.003854 0.013953 -0.008234 0.000000 0.000000 0.000000
# 3 -0.000901 -0.008234 0.012378 0.000000 0.000000 0.000000
# 4 0.000000 0.000000 0.000000 0.060461 0.000000 0.000000
# 5 0.000000 0.000000 0.000000 0.000000 0.127231 0.000000
# 6 0.000000 0.000000 0.000000 0.000000 0.000000 0.159332
#
#
# Mechanical properties :
#
#
# Convention : Reuss Voigt Hill
#
# Bulk Modulus (GPa) = 18.38127 53.48507 35.93317
# Shear Modulus (GPa) = 10.60408 18.00202 14.30305
#
# Velocity S-wave (km/s) = 2.41697 3.14916 2.80704
# Velocity P-wave (km/s) = 4.23263 6.53358 5.50467
#
# Compressibility (1/GPa) = 0.05440321
#
# Stress axis : x y z
#
# Youngs Moduli (GPa) = 18.50154 71.66857 80.78883
#
# Poissons Ratio (x) = 0.27622 0.07280
# Poissons Ratio (y) = 0.07131 0.66518
# Poissons Ratio (z) = 0.01667 0.59009
#
# Static dielectric constant tensor:
#      x y z
#    x 3.525650 0.000000 0.000000 
#    y 0.000000 3.617960 0.000000 
#    z 0.000000 0.000000 3.664820 
# 
# 
# High freq. dielectric constant tensor:
#      x y z
#    x 1.638300 0.000000 0.000000 
#    y 0.000000 1.719840 0.000000 
#    z 0.000000 0.000000 1.701520 
# 
# From -- ./inp_files/9628.got.cif
#   From: 2010.03.12/outbox.cif.g09.slc.cpg/sg51_5_cif.got.tgz:9628.got - 2010.04.16 13:43:02.
