data_PCOD8207815
_publ_section_title
;
Structure prediction by ZEFSAII (Michael W. Deem and Ramdas Pophale) SiO2 
 PCOD8207815
Probable space group: P M M A
;
_chemical_formula_sum "Si O2"
_cell_formula_units_Z 52
_cell_length_a 8.928535
_cell_length_b 12.605248
_cell_length_c 30.102389
_cell_angle_alpha 90.000000
_cell_angle_beta 90.000000
_cell_angle_gamma 90.000000
_cell_volume 3387.915452
_symmetry_space_group_name_H-M "P M M A"
_symmetry_group_IT_number 51
_symmetry_cell_setting 'orthorhombic'
loop_
_space_group_symop_operation_xyz
x,y,z
1/2-x,-y,z
1/2+x,-y,-z
-x,y,-z
-x,-y,-z
1/2+x,y,-z
1/2-x,y,z
x,-y,z
loop_
_atom_site_type_symbol
_atom_site_label
_atom_site_fract_x
_atom_site_fract_y
_atom_site_fract_z
Si Si1 0.418832 0.126482 0.956060
Si Si2 0.424185 0.618491 0.544844
Si Si3 0.081054 0.873455 0.131913
Si Si4 0.571453 0.000000 0.548303
Si Si5 0.074210 0.814140 0.603364
Si Si6 0.418502 0.126153 0.780468
Si Si7 0.923128 0.125254 0.691174
O O1 0.250000 0.169698 0.955581
O O2 0.502810 0.170400 0.912552
O O3 0.420916 0.000000 0.956137
O O4 0.500000 0.170704 0.000000
O O5 0.500000 0.661274 0.500000
O O6 0.250000 0.617162 0.534758
O O7 0.482107 0.500000 0.557083
O O8 0.461636 0.696780 0.585276
O O9 0.250000 0.830331 0.133359
O O10 0.993344 0.828672 0.174714
O O11 0.079364 0.000000 0.132098
O O12 0.500000 0.000000 0.500000
O O13 0.519233 0.103265 0.574519
O O14 0.750000 0.000000 0.544583
O O15 0.250000 0.842087 0.600735
O O16 0.019455 0.815548 0.653929
O O17 0.250000 0.170793 0.776597
O O18 0.515442 0.164712 0.738555
O O19 0.416530 0.000000 0.782249
O O20 0.750000 0.157269 0.687217
O O21 0.945279 0.000000 0.685159
#
# Coordination Sequence:
#
# PCOD8207815 Si02
#       7
#     8   8   8   4   8   8   8
#     4   9  15  21  28  38  53  74 102 139 185 234
#     4   9  19  35  53  72  91 112 139 171 205 241
#     4   9  15  22  31  43  59  80 109 145 186 232
#     4  12  24  36  48  66  92 118 142 170 201 242
#     4  11  21  33  50  69  90 115 141 170 204 246
#     4   9  16  25  37  51  68  92 122 155 189 232
#     4  10  19  30  43  60  83 109 134 164 199 240
#
# _framework density 15.348671
#
# number of rings (size 3 to 8) (size 9 to 14) (size 15 to 20)
#    0.000    2.308    0.769    3.462    0.000    8.615 
#    0.000    0.000    0.000    0.000    0.000    0.000 
#    0.000    0.000    0.000    0.000    0.000    0.000 
#
# Total GULP energy -644793.378421 kJ/mol
# GULP energy per Si atom -12399.872662 kJ/mol
# Density = 1.531374 g / cm^3
# Si number density = 15.348671 Si / 1000 Ang^3
#
#
#
# Elastic Constant Matrix: (Units=GPa)
#
#
# Indices 1 2 3 4 5 6 
#
# 1 118.0507 23.6807 62.0651 0.0000 0.0000 0.0000
# 2 23.6807 33.4068 28.2121 0.0000 0.0000 0.0000
# 3 62.0651 28.2121 144.4529 0.0000 0.0000 0.0000
# 4 0.0000 0.0000 0.0000 5.0630 0.0000 0.0000
# 5 0.0000 0.0000 0.0000 0.0000 35.5975 0.0000
# 6 0.0000 0.0000 0.0000 0.0000 0.0000 7.1353
#
#
#
# Elastic Compliance Matrix: (Units=1/GPa)
#
#
# Indices 1 2 3 4 5 6 
#
# 1 0.011548 -0.004785 -0.004027 0.000000 0.000000 0.000000
# 2 -0.004785 0.037829 -0.005332 0.000000 0.000000 0.000000
# 3 -0.004027 -0.005332 0.009694 0.000000 0.000000 0.000000
# 4 0.000000 0.000000 0.000000 0.197511 0.000000 0.000000
# 5 0.000000 0.000000 0.000000 0.000000 0.028092 0.000000
# 6 0.000000 0.000000 0.000000 0.000000 0.000000 0.140148
#
#
# Mechanical properties :
#
#
# Convention : Reuss Voigt Hill
#
# Bulk Modulus (GPa) = 32.48580 58.20291 45.34436
# Shear Modulus (GPa) = 10.79046 21.68933 16.23989
#
# Velocity S-wave (km/s) = 2.65433 3.76321 3.25632
# Velocity P-wave (km/s) = 5.53219 7.54222 6.61401
#
# Compressibility (1/GPa) = 0.03078268
#
# Stress axis : x y z
#
# Youngs Moduli (GPa) = 86.59446 26.43470 103.15264
#
# Poissons Ratio (x) = 0.12649 0.41541
# Poissons Ratio (y) = 0.41436 0.55003
# Poissons Ratio (z) = 0.34873 0.14096
#
# Static dielectric constant tensor:
#      x y z
#    x 3.155120 0.000000 0.000000 
#    y 0.000000 2.407330 0.000000 
#    z 0.000000 0.000000 3.162410 
# 
# 
# High freq. dielectric constant tensor:
#      x y z
#    x 1.609860 0.000000 0.000000 
#    y 0.000000 1.503410 0.000000 
#    z 0.000000 0.000000 1.602960 
# 
# From -- ./inp_files/37324.got.cif
#   From: 2010.03.12/outbox.cif.g09.slc.cpg/sg51_19_cif.got.tgz:37324.got - 2010.04.16 13:43:02.
