data_PCOD8207226
_publ_section_title
;
Structure prediction by ZEFSAII (Michael W. Deem and Ramdas Pophale) SiO2 
 PCOD8207226
Probable space group: P M M A
;
_chemical_formula_sum "Si O2"
_cell_formula_units_Z 56
_cell_length_a 8.990511
_cell_length_b 20.330542
_cell_length_c 15.210312
_cell_angle_alpha 90.000000
_cell_angle_beta 90.000000
_cell_angle_gamma 90.000000
_cell_volume 2780.170662
_symmetry_space_group_name_H-M "P M M A"
_symmetry_group_IT_number 51
_symmetry_cell_setting 'orthorhombic'
loop_
_space_group_symop_operation_xyz
x,y,z
1/2-x,-y,z
1/2+x,-y,-z
-x,y,-z
-x,-y,-z
1/2+x,y,-z
1/2-x,y,z
x,-y,z
loop_
_atom_site_type_symbol
_atom_site_label
_atom_site_fract_x
_atom_site_fract_y
_atom_site_fract_z
Si Si1 0.073921 0.830879 0.910053
Si Si2 0.079359 0.925157 0.225049
Si Si3 0.075193 0.125318 0.414504
Si Si4 0.425473 0.607960 0.416033
Si Si5 0.077481 0.738374 0.626895
Si Si6 0.924503 0.427626 0.776826
Si Si7 0.919207 0.699085 0.174611
O O1 0.250000 0.835923 0.917732
O O2 0.023953 0.755118 0.892764
O O3 0.024835 0.877667 0.830830
O O4 0.000000 0.855489 0.000000
O O5 0.250000 0.905749 0.206108
O O6 0.044743 0.918605 0.328641
O O7 0.047062 0.000000 0.197073
O O8 0.250000 0.135824 0.430063
O O9 0.000000 0.090604 0.500000
O O10 0.992657 0.194151 0.403699
O O11 0.500000 0.571001 0.500000
O O12 0.250000 0.603655 0.425751
O O13 0.481835 0.682523 0.419953
O O14 0.479572 0.575733 0.324458
O O15 0.250000 0.733594 0.598779
O O16 0.058938 0.731694 0.730955
O O17 0.750000 0.416877 0.779806
O O18 0.969049 0.500000 0.813673
O O19 0.993356 0.369677 0.836088
O O20 0.750000 0.680731 0.155736
#
# Coordination Sequence:
#
# PCOD8207226 Si02
#       7
#     8   8   8   8   8   8   8
#     4  11  23  41  66  97 125 153 192 239 294 357
#     4  10  23  43  64  88 121 160 201 245 294 349
#     4  11  22  35  55  82 115 155 200 246 294 345
#     4  10  19  30  44  67 101 141 187 238 291 343
#     4  10  18  32  52  75 106 143 189 241 292 343
#     4   9  19  34  52  76 107 146 191 235 286 348
#     4   9  19  35  57  84 114 146 186 236 287 342
#
# _framework density 20.142648999999999
#
# number of rings (size 3 to 8) (size 9 to 14) (size 15 to 20)
#    0.000    2.000    1.429    2.143    0.000    4.286 
#    0.000    0.000    0.000    0.429    0.000    0.000 
#    0.000    0.000    0.000    0.000    0.000    0.000 
#
# Total GULP energy -694281.206542 kJ/mol
# GULP energy per Si atom -12397.878688 kJ/mol
# Density = 2.009680 g / cm^3
# Si number density = 20.142649 Si / 1000 Ang^3
#
#
#
# Elastic Constant Matrix: (Units=GPa)
#
#
# Indices 1 2 3 4 5 6 
#
# 1 75.4726 42.1789 33.7539 0.0000 0.0000 0.0000
# 2 42.1789 104.5033 33.4319 0.0000 0.0000 0.0000
# 3 33.7539 33.4319 72.6306 0.0000 0.0000 0.0000
# 4 0.0000 0.0000 0.0000 1.6092 0.0000 0.0000
# 5 0.0000 0.0000 0.0000 0.0000 28.7378 0.0000
# 6 0.0000 0.0000 0.0000 0.0000 0.0000 23.5112
#
#
#
# Elastic Compliance Matrix: (Units=1/GPa)
#
#
# Indices 1 2 3 4 5 6 
#
# 1 0.019297 -0.005769 -0.006313 0.000000 0.000000 0.000000
# 2 -0.005769 0.012946 -0.003278 0.000000 0.000000 0.000000
# 3 -0.006313 -0.003278 0.018211 0.000000 0.000000 0.000000
# 4 0.000000 0.000000 0.000000 0.621422 0.000000 0.000000
# 5 0.000000 0.000000 0.000000 0.000000 0.034797 0.000000
# 6 0.000000 0.000000 0.000000 0.000000 0.000000 0.042533
#
#
# Mechanical properties :
#
#
# Convention : Reuss Voigt Hill
#
# Bulk Modulus (GPa) = 50.67179 52.37066 51.52123
# Shear Modulus (GPa) = 6.35724 20.32111 13.33918
#
# Velocity S-wave (km/s) = 1.77847 3.17970 2.57619
# Velocity P-wave (km/s) = 5.42479 6.28785 5.87220
#
# Compressibility (1/GPa) = 0.01973484
#
# Stress axis : x y z
#
# Youngs Moduli (GPa) = 51.82105 77.24233 54.91240
#
# Poissons Ratio (x) = 0.44562 0.34664
# Poissons Ratio (y) = 0.29896 0.18001
# Poissons Ratio (z) = 0.32712 0.25320
#
# Static dielectric constant tensor:
#      x y z
#    x 3.627940 0.000000 0.000000 
#    y 0.000000 3.615940 0.000000 
#    z 0.000000 0.000000 3.846400 
# 
# 
# High freq. dielectric constant tensor:
#      x y z
#    x 1.786010 0.000000 0.000000 
#    y 0.000000 1.781660 0.000000 
#    z 0.000000 0.000000 1.774190 
# 
# From -- ./inp_files/21762.got.cif
#   From: 2010.03.12/outbox.cif.g09.slc.cpg/sg51_11_cif.got.tgz:21762.got - 2010.04.16 13:43:02.
