data_PCOD8207281
_publ_section_title
;
Structure prediction by ZEFSAII (Michael W. Deem and Ramdas Pophale) SiO2 
 PCOD8207281
Probable space group: P M M A
;
_chemical_formula_sum "Si O2"
_cell_formula_units_Z 64
_cell_length_a 14.428310
_cell_length_b 8.993075
_cell_length_c 25.357279
_cell_angle_alpha 90.000000
_cell_angle_beta 90.000000
_cell_angle_gamma 90.000000
_cell_volume 3290.230540
_symmetry_space_group_name_H-M "P M M A"
_symmetry_group_IT_number 51
_symmetry_cell_setting 'orthorhombic'
loop_
_space_group_symop_operation_xyz
x,y,z
1/2-x,-y,z
1/2+x,-y,-z
-x,y,-z
-x,-y,-z
1/2+x,y,-z
1/2-x,y,z
x,-y,z
loop_
_atom_site_type_symbol
_atom_site_label
_atom_site_fract_x
_atom_site_fract_y
_atom_site_fract_z
Si Si1 0.970000 0.324752 0.123792
Si Si2 0.355123 0.824933 0.086846
Si Si3 0.479484 0.677405 0.678353
Si Si4 0.602901 0.333080 0.521426
Si Si5 0.643740 0.174106 0.629637
Si Si6 0.150664 0.326731 0.588408
Si Si7 0.644528 0.323201 0.224188
Si Si8 0.355726 0.670061 0.978083
O O1 0.983936 0.500000 0.128473
O O2 0.904722 0.266163 0.170889
O O3 0.921006 0.278306 0.069416
O O4 0.071560 0.249398 0.126910
O O5 0.250000 0.777107 0.102419
O O6 0.366782 0.000000 0.089628
O O7 0.378006 0.772361 0.027782
O O8 0.487558 0.500000 0.679317
O O9 0.581967 0.747818 0.675341
O O10 0.428039 0.740417 0.625984
O O11 0.419982 0.734632 0.728048
O O12 0.500000 0.337519 0.500000
O O13 0.636606 0.500000 0.536543
O O14 0.617086 0.230098 0.571601
O O15 0.656926 0.262486 0.471132
O O16 0.750000 0.213290 0.642357
O O17 0.625247 0.000000 0.631625
O O18 0.250000 0.300886 0.616376
O O19 0.127678 0.500000 0.582263
O O20 0.750000 0.259528 0.227919
O O21 0.649854 0.500000 0.225125
O O22 0.250000 0.687664 0.959033
O O23 0.376655 0.500000 0.994369
#
# Coordination Sequence:
#
# PCOD8207281 Si02
#       8
#     8   8   8   8   8   8   8   8
#     4  10  19  32  53  81 110 141 176 216 267 324
#     4  10  21  35  50  72 105 145 187 227 266 308
#     4  10  19  35  58  81 104 134 176 220 263 311
#     4  10  18  32  54  81 109 138 174 215 258 310
#     4  11  24  39  54  75 107 146 183 220 266 315
#     4   9  16  27  48  78 107 133 164 205 254 307
#     4   9  18  34  59  89 114 134 165 216 271 320
#     4   9  17  30  50  77 110 145 178 214 262 323
#
# _framework density 19.451525
#
# number of rings (size 3 to 8) (size 9 to 14) (size 15 to 20)
#    0.000    2.250    1.250    2.250    0.000    7.500 
#    0.000    1.250    0.000    7.125    0.000    0.000 
#    0.000    0.000    0.000    0.000    0.000    0.000 
#
# Total GULP energy -793251.532300 kJ/mol
# GULP energy per Si atom -12394.555192 kJ/mol
# Density = 1.940725 g / cm^3
# Si number density = 19.451525 Si / 1000 Ang^3
#
#
#
# Elastic Constant Matrix: (Units=GPa)
#
#
# Indices 1 2 3 4 5 6 
#
# 1 156.8656 42.3168 72.3406 0.0000 0.0000 0.0000
# 2 42.3168 40.2040 29.7352 0.0000 0.0000 0.0000
# 3 72.3406 29.7352 90.9336 0.0000 0.0000 0.0000
# 4 0.0000 0.0000 0.0000 3.8401 0.0000 0.0000
# 5 0.0000 0.0000 0.0000 0.0000 33.5153 0.0000
# 6 0.0000 0.0000 0.0000 0.0000 0.0000 5.3528
#
#
#
# Elastic Compliance Matrix: (Units=1/GPa)
#
#
# Indices 1 2 3 4 5 6 
#
# 1 0.011378 -0.006966 -0.006774 0.000000 0.000000 0.000000
# 2 -0.006966 0.037072 -0.006581 0.000000 0.000000 0.000000
# 3 -0.006774 -0.006581 0.018538 0.000000 0.000000 0.000000
# 4 0.000000 0.000000 0.000000 0.260411 0.000000 0.000000
# 5 0.000000 0.000000 0.000000 0.000000 0.029837 0.000000
# 6 0.000000 0.000000 0.000000 0.000000 0.000000 0.186819
#
#
# Mechanical properties :
#
#
# Convention : Reuss Voigt Hill
#
# Bulk Modulus (GPa) = 37.95520 64.08759 51.02139
# Shear Modulus (GPa) = 8.42491 18.11568 13.27029
#
# Velocity S-wave (km/s) = 2.08342 3.05507 2.61478
# Velocity P-wave (km/s) = 5.03414 6.74266 5.95004
#
# Compressibility (1/GPa) = 0.02634685
#
# Stress axis : x y z
#
# Youngs Moduli (GPa) = 87.89100 26.97419 53.94454
#
# Poissons Ratio (x) = 0.18790 0.36539
# Poissons Ratio (y) = 0.61224 0.35501
# Poissons Ratio (z) = 0.59533 0.17752
#
# Static dielectric constant tensor:
#      x y z
#    x 3.758400 0.000000 0.000000 
#    y 0.000000 3.155070 0.000000 
#    z 0.000000 0.000000 3.648110 
# 
# 
# High freq. dielectric constant tensor:
#      x y z
#    x 1.779650 0.000000 0.000000 
#    y 0.000000 1.712080 0.000000 
#    z 0.000000 0.000000 1.742160 
# 
# From -- ./inp_files/35729.got.cif
#   From: 2010.03.12/outbox.cif.g09.slc.cpg/sg51_18_cif.got.tgz:35729.got - 2010.04.16 13:43:02.
