data_PCOD8207470
_publ_section_title
;
Structure prediction by ZEFSAII (Michael W. Deem and Ramdas Pophale) SiO2 
 PCOD8207470
Probable space group: P M M A
;
_chemical_formula_sum "Si O2"
_cell_formula_units_Z 48
_cell_length_a 14.770134
_cell_length_b 8.521921
_cell_length_c 18.930336
_cell_angle_alpha 90.000000
_cell_angle_beta 90.000000
_cell_angle_gamma 90.000000
_cell_volume 2382.759785
_symmetry_space_group_name_H-M "P M M A"
_symmetry_group_IT_number 51
_symmetry_cell_setting 'orthorhombic'
loop_
_space_group_symop_operation_xyz
x,y,z
1/2-x,-y,z
1/2+x,-y,-z
-x,y,-z
-x,-y,-z
1/2+x,y,-z
1/2-x,y,z
x,-y,z
loop_
_atom_site_type_symbol
_atom_site_label
_atom_site_fract_x
_atom_site_fract_y
_atom_site_fract_z
Si Si1 0.349872 0.183786 0.651891
Si Si2 0.990889 0.817749 0.747133
Si Si3 0.488588 0.316706 0.101241
Si Si4 0.854767 0.185829 0.011144
Si Si5 0.852405 0.676097 0.646052
Si Si6 0.606752 0.823422 0.500675
O O1 0.250000 0.219687 0.681273
O O2 0.420275 0.252713 0.708339
O O3 0.360691 0.254485 0.573194
O O4 0.370545 0.000000 0.644691
O O5 0.974886 0.716707 0.816678
O O6 0.908046 0.797948 0.693324
O O7 0.001253 0.000000 0.767521
O O8 0.483812 0.500000 0.085638
O O9 0.586975 0.254019 0.076439
O O10 0.404648 0.236171 0.060870
O O11 0.750000 0.246751 0.013004
O O12 0.855674 0.000000 0.016907
O O13 0.750000 0.685706 0.672739
O O14 0.890601 0.500000 0.655973
O O15 0.856006 0.718612 0.563725
O O16 0.500000 0.825751 0.500000
O O17 0.645344 0.000000 0.509488
#
# Coordination Sequence:
#
# PCOD8207470 Si02
#       6
#     8   8   8   8   8   8
#     4   9  18  33  55  82 110 143 188 241 291 340
#     4  11  22  39  60  83 115 154 198 241 287 345
#     4  11  23  39  61  91 126 159 191 236 295 349
#     4  10  21  40  67  95 121 155 199 239 277 333
#     4  11  24  39  55  80 114 152 194 243 301 355
#     4  10  18  34  59  84 107 142 193 243 293 348
#
# _framework density 20.144708000000001
#
# number of rings (size 3 to 8) (size 9 to 14) (size 15 to 20)
#    0.000    1.667    1.667    4.500    0.000    5.000 
#    0.000    1.667    0.000    2.500    0.000    0.000 
#    0.000    0.000    0.000    0.000    0.000    0.000 
#
# Total GULP energy -595229.842012 kJ/mol
# GULP energy per Si atom -12400.621709 kJ/mol
# Density = 2.009886 g / cm^3
# Si number density = 20.144708 Si / 1000 Ang^3
#
#
#
# Elastic Constant Matrix: (Units=GPa)
#
#
# Indices 1 2 3 4 5 6 
#
# 1 113.0786 17.1705 18.8758 0.0000 0.0000 0.0000
# 2 17.1705 50.3312 7.2545 0.0000 0.0000 0.0000
# 3 18.8758 7.2545 94.3353 0.0000 0.0000 0.0000
# 4 0.0000 0.0000 0.0000 136.4294 0.0000 0.0000
# 5 0.0000 0.0000 0.0000 0.0000 5.0597 0.0000
# 6 0.0000 0.0000 0.0000 0.0000 0.0000 18.2815
#
#
#
# Elastic Compliance Matrix: (Units=1/GPa)
#
#
# Indices 1 2 3 4 5 6 
#
# 1 0.009584 -0.003027 -0.001685 0.000000 0.000000 0.000000
# 2 -0.003027 0.021047 -0.001013 0.000000 0.000000 0.000000
# 3 -0.001685 -0.001013 0.011016 0.000000 0.000000 0.000000
# 4 0.000000 0.000000 0.000000 0.007330 0.000000 0.000000
# 5 0.000000 0.000000 0.000000 0.000000 0.197639 0.000000
# 6 0.000000 0.000000 0.000000 0.000000 0.000000 0.054700
#
#
# Mechanical properties :
#
#
# Convention : Reuss Voigt Hill
#
# Bulk Modulus (GPa) = 33.11540 38.26074 35.68807
# Shear Modulus (GPa) = 15.48796 46.25040 30.86918
#
# Velocity S-wave (km/s) = 2.77580 4.79676 3.91880
# Velocity P-wave (km/s) = 5.17183 7.05073 6.18306
#
# Compressibility (1/GPa) = 0.03019743
#
# Stress axis : x y z
#
# Youngs Moduli (GPa) = 104.33750 47.51272 90.78093
#
# Poissons Ratio (x) = 0.14381 0.15296
# Poissons Ratio (y) = 0.31581 0.09195
# Poissons Ratio (z) = 0.17581 0.04813
#
# Static dielectric constant tensor:
#      x y z
#    x 3.789330 0.000000 0.000000 
#    y 0.000000 3.501080 0.000000 
#    z 0.000000 0.000000 3.628570 
# 
# 
# High freq. dielectric constant tensor:
#      x y z
#    x 1.795760 0.000000 0.000000 
#    y 0.000000 1.770540 0.000000 
#    z 0.000000 0.000000 1.785110 
# 
# From -- ./inp_files/29410.got.cif
#   From: 2010.03.12/outbox.cif.g09.slc.cpg/sg51_15_cif.got.tgz:29410.got - 2010.04.16 13:43:02.
