data_PCOD8207884
_publ_section_title
;
Structure prediction by ZEFSAII (Michael W. Deem and Ramdas Pophale) SiO2 
 PCOD8207884
Probable space group: P M M A
;
_chemical_formula_sum "Si O2"
_cell_formula_units_Z 40
_cell_length_a 8.946667
_cell_length_b 25.935868
_cell_length_c 9.704211
_cell_angle_alpha 90.000000
_cell_angle_beta 90.000000
_cell_angle_gamma 90.000000
_cell_volume 2251.760990
_symmetry_space_group_name_H-M "P M M A"
_symmetry_group_IT_number 51
_symmetry_cell_setting 'orthorhombic'
loop_
_space_group_symop_operation_xyz
x,y,z
1/2-x,-y,z
1/2+x,-y,-z
-x,y,-z
-x,-y,-z
1/2+x,y,-z
1/2-x,y,z
x,-y,z
loop_
_atom_site_type_symbol
_atom_site_label
_atom_site_fract_x
_atom_site_fract_y
_atom_site_fract_z
Si Si1 0.425846 0.086397 0.141793
Si Si2 0.573353 0.610293 0.350178
Si Si3 0.574914 0.797017 0.859827
Si Si4 0.577090 0.500000 0.354629
Si Si5 0.573746 0.000000 0.648333
Si Si6 0.427194 0.710453 0.351139
O O1 0.250000 0.081586 0.120476
O O2 0.475533 0.144807 0.177375
O O3 0.479437 0.050441 0.267330
O O4 0.500000 0.067478 0.000000
O O5 0.500000 0.607871 0.500000
O O6 0.750000 0.620809 0.360250
O O7 0.539482 0.554348 0.275776
O O8 0.493315 0.658807 0.275654
O O9 0.750000 0.793956 0.883250
O O10 0.523460 0.759736 0.737345
O O11 0.500000 0.777791 0.000000
O O12 0.750000 0.500000 0.390675
O O13 0.500000 0.500000 0.500000
O O14 0.500000 0.000000 0.500000
O O15 0.750000 0.000000 0.627214
O O16 0.500000 0.717837 0.500000
O O17 0.250000 0.705482 0.364582
#
# Coordination Sequence:
#
# PCOD8207884 Si02
#       6
#     8   8   8   4   4   8
#     4   9  18  34  53  73  95 123 158 197 234 274
#     4   9  15  24  38  58  85 117 150 186 227 273
#     4   9  19  34  51  70  94 122 157 196 234 275
#     4   8  14  22  34  54  81 112 147 184 224 268
#     4  10  21  34  50  74 104 130 157 192 232 276
#     4  10  19  30  44  66  94 123 153 189 231 278
#
# _framework density 17.763876
#
# number of rings (size 3 to 8) (size 9 to 14) (size 15 to 20)
#    0.000    2.800    0.000    2.700    0.000    4.000 
#    0.000    0.000    0.000    0.000    0.000    0.700 
#    0.000    0.000    0.000    0.000    0.000    0.000 
#
# Total GULP energy -495562.445275 kJ/mol
# GULP energy per Si atom -12389.061132 kJ/mol
# Density = 1.772344 g / cm^3
# Si number density = 17.763876 Si / 1000 Ang^3
#
#
#
# Elastic Constant Matrix: (Units=GPa)
#
#
# Indices 1 2 3 4 5 6 
#
# 1 53.3440 48.1286 35.3632 0.0000 0.0000 0.0000
# 2 48.1286 162.6817 80.4194 0.0000 0.0000 0.0000
# 3 35.3632 80.4194 94.4788 0.0000 0.0000 0.0000
# 4 0.0000 0.0000 0.0000 5.3792 0.0000 0.0000
# 5 0.0000 0.0000 0.0000 0.0000 24.8826 0.0000
# 6 0.0000 0.0000 0.0000 0.0000 0.0000 24.6266
#
#
#
# Elastic Compliance Matrix: (Units=1/GPa)
#
#
# Indices 1 2 3 4 5 6 
#
# 1 0.027279 -0.005219 -0.005768 0.000000 0.000000 0.000000
# 2 -0.005219 0.011611 -0.007930 0.000000 0.000000 0.000000
# 3 -0.005768 -0.007930 0.019493 0.000000 0.000000 0.000000
# 4 0.000000 0.000000 0.000000 0.185902 0.000000 0.000000
# 5 0.000000 0.000000 0.000000 0.000000 0.040189 0.000000
# 6 0.000000 0.000000 0.000000 0.000000 0.000000 0.040606
#
#
# Mechanical properties :
#
#
# Convention : Reuss Voigt Hill
#
# Bulk Modulus (GPa) = 48.66336 70.92523 59.79430
# Shear Modulus (GPa) = 13.52218 20.75056 17.13637
#
# Velocity S-wave (km/s) = 2.76201 3.42150 3.10929
# Velocity P-wave (km/s) = 6.13397 7.45803 6.82817
#
# Compressibility (1/GPa) = 0.02054934
#
# Stress axis : x y z
#
# Youngs Moduli (GPa) = 36.65858 86.12619 51.30051
#
# Poissons Ratio (x) = 0.44949 0.29591
# Poissons Ratio (y) = 0.19132 0.40679
# Poissons Ratio (z) = 0.21145 0.68295
#
# Static dielectric constant tensor:
#      x y z
#    x 3.326650 0.000000 0.000000 
#    y 0.000000 4.342290 0.000000 
#    z 0.000000 0.000000 2.937430 
# 
# 
# High freq. dielectric constant tensor:
#      x y z
#    x 1.690200 0.000000 0.000000 
#    y 0.000000 1.716820 0.000000 
#    z 0.000000 0.000000 1.633370 
# 
# From -- ./inp_files/5580.got.cif
#   From: 2010.03.12/outbox.cif.g09.slc.cpg/sg51_3_cif.got.tgz:5580.got - 2010.04.16 13:43:02.
