data_PCOD8207283
_publ_section_title
;
Structure prediction by ZEFSAII (Michael W. Deem and Ramdas Pophale) SiO2 
 PCOD8207283
Probable space group: P M M A
;
_chemical_formula_sum "Si O2"
_cell_formula_units_Z 40
_cell_length_a 8.720988
_cell_length_b 15.713751
_cell_length_c 14.575969
_cell_angle_alpha 90.000000
_cell_angle_beta 90.000000
_cell_angle_gamma 90.000000
_cell_volume 1997.482540
_symmetry_space_group_name_H-M "P M M A"
_symmetry_group_IT_number 51
_symmetry_cell_setting 'orthorhombic'
loop_
_space_group_symop_operation_xyz
x,y,z
1/2-x,-y,z
1/2+x,-y,-z
-x,y,-z
-x,-y,-z
1/2+x,y,-z
1/2-x,y,z
x,-y,z
loop_
_atom_site_type_symbol
_atom_site_label
_atom_site_fract_x
_atom_site_fract_y
_atom_site_fract_z
Si Si1 0.568548 0.661039 0.406993
Si Si2 0.069216 0.846500 0.407124
Si Si3 0.931785 0.406708 0.214299
Si Si4 0.426056 0.094632 0.771610
Si Si5 0.431909 0.752761 0.899924
O O1 0.500000 0.619852 0.500000
O O2 0.750000 0.666363 0.416290
O O3 0.503379 0.754496 0.391249
O O4 0.516821 0.605519 0.319758
O O5 0.250000 0.839066 0.417422
O O6 0.000000 0.887654 0.500000
O O7 0.025971 0.904228 0.320661
O O8 0.750000 0.402327 0.209199
O O9 0.990860 0.500000 0.181557
O O10 0.998547 0.332229 0.149458
O O11 0.250000 0.115127 0.746263
O O12 0.487430 0.164166 0.843948
O O13 0.442311 0.000000 0.814733
O O14 0.250000 0.749903 0.906487
O O15 0.500000 0.758675 0.000000
#
# Coordination Sequence:
#
# PCOD8207283 Si02
#       5
#     8   8   8   8   8
#     4  10  18  32  54  81 114 152 192 228 274 328
#     4  11  21  34  56  84 117 153 191 230 275 327
#     4   9  18  34  57  82 112 150 188 226 276 336
#     4  10  21  39  61  84 112 148 188 230 278 334
#     4  10  21  39  60  83 111 145 185 231 285 338
#
# _framework density 20.025207999999999
#
# number of rings (size 3 to 8) (size 9 to 14) (size 15 to 20)
#    0.000    2.000    2.000    3.600    0.000    2.800 
#    0.000    0.000    0.000    4.200    0.000    0.000 
#    0.000    0.000    0.000    0.000    0.000    0.000 
#
# Total GULP energy -495931.954261 kJ/mol
# GULP energy per Si atom -12398.298857 kJ/mol
# Density = 1.997963 g / cm^3
# Si number density = 20.025208 Si / 1000 Ang^3
#
#
#
# Elastic Constant Matrix: (Units=GPa)
#
#
# Indices 1 2 3 4 5 6 
#
# 1 66.8066 22.5301 38.0204 0.0000 0.0000 0.0000
# 2 22.5301 143.2578 82.2085 0.0000 0.0000 0.0000
# 3 38.0204 82.2085 160.0775 0.0000 0.0000 0.0000
# 4 0.0000 0.0000 0.0000 15.4636 0.0000 0.0000
# 5 0.0000 0.0000 0.0000 0.0000 34.6264 0.0000
# 6 0.0000 0.0000 0.0000 0.0000 0.0000 12.5319
#
#
#
# Elastic Compliance Matrix: (Units=1/GPa)
#
#
# Indices 1 2 3 4 5 6 
#
# 1 0.017335 -0.000515 -0.003853 0.000000 0.000000 0.000000
# 2 -0.000515 0.009912 -0.004968 0.000000 0.000000 0.000000
# 3 -0.003853 -0.004968 0.009713 0.000000 0.000000 0.000000
# 4 0.000000 0.000000 0.000000 0.064668 0.000000 0.000000
# 5 0.000000 0.000000 0.000000 0.000000 0.028880 0.000000
# 6 0.000000 0.000000 0.000000 0.000000 0.000000 0.079797
#
#
# Mechanical properties :
#
#
# Convention : Reuss Voigt Hill
#
# Bulk Modulus (GPa) = 54.67922 72.85110 63.76516
# Shear Modulus (GPa) = 21.26994 27.68325 24.47659
#
# Velocity S-wave (km/s) = 3.26261 3.72212 3.49992
# Velocity P-wave (km/s) = 6.44650 7.41154 6.94580
#
# Compressibility (1/GPa) = 0.01828848
#
# Stress axis : x y z
#
# Youngs Moduli (GPa) = 57.68692 100.88302 102.95040
#
# Poissons Ratio (x) = 0.05200 0.39662
# Poissons Ratio (y) = 0.02974 0.51147
# Poissons Ratio (z) = 0.22224 0.50120
#
# Static dielectric constant tensor:
#      x y z
#    x 3.446500 0.000000 0.000000 
#    y 0.000000 3.801150 0.000000 
#    z 0.000000 0.000000 3.802650 
# 
# 
# High freq. dielectric constant tensor:
#      x y z
#    x 1.757030 0.000000 0.000000 
#    y 0.000000 1.783370 0.000000 
#    z 0.000000 0.000000 1.781290 
# 
# From -- ./inp_files/20469.got.cif
#   From: 2010.03.12/outbox.cif.g09.slc.cpg/sg51_11_cif.got.tgz:20469.got - 2010.04.16 13:43:02.
