data_PCOD8207464
_publ_section_title
;
Structure prediction by ZEFSAII (Michael W. Deem and Ramdas Pophale) SiO2 
 PCOD8207464
Probable space group: P M M A
;
_chemical_formula_sum "Si O2"
_cell_formula_units_Z 48
_cell_length_a 14.546763
_cell_length_b 8.628294
_cell_length_c 18.491969
_cell_angle_alpha 90.000000
_cell_angle_beta 90.000000
_cell_angle_gamma 90.000000
_cell_volume 2320.996335
_symmetry_space_group_name_H-M "P M M A"
_symmetry_group_IT_number 51
_symmetry_cell_setting 'orthorhombic'
loop_
_space_group_symop_operation_xyz
x,y,z
1/2-x,-y,z
1/2+x,-y,-z
-x,y,-z
-x,-y,-z
1/2+x,y,-z
1/2-x,y,z
x,-y,z
loop_
_atom_site_type_symbol
_atom_site_label
_atom_site_fract_x
_atom_site_fract_y
_atom_site_fract_z
Si Si1 0.394658 0.672686 0.018201
Si Si2 0.250000 0.819301 0.915146
Si Si3 0.454524 0.820312 0.429221
Si Si4 0.250000 0.683632 0.754883
Si Si5 0.924052 0.315003 0.822472
Si Si6 0.750000 0.824387 0.599671
Si Si7 0.440831 0.816251 0.714047
Si Si8 0.750000 0.676353 0.743922
O O1 0.350813 0.500000 0.016572
O O2 0.393756 0.744008 0.098543
O O3 0.500000 0.663043 0.000000
O O4 0.340150 0.778735 0.961924
O O5 0.250000 0.731417 0.839052
O O6 0.250000 0.000000 0.897664
O O7 0.500000 0.741171 0.500000
O O8 0.345085 0.796033 0.442641
O O9 0.497681 0.752061 0.354197
O O10 0.479950 0.000000 0.427508
O O11 0.250000 0.500000 0.750890
O O12 0.338309 0.747868 0.711585
O O13 0.937936 0.500000 0.821714
O O14 0.842552 0.247056 0.773167
O O15 0.016073 0.238744 0.790571
O O16 0.750000 0.692436 0.659100
O O17 0.750000 0.000000 0.631792
O O18 0.435004 0.000000 0.713482
O O19 0.750000 0.500000 0.769661
#
# Coordination Sequence:
#
# PCOD8207464 Si02
#       8
#     8   4   8   4   8   4   8   4
#     4  10  21  38  60  84 116 161 205 243 296 368
#     4  12  25  41  62  91 123 155 199 258 314 357
#     4   9  19  35  59  92 127 163 199 244 302 363
#     4  12  26  44  64  83 116 164 207 248 303 372
#     4  10  20  35  57  86 120 161 203 243 296 363
#     4  10  18  34  58  85 117 155 198 239 290 349
#     4  11  22  38  62  92 121 152 202 259 306 356
#     4  10  19  31  52  81 116 154 194 237 285 344
#
# _framework density 20.680774
#
# number of rings (size 3 to 8) (size 9 to 14) (size 15 to 20)
#    0.000    1.667    1.667    3.500    0.000    4.333 
#    0.000    3.333    0.000    5.500    0.000    0.000 
#    0.000    0.000    0.000    0.000    0.000    0.000 
#
# Total GULP energy -594879.856659 kJ/mol
# GULP energy per Si atom -12393.330347 kJ/mol
# Density = 2.063370 g / cm^3
# Si number density = 20.680774 Si / 1000 Ang^3
#
#
#
# Elastic Constant Matrix: (Units=GPa)
#
#
# Indices 1 2 3 4 5 6 
#
# 1 146.1350 29.5643 47.9099 0.0000 0.0000 0.0000
# 2 29.5643 63.4635 22.5488 0.0000 0.0000 0.0000
# 3 47.9099 22.5488 112.7091 0.0000 0.0000 0.0000
# 4 0.0000 0.0000 0.0000 21.8783 0.0000 0.0000
# 5 0.0000 0.0000 0.0000 0.0000 35.9344 0.0000
# 6 0.0000 0.0000 0.0000 0.0000 0.0000 29.2524
#
#
#
# Elastic Compliance Matrix: (Units=1/GPa)
#
#
# Indices 1 2 3 4 5 6 
#
# 1 0.008403 -0.002848 -0.003002 0.000000 0.000000 0.000000
# 2 -0.002848 0.017928 -0.002376 0.000000 0.000000 0.000000
# 3 -0.003002 -0.002376 0.010624 0.000000 0.000000 0.000000
# 4 0.000000 0.000000 0.000000 0.045707 0.000000 0.000000
# 5 0.000000 0.000000 0.000000 0.000000 0.027828 0.000000
# 6 0.000000 0.000000 0.000000 0.000000 0.000000 0.034185
#
#
# Mechanical properties :
#
#
# Convention : Reuss Voigt Hill
#
# Bulk Modulus (GPa) = 48.77421 58.03929 53.40675
# Shear Modulus (GPa) = 29.76835 32.23201 31.00018
#
# Velocity S-wave (km/s) = 3.79809 3.95213 3.87587
# Velocity P-wave (km/s) = 6.54748 6.99650 6.77571
#
# Compressibility (1/GPa) = 0.02050264
#
# Stress axis : x y z
#
# Youngs Moduli (GPa) = 118.99853 55.77853 94.12670
#
# Poissons Ratio (x) = 0.15886 0.28260
# Poissons Ratio (y) = 0.33891 0.22365
# Poissons Ratio (z) = 0.35727 0.13254
#
# Static dielectric constant tensor:
#      x y z
#    x 3.330790 0.000000 0.000000 
#    y 0.000000 3.450760 0.000000 
#    z 0.000000 0.000000 4.276840 
# 
# 
# High freq. dielectric constant tensor:
#      x y z
#    x 1.829620 0.000000 0.000000 
#    y 0.000000 1.777280 0.000000 
#    z 0.000000 0.000000 1.807290 
# 
# From -- ./inp_files/29716.got.cif
#   From: 2010.03.12/outbox.cif.g09.slc.cpg/sg51_15_cif.got.tgz:29716.got - 2010.04.16 13:43:02.
