data_PCOD8207941
_publ_section_title
;
Structure prediction by ZEFSAII (Michael W. Deem and Ramdas Pophale) SiO2 
 PCOD8207941
Probable space group: P M M A
;
_chemical_formula_sum "Si O2"
_cell_formula_units_Z 64
_cell_length_a 8.587345
_cell_length_b 30.999663
_cell_length_c 14.321841
_cell_angle_alpha 90.000000
_cell_angle_beta 90.000000
_cell_angle_gamma 90.000000
_cell_volume 3812.542834
_symmetry_space_group_name_H-M "P M M A"
_symmetry_group_IT_number 51
_symmetry_cell_setting 'orthorhombic'
loop_
_space_group_symop_operation_xyz
x,y,z
1/2-x,-y,z
1/2+x,-y,-z
-x,y,-z
-x,-y,-z
1/2+x,y,-z
1/2-x,y,z
x,-y,z
loop_
_atom_site_type_symbol
_atom_site_label
_atom_site_fract_x
_atom_site_fract_y
_atom_site_fract_z
Si Si1 0.933967 0.156963 0.598284
Si Si2 0.067287 0.715947 0.221793
Si Si3 0.567355 0.454523 0.102032
Si Si4 0.568837 0.050133 0.900439
Si Si5 0.065911 0.201202 0.102684
Si Si6 0.934873 0.360813 0.104135
Si Si7 0.433239 0.250926 0.597284
Si Si8 0.933032 0.122631 0.218532
O O1 0.750000 0.157672 0.593629
O O2 0.000000 0.139914 0.500000
O O3 0.992773 0.204799 0.621146
O O4 0.989930 0.125453 0.679726
O O5 0.250000 0.716544 0.240703
O O6 0.014682 0.756922 0.160869
O O7 0.019739 0.672598 0.170332
O O8 0.978114 0.716351 0.320509
O O9 0.750000 0.454358 0.091325
O O10 0.515558 0.500000 0.154018
O O11 0.520005 0.408413 0.147165
O O12 0.500000 0.455549 0.000000
O O13 0.750000 0.062224 0.898998
O O14 0.477879 0.075960 0.820941
O O15 0.539906 0.000000 0.880250
O O16 0.500000 0.063747 0.000000
O O17 0.250000 0.196005 0.098772
O O18 0.995220 0.158983 0.149159
O O19 0.000000 0.207122 0.000000
O O20 0.750000 0.352694 0.103164
O O21 0.000000 0.355325 0.000000
O O22 0.500000 0.269218 0.500000
O O23 0.250000 0.245502 0.588527
O O24 0.750000 0.127424 0.228795
#
# Coordination Sequence:
#
# PCOD8207941 Si02
#       8
#     8   8   8   8   8   8   8   8
#     4  11  21  36  56  80 107 134 169 209 253 300
#     4  11  22  35  50  69  98 134 171 209 249 297
#     4   8  14  25  41  61  86 119 161 208 254 297
#     4  10  21  38  59  82 109 140 173 211 254 301
#     4  11  23  36  50  69  99 135 173 211 248 293
#     4  10  19  30  45  66  95 132 172 211 252 302
#     4  11  21  35  55  76 100 129 166 208 253 298
#     4  12  23  36  56  80 106 136 172 212 253 298
#
# _framework density 16.786698000000001
#
# number of rings (size 3 to 8) (size 9 to 14) (size 15 to 20)
#    0.000    1.500    1.250    6.375    0.000    3.750 
#    0.000    0.000    0.000    0.375    0.000    0.000 
#    0.000    0.500    0.000    1.375    0.000    2.250 
#
# Total GULP energy -793452.036986 kJ/mol
# GULP energy per Si atom -12397.688078 kJ/mol
# Density = 1.674849 g / cm^3
# Si number density = 16.786698 Si / 1000 Ang^3
#
#
#
# Elastic Constant Matrix: (Units=GPa)
#
#
# Indices 1 2 3 4 5 6 
#
# 1 101.7204 33.1811 43.2348 0.0000 0.0000 0.0000
# 2 33.1811 92.8393 49.6551 0.0000 0.0000 0.0000
# 3 43.2348 49.6551 114.0521 0.0000 0.0000 0.0000
# 4 0.0000 0.0000 0.0000 6.9063 0.0000 0.0000
# 5 0.0000 0.0000 0.0000 0.0000 29.5865 0.0000
# 6 0.0000 0.0000 0.0000 0.0000 0.0000 20.5831
#
#
#
# Elastic Compliance Matrix: (Units=1/GPa)
#
#
# Indices 1 2 3 4 5 6 
#
# 1 0.012131 -0.002445 -0.003534 0.000000 0.000000 0.000000
# 2 -0.002445 0.014534 -0.005401 0.000000 0.000000 0.000000
# 3 -0.003534 -0.005401 0.012459 0.000000 0.000000 0.000000
# 4 0.000000 0.000000 0.000000 0.144795 0.000000 0.000000
# 5 0.000000 0.000000 0.000000 0.000000 0.033799 0.000000
# 6 0.000000 0.000000 0.000000 0.000000 0.000000 0.048584
#
#
# Mechanical properties :
#
#
# Convention : Reuss Voigt Hill
#
# Bulk Modulus (GPa) = 61.11160 62.30597 61.70879
# Shear Modulus (GPa) = 16.97707 23.58457 20.28082
#
# Velocity S-wave (km/s) = 3.18361 3.75234 3.47961
# Velocity P-wave (km/s) = 7.07090 7.48133 7.27901
#
# Compressibility (1/GPa) = 0.01636350
#
# Stress axis : x y z
#
# Youngs Moduli (GPa) = 82.43652 68.80501 80.26485
#
# Poissons Ratio (x) = 0.16826 0.28364
# Poissons Ratio (y) = 0.20160 0.43348
# Poissons Ratio (z) = 0.29131 0.37159
#
# Static dielectric constant tensor:
#      x y z
#    x 3.316500 0.000000 0.000000 
#    y 0.000000 3.431930 0.000000 
#    z 0.000000 0.000000 3.116130 
# 
# 
# High freq. dielectric constant tensor:
#      x y z
#    x 1.668270 0.000000 0.000000 
#    y 0.000000 1.640590 0.000000 
#    z 0.000000 0.000000 1.628050 
# 
# From -- ./inp_files/22595.got.cif
#   From: 2010.03.12/outbox.cif.g09.slc.cpg/sg51_12_cif.got.tgz:22595.got - 2010.04.16 13:43:02.
