data_PCOD8207025
_publ_section_title
;
Structure prediction by ZEFSAII (Michael W. Deem and Ramdas Pophale) SiO2 
 PCOD8207025
Probable space group: P M M A
;
_chemical_formula_sum "Si O2"
_cell_formula_units_Z 64
_cell_length_a 25.525212
_cell_length_b 9.095781
_cell_length_c 16.926753
_cell_angle_alpha 90.000000
_cell_angle_beta 90.000000
_cell_angle_gamma 90.000000
_cell_volume 3929.913668
_symmetry_space_group_name_H-M "P M M A"
_symmetry_group_IT_number 51
_symmetry_cell_setting 'orthorhombic'
loop_
_space_group_symop_operation_xyz
x,y,z
1/2-x,-y,z
1/2+x,-y,-z
-x,y,-z
-x,-y,-z
1/2+x,y,-z
1/2-x,y,z
x,-y,z
loop_
_atom_site_type_symbol
_atom_site_label
_atom_site_fract_x
_atom_site_fract_y
_atom_site_fract_z
Si Si1 0.438900 0.169722 0.651123
Si Si2 0.406722 0.675060 0.185104
Si Si3 0.001832 0.829731 0.093062
Si Si4 0.307664 0.325509 0.087157
Si Si5 0.189761 0.669439 0.910807
Si Si6 0.438973 0.171885 0.341147
Si Si7 0.397987 0.172118 0.819453
Si Si8 0.437730 0.665800 0.497249
O O1 0.499539 0.202976 0.669390
O O2 0.406189 0.214579 0.728082
O O3 0.416435 0.264438 0.578475
O O4 0.431969 0.000000 0.628366
O O5 0.410514 0.500000 0.192511
O O6 0.452429 0.731074 0.128411
O O7 0.351576 0.728416 0.148095
O O8 0.408944 0.747043 0.270956
O O9 0.947244 0.772726 0.129095
O O10 0.011911 0.000000 0.116246
O O11 0.000000 0.806587 0.000000
O O12 0.250000 0.268168 0.114124
O O13 0.306436 0.500000 0.082336
O O14 0.320423 0.266770 0.998929
O O15 0.250000 0.692371 0.886810
O O16 0.173700 0.500000 0.907230
O O17 0.155085 0.754121 0.847627
O O18 0.417728 0.238942 0.423227
O O19 0.425980 0.000000 0.339333
O O20 0.391802 0.000000 0.830308
O O21 0.500000 0.669915 0.500000
O O22 0.416512 0.500000 0.489268
#
# Coordination Sequence:
#
# PCOD8207025 Si02
#       8
#     8   8   8   8   8   8   8   8
#     4   9  17  30  45  63  92 129 161 185 225 284
#     4  11  20  29  47  72  95 121 160 202 238 278
#     4  10  20  33  46  63  94 132 161 188 232 288
#     4   8  16  32  50  67  91 123 159 201 246 286
#     4   9  18  33  51  69  90 120 160 204 247 284
#     4  10  18  31  47  64  95 132 159 185 229 285
#     4  10  19  31  46  68  95 126 161 193 230 282
#     4   9  17  28  44  68  94 119 156 197 231 267
#
# _framework density 16.285346000000001
#
# number of rings (size 3 to 8) (size 9 to 14) (size 15 to 20)
#    0.000    2.500    1.250    2.625    0.000    3.500 
#    0.000    0.625    0.000    3.000    0.000    0.875 
#    0.000    5.000    0.000    0.000    0.000    0.000 
#
# Total GULP energy -793587.014426 kJ/mol
# GULP energy per Si atom -12399.797100 kJ/mol
# Density = 1.624828 g / cm^3
# Si number density = 16.285346 Si / 1000 Ang^3
#
#
#
# Elastic Constant Matrix: (Units=GPa)
#
#
# Indices 1 2 3 4 5 6 
#
# 1 77.9528 39.9128 65.0692 0.0000 0.0000 0.0000
# 2 39.9128 72.3574 58.8213 0.0000 0.0000 0.0000
# 3 65.0692 58.8213 129.3874 0.0000 0.0000 0.0000
# 4 0.0000 0.0000 0.0000 31.1375 0.0000 0.0000
# 5 0.0000 0.0000 0.0000 0.0000 18.0360 0.0000
# 6 0.0000 0.0000 0.0000 0.0000 0.0000 19.5555
#
#
#
# Elastic Compliance Matrix: (Units=1/GPa)
#
#
# Indices 1 2 3 4 5 6 
#
# 1 0.023316 -0.005281 -0.009325 0.000000 0.000000 0.000000
# 2 -0.005281 0.023118 -0.007854 0.000000 0.000000 0.000000
# 3 -0.009325 -0.007854 0.015989 0.000000 0.000000 0.000000
# 4 0.000000 0.000000 0.000000 0.032116 0.000000 0.000000
# 5 0.000000 0.000000 0.000000 0.000000 0.055445 0.000000
# 6 0.000000 0.000000 0.000000 0.000000 0.000000 0.051136
#
#
# Mechanical properties :
#
#
# Convention : Reuss Voigt Hill
#
# Bulk Modulus (GPa) = 57.13228 67.47827 62.30527
# Shear Modulus (GPa) = 19.85129 21.47210 20.66169
#
# Velocity S-wave (km/s) = 3.49516 3.63504 3.56579
# Velocity P-wave (km/s) = 7.17261 7.69045 7.43604
#
# Compressibility (1/GPa) = 0.01750324
#
# Stress axis : x y z
#
# Youngs Moduli (GPa) = 42.88944 43.25646 62.54370
#
# Poissons Ratio (x) = 0.22842 0.58321
# Poissons Ratio (y) = 0.22648 0.49122
# Poissons Ratio (z) = 0.39994 0.33974
#
# Static dielectric constant tensor:
#      x y z
#    x 2.950090 0.000000 0.000000 
#    y 0.000000 3.019260 0.000000 
#    z 0.000000 0.000000 3.212680 
# 
# 
# High freq. dielectric constant tensor:
#      x y z
#    x 1.591650 0.000000 0.000000 
#    y 0.000000 1.622130 0.000000 
#    z 0.000000 0.000000 1.634750 
# 
# From -- ./inp_files/30796.got.cif
#   From: 2010.03.12/outbox.cif.g09.slc.cpg/sg51_16_cif.got.tgz:30796.got - 2010.04.16 13:43:02.
