data_PCOD8207900
_publ_section_title
;
Structure prediction by ZEFSAII (Michael W. Deem and Ramdas Pophale) SiO2 
 PCOD8207900
Probable space group: P M M A
;
_chemical_formula_sum "Si O2"
_cell_formula_units_Z 64
_cell_length_a 13.847974
_cell_length_b 9.470465
_cell_length_c 31.503238
_cell_angle_alpha 90.000000
_cell_angle_beta 90.000000
_cell_angle_gamma 90.000000
_cell_volume 4131.547375
_symmetry_space_group_name_H-M "P M M A"
_symmetry_group_IT_number 51
_symmetry_cell_setting 'orthorhombic'
loop_
_space_group_symop_operation_xyz
x,y,z
1/2-x,-y,z
1/2+x,-y,-z
-x,y,-z
-x,-y,-z
1/2+x,y,-z
1/2-x,y,z
x,-y,z
loop_
_atom_site_type_symbol
_atom_site_label
_atom_site_fract_x
_atom_site_fract_y
_atom_site_fract_z
Si Si1 0.545442 0.662346 0.899564
Si Si2 0.143827 0.332749 0.518141
Si Si3 0.864284 0.159619 0.973480
Si Si4 0.138802 0.664186 0.187433
Si Si5 0.041150 0.667095 0.433337
Si Si6 0.859002 0.661171 0.053289
Si Si7 0.360928 0.166336 0.360154
Si Si8 0.364626 0.155836 0.265578
O O1 0.577816 0.500000 0.906815
O O2 0.602293 0.760439 0.931772
O O3 0.573077 0.711007 0.852269
O O4 0.429980 0.679876 0.906419
O O5 0.250000 0.269277 0.528168
O O6 0.146908 0.500000 0.516825
O O7 0.110139 0.281813 0.471648
O O8 0.068293 0.286999 0.554514
O O9 0.750000 0.159955 0.973511
O O10 0.905058 0.000000 0.973923
O O11 0.900429 0.240217 0.015736
O O12 0.250000 0.706415 0.178071
O O13 0.129494 0.500000 0.196758
O O14 0.096369 0.740930 0.229037
O O15 0.049451 0.500000 0.425540
O O16 0.069638 0.748196 0.391049
O O17 0.750000 0.703478 0.067022
O O18 0.861468 0.500000 0.036670
O O19 0.250000 0.212017 0.367708
O O20 0.395322 0.207156 0.312525
O O21 0.372676 0.000000 0.367803
O O22 0.250000 0.150373 0.264481
O O23 0.406786 0.000000 0.256613
#
# Coordination Sequence:
#
# PCOD8207900 Si02
#       8
#     8   8   8   8   8   8   8   8
#     4  10  19  30  45  64  85 110 138 167 202 243
#     4   8  14  25  39  57  85 115 140 172 213 249
#     4  10  20  31  43  62  87 112 138 169 202 236
#     4   9  17  28  42  62  86 107 129 162 201 240
#     4   9  16  25  41  63  81 106 146 180 205 241
#     4   9  18  32  47  61  80 109 142 172 203 239
#     4   9  17  28  41  59  85 113 137 167 209 248
#     4   8  15  28  43  58  80 110 136 157 193 248
#
# _framework density 15.490565
#
# number of rings (size 3 to 8) (size 9 to 14) (size 15 to 20)
#    0.000    3.000    0.000    3.000    0.000    5.000 
#    0.000    3.750    0.000    1.125    0.000    0.875 
#    0.000    5.000    0.000    0.000    0.000    0.000 
#
# Total GULP energy -793309.955724 kJ/mol
# GULP energy per Si atom -12395.468058 kJ/mol
# Density = 1.545531 g / cm^3
# Si number density = 15.490565 Si / 1000 Ang^3
#
#
#
# Elastic Constant Matrix: (Units=GPa)
#
#
# Indices 1 2 3 4 5 6 
#
# 1 70.5139 31.2658 58.9645 0.0000 0.0000 0.0000
# 2 31.2658 57.3053 57.9344 0.0000 0.0000 0.0000
# 3 58.9645 57.9344 139.3506 0.0000 0.0000 0.0000
# 4 0.0000 0.0000 0.0000 8.4489 0.0000 0.0000
# 5 0.0000 0.0000 0.0000 0.0000 23.3311 0.0000
# 6 0.0000 0.0000 0.0000 0.0000 0.0000 14.3252
#
#
#
# Elastic Compliance Matrix: (Units=1/GPa)
#
#
# Indices 1 2 3 4 5 6 
#
# 1 0.022629 -0.004599 -0.007663 0.000000 0.000000 0.000000
# 2 -0.004599 0.031038 -0.010958 0.000000 0.000000 0.000000
# 3 -0.007663 -0.010958 0.014974 0.000000 0.000000 0.000000
# 4 0.000000 0.000000 0.000000 0.118359 0.000000 0.000000
# 5 0.000000 0.000000 0.000000 0.000000 0.042861 0.000000
# 6 0.000000 0.000000 0.000000 0.000000 0.000000 0.069807
#
#
# Mechanical properties :
#
#
# Convention : Reuss Voigt Hill
#
# Bulk Modulus (GPa) = 45.04301 62.61104 53.82702
# Shear Modulus (GPa) = 14.14395 17.15472 15.64934
#
# Velocity S-wave (km/s) = 3.02498 3.33142 3.18189
# Velocity P-wave (km/s) = 6.42974 7.43669 6.95147
#
# Compressibility (1/GPa) = 0.02220100
#
# Stress axis : x y z
#
# Youngs Moduli (GPa) = 44.19161 32.21885 66.78119
#
# Poissons Ratio (x) = 0.14818 0.51174
# Poissons Ratio (y) = 0.20324 0.73177
# Poissons Ratio (z) = 0.33864 0.35305
#
# Static dielectric constant tensor:
#      x y z
#    x 3.046340 0.000000 0.000000 
#    y 0.000000 2.960720 0.000000 
#    z 0.000000 0.000000 2.964320 
# 
# 
# High freq. dielectric constant tensor:
#      x y z
#    x 1.574610 0.000000 0.000000 
#    y 0.000000 1.585150 0.000000 
#    z 0.000000 0.000000 1.583100 
# 
# From -- ./inp_files/37817.got.cif
#   From: 2010.03.12/outbox.cif.g09.slc.cpg/sg51_19_cif.got.tgz:37817.got - 2010.04.16 13:43:02.
