data_PCOD8207525
_publ_section_title
;
Structure prediction by ZEFSAII (Michael W. Deem and Ramdas Pophale) SiO2 
 PCOD8207525
Probable space group: P M M A
;
_chemical_formula_sum "Si O2"
_cell_formula_units_Z 56
_cell_length_a 14.927568
_cell_length_b 8.765928
_cell_length_c 21.884297
_cell_angle_alpha 90.000000
_cell_angle_beta 90.000000
_cell_angle_gamma 90.000000
_cell_volume 2863.647500
_symmetry_space_group_name_H-M "P M M A"
_symmetry_group_IT_number 51
_symmetry_cell_setting 'orthorhombic'
loop_
_space_group_symop_operation_xyz
x,y,z
1/2-x,-y,z
1/2+x,-y,-z
-x,y,-z
-x,-y,-z
1/2+x,y,-z
1/2-x,y,z
x,-y,z
loop_
_atom_site_type_symbol
_atom_site_label
_atom_site_fract_x
_atom_site_fract_y
_atom_site_fract_z
Si Si1 0.849849 0.672399 0.124052
Si Si2 0.943219 0.319273 0.556780
Si Si3 0.569191 0.320006 0.335016
Si Si4 0.014398 0.821898 0.790345
Si Si5 0.849043 0.824235 0.867092
Si Si6 0.098815 0.322821 0.009175
Si Si7 0.750000 0.318671 0.517917
Si Si8 0.750000 0.819032 0.383662
O O1 0.750000 0.685001 0.150735
O O2 0.887468 0.500000 0.133535
O O3 0.910030 0.794425 0.158883
O O4 0.845856 0.711202 0.052182
O O5 0.943825 0.500000 0.553270
O O6 0.839507 0.262706 0.553826
O O7 0.000000 0.251881 0.500000
O O8 0.991762 0.263094 0.618378
O O9 0.585512 0.500000 0.341034
O O10 0.534819 0.279604 0.268202
O O11 0.662380 0.236137 0.347670
O O12 0.920667 0.760639 0.818347
O O13 0.011864 0.000000 0.772716
O O14 0.750000 0.796407 0.839678
O O15 0.852768 0.750170 0.933404
O O16 0.870722 0.000000 0.877203
O O17 0.092430 0.500000 0.024113
O O18 0.000000 0.253095 0.000000
O O19 0.750000 0.500000 0.509898
O O20 0.750000 0.247801 0.451164
O O21 0.750000 0.000000 0.386344
#
# Coordination Sequence:
#
# PCOD8207525 Si02
#       8
#     8   8   8   8   8   8   4   4
#     4  10  21  37  57  83 115 150 188 234 296 360
#     4   9  17  33  61  92 117 150 195 240 287 340
#     4  11  23  41  63  87 118 160 201 242 295 350
#     4  11  24  41  59  82 116 155 197 246 292 347
#     4  10  22  40  61  83 112 156 202 242 296 361
#     4  10  19  34  59  87 115 145 187 247 301 348
#     4  10  18  36  64  92 124 158 195 242 293 346
#     4  12  24  38  60  94 126 156 195 236 287 354
#
# _framework density 19.555478999999998
#
# number of rings (size 3 to 8) (size 9 to 14) (size 15 to 20)
#    0.000    1.714    2.857    1.929    1.000    2.571 
#    1.286    2.143    0.000    0.000    0.000    0.000 
#    0.000    0.000    0.000    0.000    0.000    0.000 
#
# Total GULP energy -694395.129841 kJ/mol
# GULP energy per Si atom -12399.913033 kJ/mol
# Density = 1.951097 g / cm^3
# Si number density = 19.555479 Si / 1000 Ang^3
#
#
#
# Elastic Constant Matrix: (Units=GPa)
#
#
# Indices 1 2 3 4 5 6 
#
# 1 155.0230 26.4415 61.0800 0.0000 0.0000 0.0000
# 2 26.4415 36.0223 20.0668 0.0000 0.0000 0.0000
# 3 61.0800 20.0668 104.7531 0.0000 0.0000 0.0000
# 4 0.0000 0.0000 0.0000 15.4372 0.0000 0.0000
# 5 0.0000 0.0000 0.0000 0.0000 14.7634 0.0000
# 6 0.0000 0.0000 0.0000 0.0000 0.0000 19.9341
#
#
#
# Elastic Compliance Matrix: (Units=1/GPa)
#
#
# Indices 1 2 3 4 5 6 
#
# 1 0.008877 -0.004066 -0.004397 0.000000 0.000000 0.000000
# 2 -0.004066 0.032940 -0.003939 0.000000 0.000000 0.000000
# 3 -0.004397 -0.003939 0.012865 0.000000 0.000000 0.000000
# 4 0.000000 0.000000 0.000000 0.064779 0.000000 0.000000
# 5 0.000000 0.000000 0.000000 0.000000 0.067735 0.000000
# 6 0.000000 0.000000 0.000000 0.000000 0.000000 0.050165
#
#
# Mechanical properties :
#
#
# Convention : Reuss Voigt Hill
#
# Bulk Modulus (GPa) = 33.47116 56.77499 45.12308
# Shear Modulus (GPa) = 18.37403 22.57428 20.47415
#
# Velocity S-wave (km/s) = 3.06859 3.40129 3.23921
# Velocity P-wave (km/s) = 5.45052 6.67239 6.09217
#
# Compressibility (1/GPa) = 0.02987646
#
# Stress axis : x y z
#
# Youngs Moduli (GPa) = 112.65541 30.35850 77.73294
#
# Poissons Ratio (x) = 0.12345 0.34178
# Poissons Ratio (y) = 0.45810 0.30619
# Poissons Ratio (z) = 0.49533 0.11958
#
# Static dielectric constant tensor:
#      x y z
#    x 3.959720 0.000000 0.000000 
#    y 0.000000 3.341180 0.000000 
#    z 0.000000 0.000000 3.513950 
# 
# 
# High freq. dielectric constant tensor:
#      x y z
#    x 1.778700 0.000000 0.000000 
#    y 0.000000 1.739700 0.000000 
#    z 0.000000 0.000000 1.755620 
# 
# From -- ./inp_files/33529.got.cif
#   From: 2010.03.12/outbox.cif.g09.slc.cpg/sg51_17_cif.got.tgz:33529.got - 2010.04.16 13:43:02.
