data_PCOD8207023
_publ_section_title
;
Structure prediction by ZEFSAII (Michael W. Deem and Ramdas Pophale) SiO2 
 PCOD8207023
Probable space group: P M M A
;
_chemical_formula_sum "Si O2"
_cell_formula_units_Z 56
_cell_length_a 28.123048
_cell_length_b 13.078463
_cell_length_c 10.362257
_cell_angle_alpha 90.000000
_cell_angle_beta 90.000000
_cell_angle_gamma 90.000000
_cell_volume 3811.302813
_symmetry_space_group_name_H-M "P M M A"
_symmetry_group_IT_number 51
_symmetry_cell_setting 'orthorhombic'
loop_
_space_group_symop_operation_xyz
x,y,z
1/2-x,-y,z
1/2+x,-y,-z
-x,y,-z
-x,-y,-z
1/2+x,y,-z
1/2-x,y,z
x,-y,z
loop_
_atom_site_type_symbol
_atom_site_label
_atom_site_fract_x
_atom_site_fract_y
_atom_site_fract_z
Si Si1 0.448132 0.884725 0.062411
Si Si2 0.696241 0.619253 0.907925
Si Si3 0.603600 0.302404 0.009761
Si Si4 0.951665 0.290991 0.765201
Si Si5 0.553776 0.617540 0.252818
Si Si6 0.400764 0.621084 0.479405
Si Si7 0.698770 0.620870 0.615505
O O1 0.449662 0.831402 0.204688
O O2 0.428847 0.000000 0.075001
O O3 0.500000 0.882302 0.000000
O O4 0.411675 0.817318 0.974145
O O5 0.750000 0.638603 0.956820
O O6 0.683025 0.500000 0.919842
O O7 0.660340 0.685743 0.994785
O O8 0.690444 0.658719 0.761417
O O9 0.589211 0.367031 0.134241
O O10 0.576984 0.348203 0.881599
O O11 0.930117 0.317477 0.627366
O O12 0.006423 0.320079 0.770930
O O13 0.539819 0.500000 0.267441
O O14 0.579770 0.655399 0.382555
O O15 0.406581 0.500000 0.454296
O O16 0.345353 0.655556 0.473251
O O17 0.750000 0.663785 0.563864
O O18 0.702042 0.500000 0.618788
#
# Coordination Sequence:
#
# PCOD8207023 Si02
#       7
#     8   8   8   8   8   8   8
#     4   9  17  32  51  70  88 111 153 201 246 277
#     4   9  16  26  44  69  95 120 151 193 229 264
#     4  10  18  31  47  69  85 122 157 191 225 275
#     4  10  18  31  46  67  83 122 157 185 223 275
#     4  11  21  29  39  65 100 127 152 184 220 270
#     4  10  19  29  42  63  96 129 149 183 227 261
#     4   8  13  24  41  59  79 113 159 187 208 251
#
# _framework density 14.693137
#
# number of rings (size 3 to 8) (size 9 to 14) (size 15 to 20)
#    0.857    1.571    2.857    2.571    0.000    3.429 
#    0.000    0.714    0.000    5.571    0.000    0.000 
#    0.000    0.000    0.000    0.714    0.000    0.143 
#
# Total GULP energy -693853.850350 kJ/mol
# GULP energy per Si atom -12390.247328 kJ/mol
# Density = 1.465970 g / cm^3
# Si number density = 14.693137 Si / 1000 Ang^3
#
#
#
# Elastic Constant Matrix: (Units=GPa)
#
#
# Indices 1 2 3 4 5 6 
#
# 1 99.9557 22.4274 34.6422 0.0000 0.0000 0.0000
# 2 22.4274 51.6250 14.4010 0.0000 0.0000 0.0000
# 3 34.6422 14.4010 79.2597 0.0000 0.0000 0.0000
# 4 0.0000 0.0000 0.0000 10.4624 0.0000 0.0000
# 5 0.0000 0.0000 0.0000 0.0000 10.0260 0.0000
# 6 0.0000 0.0000 0.0000 0.0000 0.0000 9.7115
#
#
#
# Elastic Compliance Matrix: (Units=1/GPa)
#
#
# Indices 1 2 3 4 5 6 
#
# 1 0.012578 -0.004141 -0.004745 0.000000 0.000000 0.000000
# 2 -0.004141 0.021768 -0.002145 0.000000 0.000000 0.000000
# 3 -0.004745 -0.002145 0.015081 0.000000 0.000000 0.000000
# 4 0.000000 0.000000 0.000000 0.095580 0.000000 0.000000
# 5 0.000000 0.000000 0.000000 0.000000 0.099740 0.000000
# 6 0.000000 0.000000 0.000000 0.000000 0.000000 0.102971
#
#
# Mechanical properties :
#
#
# Convention : Reuss Voigt Hill
#
# Bulk Modulus (GPa) = 36.54426 41.53129 39.03778
# Shear Modulus (GPa) = 13.19604 16.66463 14.93034
#
# Velocity S-wave (km/s) = 3.00010 3.37141 3.19116
# Velocity P-wave (km/s) = 6.07671 6.59411 6.34069
#
# Compressibility (1/GPa) = 0.02736408
#
# Stress axis : x y z
#
# Youngs Moduli (GPa) = 79.50364 45.93963 66.31058
#
# Poissons Ratio (x) = 0.19022 0.31466
# Poissons Ratio (y) = 0.32919 0.14226
# Poissons Ratio (z) = 0.37726 0.09856
#
# Static dielectric constant tensor:
#      x y z
#    x 3.408660 0.000000 0.000000 
#    y 0.000000 2.557290 0.000000 
#    z 0.000000 0.000000 2.730640 
# 
# 
# High freq. dielectric constant tensor:
#      x y z
#    x 1.572620 0.000000 0.000000 
#    y 0.000000 1.514380 0.000000 
#    z 0.000000 0.000000 1.547500 
# 
# From -- ./inp_files/13222.got.cif
#   From: 2010.03.12/outbox.cif.g09.slc.cpg/sg51_7_cif.got.tgz:13222.got - 2010.04.16 13:43:02.
