data_PCOD8207444
_publ_section_title
;
Structure prediction by ZEFSAII (Michael W. Deem and Ramdas Pophale) SiO2 
 PCOD8207444
Probable space group: P M M A
;
_chemical_formula_sum "Si O2"
_cell_formula_units_Z 44
_cell_length_a 10.119421
_cell_length_b 25.725935
_cell_length_c 8.507372
_cell_angle_alpha 90.000000
_cell_angle_beta 90.000000
_cell_angle_gamma 90.000000
_cell_volume 2214.737483
_symmetry_space_group_name_H-M "P M M A"
_symmetry_group_IT_number 51
_symmetry_cell_setting 'orthorhombic'
loop_
_space_group_symop_operation_xyz
x,y,z
1/2-x,-y,z
1/2+x,-y,-z
-x,y,-z
-x,-y,-z
1/2+x,y,-z
1/2-x,y,z
x,-y,z
loop_
_atom_site_type_symbol
_atom_site_label
_atom_site_fract_x
_atom_site_fract_y
_atom_site_fract_z
Si Si1 0.250000 0.673231 0.326177
Si Si2 0.250000 0.235031 0.841907
Si Si3 0.750000 0.347750 0.308696
Si Si4 0.016489 0.390546 0.186242
Si Si5 0.250000 0.785250 0.212005
Si Si6 0.598853 0.943849 0.144714
Si Si7 0.514230 0.163061 0.186167
Si Si8 0.598550 0.500000 0.855641
O O1 0.250000 0.659149 0.506842
O O2 0.380563 0.652853 0.240139
O O3 0.250000 0.735077 0.320463
O O4 0.250000 0.294367 0.788241
O O5 0.378222 0.206690 0.770966
O O6 0.250000 0.232558 0.030619
O O7 0.623277 0.381651 0.266510
O O8 0.070037 0.447276 0.241831
O O9 0.000000 0.386937 0.000000
O O10 0.375764 0.819876 0.259967
O O11 0.750000 0.935010 0.085492
O O12 0.557575 0.894054 0.251983
O O13 0.589518 0.000000 0.234799
O O14 0.500000 0.946551 0.000000
O O15 0.500000 0.158013 0.000000
O O16 0.750000 0.500000 0.914550
O O17 0.500000 0.500000 0.000000
#
# Coordination Sequence:
#
# PCOD8207444 Si02
#       8
#     4   4   4   8   4   8   8   4
#     4  12  24  43  59  89 128 157 200 251 304 357
#     4  10  18  34  52  77 106 142 197 233 282 343
#     4  12  26  39  61  93 124 163 196 251 306 353
#     4  11  23  42  68  92 123 158 204 244 293 356
#     4  10  20  32  54  73 106 148 193 237 284 343
#     4   9  16  25  39  63 100 141 176 222 290 356
#     4   9  17  28  45  71  99 138 184 236 279 340
#     4  10  22  40  69  99 124 154 202 255 290 340
#
# _framework density 19.866914999999999
#
# number of rings (size 3 to 8) (size 9 to 14) (size 15 to 20)
#    0.000    1.818    1.818    3.273    7.636    1.455 
#    0.000    2.727    0.000    0.000    0.000    0.000 
#    0.000    4.364    0.000    0.000    0.000    0.000 
#
# Total GULP energy -545381.840380 kJ/mol
# GULP energy per Si atom -12395.041827 kJ/mol
# Density = 1.982170 g / cm^3
# Si number density = 19.866915 Si / 1000 Ang^3
#
#
#
# Elastic Constant Matrix: (Units=GPa)
#
#
# Indices 1 2 3 4 5 6 
#
# 1 189.8105 75.5439 25.2576 0.0000 0.0000 0.0000
# 2 75.5439 157.8011 19.9869 0.0000 0.0000 0.0000
# 3 25.2576 19.9869 57.2766 0.0000 0.0000 0.0000
# 4 0.0000 0.0000 0.0000 -0.3640 0.0000 0.0000
# 5 0.0000 0.0000 0.0000 0.0000 25.4740 0.0000
# 6 0.0000 0.0000 0.0000 0.0000 0.0000 40.4346
#
#
#
# Elastic Compliance Matrix: (Units=1/GPa)
#
#
# Indices 1 2 3 4 5 6 
#
# 1 0.006705 -0.002966 -0.001921 0.000000 0.000000 0.000000
# 2 -0.002966 0.007943 -0.001463 0.000000 0.000000 0.000000
# 3 -0.001921 -0.001463 0.018817 0.000000 0.000000 0.000000
# 4 0.000000 0.000000 0.000000 -2.747325 0.000000 0.000000
# 5 0.000000 0.000000 0.000000 0.000000 0.039256 0.000000
# 6 0.000000 0.000000 0.000000 0.000000 0.000000 0.024731
#
#
# Mechanical properties :
#
#
# Convention : Reuss Voigt Hill
#
# Bulk Modulus (GPa) = 48.16555 71.82946 59.99750
# Shear Modulus (GPa) = -1.90096 32.04892 15.07398
#
# Velocity S-wave (km/s) = -0.97925 4.02080 2.75753
# Velocity P-wave (km/s) = 4.79773 7.60195 6.35640
#
# Compressibility (1/GPa) = 0.02076173
#
# Stress axis : x y z
#
# Youngs Moduli (GPa) = 149.14910 125.90442 53.14299
#
# Poissons Ratio (x) = 0.37348 0.10211
# Poissons Ratio (y) = 0.44243 0.07777
# Poissons Ratio (z) = 0.28659 0.18426
#
# Static dielectric constant tensor:
#      x y z
#    x 3.963060 0.000000 0.000000 
#    y 0.000000 4.517370 0.000000 
#    z 0.000000 0.000000 2.984250 
# 
# 
# High freq. dielectric constant tensor:
#      x y z
#    x 1.801200 0.000000 0.000000 
#    y 0.000000 1.803400 0.000000 
#    z 0.000000 0.000000 1.702080 
# 
# From -- ./inp_files/5933.got.cif
#   From: 2010.03.12/outbox.cif.g09.slc.cpg/sg51_3_cif.got.tgz:5933.got - 2010.04.16 13:43:02.
