data_PCOD8207307
_publ_section_title
;
Structure prediction by ZEFSAII (Michael W. Deem and Ramdas Pophale) SiO2 
 PCOD8207307
Probable space group: P M M A
;
_chemical_formula_sum "Si O2"
_cell_formula_units_Z 64
_cell_length_a 14.410694
_cell_length_b 8.958932
_cell_length_c 24.995171
_cell_angle_alpha 90.000000
_cell_angle_beta 90.000000
_cell_angle_gamma 90.000000
_cell_volume 3226.987245
_symmetry_space_group_name_H-M "P M M A"
_symmetry_group_IT_number 51
_symmetry_cell_setting 'orthorhombic'
loop_
_space_group_symop_operation_xyz
x,y,z
1/2-x,-y,z
1/2+x,-y,-z
-x,y,-z
-x,-y,-z
1/2+x,y,-z
1/2-x,y,z
x,-y,z
loop_
_atom_site_type_symbol
_atom_site_label
_atom_site_fract_x
_atom_site_fract_y
_atom_site_fract_z
Si Si1 0.856152 0.825309 0.631323
Si Si2 0.396851 0.667173 0.478642
Si Si3 0.466445 0.174459 0.875462
Si Si4 0.650381 0.673683 0.409883
Si Si5 0.855319 0.675185 0.909272
Si Si6 0.142969 0.323513 0.781360
Si Si7 0.854792 0.830515 0.019355
Si Si8 0.479697 0.322283 0.681262
O O1 0.750000 0.784445 0.643938
O O2 0.883376 0.770248 0.572402
O O3 0.917573 0.747508 0.677935
O O4 0.874082 0.000000 0.633630
O O5 0.500000 0.661242 0.500000
O O6 0.362044 0.500000 0.463541
O O7 0.343423 0.738881 0.529770
O O8 0.570079 0.243257 0.870993
O O9 0.395706 0.247839 0.834324
O O10 0.426466 0.209544 0.934115
O O11 0.471996 0.000000 0.863456
O O12 0.750000 0.697516 0.381624
O O13 0.626171 0.500000 0.416371
O O14 0.572832 0.742976 0.371273
O O15 0.750000 0.721044 0.892491
O O16 0.870029 0.500000 0.903308
O O17 0.873887 0.720497 0.970431
O O18 0.250000 0.274840 0.771711
O O19 0.136552 0.500000 0.788106
O O20 0.077892 0.268155 0.732696
O O21 0.750000 0.811008 0.041252
O O22 0.870808 0.000000 0.999113
O O23 0.486671 0.500000 0.680626
#
# Coordination Sequence:
#
# PCOD8207307 Si02
#       8
#     8   8   8   8   8   8   8   8
#     4  11  24  39  55  79 114 152 187 228 279 332
#     4  10  18  32  55  83 111 144 185 225 267 323
#     4  11  22  36  57  84 116 156 197 235 280 340
#     4   9  16  28  51  81 109 137 173 219 268 320
#     4  10  21  36  55  82 116 153 194 242 292 338
#     4  10  22  40  63  90 117 144 179 231 290 340
#     4   9  18  33  53  80 116 156 195 233 278 339
#     4  10  20  38  61  83 107 139 185 233 278 330
#
# _framework density 19.832740999999999
#
# number of rings (size 3 to 8) (size 9 to 14) (size 15 to 20)
#    0.000    2.000    1.250    2.625    0.000    7.750 
#    0.000    1.875    0.000    1.875    0.000    0.000 
#    0.000    0.000    0.000    0.000    0.000    0.000 
#
# Total GULP energy -793336.715646 kJ/mol
# GULP energy per Si atom -12395.886182 kJ/mol
# Density = 1.978760 g / cm^3
# Si number density = 19.832741 Si / 1000 Ang^3
#
#
#
# Elastic Constant Matrix: (Units=GPa)
#
#
# Indices 1 2 3 4 5 6 
#
# 1 138.0955 43.5232 45.9485 0.0000 0.0000 0.0000
# 2 43.5232 44.6312 29.2440 0.0000 0.0000 0.0000
# 3 45.9485 29.2440 64.0921 0.0000 0.0000 0.0000
# 4 0.0000 0.0000 0.0000 12.3126 0.0000 0.0000
# 5 0.0000 0.0000 0.0000 0.0000 33.5080 0.0000
# 6 0.0000 0.0000 0.0000 0.0000 0.0000 122.5860
#
#
#
# Elastic Compliance Matrix: (Units=1/GPa)
#
#
# Indices 1 2 3 4 5 6 
#
# 1 0.011250 -0.008111 -0.004364 0.000000 0.000000 0.000000
# 2 -0.008111 0.037809 -0.011437 0.000000 0.000000 0.000000
# 3 -0.004364 -0.011437 0.023950 0.000000 0.000000 0.000000
# 4 0.000000 0.000000 0.000000 0.081218 0.000000 0.000000
# 5 0.000000 0.000000 0.000000 0.000000 0.029844 0.000000
# 6 0.000000 0.000000 0.000000 0.000000 0.000000 0.008158
#
#
# Mechanical properties :
#
#
# Convention : Reuss Voigt Hill
#
# Bulk Modulus (GPa) = 39.70652 53.80559 46.75606
# Shear Modulus (GPa) = 20.12506 42.22153 31.17330
#
# Velocity S-wave (km/s) = 3.18895 4.61898 3.96891
# Velocity P-wave (km/s) = 5.79857 7.45891 6.68052
#
# Compressibility (1/GPa) = 0.02518478
#
# Stress axis : x y z
#
# Youngs Moduli (GPa) = 88.89078 26.44858 41.75401
#
# Poissons Ratio (x) = 0.21452 0.18223
# Poissons Ratio (y) = 0.72098 0.47754
# Poissons Ratio (z) = 0.38795 0.30249
#
# Static dielectric constant tensor:
#      x y z
#    x 3.955690 0.000000 0.000000 
#    y 0.000000 3.381700 0.000000 
#    z 0.000000 0.000000 3.627610 
# 
# 
# High freq. dielectric constant tensor:
#      x y z
#    x 1.795800 0.000000 0.000000 
#    y 0.000000 1.747600 0.000000 
#    z 0.000000 0.000000 1.754550 
# 
# From -- ./inp_files/35827.got.cif
#   From: 2010.03.12/outbox.cif.g09.slc.cpg/sg51_18_cif.got.tgz:35827.got - 2010.04.16 13:43:02.
