data_PCOD8207988
_publ_section_title
;
Structure prediction by ZEFSAII (Michael W. Deem and Ramdas Pophale) SiO2 
 PCOD8207988
Probable space group: P M M A
;
_chemical_formula_sum "Si O2"
_cell_formula_units_Z 48
_cell_length_a 20.310886
_cell_length_b 9.382304
_cell_length_c 13.781964
_cell_angle_alpha 90.000000
_cell_angle_beta 90.000000
_cell_angle_gamma 90.000000
_cell_volume 2626.331123
_symmetry_space_group_name_H-M "P M M A"
_symmetry_group_IT_number 51
_symmetry_cell_setting 'orthorhombic'
loop_
_space_group_symop_operation_xyz
x,y,z
1/2-x,-y,z
1/2+x,-y,-z
-x,y,-z
-x,-y,-z
1/2+x,y,-z
1/2-x,y,z
x,-y,z
loop_
_atom_site_type_symbol
_atom_site_label
_atom_site_fract_x
_atom_site_fract_y
_atom_site_fract_z
Si Si1 0.675683 0.336077 0.500421
Si Si2 0.542021 0.664698 0.404660
Si Si3 0.072905 0.660795 0.956132
Si Si4 0.327248 0.841512 0.317391
Si Si5 0.110459 0.841084 0.125354
Si Si6 0.031903 0.839962 0.786081
O O1 0.750000 0.286876 0.467844
O O2 0.677625 0.500000 0.530750
O O3 0.620863 0.309673 0.418083
O O4 0.648180 0.253784 0.594052
O O5 0.500000 0.706214 0.500000
O O6 0.528301 0.500000 0.377665
O O7 0.519366 0.765215 0.317161
O O8 0.098081 0.500000 0.939334
O O9 0.079361 0.743890 0.853608
O O10 0.120640 0.739678 0.032729
O O11 0.000000 0.659338 0.000000
O O12 0.250000 0.850589 0.320824
O O13 0.349119 0.773814 0.215138
O O14 0.358631 0.000000 0.327195
O O15 0.035072 0.851054 0.155332
O O16 0.136492 0.000000 0.099449
O O17 0.060815 0.000000 0.770883
#
# Coordination Sequence:
#
# PCOD8207988 Si02
#       6
#     8   8   8   8   8   8
#     4   9  18  32  48  66  91 124 158 190 227 273
#     4  10  20  32  47  69  96 123 153 193 236 273
#     4   9  17  29  46  67  90 118 150 182 221 273
#     4   9  17  29  46  68  93 121 152 186 224 268
#     4   9  17  29  45  67  95 122 148 182 226 272
#     4  10  19  30  46  68  94 122 151 187 230 273
#
# _framework density 18.276446
#
# number of rings (size 3 to 8) (size 9 to 14) (size 15 to 20)
#    0.000    2.667    0.000    2.000    0.000    4.333 
#    0.000    0.000    0.000    1.000    0.000    0.000 
#    0.000    0.000    0.000    0.000    0.000    0.000 
#
# Total GULP energy -594947.072037 kJ/mol
# GULP energy per Si atom -12394.730667 kJ/mol
# Density = 1.823485 g / cm^3
# Si number density = 18.276446 Si / 1000 Ang^3
#
#
#
# Elastic Constant Matrix: (Units=GPa)
#
#
# Indices 1 2 3 4 5 6 
#
# 1 23.8972 9.8600 3.7301 0.0000 0.0000 0.0000
# 2 9.8600 101.8694 53.1049 0.0000 0.0000 0.0000
# 3 3.7301 53.1049 87.8437 0.0000 0.0000 0.0000
# 4 0.0000 0.0000 0.0000 26.8294 0.0000 0.0000
# 5 0.0000 0.0000 0.0000 0.0000 25.5811 0.0000
# 6 0.0000 0.0000 0.0000 0.0000 0.0000 14.6652
#
#
#
# Elastic Compliance Matrix: (Units=1/GPa)
#
#
# Indices 1 2 3 4 5 6 
#
# 1 0.043650 -0.004758 0.001023 0.000000 0.000000 0.000000
# 2 -0.004758 0.014852 -0.008777 0.000000 0.000000 0.000000
# 3 0.001023 -0.008777 0.016646 0.000000 0.000000 0.000000
# 4 0.000000 0.000000 0.000000 0.037273 0.000000 0.000000
# 5 0.000000 0.000000 0.000000 0.000000 0.039091 0.000000
# 6 0.000000 0.000000 0.000000 0.000000 0.000000 0.068189
#
#
# Mechanical properties :
#
#
# Convention : Reuss Voigt Hill
#
# Bulk Modulus (GPa) = 19.95039 38.55560 29.25299
# Shear Modulus (GPa) = 19.12536 23.20949 21.16742
#
# Velocity S-wave (km/s) = 3.23840 3.56745 3.40690
# Velocity P-wave (km/s) = 4.99225 6.17337 5.61396
#
# Compressibility (1/GPa) = 0.05012433
#
# Stress axis : x y z
#
# Youngs Moduli (GPa) = 22.90975 67.32912 60.07327
#
# Poissons Ratio (x) = 0.32036 -0.06145
# Poissons Ratio (y) = 0.10901 0.52725
# Poissons Ratio (z) = -0.02344 0.59094
#
# Static dielectric constant tensor:
#      x y z
#    x 3.171710 0.000000 0.000000 
#    y 0.000000 3.725860 0.000000 
#    z 0.000000 0.000000 3.454460 
# 
# 
# High freq. dielectric constant tensor:
#      x y z
#    x 1.670910 0.000000 0.000000 
#    y 0.000000 1.713460 0.000000 
#    z 0.000000 0.000000 1.700760 
# 
# From -- ./inp_files/18532.got.cif
#   From: 2010.03.12/outbox.cif.g09.slc.cpg/sg51_10_cif.got.tgz:18532.got - 2010.04.16 13:43:02.
