data_PCOD8207229
_publ_section_title
;
Structure prediction by ZEFSAII (Michael W. Deem and Ramdas Pophale) SiO2 
 PCOD8207229
Probable space group: P M M A
;
_chemical_formula_sum "Si O2"
_cell_formula_units_Z 48
_cell_length_a 16.221875
_cell_length_b 25.938230
_cell_length_c 5.263554
_cell_angle_alpha 90.000000
_cell_angle_beta 90.000000
_cell_angle_gamma 90.000000
_cell_volume 2214.728377
_symmetry_space_group_name_H-M "P M M A"
_symmetry_group_IT_number 51
_symmetry_cell_setting 'orthorhombic'
loop_
_space_group_symop_operation_xyz
x,y,z
1/2-x,-y,z
1/2+x,-y,-z
-x,y,-z
-x,-y,-z
1/2+x,y,-z
1/2-x,y,z
x,-y,z
loop_
_atom_site_type_symbol
_atom_site_label
_atom_site_fract_x
_atom_site_fract_y
_atom_site_fract_z
Si Si1 0.154624 0.213700 0.612801
Si Si2 0.910584 0.060064 0.784175
Si Si3 0.406154 0.102992 0.713395
Si Si4 0.902068 0.441272 0.477069
Si Si5 0.344985 0.722580 0.120968
Si Si6 0.094991 0.610899 0.024824
O O1 0.250000 0.198197 0.575300
O O2 0.100045 0.162875 0.645346
O O3 0.123048 0.245815 0.367508
O O4 0.141066 0.245338 0.867601
O O5 0.863685 0.070873 0.518348
O O6 0.999342 0.086507 0.749263
O O7 0.919786 0.000000 0.841521
O O8 0.862321 0.087518 0.019415
O O9 0.874736 0.500000 0.432847
O O10 0.865165 0.407065 0.243617
O O11 0.000000 0.435852 0.500000
O O12 0.863816 0.420366 0.741294
O O13 0.250000 0.707608 0.160564
O O14 0.396857 0.671050 0.084578
O O15 0.000000 0.596022 0.000000
#
# Coordination Sequence:
#
# PCOD8207229 Si02
#       6
#     8   8   8   8   8   8
#     4  10  21  37  55  73 100 138 181 216 252 311
#     4  10  19  33  54  77 106 137 163 204 259 319
#     4  10  18  32  52  76 100 130 171 208 251 301
#     4   9  17  30  52  78 107 138 171 211 265 321
#     4  10  21  38  55  73 102 147 180 210 267 325
#     4  10  19  33  52  79 106 133 175 222 262 301
#
# _framework density 21.673086999999999
#
# number of rings (size 3 to 8) (size 9 to 14) (size 15 to 20)
#    0.000    2.167    0.000    5.000    0.000    2.000 
#    9.000    0.000    0.000    8.500    0.000    0.000 
#    0.000    0.000    0.000    0.000    0.000    0.000 
#
# Total GULP energy -594892.422172 kJ/mol
# GULP energy per Si atom -12393.592129 kJ/mol
# Density = 2.162376 g / cm^3
# Si number density = 21.673087 Si / 1000 Ang^3
#
#
#
# Elastic Constant Matrix: (Units=GPa)
#
#
# Indices 1 2 3 4 5 6 
#
# 1 7.0474 14.2681 13.8515 0.0000 0.0000 0.0000
# 2 14.2681 165.0131 89.0269 0.0000 0.0000 0.0000
# 3 13.8515 89.0269 247.6785 0.0000 0.0000 0.0000
# 4 0.0000 0.0000 0.0000 50.7863 0.0000 0.0000
# 5 0.0000 0.0000 0.0000 0.0000 3.7806 0.0000
# 6 0.0000 0.0000 0.0000 0.0000 0.0000 -0.3206
#
#
#
# Elastic Compliance Matrix: (Units=1/GPa)
#
#
# Indices 1 2 3 4 5 6 
#
# 1 0.177807 -0.012418 -0.005480 0.000000 0.000000 0.000000
# 2 -0.012418 0.008385 -0.002320 0.000000 0.000000 0.000000
# 3 -0.005480 -0.002320 0.005178 0.000000 0.000000 0.000000
# 4 0.000000 0.000000 0.000000 0.019690 0.000000 0.000000
# 5 0.000000 0.000000 0.000000 0.000000 0.264505 0.000000
# 6 0.000000 0.000000 0.000000 0.000000 0.000000 -3.119443
#
#
# Mechanical properties :
#
#
# Convention : Reuss Voigt Hill
#
# Bulk Modulus (GPa) = 6.62536 72.67021 39.64779
# Shear Modulus (GPa) = -1.95838 31.02212 14.53187
#
# Velocity S-wave (km/s) = -0.95161 3.78744 2.59222
# Velocity P-wave (km/s) = 1.36241 7.26149 5.22424
#
# Compressibility (1/GPa) = 0.15093523
#
# Stress axis : x y z
#
# Youngs Moduli (GPa) = 5.62406 119.25655 193.13388
#
# Poissons Ratio (x) = 1.48088 1.05846
# Poissons Ratio (y) = 0.06984 0.44799
# Poissons Ratio (z) = 0.03082 0.27663
#
# Static dielectric constant tensor:
#      x y z
#    x 3.346610 0.000000 0.000000 
#    y 0.000000 3.901310 0.000000 
#    z 0.000000 0.000000 15.212730 
# 
# 
# High freq. dielectric constant tensor:
#      x y z
#    x 1.784020 0.000000 0.000000 
#    y 0.000000 1.856710 0.000000 
#    z 0.000000 0.000000 1.893430 
# 
# From -- ./inp_files/1441.got.cif
#   From: 2010.03.12/outbox.cif.g09.slc.cpg/sg51_1_cif.got.tgz:1441.got - 2010.04.16 13:43:02.
