data_PCOD8207921
_publ_section_title
;
Structure prediction by ZEFSAII (Michael W. Deem and Ramdas Pophale) SiO2 
 PCOD8207921
Probable space group: P M M A
;
_chemical_formula_sum "Si O2"
_cell_formula_units_Z 64
_cell_length_a 9.146811
_cell_length_b 14.282054
_cell_length_c 31.079424
_cell_angle_alpha 90.000000
_cell_angle_beta 90.000000
_cell_angle_gamma 90.000000
_cell_volume 4060.068282
_symmetry_space_group_name_H-M "P M M A"
_symmetry_group_IT_number 51
_symmetry_cell_setting 'orthorhombic'
loop_
_space_group_symop_operation_xyz
x,y,z
1/2-x,-y,z
1/2+x,-y,-z
-x,y,-z
-x,-y,-z
1/2+x,y,-z
1/2-x,y,z
x,-y,z
loop_
_atom_site_type_symbol
_atom_site_label
_atom_site_fract_x
_atom_site_fract_y
_atom_site_fract_z
Si Si1 0.420801 0.890977 0.201842
Si Si2 0.921149 0.107096 0.042696
Si Si3 0.084996 0.888500 0.541428
Si Si4 0.919792 0.606284 0.845670
Si Si5 0.076346 0.398266 0.252550
Si Si6 0.579118 0.109048 0.626186
Si Si7 0.923595 0.207141 0.711544
Si Si8 0.076832 0.219004 0.873565
O O1 0.250000 0.868545 0.195368
O O2 0.474664 0.856802 0.248655
O O3 0.511063 0.836671 0.166286
O O4 0.455000 0.000000 0.197743
O O5 0.750000 0.116583 0.034990
O O6 0.973942 0.168969 0.082713
O O7 0.966484 0.000000 0.052242
O O8 0.000000 0.144884 0.000000
O O9 0.250000 0.849869 0.540769
O O10 0.000000 0.848083 0.500000
O O11 0.005247 0.852925 0.584440
O O12 0.083255 0.000000 0.540105
O O13 0.750000 0.632602 0.850376
O O14 0.948094 0.500000 0.860975
O O15 0.972158 0.619452 0.796479
O O16 0.015522 0.675331 0.875002
O O17 0.250000 0.400206 0.253775
O O18 0.016268 0.500000 0.268504
O O19 0.016792 0.313634 0.282224
O O20 0.750000 0.127638 0.618783
O O21 0.514883 0.165201 0.667114
O O22 0.548554 0.000000 0.634416
O O23 0.750000 0.205912 0.709258
O O24 0.250000 0.220176 0.869025
#
# Coordination Sequence:
#
# PCOD8207921 Si02
#       8
#     8   8   8   8   8   8   8   8
#     4  10  19  30  45  65  90 124 164 196 219 256
#     4   9  19  35  52  70  93 121 152 186 226 271
#     4   9  16  26  40  57  78 106 142 183 221 259
#     4   9  17  31  51  72  93 119 155 195 228 264
#     4   8  13  23  42  65  86 110 145 191 231 256
#     4   9  16  25  38  57  82 114 148 181 218 257
#     4   9  15  25  41  61  87 117 152 189 221 258
#     4  11  21  32  48  71  99 124 147 184 234 282
#
# _framework density 15.763280999999999
#
# number of rings (size 3 to 8) (size 9 to 14) (size 15 to 20)
#    0.000    2.750    1.250    2.250    0.000    5.000 
#    0.000    1.875    0.000    1.875    0.000    0.000 
#    0.000    0.500    0.000    0.875    0.000    1.250 
#
# Total GULP energy -793418.912245 kJ/mol
# GULP energy per Si atom -12397.170504 kJ/mol
# Density = 1.572740 g / cm^3
# Si number density = 15.763281 Si / 1000 Ang^3
#
#
#
# Elastic Constant Matrix: (Units=GPa)
#
#
# Indices 1 2 3 4 5 6 
#
# 1 49.1290 32.7064 45.7813 0.0000 0.0000 0.0000
# 2 32.7064 93.4277 58.3756 0.0000 0.0000 0.0000
# 3 45.7813 58.3756 131.6362 0.0000 0.0000 0.0000
# 4 0.0000 0.0000 0.0000 11.2284 0.0000 0.0000
# 5 0.0000 0.0000 0.0000 0.0000 23.3559 0.0000
# 6 0.0000 0.0000 0.0000 0.0000 0.0000 15.6408
#
#
#
# Elastic Compliance Matrix: (Units=1/GPa)
#
#
# Indices 1 2 3 4 5 6 
#
# 1 0.032332 -0.005938 -0.008611 0.000000 0.000000 0.000000
# 2 -0.005938 0.015896 -0.004984 0.000000 0.000000 0.000000
# 3 -0.008611 -0.004984 0.012802 0.000000 0.000000 0.000000
# 4 0.000000 0.000000 0.000000 0.089060 0.000000 0.000000
# 5 0.000000 0.000000 0.000000 0.000000 0.042816 0.000000
# 6 0.000000 0.000000 0.000000 0.000000 0.000000 0.063935
#
#
# Mechanical properties :
#
#
# Convention : Reuss Voigt Hill
#
# Bulk Modulus (GPa) = 45.53065 60.87994 53.20529
# Shear Modulus (GPa) = 16.48912 19.20033 17.84472
#
# Velocity S-wave (km/s) = 3.23777 3.49383 3.36824
# Velocity P-wave (km/s) = 6.55166 7.41492 6.99662
#
# Compressibility (1/GPa) = 0.02196323
#
# Stress axis : x y z
#
# Youngs Moduli (GPa) = 30.92883 62.90694 78.11269
#
# Poissons Ratio (x) = 0.37354 0.67267
# Poissons Ratio (y) = 0.18365 0.38934
# Poissons Ratio (z) = 0.26634 0.31355
#
# Static dielectric constant tensor:
#      x y z
#    x 2.811080 0.000000 0.000000 
#    y 0.000000 3.147350 0.000000 
#    z 0.000000 0.000000 3.062090 
# 
# 
# High freq. dielectric constant tensor:
#      x y z
#    x 1.583240 0.000000 0.000000 
#    y 0.000000 1.590350 0.000000 
#    z 0.000000 0.000000 1.595880 
# 
# From -- ./inp_files/37576.got.cif
#   From: 2010.03.12/outbox.cif.g09.slc.cpg/sg51_19_cif.got.tgz:37576.got - 2010.04.16 13:43:02.
