data_PCOD8207631
_publ_section_title
;
Structure prediction by ZEFSAII (Michael W. Deem and Ramdas Pophale) SiO2 
 PCOD8207631
Probable space group: P M M A
;
_chemical_formula_sum "Si O2"
_cell_formula_units_Z 64
_cell_length_a 8.970869
_cell_length_b 26.502715
_cell_length_c 18.373644
_cell_angle_alpha 90.000000
_cell_angle_beta 90.000000
_cell_angle_gamma 90.000000
_cell_volume 4368.377671
_symmetry_space_group_name_H-M "P M M A"
_symmetry_group_IT_number 51
_symmetry_cell_setting 'orthorhombic'
loop_
_space_group_symop_operation_xyz
x,y,z
1/2-x,-y,z
1/2+x,-y,-z
-x,y,-z
-x,-y,-z
1/2+x,y,-z
1/2-x,y,z
x,-y,z
loop_
_atom_site_type_symbol
_atom_site_label
_atom_site_fract_x
_atom_site_fract_y
_atom_site_fract_z
Si Si1 0.920241 0.852665 0.573202
Si Si2 0.920817 0.108213 0.203766
Si Si3 0.078304 0.847580 0.076578
Si Si4 0.418055 0.258648 0.153952
Si Si5 0.575351 0.554782 0.921853
Si Si6 0.573716 0.347583 0.078938
Si Si7 0.923659 0.943178 0.346125
Si Si8 0.081687 0.193879 0.281098
O O1 0.750000 0.863007 0.554070
O O2 0.937718 0.806476 0.631379
O O3 0.000000 0.835024 0.500000
O O4 0.983428 0.905061 0.604306
O O5 0.750000 0.107524 0.179405
O O6 0.959289 0.062723 0.259492
O O7 0.018376 0.108285 0.130219
O O8 0.954171 0.158478 0.249417
O O9 0.250000 0.857444 0.063648
O O10 0.046078 0.792868 0.111086
O O11 0.000000 0.851794 0.000000
O O12 0.250000 0.276975 0.136050
O O13 0.535412 0.300763 0.130532
O O14 0.436171 0.248289 0.241295
O O15 0.750000 0.566751 0.929971
O O16 0.551959 0.500000 0.882490
O O17 0.493162 0.601676 0.882211
O O18 0.500000 0.551613 0.000000
O O19 0.750000 0.352170 0.070476
O O20 0.500000 0.339110 0.000000
O O21 0.750000 0.931856 0.359558
O O22 0.966378 0.000000 0.368889
O O23 0.250000 0.173567 0.261748
#
# Coordination Sequence:
#
# PCOD8207631 Si02
#       8
#     8   8   8   8   8   8   8   8
#     4  10  19  31  47  67  88 109 133 159 189 224
#     4   9  16  27  44  62  79 100 126 157 192 232
#     4  10  19  29  42  59  79 102 128 161 199 238
#     4   9  17  29  42  56  76 101 129 162 198 235
#     4   9  16  26  39  52  68  95 132 172 211 248
#     4  11  20  27  37  54  77 104 134 171 211 246
#     4   9  18  32  48  65  84 106 131 158 190 228
#     4   8  16  30  45  59  78 105 133 159 188 228
#
# _framework density 14.650748
#
# number of rings (size 3 to 8) (size 9 to 14) (size 15 to 20)
#    0.000    2.625    0.000    4.500    0.000    5.750 
#    0.000    0.000    0.000    0.375    0.000    0.000 
#    0.000    0.000    0.000    0.000    0.000    0.625 
#
# Total GULP energy -792934.277781 kJ/mol
# GULP energy per Si atom -12389.598090 kJ/mol
# Density = 1.461740 g / cm^3
# Si number density = 14.650748 Si / 1000 Ang^3
#
#
#
# Elastic Constant Matrix: (Units=GPa)
#
#
# Indices 1 2 3 4 5 6 
#
# 1 85.9038 27.6386 41.0760 0.0000 0.0000 0.0000
# 2 27.6386 48.4449 29.2949 0.0000 0.0000 0.0000
# 3 41.0760 29.2949 90.5222 0.0000 0.0000 0.0000
# 4 0.0000 0.0000 0.0000 10.2620 0.0000 0.0000
# 5 0.0000 0.0000 0.0000 0.0000 22.6409 0.0000
# 6 0.0000 0.0000 0.0000 0.0000 0.0000 19.1972
#
#
#
# Elastic Compliance Matrix: (Units=1/GPa)
#
#
# Indices 1 2 3 4 5 6 
#
# 1 0.016133 -0.005940 -0.005399 0.000000 0.000000 0.000000
# 2 -0.005940 0.027851 -0.006318 0.000000 0.000000 0.000000
# 3 -0.005399 -0.006318 0.015541 0.000000 0.000000 0.000000
# 4 0.000000 0.000000 0.000000 0.097446 0.000000 0.000000
# 5 0.000000 0.000000 0.000000 0.000000 0.044168 0.000000
# 6 0.000000 0.000000 0.000000 0.000000 0.000000 0.052091
#
#
# Mechanical properties :
#
#
# Convention : Reuss Voigt Hill
#
# Bulk Modulus (GPa) = 41.29959 46.76555 44.03257
# Shear Modulus (GPa) = 16.85686 18.87745 17.86715
#
# Velocity S-wave (km/s) = 3.39570 3.59346 3.49598
# Velocity P-wave (km/s) = 6.60492 7.01476 6.81292
#
# Compressibility (1/GPa) = 0.02421331
#
# Stress axis : x y z
#
# Youngs Moduli (GPa) = 61.98328 35.90495 64.34452
#
# Poissons Ratio (x) = 0.21327 0.34737
# Poissons Ratio (y) = 0.36817 0.40653
# Poissons Ratio (z) = 0.33462 0.22685
#
# Static dielectric constant tensor:
#      x y z
#    x 2.977360 0.000000 0.000000 
#    y 0.000000 2.993530 0.000000 
#    z 0.000000 0.000000 2.811430 
# 
# 
# High freq. dielectric constant tensor:
#      x y z
#    x 1.577140 0.000000 0.000000 
#    y 0.000000 1.529940 0.000000 
#    z 0.000000 0.000000 1.532670 
# 
# From -- ./inp_files/28665.got.cif
#   From: 2010.03.12/outbox.cif.g09.slc.cpg/sg51_15_cif.got.tgz:28665.got - 2010.04.16 13:43:02.
