data_PCOD8207887
_publ_section_title
;
Structure prediction by ZEFSAII (Michael W. Deem and Ramdas Pophale) SiO2 
 PCOD8207887
Probable space group: P M M A
;
_chemical_formula_sum "Si O2"
_cell_formula_units_Z 56
_cell_length_a 9.288006
_cell_length_b 20.320163
_cell_length_c 15.305245
_cell_angle_alpha 90.000000
_cell_angle_beta 90.000000
_cell_angle_gamma 90.000000
_cell_volume 2888.616985
_symmetry_space_group_name_H-M "P M M A"
_symmetry_group_IT_number 51
_symmetry_cell_setting 'orthorhombic'
loop_
_space_group_symop_operation_xyz
x,y,z
1/2-x,-y,z
1/2+x,-y,-z
-x,y,-z
-x,-y,-z
1/2+x,y,-z
1/2-x,y,z
x,-y,z
loop_
_atom_site_type_symbol
_atom_site_label
_atom_site_fract_x
_atom_site_fract_y
_atom_site_fract_z
Si Si1 0.415407 0.601676 0.083236
Si Si2 0.917028 0.886394 0.915132
Si Si3 0.089755 0.256421 0.143088
Si Si4 0.583651 0.428271 0.255385
Si Si5 0.582117 0.710499 0.309734
Si Si6 0.914107 0.925193 0.255117
Si Si7 0.081193 0.168105 0.586625
O O1 0.250000 0.578579 0.079067
O O2 0.430034 0.680492 0.081453
O O3 0.485663 0.572256 0.170018
O O4 0.500000 0.572943 0.000000
O O5 0.750000 0.907029 0.920881
O O6 0.937338 0.807768 0.914757
O O7 0.983801 0.917127 0.828122
O O8 0.000000 0.914339 0.000000
O O9 0.250000 0.255823 0.183702
O O10 0.980775 0.257792 0.222781
O O11 0.750000 0.419247 0.227242
O O12 0.561720 0.500000 0.301696
O O13 0.538439 0.367236 0.319383
O O14 0.750000 0.717989 0.297462
O O15 0.535308 0.755827 0.391606
O O16 0.750000 0.907182 0.228801
O O17 0.967598 0.878502 0.333645
O O18 0.924517 0.000000 0.288617
O O19 0.250000 0.161252 0.569060
O O20 0.000000 0.145266 0.500000
#
# Coordination Sequence:
#
# PCOD8207887 Si02
#       7
#     8   8   8   8   8   8   8
#     4  10  19  30  44  66  98 135 177 224 272 321
#     4  11  22  35  55  82 113 150 192 234 278 326
#     4   9  18  31  49  75 104 137 179 227 275 320
#     4   9  18  32  50  72  98 133 176 220 268 321
#     4   9  17  32  55  79 105 138 176 219 269 321
#     4  10  22  41  61  82 113 150 186 228 276 325
#     4  10  21  37  60  89 115 143 179 222 275 333
#
# _framework density 19.386441000000001
#
# number of rings (size 3 to 8) (size 9 to 14) (size 15 to 20)
#    0.000    2.286    1.429    1.286    0.000    3.714 
#    0.000    0.000    0.000    0.429    0.000    0.000 
#    0.000    0.000    0.000    0.000    0.000    0.000 
#
# Total GULP energy -694145.453807 kJ/mol
# GULP energy per Si atom -12395.454532 kJ/mol
# Density = 1.934232 g / cm^3
# Si number density = 19.386441 Si / 1000 Ang^3
#
#
#
# Elastic Constant Matrix: (Units=GPa)
#
#
# Indices 1 2 3 4 5 6 
#
# 1 68.8364 33.1929 46.5058 0.0000 0.0000 0.0000
# 2 33.1929 106.7920 42.3391 0.0000 0.0000 0.0000
# 3 46.5058 42.3391 103.8974 0.0000 0.0000 0.0000
# 4 0.0000 0.0000 0.0000 7.2495 0.0000 0.0000
# 5 0.0000 0.0000 0.0000 0.0000 30.7019 0.0000
# 6 0.0000 0.0000 0.0000 0.0000 0.0000 17.6711
#
#
#
# Elastic Compliance Matrix: (Units=1/GPa)
#
#
# Indices 1 2 3 4 5 6 
#
# 1 0.021856 -0.003476 -0.008366 0.000000 0.000000 0.000000
# 2 -0.003476 0.011721 -0.003221 0.000000 0.000000 0.000000
# 3 -0.008366 -0.003221 0.014682 0.000000 0.000000 0.000000
# 4 0.000000 0.000000 0.000000 0.137941 0.000000 0.000000
# 5 0.000000 0.000000 0.000000 0.000000 0.032571 0.000000
# 6 0.000000 0.000000 0.000000 0.000000 0.000000 0.056590
#
#
# Mechanical properties :
#
#
# Convention : Reuss Voigt Hill
#
# Bulk Modulus (GPa) = 55.14798 58.17793 56.66296
# Shear Modulus (GPa) = 16.04973 21.62368 18.83670
#
# Velocity S-wave (km/s) = 2.88042 3.34339 3.12050
# Velocity P-wave (km/s) = 6.29054 6.70664 6.50192
#
# Compressibility (1/GPa) = 0.01813303
#
# Stress axis : x y z
#
# Youngs Moduli (GPa) = 45.75467 85.31482 68.10995
#
# Poissons Ratio (x) = 0.29657 0.56983
# Poissons Ratio (y) = 0.15905 0.21935
# Poissons Ratio (z) = 0.38280 0.27476
#
# Static dielectric constant tensor:
#      x y z
#    x 3.798790 0.000000 0.000000 
#    y 0.000000 3.896850 0.000000 
#    z 0.000000 0.000000 3.150660 
# 
# 
# High freq. dielectric constant tensor:
#      x y z
#    x 1.755580 0.000000 0.000000 
#    y 0.000000 1.769700 0.000000 
#    z 0.000000 0.000000 1.714240 
# 
# From -- ./inp_files/21755.got.cif
#   From: 2010.03.12/outbox.cif.g09.slc.cpg/sg51_11_cif.got.tgz:21755.got - 2010.04.16 13:43:02.
