data_PCOD8207996
_publ_section_title
;
Structure prediction by ZEFSAII (Michael W. Deem and Ramdas Pophale) SiO2 
 PCOD8207996
Probable space group: P M M A
;
_chemical_formula_sum "Si O2"
_cell_formula_units_Z 64
_cell_length_a 28.149519
_cell_length_b 14.635635
_cell_length_c 9.119099
_cell_angle_alpha 90.000000
_cell_angle_beta 90.000000
_cell_angle_gamma 90.000000
_cell_volume 3756.941900
_symmetry_space_group_name_H-M "P M M A"
_symmetry_group_IT_number 51
_symmetry_cell_setting 'orthorhombic'
loop_
_space_group_symop_operation_xyz
x,y,z
1/2-x,-y,z
1/2+x,-y,-z
-x,y,-z
-x,-y,-z
1/2+x,y,-z
1/2-x,y,z
x,-y,z
loop_
_atom_site_type_symbol
_atom_site_label
_atom_site_fract_x
_atom_site_fract_y
_atom_site_fract_z
Si Si1 0.384593 0.105765 0.957915
Si Si2 0.698109 0.399082 0.240980
Si Si3 0.055990 0.896793 0.680250
Si Si4 0.369878 0.601267 0.498714
Si Si5 0.048767 0.742819 0.440997
Si Si6 0.193987 0.398950 0.230734
Si Si7 0.804071 0.251182 0.993664
Si Si8 0.028788 0.174766 0.140761
O O1 0.402705 0.132000 0.794681
O O2 0.337602 0.163653 0.991742
O O3 0.370082 0.000000 0.965124
O O4 0.425406 0.122170 0.079256
O O5 0.750000 0.394609 0.320207
O O6 0.694121 0.500000 0.164411
O O7 0.653345 0.386311 0.344244
O O8 0.695057 0.314658 0.133990
O O9 0.057527 0.836300 0.532948
O O10 0.006235 0.891944 0.769001
O O11 0.063174 0.000000 0.626233
O O12 0.391657 0.500000 0.479412
O O13 0.410653 0.673228 0.478538
O O14 0.326967 0.618867 0.389185
O O15 0.046530 0.752985 0.263676
O O16 0.000000 0.699158 0.500000
O O17 0.250000 0.392630 0.240646
O O18 0.178925 0.500000 0.171696
O O19 0.174581 0.316693 0.131716
O O20 0.750000 0.217717 0.961809
O O21 0.000000 0.218363 0.000000
#
# Coordination Sequence:
#
# PCOD8207996 Si02
#       8
#     8   8   8   8   8   8   8   8
#     4  10  19  31  47  67  94 125 154 186 224 271
#     4   9  17  30  49  72  94 117 150 193 236 270
#     4   9  18  32  50  71  92 115 149 193 237 274
#     4  10  19  31  48  69  94 123 153 186 225 273
#     4  10  20  32  48  69  94 123 152 186 227 274
#     4   9  17  30  48  69  91 116 150 193 236 271
#     4  10  19  30  46  68  95 125 154 186 224 270
#     4   9  18  32  50  70  91 117 151 193 237 272
#
# _framework density 17.035132000000001
#
# number of rings (size 3 to 8) (size 9 to 14) (size 15 to 20)
#    0.000    2.500    0.000    2.625    0.000    7.750 
#    0.000    0.000    0.000    0.375    0.000    0.000 
#    0.000   10.000    0.000    0.000    0.000    0.000 
#
# Total GULP energy -792910.337507 kJ/mol
# GULP energy per Si atom -12389.224024 kJ/mol
# Density = 1.699636 g / cm^3
# Si number density = 17.035132 Si / 1000 Ang^3
#
#
#
# Elastic Constant Matrix: (Units=GPa)
#
#
# Indices 1 2 3 4 5 6 
#
# 1 35.6405 36.6817 12.1886 0.0000 0.0000 0.0000
# 2 36.6817 79.6495 29.8618 0.0000 0.0000 0.0000
# 3 12.1886 29.8618 75.9043 0.0000 0.0000 0.0000
# 4 0.0000 0.0000 0.0000 24.5919 0.0000 0.0000
# 5 0.0000 0.0000 0.0000 0.0000 -0.2870 0.0000
# 6 0.0000 0.0000 0.0000 0.0000 0.0000 32.0981
#
#
#
# Elastic Compliance Matrix: (Units=1/GPa)
#
#
# Indices 1 2 3 4 5 6 
#
# 1 0.053449 -0.025100 0.001292 0.000000 0.000000 0.000000
# 2 -0.025100 0.026514 -0.006401 0.000000 0.000000 0.000000
# 3 0.001292 -0.006401 0.015485 0.000000 0.000000 0.000000
# 4 0.000000 0.000000 0.000000 0.040664 0.000000 0.000000
# 5 0.000000 0.000000 0.000000 0.000000 -3.484077 0.000000
# 6 0.000000 0.000000 0.000000 0.000000 0.000000 0.031155
#
#
# Mechanical properties :
#
#
# Convention : Reuss Voigt Hill
#
# Bulk Modulus (GPa) = 28.54582 38.73984 33.64283
# Shear Modulus (GPa) = -1.54097 18.77807 8.61855
#
# Velocity S-wave (km/s) = -0.95213 3.32371 2.25172
# Velocity P-wave (km/s) = 3.94774 6.12535 5.15289
#
# Compressibility (1/GPa) = 0.03503140
#
# Stress axis : x y z
#
# Youngs Moduli (GPa) = 18.70934 37.71576 64.57823
#
# Poissons Ratio (x) = 0.94666 -0.08342
# Poissons Ratio (y) = 0.46960 0.41333
# Poissons Ratio (z) = -0.02417 0.24140
#
# Static dielectric constant tensor:
#      x y z
#    x 3.684750 0.000000 0.000000 
#    y 0.000000 3.075400 0.000000 
#    z 0.000000 0.000000 3.874710 
# 
# 
# High freq. dielectric constant tensor:
#      x y z
#    x 1.652500 0.000000 0.000000 
#    y 0.000000 1.642230 0.000000 
#    z 0.000000 0.000000 1.661260 
# 
# From -- ./inp_files/13167.got.cif
#   From: 2010.03.12/outbox.cif.g09.slc.cpg/sg51_7_cif.got.tgz:13167.got - 2010.04.16 13:43:02.
