data_PCOD8207891
_publ_section_title
;
Structure prediction by ZEFSAII (Michael W. Deem and Ramdas Pophale) SiO2 
 PCOD8207891
Probable space group: P M M A
;
_chemical_formula_sum "Si O2"
_cell_formula_units_Z 48
_cell_length_a 9.380988
_cell_length_b 13.190940
_cell_length_c 24.798851
_cell_angle_alpha 90.000000
_cell_angle_beta 90.000000
_cell_angle_gamma 90.000000
_cell_volume 3068.710254
_symmetry_space_group_name_H-M "P M M A"
_symmetry_group_IT_number 51
_symmetry_cell_setting 'orthorhombic'
loop_
_space_group_symop_operation_xyz
x,y,z
1/2-x,-y,z
1/2+x,-y,-z
-x,y,-z
-x,-y,-z
1/2+x,y,-z
1/2-x,y,z
x,-y,z
loop_
_atom_site_type_symbol
_atom_site_label
_atom_site_fract_x
_atom_site_fract_y
_atom_site_fract_z
Si Si1 0.404790 0.883959 0.453766
Si Si2 0.086913 0.116919 0.743299
Si Si3 0.912347 0.120822 0.051635
Si Si4 0.913249 0.794350 0.369461
Si Si5 0.911165 0.120342 0.846609
Si Si6 0.084888 0.385504 0.553170
O O1 0.500000 0.829824 0.500000
O O2 0.250000 0.830130 0.451535
O O3 0.484886 0.876585 0.397046
O O4 0.382278 0.000000 0.468928
O O5 0.250000 0.125232 0.763261
O O6 0.058452 0.195187 0.694270
O O7 0.984018 0.154250 0.790873
O O8 0.054618 0.000000 0.726406
O O9 0.750000 0.162739 0.050243
O O10 0.994417 0.163410 0.104171
O O11 0.908808 0.000000 0.052270
O O12 0.000000 0.160529 0.000000
O O13 0.750000 0.823016 0.382242
O O14 0.952135 0.684282 0.394636
O O15 0.750000 0.163813 0.849515
O O16 0.907539 0.000000 0.850329
O O17 0.250000 0.377209 0.538399
O O18 0.042420 0.500000 0.569584
O O19 0.000000 0.350522 0.500000
#
# Coordination Sequence:
#
# PCOD8207891 Si02
#       6
#     8   8   8   8   8   8
#     4  10  20  31  42  57  78 102 126 154 189 228
#     4   9  17  28  40  54  74 101 131 161 193 230
#     4   9  15  22  33  49  69  94 127 167 206 238
#     4  10  19  30  45  62  79 101 129 160 194 234
#     4   9  16  25  36  50  70  97 129 164 199 232
#     4   9  18  32  48  65  83 101 123 155 197 243
#
# _framework density 15.641750999999999
#
# number of rings (size 3 to 8) (size 9 to 14) (size 15 to 20)
#    0.000    2.667    0.000    2.500    0.000    8.333 
#    0.000    1.667    0.000    0.000    0.000    0.000 
#    0.000    0.000    0.000    0.000    0.000    0.833 
#
# Total GULP energy -594930.250351 kJ/mol
# GULP energy per Si atom -12394.380216 kJ/mol
# Density = 1.560615 g / cm^3
# Si number density = 15.641751 Si / 1000 Ang^3
#
#
#
# Elastic Constant Matrix: (Units=GPa)
#
#
# Indices 1 2 3 4 5 6 
#
# 1 126.8510 20.5809 77.6968 0.0000 0.0000 0.0000
# 2 20.5809 39.1066 29.5051 0.0000 0.0000 0.0000
# 3 77.6968 29.5051 129.1292 0.0000 0.0000 0.0000
# 4 0.0000 0.0000 0.0000 9.6988 0.0000 0.0000
# 5 0.0000 0.0000 0.0000 0.0000 31.5504 0.0000
# 6 0.0000 0.0000 0.0000 0.0000 0.0000 8.3501
#
#
#
# Elastic Compliance Matrix: (Units=1/GPa)
#
#
# Indices 1 2 3 4 5 6 
#
# 1 0.012523 -0.001094 -0.007285 0.000000 0.000000 0.000000
# 2 -0.001094 0.030993 -0.006423 0.000000 0.000000 0.000000
# 3 -0.007285 -0.006423 0.013595 0.000000 0.000000 0.000000
# 4 0.000000 0.000000 0.000000 0.103106 0.000000 0.000000
# 5 0.000000 0.000000 0.000000 0.000000 0.031695 0.000000
# 6 0.000000 0.000000 0.000000 0.000000 0.000000 0.119760
#
#
# Mechanical properties :
#
#
# Convention : Reuss Voigt Hill
#
# Bulk Modulus (GPa) = 36.35522 61.18360 48.76941
# Shear Modulus (GPa) = 14.26753 21.07345 17.67049
#
# Velocity S-wave (km/s) = 3.02345 3.67448 3.36475
# Velocity P-wave (km/s) = 5.95661 7.56326 6.80750
#
# Compressibility (1/GPa) = 0.02750637
#
# Stress axis : x y z
#
# Youngs Moduli (GPa) = 79.85396 32.26505 73.55513
#
# Poissons Ratio (x) = 0.03530 0.53585
# Poissons Ratio (y) = 0.08737 0.47248
# Poissons Ratio (z) = 0.58173 0.20725
#
# Static dielectric constant tensor:
#      x y z
#    x 3.293110 0.000000 0.000000 
#    y 0.000000 2.564930 0.000000 
#    z 0.000000 0.000000 2.998350 
# 
# 
# High freq. dielectric constant tensor:
#      x y z
#    x 1.618120 0.000000 0.000000 
#    y 0.000000 1.532900 0.000000 
#    z 0.000000 0.000000 1.595440 
# 
# From -- ./inp_files/34621.got.cif
#   From: 2010.03.12/outbox.cif.g09.slc.cpg/sg51_18_cif.got.tgz:34621.got - 2010.04.16 13:43:02.
