data_PCOD8207118
_publ_section_title
;
Structure prediction by ZEFSAII (Michael W. Deem and Ramdas Pophale) SiO2 
 PCOD8207118
Probable space group: P M M A
;
_chemical_formula_sum "Si O2"
_cell_formula_units_Z 48
_cell_length_a 26.168729
_cell_length_b 9.029565
_cell_length_c 11.781192
_cell_angle_alpha 90.000000
_cell_angle_beta 90.000000
_cell_angle_gamma 90.000000
_cell_volume 2783.804241
_symmetry_space_group_name_H-M "P M M A"
_symmetry_group_IT_number 51
_symmetry_cell_setting 'orthorhombic'
loop_
_space_group_symop_operation_xyz
x,y,z
1/2-x,-y,z
1/2+x,-y,-z
-x,y,-z
-x,-y,-z
1/2+x,y,-z
1/2-x,y,z
x,-y,z
loop_
_atom_site_type_symbol
_atom_site_label
_atom_site_fract_x
_atom_site_fract_y
_atom_site_fract_z
Si Si1 0.379124 0.333350 0.017040
Si Si2 0.946893 0.827522 0.546777
Si Si3 0.465536 0.330985 0.837213
Si Si4 0.432954 0.824495 0.200743
Si Si5 0.889601 0.172937 0.327103
Si Si6 0.191109 0.325288 0.815314
O O1 0.366172 0.500000 0.055400
O O2 0.383556 0.232979 0.130043
O O3 0.432662 0.327524 0.951181
O O4 0.334387 0.272924 0.933895
O O5 0.930817 0.763509 0.669730
O O6 0.899765 0.799763 0.460737
O O7 0.000000 0.755571 0.500000
O O8 0.957576 0.000000 0.563634
O O9 0.476968 0.500000 0.801289
O O10 0.517562 0.243770 0.860026
O O11 0.436295 0.249309 0.736422
O O12 0.434402 0.000000 0.193781
O O13 0.835681 0.244587 0.291028
O O14 0.889099 0.000000 0.296847
O O15 0.250000 0.279617 0.816455
O O16 0.182535 0.500000 0.799917
#
# Coordination Sequence:
#
# PCOD8207118 Si02
#       6
#     8   8   8   8   8   8
#     4   9  19  33  47  68  98 128 159 199 248 299
#     4   9  17  31  47  67 101 139 168 198 241 289
#     4  10  19  31  46  67 100 136 166 200 243 291
#     4  11  20  30  47  69  97 135 172 202 238 285
#     4  10  18  31  52  75 100 130 168 209 244 286
#     4   9  19  37  58  76  98 127 157 200 260 309
#
# _framework density 17.242592999999999
#
# number of rings (size 3 to 8) (size 9 to 14) (size 15 to 20)
#    0.000    2.333    1.667    3.000    0.000    5.667 
#    0.000    4.167    0.000    1.000    0.000    4.667 
#    0.000    0.000    0.000    0.000    0.000    0.000 
#
# Total GULP energy -595045.284008 kJ/mol
# GULP energy per Si atom -12396.776750 kJ/mol
# Density = 1.720335 g / cm^3
# Si number density = 17.242593 Si / 1000 Ang^3
#
#
#
# Elastic Constant Matrix: (Units=GPa)
#
#
# Indices 1 2 3 4 5 6 
#
# 1 89.3600 33.3321 49.9118 0.0000 0.0000 0.0000
# 2 33.3321 69.7139 38.0411 0.0000 0.0000 0.0000
# 3 49.9118 38.0411 104.8308 0.0000 0.0000 0.0000
# 4 0.0000 0.0000 0.0000 14.6558 0.0000 0.0000
# 5 0.0000 0.0000 0.0000 0.0000 14.7757 0.0000
# 6 0.0000 0.0000 0.0000 0.0000 0.0000 19.3237
#
#
#
# Elastic Compliance Matrix: (Units=1/GPa)
#
#
# Indices 1 2 3 4 5 6 
#
# 1 0.016273 -0.004430 -0.006140 0.000000 0.000000 0.000000
# 2 -0.004430 0.019092 -0.004819 0.000000 0.000000 0.000000
# 3 -0.006140 -0.004819 0.014211 0.000000 0.000000 0.000000
# 4 0.000000 0.000000 0.000000 0.068232 0.000000 0.000000
# 5 0.000000 0.000000 0.000000 0.000000 0.067679 0.000000
# 6 0.000000 0.000000 0.000000 0.000000 0.000000 0.051750
#
#
# Mechanical properties :
#
#
# Convention : Reuss Voigt Hill
#
# Bulk Modulus (GPa) = 53.19735 56.27496 54.73615
# Shear Modulus (GPa) = 18.22948 19.25903 18.74426
#
# Velocity S-wave (km/s) = 3.25504 3.34570 3.30068
# Velocity P-wave (km/s) = 6.71166 6.90166 6.80732
#
# Compressibility (1/GPa) = 0.01879793
#
# Stress axis : x y z
#
# Youngs Moduli (GPa) = 61.45287 52.37812 70.36636
#
# Poissons Ratio (x) = 0.23203 0.43206
# Poissons Ratio (y) = 0.27223 0.33909
# Poissons Ratio (z) = 0.37733 0.25241
#
# Static dielectric constant tensor:
#      x y z
#    x 3.040770 0.000000 0.000000 
#    y 0.000000 3.159730 0.000000 
#    z 0.000000 0.000000 3.350530 
# 
# 
# High freq. dielectric constant tensor:
#      x y z
#    x 1.633230 0.000000 0.000000 
#    y 0.000000 1.659210 0.000000 
#    z 0.000000 0.000000 1.665910 
# 
# From -- ./inp_files/18962.got.cif
#   From: 2010.03.12/outbox.cif.g09.slc.cpg/sg51_10_cif.got.tgz:18962.got - 2010.04.16 13:43:02.
