data_PCOD8207663
_publ_section_title
;
Structure prediction by ZEFSAII (Michael W. Deem and Ramdas Pophale) SiO2 
 PCOD8207663
Probable space group: P M M A
;
_chemical_formula_sum "Si O2"
_cell_formula_units_Z 64
_cell_length_a 14.104259
_cell_length_b 9.146740
_cell_length_c 31.093563
_cell_angle_alpha 90.000000
_cell_angle_beta 90.000000
_cell_angle_gamma 90.000000
_cell_volume 4011.318064
_symmetry_space_group_name_H-M "P M M A"
_symmetry_group_IT_number 51
_symmetry_cell_setting 'orthorhombic'
loop_
_space_group_symop_operation_xyz
x,y,z
1/2-x,-y,z
1/2+x,-y,-z
-x,y,-z
-x,-y,-z
1/2+x,y,-z
1/2-x,y,z
x,-y,z
loop_
_atom_site_type_symbol
_atom_site_label
_atom_site_fract_x
_atom_site_fract_y
_atom_site_fract_z
Si Si1 0.548774 0.672189 0.401811
Si Si2 0.637491 0.835444 0.229685
Si Si3 0.105379 0.162531 0.517235
Si Si4 0.648622 0.665985 0.563025
Si Si5 0.360512 0.330222 0.686543
Si Si6 0.041467 0.173227 0.933650
Si Si7 0.644654 0.827181 0.980221
Si Si8 0.640111 0.327580 0.144331
O O1 0.564841 0.500000 0.406890
O O2 0.612190 0.751285 0.437820
O O3 0.438104 0.719548 0.407028
O O4 0.582294 0.724993 0.355099
O O5 0.750000 0.836190 0.231275
O O6 0.599013 0.759959 0.273022
O O7 0.603645 0.742526 0.188743
O O8 0.597105 0.000000 0.226397
O O9 0.164126 0.243849 0.480622
O O10 0.000000 0.156850 0.500000
O O11 0.146397 0.000000 0.524405
O O12 0.750000 0.678206 0.588099
O O13 0.626948 0.500000 0.549193
O O14 0.250000 0.299600 0.678480
O O15 0.378974 0.500000 0.696038
O O16 0.074282 0.261646 0.892410
O O17 0.932352 0.219257 0.944149
O O18 0.049987 0.000000 0.925296
O O19 0.108420 0.223442 0.973010
O O20 0.750000 0.760614 0.970922
O O21 0.650637 0.000000 0.980583
O O22 0.750000 0.287471 0.135419
O O23 0.625394 0.500000 0.147031
#
# Coordination Sequence:
#
# PCOD8207663 Si02
#       8
#     8   8   8   8   8   8   8   8
#     4   9  17  29  44  62  84 110 139 168 200 244
#     4   9  17  29  45  64  85 109 137 169 206 252
#     4   9  17  28  41  58  81 107 135 170 209 243
#     4   9  17  29  44  60  80 109 143 174 202 236
#     4   9  17  29  44  62  85 110 133 161 203 253
#     4   9  16  26  43  65  86 114 153 188 216 253
#     4   8  14  25  41  62  89 119 150 185 222 256
#     4  10  19  29  42  62  89 117 142 174 218 261
#
# _framework density 15.954855999999999
#
# number of rings (size 3 to 8) (size 9 to 14) (size 15 to 20)
#    0.000    3.000    0.000    2.250    0.000    5.500 
#    0.000    2.500    0.000    1.125    0.000    0.875 
#    0.000    3.000    0.000    0.000    0.000    0.000 
#
# Total GULP energy -793201.228367 kJ/mol
# GULP energy per Si atom -12393.769193 kJ/mol
# Density = 1.591854 g / cm^3
# Si number density = 15.954856 Si / 1000 Ang^3
#
#
#
# Elastic Constant Matrix: (Units=GPa)
#
#
# Indices 1 2 3 4 5 6 
#
# 1 86.0934 26.8044 52.0368 0.0000 0.0000 0.0000
# 2 26.8044 66.9866 54.4927 0.0000 0.0000 0.0000
# 3 52.0368 54.4927 138.7298 0.0000 0.0000 0.0000
# 4 0.0000 0.0000 0.0000 27.7093 0.0000 0.0000
# 5 0.0000 0.0000 0.0000 0.0000 21.1296 0.0000
# 6 0.0000 0.0000 0.0000 0.0000 0.0000 10.2658
#
#
#
# Elastic Compliance Matrix: (Units=1/GPa)
#
#
# Indices 1 2 3 4 5 6 
#
# 1 0.015224 -0.002126 -0.004875 0.000000 0.000000 0.000000
# 2 -0.002126 0.022235 -0.007937 0.000000 0.000000 0.000000
# 3 -0.004875 -0.007937 0.012155 0.000000 0.000000 0.000000
# 4 0.000000 0.000000 0.000000 0.036089 0.000000 0.000000
# 5 0.000000 0.000000 0.000000 0.000000 0.047327 0.000000
# 6 0.000000 0.000000 0.000000 0.000000 0.000000 0.097411
#
#
# Mechanical properties :
#
#
# Convention : Reuss Voigt Hill
#
# Bulk Modulus (GPa) = 50.66318 62.05307 56.35813
# Shear Modulus (GPa) = 18.73394 22.38600 20.55997
#
# Velocity S-wave (km/s) = 3.43035 3.74984 3.59365
# Velocity P-wave (km/s) = 6.89295 7.59775 7.25391
#
# Compressibility (1/GPa) = 0.01973820
#
# Stress axis : x y z
#
# Youngs Moduli (GPa) = 65.68598 44.97360 82.27398
#
# Poissons Ratio (x) = 0.09560 0.40112
# Poissons Ratio (y) = 0.13963 0.65298
# Poissons Ratio (z) = 0.32025 0.35694
#
# Static dielectric constant tensor:
#      x y z
#    x 3.098370 0.000000 0.000000 
#    y 0.000000 3.034880 0.000000 
#    z 0.000000 0.000000 2.994250 
# 
# 
# High freq. dielectric constant tensor:
#      x y z
#    x 1.592690 0.000000 0.000000 
#    y 0.000000 1.606090 0.000000 
#    z 0.000000 0.000000 1.599220 
# 
# From -- ./inp_files/37846.got.cif
#   From: 2010.03.12/outbox.cif.g09.slc.cpg/sg51_19_cif.got.tgz:37846.got - 2010.04.16 13:43:02.
