data_PCOD8207301
_publ_section_title
;
Structure prediction by ZEFSAII (Michael W. Deem and Ramdas Pophale) SiO2 
 PCOD8207301
Probable space group: P M M A
;
_chemical_formula_sum "Si O2"
_cell_formula_units_Z 48
_cell_length_a 19.559153
_cell_length_b 13.694394
_cell_length_c 10.065722
_cell_angle_alpha 90.000000
_cell_angle_beta 90.000000
_cell_angle_gamma 90.000000
_cell_volume 2696.111162
_symmetry_space_group_name_H-M "P M M A"
_symmetry_group_IT_number 51
_symmetry_cell_setting 'orthorhombic'
loop_
_space_group_symop_operation_xyz
x,y,z
1/2-x,-y,z
1/2+x,-y,-z
-x,y,-z
-x,-y,-z
1/2+x,y,-z
1/2-x,y,z
x,-y,z
loop_
_atom_site_type_symbol
_atom_site_label
_atom_site_fract_x
_atom_site_fract_y
_atom_site_fract_z
Si Si1 0.670768 0.801477 0.846823
Si Si2 0.569949 0.113674 0.639815
Si Si3 0.922407 0.608250 0.454536
Si Si4 0.828066 0.391282 0.704001
Si Si5 0.828261 0.887065 0.122649
Si Si6 0.076404 0.191053 0.650658
O O1 0.750000 0.829725 0.829570
O O2 0.630042 0.868216 0.743723
O O3 0.657202 0.686650 0.820240
O O4 0.646659 0.824285 0.996277
O O5 0.593110 0.151929 0.496197
O O6 0.501865 0.169048 0.689131
O O7 0.553014 0.000000 0.630250
O O8 0.905169 0.500000 0.397187
O O9 0.875316 0.633216 0.579745
O O10 0.910496 0.691681 0.344032
O O11 0.000000 0.613393 0.500000
O O12 0.750000 0.383030 0.654698
O O13 0.843611 0.500000 0.759937
O O14 0.750000 0.862871 0.158683
O O15 0.873540 0.861042 0.248335
O O16 0.837712 0.000000 0.086152
#
# Coordination Sequence:
#
# PCOD8207301 Si02
#       6
#     8   8   8   8   8   8
#     4  10  20  36  55  77 104 140 183 222 261 313
#     4  11  21  34  54  79 106 137 179 226 261 306
#     4  10  18  32  55  80 106 136 171 213 265 317
#     4   9  17  31  53  79 103 131 172 221 268 311
#     4  10  22  38  54  75 109 148 180 216 264 313
#     4  11  20  36  53  79 110 139 171 217 271 317
#
# _framework density 17.803419999999999
#
# number of rings (size 3 to 8) (size 9 to 14) (size 15 to 20)
#    0.000    1.833    3.333    2.500    0.000    3.000 
#    0.000    2.500    0.000    1.000    0.000    5.833 
#    0.000    0.000    0.000    0.000    0.000    0.000 
#
# Total GULP energy -595205.114318 kJ/mol
# GULP energy per Si atom -12400.106548 kJ/mol
# Density = 1.776290 g / cm^3
# Si number density = 17.803420 Si / 1000 Ang^3
#
#
#
# Elastic Constant Matrix: (Units=GPa)
#
#
# Indices 1 2 3 4 5 6 
#
# 1 78.9708 36.2651 61.3039 0.0000 0.0000 0.0000
# 2 36.2651 127.1100 39.6784 0.0000 0.0000 0.0000
# 3 61.3039 39.6784 75.6865 0.0000 0.0000 0.0000
# 4 0.0000 0.0000 0.0000 29.8103 0.0000 0.0000
# 5 0.0000 0.0000 0.0000 0.0000 24.0610 0.0000
# 6 0.0000 0.0000 0.0000 0.0000 0.0000 24.8986
#
#
#
# Elastic Compliance Matrix: (Units=1/GPa)
#
#
# Indices 1 2 3 4 5 6 
#
# 1 0.034298 -0.001331 -0.027083 0.000000 0.000000 0.000000
# 2 -0.001331 0.009458 -0.003880 0.000000 0.000000 0.000000
# 3 -0.027083 -0.003880 0.037183 0.000000 0.000000 0.000000
# 4 0.000000 0.000000 0.000000 0.033545 0.000000 0.000000
# 5 0.000000 0.000000 0.000000 0.000000 0.041561 0.000000
# 6 0.000000 0.000000 0.000000 0.000000 0.000000 0.040163
#
#
# Mechanical properties :
#
#
# Convention : Reuss Voigt Hill
#
# Bulk Modulus (GPa) = 61.15840 61.80690 61.48265
# Shear Modulus (GPa) = 18.77958 25.38864 22.08411
#
# Velocity S-wave (km/s) = 3.25134 3.78041 3.52581
# Velocity P-wave (km/s) = 6.96574 7.33805 7.15432
#
# Compressibility (1/GPa) = 0.01635098
#
# Stress axis : x y z
#
# Youngs Moduli (GPa) = 29.15611 105.72784 26.89428
#
# Poissons Ratio (x) = 0.14077 0.72837
# Poissons Ratio (y) = 0.03882 0.10435
# Poissons Ratio (z) = 0.78962 0.41023
#
# Static dielectric constant tensor:
#      x y z
#    x 3.283340 0.000000 0.000000 
#    y 0.000000 3.713390 0.000000 
#    z 0.000000 0.000000 3.044550 
# 
# 
# High freq. dielectric constant tensor:
#      x y z
#    x 1.693270 0.000000 0.000000 
#    y 0.000000 1.709770 0.000000 
#    z 0.000000 0.000000 1.657230 
# 
# From -- ./inp_files/10826.got.cif
#   From: 2010.03.12/outbox.cif.g09.slc.cpg/sg51_6_cif.got.tgz:10826.got - 2010.04.16 13:43:02.
