data_PCOD8207478
_publ_section_title
;
Structure prediction by ZEFSAII (Michael W. Deem and Ramdas Pophale) SiO2 
 PCOD8207478
Probable space group: P M M A
;
_chemical_formula_sum "Si O2"
_cell_formula_units_Z 56
_cell_length_a 15.526062
_cell_length_b 8.787245
_cell_length_c 21.180056
_cell_angle_alpha 90.000000
_cell_angle_beta 90.000000
_cell_angle_gamma 90.000000
_cell_volume 2889.622800
_symmetry_space_group_name_H-M "P M M A"
_symmetry_group_IT_number 51
_symmetry_cell_setting 'orthorhombic'
loop_
_space_group_symop_operation_xyz
x,y,z
1/2-x,-y,z
1/2+x,-y,-z
-x,y,-z
-x,-y,-z
1/2+x,y,-z
1/2-x,y,z
x,-y,z
loop_
_atom_site_type_symbol
_atom_site_label
_atom_site_fract_x
_atom_site_fract_y
_atom_site_fract_z
Si Si1 0.601503 0.324070 0.996126
Si Si2 0.656934 0.181556 0.593205
Si Si3 0.652361 0.824881 0.121277
Si Si4 0.986222 0.818113 0.343601
Si Si5 0.154238 0.319304 0.141822
Si Si6 0.908309 0.165252 0.467666
Si Si7 0.514584 0.320518 0.210761
O O1 0.626735 0.500000 0.006439
O O2 0.634807 0.262419 0.928893
O O3 0.500000 0.300962 0.000000
O O4 0.648229 0.223058 0.048401
O O5 0.750000 0.230695 0.620645
O O6 0.583146 0.240805 0.640447
O O7 0.648437 0.251246 0.521333
O O8 0.648580 0.000000 0.586812
O O9 0.750000 0.800779 0.145630
O O10 0.587588 0.720535 0.160624
O O11 0.624551 0.000000 0.128527
O O12 0.921860 0.754448 0.399022
O O13 0.957927 0.751992 0.276999
O O14 0.982652 0.000000 0.341586
O O15 0.250000 0.262364 0.162862
O O16 0.150171 0.500000 0.142095
O O17 0.079309 0.256989 0.188475
O O18 0.000000 0.142355 0.500000
O O19 0.867041 0.000000 0.453599
O O20 0.511433 0.500000 0.217936
#
# Coordination Sequence:
#
# PCOD8207478 Si02
#       7
#     8   8   8   8   8   8   8
#     4  10  18  34  60  86 108 136 176 219 266 322
#     4   8  13  23  44  74 102 129 167 213 260 313
#     4  11  24  40  58  81 108 138 176 226 280 324
#     4   9  17  30  48  71 101 135 170 214 266 311
#     4   9  18  33  53  77 106 140 178 218 258 309
#     4   7  11  22  41  64  91 124 161 202 250 304
#     4  11  22  37  55  76 105 145 189 223 260 318
#
# _framework density 19.379693
#
# number of rings (size 3 to 8) (size 9 to 14) (size 15 to 20)
#    0.000    2.714    1.429    3.000    0.000    2.571 
#    0.000    0.714    0.000    8.571    0.000    0.000 
#    0.000    0.000    0.000    0.000    0.000    0.000 
#
# Total GULP energy -693791.707554 kJ/mol
# GULP energy per Si atom -12389.137635 kJ/mol
# Density = 1.933558 g / cm^3
# Si number density = 19.379693 Si / 1000 Ang^3
#
#
#
# Elastic Constant Matrix: (Units=GPa)
#
#
# Indices 1 2 3 4 5 6 
#
# 1 60.6768 10.3664 4.8520 0.0000 0.0000 0.0000
# 2 10.3664 26.3415 12.4749 0.0000 0.0000 0.0000
# 3 4.8520 12.4749 95.5942 0.0000 0.0000 0.0000
# 4 0.0000 0.0000 0.0000 6.5367 0.0000 0.0000
# 5 0.0000 0.0000 0.0000 0.0000 18.5568 0.0000
# 6 0.0000 0.0000 0.0000 0.0000 0.0000 16.2655
#
#
#
# Elastic Compliance Matrix: (Units=1/GPa)
#
#
# Indices 1 2 3 4 5 6 
#
# 1 0.017669 -0.006959 0.000011 0.000000 0.000000 0.000000
# 2 -0.006959 0.043204 -0.005285 0.000000 0.000000 0.000000
# 3 0.000011 -0.005285 0.011150 0.000000 0.000000 0.000000
# 4 0.000000 0.000000 0.000000 0.152982 0.000000 0.000000
# 5 0.000000 0.000000 0.000000 0.000000 0.053889 0.000000
# 6 0.000000 0.000000 0.000000 0.000000 0.000000 0.061480
#
#
# Mechanical properties :
#
#
# Convention : Reuss Voigt Hill
#
# Bulk Modulus (GPa) = 21.02677 26.44435 23.73556
# Shear Modulus (GPa) = 13.13401 18.59974 15.86687
#
# Velocity S-wave (km/s) = 2.60613 3.10135 2.86446
# Velocity P-wave (km/s) = 4.46423 5.14777 4.81814
#
# Compressibility (1/GPa) = 0.04755842
#
# Stress axis : x y z
#
# Youngs Moduli (GPa) = 56.59717 23.14586 89.68625
#
# Poissons Ratio (x) = 0.16106 -0.00101
# Poissons Ratio (y) = 0.39384 0.47398
# Poissons Ratio (z) = -0.00064 0.12232
#
# Static dielectric constant tensor:
#      x y z
#    x 3.750010 0.000000 0.000000 
#    y 0.000000 2.994980 0.000000 
#    z 0.000000 0.000000 3.685340 
# 
# 
# High freq. dielectric constant tensor:
#      x y z
#    x 1.753340 0.000000 0.000000 
#    y 0.000000 1.697930 0.000000 
#    z 0.000000 0.000000 1.756760 
# 
# From -- ./inp_files/33443.got.cif
#   From: 2010.03.12/outbox.cif.g09.slc.cpg/sg51_17_cif.got.tgz:33443.got - 2010.04.16 13:43:02.
