data_PCOD8207045
_publ_section_title
;
Structure prediction by ZEFSAII (Michael W. Deem and Ramdas Pophale) SiO2 
 PCOD8207045
Probable space group: P M M A
;
_chemical_formula_sum "Si O2"
_cell_formula_units_Z 64
_cell_length_a 9.090640
_cell_length_b 19.513201
_cell_length_c 19.839976
_cell_angle_alpha 90.000000
_cell_angle_beta 90.000000
_cell_angle_gamma 90.000000
_cell_volume 3519.363456
_symmetry_space_group_name_H-M "P M M A"
_symmetry_group_IT_number 51
_symmetry_cell_setting 'orthorhombic'
loop_
_space_group_symop_operation_xyz
x,y,z
1/2-x,-y,z
1/2+x,-y,-z
-x,y,-z
-x,-y,-z
1/2+x,y,-z
1/2-x,y,z
x,-y,z
loop_
_atom_site_type_symbol
_atom_site_label
_atom_site_fract_x
_atom_site_fract_y
_atom_site_fract_z
Si Si1 0.421274 0.703008 0.935015
Si Si2 0.082844 0.242456 0.698303
Si Si3 0.580936 0.577032 0.877395
Si Si4 0.583376 0.425877 0.614066
Si Si5 0.079554 0.177479 0.834030
Si Si6 0.582060 0.605205 0.256513
Si Si7 0.921121 0.278802 0.566326
Si Si8 0.579450 0.079930 0.932005
O O1 0.250000 0.695228 0.949751
O O2 0.486652 0.627645 0.923471
O O3 0.453601 0.750914 0.871242
O O4 0.500000 0.736270 0.000000
O O5 0.250000 0.231815 0.673450
O O6 0.039264 0.185417 0.754503
O O7 0.066605 0.313578 0.737270
O O8 0.979198 0.239539 0.632815
O O9 0.750000 0.601080 0.877269
O O10 0.565649 0.500000 0.906192
O O11 0.521377 0.577743 0.801733
O O12 0.750000 0.415295 0.641084
O O13 0.570921 0.500000 0.575612
O O14 0.470310 0.430285 0.675228
O O15 0.543288 0.360486 0.568071
O O16 0.250000 0.157726 0.842594
O O17 0.982636 0.117522 0.866078
O O18 0.750000 0.584068 0.241493
O O19 0.750000 0.263218 0.560186
O O20 0.000000 0.248895 0.500000
O O21 0.750000 0.097284 0.940227
O O22 0.550241 0.000000 0.920662
O O23 0.500000 0.105864 0.000000
#
# Coordination Sequence:
#
# PCOD8207045 Si02
#       8
#     8   8   8   8   8   8   8   8
#     4  11  23  39  55  75  99 128 167 214 265 318
#     4   9  18  34  53  75 102 130 166 214 259 309
#     4  11  23  36  50  68  91 123 164 212 267 323
#     4   9  18  31  45  64  91 122 160 205 255 318
#     4  10  20  36  58  83 109 139 177 219 263 308
#     4  10  18  31  49  70  94 121 157 206 262 317
#     4  10  20  33  49  70  96 132 169 210 264 319
#     4  10  21  36  55  83 119 157 192 222 256 303
#
# _framework density 18.185106000000001
#
# number of rings (size 3 to 8) (size 9 to 14) (size 15 to 20)
#    0.000    2.000    1.250    2.625    0.000    7.500 
#    0.000    0.000    0.000    0.000    0.000    0.000 
#    0.000    0.500    0.000    1.625    0.000    2.375 
#
# Total GULP energy -793505.360654 kJ/mol
# GULP energy per Si atom -12398.521260 kJ/mol
# Density = 1.814372 g / cm^3
# Si number density = 18.185106 Si / 1000 Ang^3
#
#
#
# Elastic Constant Matrix: (Units=GPa)
#
#
# Indices 1 2 3 4 5 6 
#
# 1 108.7416 38.6547 59.2891 0.0000 0.0000 0.0000
# 2 38.6547 52.4700 33.6341 0.0000 0.0000 0.0000
# 3 59.2891 33.6341 108.9526 0.0000 0.0000 0.0000
# 4 0.0000 0.0000 0.0000 13.8391 0.0000 0.0000
# 5 0.0000 0.0000 0.0000 0.0000 33.0526 0.0000
# 6 0.0000 0.0000 0.0000 0.0000 0.0000 24.0212
#
#
#
# Elastic Compliance Matrix: (Units=1/GPa)
#
#
# Indices 1 2 3 4 5 6 
#
# 1 0.015007 -0.007257 -0.005926 0.000000 0.000000 0.000000
# 2 -0.007257 0.027269 -0.004469 0.000000 0.000000 0.000000
# 3 -0.005926 -0.004469 0.013783 0.000000 0.000000 0.000000
# 4 0.000000 0.000000 0.000000 0.072259 0.000000 0.000000
# 5 0.000000 0.000000 0.000000 0.000000 0.030255 0.000000
# 6 0.000000 0.000000 0.000000 0.000000 0.000000 0.041630
#
#
# Mechanical properties :
#
#
# Convention : Reuss Voigt Hill
#
# Bulk Modulus (GPa) = 48.18165 59.25778 53.71971
# Shear Modulus (GPa) = 20.62490 23.42166 22.02328
#
# Velocity S-wave (km/s) = 3.37139 3.59271 3.48381
# Velocity P-wave (km/s) = 6.45815 7.06164 6.76662
#
# Compressibility (1/GPa) = 0.02075479
#
# Stress axis : x y z
#
# Youngs Moduli (GPa) = 66.63652 36.67112 72.55418
#
# Poissons Ratio (x) = 0.26611 0.42996
# Poissons Ratio (y) = 0.48357 0.32426
# Poissons Ratio (z) = 0.39490 0.16389
#
# Static dielectric constant tensor:
#      x y z
#    x 3.439760 0.000000 0.000000 
#    y 0.000000 3.134130 0.000000 
#    z 0.000000 0.000000 3.274200 
# 
# 
# High freq. dielectric constant tensor:
#      x y z
#    x 1.715510 0.000000 0.000000 
#    y 0.000000 1.666950 0.000000 
#    z 0.000000 0.000000 1.694620 
# 
# From -- ./inp_files/32386.got.cif
#   From: 2010.03.12/outbox.cif.g09.slc.cpg/sg51_17_cif.got.tgz:32386.got - 2010.04.16 13:43:02.
