data_PCOD8207140
_publ_section_title
;
Structure prediction by ZEFSAII (Michael W. Deem and Ramdas Pophale) SiO2 
 PCOD8207140
Probable space group: P M M A
;
_chemical_formula_sum "Si O2"
_cell_formula_units_Z 48
_cell_length_a 21.993644
_cell_length_b 9.348906
_cell_length_c 12.252811
_cell_angle_alpha 90.000000
_cell_angle_beta 90.000000
_cell_angle_gamma 90.000000
_cell_volume 2519.380240
_symmetry_space_group_name_H-M "P M M A"
_symmetry_group_IT_number 51
_symmetry_cell_setting 'orthorhombic'
loop_
_space_group_symop_operation_xyz
x,y,z
1/2-x,-y,z
1/2+x,-y,-z
-x,y,-z
-x,-y,-z
1/2+x,y,-z
1/2-x,y,z
x,-y,z
loop_
_atom_site_type_symbol
_atom_site_label
_atom_site_fract_x
_atom_site_fract_y
_atom_site_fract_z
Si Si1 0.520587 0.331743 0.119938
Si Si2 0.639193 0.162368 0.142636
Si Si3 0.577565 0.164857 0.761581
Si Si4 0.314932 0.833788 0.093395
Si Si5 0.683056 0.165908 0.379530
Si Si6 0.931544 0.835565 0.512035
O O1 0.514874 0.500000 0.134097
O O2 0.588221 0.282218 0.141670
O O3 0.481785 0.255359 0.212918
O O4 0.500000 0.281122 0.000000
O O5 0.679653 0.186928 0.249466
O O6 0.612327 0.000000 0.141423
O O7 0.678879 0.190197 0.035529
O O8 0.631722 0.234966 0.833810
O O9 0.592622 0.180682 0.634701
O O10 0.565423 0.000000 0.793451
O O11 0.250000 0.765798 0.127703
O O12 0.314661 0.000000 0.122327
O O13 0.750000 0.229271 0.415502
O O14 0.622796 0.235688 0.438082
O O15 0.682766 0.000000 0.411621
O O16 0.000000 0.766009 0.500000
O O17 0.938542 0.000000 0.475329
#
# Coordination Sequence:
#
# PCOD8207140 Si02
#       6
#     8   8   8   8   8   8
#     4  11  22  34  50  74 105 134 166 213 265 314
#     4  10  18  31  53  76 102 134 168 207 253 310
#     4  10  19  32  52  75 101 135 171 208 253 305
#     4   9  17  28  45  73 102 126 160 206 251 296
#     4   9  17  29  49  79 110 139 172 214 263 310
#     4   9  17  29  46  72 105 136 170 212 254 300
#
# _framework density 19.052306000000002
#
# number of rings (size 3 to 8) (size 9 to 14) (size 15 to 20)
#    0.000    2.333    1.667    2.000    0.000    6.000 
#    0.000    3.333    0.000    8.000    0.000    0.000 
#    0.000    0.000    0.000    0.000    0.000    0.000 
#
# Total GULP energy -594797.263290 kJ/mol
# GULP energy per Si atom -12391.609652 kJ/mol
# Density = 1.900894 g / cm^3
# Si number density = 19.052306 Si / 1000 Ang^3
#
#
#
# Elastic Constant Matrix: (Units=GPa)
#
#
# Indices 1 2 3 4 5 6 
#
# 1 140.3180 16.9708 38.3748 0.0000 0.0000 0.0000
# 2 16.9708 28.3684 13.3586 0.0000 0.0000 0.0000
# 3 38.3748 13.3586 83.2761 0.0000 0.0000 0.0000
# 4 0.0000 0.0000 0.0000 8.2822 0.0000 0.0000
# 5 0.0000 0.0000 0.0000 0.0000 24.3906 0.0000
# 6 0.0000 0.0000 0.0000 0.0000 0.0000 1.1468
#
#
#
# Elastic Compliance Matrix: (Units=1/GPa)
#
#
# Indices 1 2 3 4 5 6 
#
# 1 0.008462 -0.003490 -0.003340 0.000000 0.000000 0.000000
# 2 -0.003490 0.039570 -0.004739 0.000000 0.000000 0.000000
# 3 -0.003340 -0.004739 0.014307 0.000000 0.000000 0.000000
# 4 0.000000 0.000000 0.000000 0.120740 0.000000 0.000000
# 5 0.000000 0.000000 0.000000 0.000000 0.040999 0.000000
# 6 0.000000 0.000000 0.000000 0.000000 0.000000 0.872015
#
#
# Mechanical properties :
#
#
# Convention : Reuss Voigt Hill
#
# Bulk Modulus (GPa) = 25.50896 43.26345 34.38620
# Shear Modulus (GPa) = 4.41580 18.98114 11.69847
#
# Velocity S-wave (km/s) = 1.52406 3.15979 2.48063
# Velocity P-wave (km/s) = 4.06386 6.00578 5.12759
#
# Compressibility (1/GPa) = 0.03920192
#
# Stress axis : x y z
#
# Youngs Moduli (GPa) = 118.17442 25.27174 69.89346
#
# Poissons Ratio (x) = 0.08819 0.23342
# Poissons Ratio (y) = 0.41238 0.33126
# Poissons Ratio (z) = 0.39466 0.11978
#
# Static dielectric constant tensor:
#      x y z
#    x 3.831590 0.000000 0.000000 
#    y 0.000000 2.864280 0.000000 
#    z 0.000000 0.000000 3.563180 
# 
# 
# High freq. dielectric constant tensor:
#      x y z
#    x 1.757100 0.000000 0.000000 
#    y 0.000000 1.662970 0.000000 
#    z 0.000000 0.000000 1.745740 
# 
# From -- ./inp_files/18098.got.cif
#   From: 2010.03.12/outbox.cif.g09.slc.cpg/sg51_10_cif.got.tgz:18098.got - 2010.04.16 13:43:02.
