data_PCOD8207866
_publ_section_title
;
Structure prediction by ZEFSAII (Michael W. Deem and Ramdas Pophale) SiO2 
 PCOD8207866
Probable space group: P M M A
;
_chemical_formula_sum "Si O2"
_cell_formula_units_Z 64
_cell_length_a 24.140147
_cell_length_b 9.283849
_cell_length_c 16.961026
_cell_angle_alpha 90.000000
_cell_angle_beta 90.000000
_cell_angle_gamma 90.000000
_cell_volume 3801.194554
_symmetry_space_group_name_H-M "P M M A"
_symmetry_group_IT_number 51
_symmetry_cell_setting 'orthorhombic'
loop_
_space_group_symop_operation_xyz
x,y,z
1/2-x,-y,z
1/2+x,-y,-z
-x,y,-z
-x,-y,-z
1/2+x,y,-z
1/2-x,y,z
x,-y,z
loop_
_atom_site_type_symbol
_atom_site_label
_atom_site_fract_x
_atom_site_fract_y
_atom_site_fract_z
Si Si1 0.588174 0.670933 0.639833
Si Si2 0.815631 0.331541 0.087599
Si Si3 0.186798 0.328628 0.254535
Si Si4 0.530851 0.669158 0.312509
Si Si5 0.310743 0.670097 0.083698
Si Si6 0.880192 0.167827 0.221266
Si Si7 0.312561 0.165704 0.623170
Si Si8 0.099993 0.331123 0.535682
O O1 0.591466 0.500000 0.638474
O O2 0.643528 0.735166 0.681457
O O3 0.533402 0.716833 0.688291
O O4 0.582433 0.727763 0.550226
O O5 0.750000 0.296625 0.096154
O O6 0.825801 0.500000 0.104830
O O7 0.852940 0.237243 0.144815
O O8 0.838606 0.286481 0.999792
O O9 0.250000 0.271251 0.268863
O O10 0.187928 0.500000 0.260489
O O11 0.162531 0.281798 0.167553
O O12 0.538769 0.500000 0.296116
O O13 0.561683 0.756395 0.243380
O O14 0.554171 0.710303 0.399225
O O15 0.250000 0.739565 0.083812
O O16 0.305090 0.500000 0.083099
O O17 0.837744 0.195744 0.291558
O O18 0.891222 0.000000 0.205774
O O19 0.250000 0.218539 0.626902
O O20 0.341887 0.258542 0.556339
O O21 0.318198 0.000000 0.599355
O O22 0.109900 0.500000 0.533360
#
# Coordination Sequence:
#
# PCOD8207866 Si02
#       8
#     8   8   8   8   8   8   8   8
#     4   9  16  26  43  65  87 113 145 181 219 258
#     4   9  16  26  43  67  91 114 141 172 210 259
#     4   8  13  22  38  63  93 116 134 167 218 266
#     4   9  17  30  45  61  86 118 149 182 221 259
#     4   7  11  21  37  59  88 116 137 164 208 258
#     4  10  19  30  44  63  87 115 149 186 219 251
#     4   9  18  31  43  57  84 119 146 171 211 260
#     4   9  17  28  43  64  87 112 145 185 222 254
#
# _framework density 16.836812999999999
#
# number of rings (size 3 to 8) (size 9 to 14) (size 15 to 20)
#    0.000    3.250    0.000    2.625    0.000    3.500 
#    0.000    1.875    0.000    3.750    0.000    7.000 
#    0.000    2.000    0.000    0.000    0.000    0.000 
#
# Total GULP energy -792841.037857 kJ/mol
# GULP energy per Si atom -12388.141217 kJ/mol
# Density = 1.679849 g / cm^3
# Si number density = 16.836813 Si / 1000 Ang^3
#
#
#
# Elastic Constant Matrix: (Units=GPa)
#
#
# Indices 1 2 3 4 5 6 
#
# 1 102.5023 22.9935 45.8286 0.0000 0.0000 0.0000
# 2 22.9935 28.6828 26.0207 0.0000 0.0000 0.0000
# 3 45.8286 26.0207 96.3141 0.0000 0.0000 0.0000
# 4 0.0000 0.0000 0.0000 8.4818 0.0000 0.0000
# 5 0.0000 0.0000 0.0000 0.0000 19.3640 0.0000
# 6 0.0000 0.0000 0.0000 0.0000 0.0000 11.5141
#
#
#
# Elastic Compliance Matrix: (Units=1/GPa)
#
#
# Indices 1 2 3 4 5 6 
#
# 1 0.013246 -0.006492 -0.004549 0.000000 0.000000 0.000000
# 2 -0.006492 0.049365 -0.010248 0.000000 0.000000 0.000000
# 3 -0.004549 -0.010248 0.015316 0.000000 0.000000 0.000000
# 4 0.000000 0.000000 0.000000 0.117900 0.000000 0.000000
# 5 0.000000 0.000000 0.000000 0.000000 0.051642 0.000000
# 6 0.000000 0.000000 0.000000 0.000000 0.000000 0.086850
#
#
# Mechanical properties :
#
#
# Convention : Reuss Voigt Hill
#
# Bulk Modulus (GPa) = 28.28876 46.35386 37.32131
# Shear Modulus (GPa) = 12.86411 16.71574 14.78992
#
# Velocity S-wave (km/s) = 2.76714 3.15431 2.96704
# Velocity P-wave (km/s) = 5.20073 6.39196 5.82687
#
# Compressibility (1/GPa) = 0.03534973
#
# Stress axis : x y z
#
# Youngs Moduli (GPa) = 75.49483 20.25731 65.29239
#
# Poissons Ratio (x) = 0.13151 0.29701
# Poissons Ratio (y) = 0.49010 0.66909
# Poissons Ratio (z) = 0.34342 0.20759
#
# Static dielectric constant tensor:
#      x y z
#    x 3.212730 0.000000 0.000000 
#    y 0.000000 2.775820 0.000000 
#    z 0.000000 0.000000 3.445430 
# 
# 
# High freq. dielectric constant tensor:
#      x y z
#    x 1.632460 0.000000 0.000000 
#    y 0.000000 1.605970 0.000000 
#    z 0.000000 0.000000 1.652770 
# 
# From -- ./inp_files/30807.got.cif
#   From: 2010.03.12/outbox.cif.g09.slc.cpg/sg51_16_cif.got.tgz:30807.got - 2010.04.16 13:43:02.
