data_PCOD8207340
_publ_section_title
;
Structure prediction by ZEFSAII (Michael W. Deem and Ramdas Pophale) SiO2 
 PCOD8207340
Probable space group: P M M A
;
_chemical_formula_sum "Si O2"
_cell_formula_units_Z 52
_cell_length_a 13.866357
_cell_length_b 9.360115
_cell_length_c 21.491508
_cell_angle_alpha 90.000000
_cell_angle_beta 90.000000
_cell_angle_gamma 90.000000
_cell_volume 2789.397785
_symmetry_space_group_name_H-M "P M M A"
_symmetry_group_IT_number 51
_symmetry_cell_setting 'orthorhombic'
loop_
_space_group_symop_operation_xyz
x,y,z
1/2-x,-y,z
1/2+x,-y,-z
-x,y,-z
-x,-y,-z
1/2+x,y,-z
1/2-x,y,z
x,-y,z
loop_
_atom_site_type_symbol
_atom_site_label
_atom_site_fract_x
_atom_site_fract_y
_atom_site_fract_z
Si Si1 0.250000 0.168434 0.134160
Si Si2 0.454907 0.169777 0.183675
Si Si3 0.490896 0.328717 0.693766
Si Si4 0.360329 0.841663 0.606172
Si Si5 0.500000 0.761721 0.500000
Si Si6 0.644492 0.337768 0.597918
Si Si7 0.250000 0.830588 0.993877
Si Si8 0.554501 0.830787 0.059028
O O1 0.343722 0.215670 0.173232
O O2 0.250000 0.000000 0.125610
O O3 0.250000 0.235137 0.064050
O O4 0.502473 0.257035 0.239344
O O5 0.513084 0.225807 0.123714
O O6 0.465211 0.000000 0.195188
O O7 0.484092 0.500000 0.698440
O O8 0.396341 0.272317 0.657334
O O9 0.585606 0.273788 0.656275
O O10 0.250000 0.800553 0.586462
O O11 0.433129 0.851383 0.547168
O O12 0.360882 0.000000 0.635996
O O13 0.422109 0.667378 0.463137
O O14 0.750000 0.260590 0.590197
O O15 0.665540 0.500000 0.612941
O O16 0.337162 0.778845 0.950958
O O17 0.250000 0.000000 0.002003
O O18 0.541942 0.000000 0.058995
O O19 0.500000 0.764526 0.000000
#
# Coordination Sequence:
#
# PCOD8207340 Si02
#       8
#     4   8   8   8   4   8   4   8
#     4   9  16  26  47  77 107 135 168 217 276 329
#     4  10  19  32  51  77 106 136 175 224 274 322
#     4  10  22  38  55  75 104 145 187 224 265 312
#     4  10  21  38  60  84 112 144 176 216 266 317
#     4  10  18  32  56  86 113 136 169 212 267 320
#     4   9  18  32  50  75 107 141 178 217 256 306
#     4   9  14  24  42  71 103 131 168 213 270 329
#     4   9  15  25  44  71 103 134 167 216 270 321
#
# _framework density 18.642016000000002
#
# number of rings (size 3 to 8) (size 9 to 14) (size 15 to 20)
#    0.000    2.462    1.538    1.385    1.077    0.923 
#    1.385    0.000    0.000    3.231    0.000    0.000 
#    0.000    0.000    0.000    0.000    0.000    0.000 
#
# Total GULP energy -644233.187459 kJ/mol
# GULP energy per Si atom -12389.099759 kJ/mol
# Density = 1.859959 g / cm^3
# Si number density = 18.642016 Si / 1000 Ang^3
#
#
#
# Elastic Constant Matrix: (Units=GPa)
#
#
# Indices 1 2 3 4 5 6 
#
# 1 156.3525 30.7404 66.7748 0.0000 0.0000 0.0000
# 2 30.7404 50.2579 35.4736 0.0000 0.0000 0.0000
# 3 66.7748 35.4736 137.4186 0.0000 0.0000 0.0000
# 4 0.0000 0.0000 0.0000 13.5928 0.0000 0.0000
# 5 0.0000 0.0000 0.0000 0.0000 23.7869 0.0000
# 6 0.0000 0.0000 0.0000 0.0000 0.0000 15.1463
#
#
#
# Elastic Compliance Matrix: (Units=1/GPa)
#
#
# Indices 1 2 3 4 5 6 
#
# 1 0.008370 -0.002750 -0.003357 0.000000 0.000000 0.000000
# 2 -0.002750 0.025234 -0.005178 0.000000 0.000000 0.000000
# 3 -0.003357 -0.005178 0.010245 0.000000 0.000000 0.000000
# 4 0.000000 0.000000 0.000000 0.073568 0.000000 0.000000
# 5 0.000000 0.000000 0.000000 0.000000 0.042040 0.000000
# 6 0.000000 0.000000 0.000000 0.000000 0.000000 0.066023
#
#
# Mechanical properties :
#
#
# Convention : Reuss Voigt Hill
#
# Bulk Modulus (GPa) = 46.99431 67.77851 57.38641
# Shear Modulus (GPa) = 19.59680 24.57455 22.08568
#
# Velocity S-wave (km/s) = 3.24576 3.63469 3.44572
# Velocity P-wave (km/s) = 6.26978 7.35197 6.83234
#
# Compressibility (1/GPa) = 0.02127917
#
# Stress axis : x y z
#
# Youngs Moduli (GPa) = 119.46890 39.62918 97.60769
#
# Poissons Ratio (x) = 0.10898 0.32772
# Poissons Ratio (y) = 0.32853 0.50538
# Poissons Ratio (z) = 0.40111 0.20519
#
# Static dielectric constant tensor:
#      x y z
#    x 4.110010 0.000000 0.000000 
#    y 0.000000 2.898510 0.000000 
#    z 0.000000 0.000000 3.412540 
# 
# 
# High freq. dielectric constant tensor:
#      x y z
#    x 1.740100 0.000000 0.000000 
#    y 0.000000 1.669910 0.000000 
#    z 0.000000 0.000000 1.723570 
# 
# From -- ./inp_files/33274.got.cif
#   From: 2010.03.12/outbox.cif.g09.slc.cpg/sg51_17_cif.got.tgz:33274.got - 2010.04.16 13:43:02.
