data_PCOD8207772
_publ_section_title
;
Structure prediction by ZEFSAII (Michael W. Deem and Ramdas Pophale) SiO2 
 PCOD8207772
Probable space group: P M M A
;
_chemical_formula_sum "Si O2"
_cell_formula_units_Z 44
_cell_length_a 16.285237
_cell_length_b 14.363754
_cell_length_c 11.015966
_cell_angle_alpha 90.000000
_cell_angle_beta 90.000000
_cell_angle_gamma 90.000000
_cell_volume 2576.823240
_symmetry_space_group_name_H-M "P M M A"
_symmetry_group_IT_number 51
_symmetry_cell_setting 'orthorhombic'
loop_
_space_group_symop_operation_xyz
x,y,z
1/2-x,-y,z
1/2+x,-y,-z
-x,y,-z
-x,-y,-z
1/2+x,y,-z
1/2-x,y,z
x,-y,z
loop_
_atom_site_type_symbol
_atom_site_label
_atom_site_fract_x
_atom_site_fract_y
_atom_site_fract_z
Si Si1 0.839618 0.393669 0.396880
Si Si2 0.089648 0.607528 0.856657
Si Si3 0.476263 0.241718 0.240556
Si Si4 0.656584 0.252778 0.951583
Si Si5 0.500000 0.704680 0.500000
Si Si6 0.926474 0.103664 0.094665
O O1 0.750000 0.350297 0.435030
O O2 0.840545 0.500000 0.436752
O O3 0.843671 0.384070 0.250730
O O4 0.918859 0.351617 0.462379
O O5 0.069173 0.500000 0.886674
O O6 0.008079 0.658492 0.807894
O O7 0.120473 0.657083 0.979404
O O8 0.388707 0.230491 0.175332
O O9 0.468718 0.235396 0.385787
O O10 0.539997 0.158858 0.211063
O O11 0.750000 0.271717 0.918560
O O12 0.648620 0.161779 0.037449
O O13 0.896680 0.000000 0.131001
O O14 0.000000 0.099228 0.000000
#
# Coordination Sequence:
#
# PCOD8207772 Si02
#       6
#     8   8   8   8   4   8
#     4   9  17  29  46  66  88 123 171 211 241 281
#     4   9  17  31  49  67  92 126 161 197 239 286
#     4   9  19  32  47  68  93 126 165 197 228 278
#     4  10  19  29  45  73 100 118 145 190 246 299
#     4  10  19  32  47  64  94 132 166 200 240 278
#     4   8  15  31  52  70  90 117 149 187 231 280
#
# _framework density 17.075288
#
# number of rings (size 3 to 8) (size 9 to 14) (size 15 to 20)
#    0.000    2.909    0.000    2.455    0.000    4.364 
#    0.000    0.455    0.000    0.000    0.000    0.000 
#    0.000    1.455    0.000    0.000    0.000    0.000 
#
# Total GULP energy -545136.890572 kJ/mol
# GULP energy per Si atom -12389.474786 kJ/mol
# Density = 1.703642 g / cm^3
# Si number density = 17.075288 Si / 1000 Ang^3
#
#
#
# Elastic Constant Matrix: (Units=GPa)
#
#
# Indices 1 2 3 4 5 6 
#
# 1 63.9886 3.8755 37.7968 0.0000 0.0000 0.0000
# 2 3.8755 100.6930 32.6450 0.0000 0.0000 0.0000
# 3 37.7968 32.6450 116.7010 0.0000 0.0000 0.0000
# 4 0.0000 0.0000 0.0000 14.5887 0.0000 0.0000
# 5 0.0000 0.0000 0.0000 0.0000 17.8322 0.0000
# 6 0.0000 0.0000 0.0000 0.0000 0.0000 12.3264
#
#
#
# Elastic Compliance Matrix: (Units=1/GPa)
#
#
# Indices 1 2 3 4 5 6 
#
# 1 0.019509 0.001427 -0.006718 0.000000 0.000000 0.000000
# 2 0.001427 0.011026 -0.003547 0.000000 0.000000 0.000000
# 3 -0.006718 -0.003547 0.011737 0.000000 0.000000 0.000000
# 4 0.000000 0.000000 0.000000 0.068546 0.000000 0.000000
# 5 0.000000 0.000000 0.000000 0.000000 0.056078 0.000000
# 6 0.000000 0.000000 0.000000 0.000000 0.000000 0.081127
#
#
# Mechanical properties :
#
#
# Convention : Reuss Voigt Hill
#
# Bulk Modulus (GPa) = 40.65439 47.77969 44.21704
# Shear Modulus (GPa) = 18.25504 22.75383 20.50444
#
# Velocity S-wave (km/s) = 3.27324 3.65438 3.46905
# Velocity P-wave (km/s) = 6.17625 6.77116 6.48053
#
# Compressibility (1/GPa) = 0.02459759
#
# Stress axis : x y z
#
# Youngs Moduli (GPa) = 51.25723 90.69432 85.20256
#
# Poissons Ratio (x) = -0.12943 0.57238
# Poissons Ratio (y) = -0.07315 0.30217
# Poissons Ratio (z) = 0.34434 0.32165
#
# Static dielectric constant tensor:
#      x y z
#    x 3.135160 0.000000 0.000000 
#    y 0.000000 3.320150 0.000000 
#    z 0.000000 0.000000 3.149080 
# 
# 
# High freq. dielectric constant tensor:
#      x y z
#    x 1.652570 0.000000 0.000000 
#    y 0.000000 1.642220 0.000000 
#    z 0.000000 0.000000 1.643470 
# 
# From -- ./inp_files/9475.got.cif
#   From: 2010.03.12/outbox.cif.g09.slc.cpg/sg51_5_cif.got.tgz:9475.got - 2010.04.16 13:43:02.
