data_PCOD8207902
_publ_section_title
;
Structure prediction by ZEFSAII (Michael W. Deem and Ramdas Pophale) SiO2 
 PCOD8207902
Probable space group: P M M A
;
_chemical_formula_sum "Si O2"
_cell_formula_units_Z 64
_cell_length_a 8.967502
_cell_length_b 26.649432
_cell_length_c 18.299359
_cell_angle_alpha 90.000000
_cell_angle_beta 90.000000
_cell_angle_gamma 90.000000
_cell_volume 4373.159491
_symmetry_space_group_name_H-M "P M M A"
_symmetry_group_IT_number 51
_symmetry_cell_setting 'orthorhombic'
loop_
_space_group_symop_operation_xyz
x,y,z
1/2-x,-y,z
1/2+x,-y,-z
-x,y,-z
-x,-y,-z
1/2+x,y,-z
1/2-x,y,z
x,-y,z
loop_
_atom_site_type_symbol
_atom_site_label
_atom_site_fract_x
_atom_site_fract_y
_atom_site_fract_z
Si Si1 0.575322 0.445531 0.921697
Si Si2 0.572453 0.347904 0.079834
Si Si3 0.074881 0.944762 0.658042
Si Si4 0.074121 0.256336 0.156035
Si Si5 0.085893 0.202864 0.299005
Si Si6 0.573572 0.844603 0.923433
Si Si7 0.574344 0.153206 0.423531
Si Si8 0.085569 0.900644 0.213811
O O1 0.750000 0.432810 0.929809
O O2 0.554244 0.500000 0.881740
O O3 0.490657 0.399286 0.882261
O O4 0.500000 0.449627 0.000000
O O5 0.750000 0.349803 0.072767
O O6 0.524343 0.303319 0.132766
O O7 0.500000 0.340180 0.000000
O O8 0.250000 0.939966 0.661722
O O9 0.013376 0.901307 0.604224
O O10 0.018493 0.938250 0.741063
O O11 0.025752 0.000000 0.629182
O O12 0.250000 0.266967 0.146172
O O13 0.036036 0.245777 0.241541
O O14 0.022723 0.209817 0.105585
O O15 0.250000 0.215466 0.331137
O O16 0.096057 0.152169 0.253870
O O17 0.970507 0.196651 0.365886
O O18 0.750000 0.845487 0.931201
O O19 0.522421 0.888679 0.867218
O O20 0.500000 0.856956 0.000000
O O21 0.500000 0.165905 0.500000
O O22 0.750000 0.153083 0.433283
O O23 0.250000 0.924981 0.209347
#
# Coordination Sequence:
#
# PCOD8207902 Si02
#       8
#     8   8   8   8   8   8   8   8
#     4   9  16  26  39  52  68  95 133 175 216 255
#     4  11  20  27  37  54  78 106 137 175 214 249
#     4   9  18  31  45  62  82 102 125 154 188 224
#     4   9  17  29  42  57  79 104 130 162 200 241
#     4   8  15  29  46  60  78 104 130 157 190 229
#     4   9  17  27  40  58  78  99 124 157 195 234
#     4  10  19  30  45  64  86 108 130 156 183 218
#     4   8  15  28  43  59  77  98 126 155 186 228
#
# _framework density 14.634728000000001
#
# number of rings (size 3 to 8) (size 9 to 14) (size 15 to 20)
#    0.000    2.875    0.000    4.500    0.000    4.250 
#    0.000    2.500    0.000    0.375    0.000    0.000 
#    0.000    0.000    0.000    0.000    0.000    0.625 
#
# Total GULP energy -792998.551585 kJ/mol
# GULP energy per Si atom -12390.602369 kJ/mol
# Density = 1.460142 g / cm^3
# Si number density = 14.634728 Si / 1000 Ang^3
#
#
#
# Elastic Constant Matrix: (Units=GPa)
#
#
# Indices 1 2 3 4 5 6 
#
# 1 60.9352 28.7922 30.8604 0.0000 0.0000 0.0000
# 2 28.7922 53.7720 26.2888 0.0000 0.0000 0.0000
# 3 30.8604 26.2888 83.0668 0.0000 0.0000 0.0000
# 4 0.0000 0.0000 0.0000 10.5130 0.0000 0.0000
# 5 0.0000 0.0000 0.0000 0.0000 22.4530 0.0000
# 6 0.0000 0.0000 0.0000 0.0000 0.0000 20.0126
#
#
#
# Elastic Compliance Matrix: (Units=1/GPa)
#
#
# Indices 1 2 3 4 5 6 
#
# 1 0.024093 -0.010085 -0.005759 0.000000 0.000000 0.000000
# 2 -0.010085 0.026223 -0.004552 0.000000 0.000000 0.000000
# 3 -0.005759 -0.004552 0.015619 0.000000 0.000000 0.000000
# 4 0.000000 0.000000 0.000000 0.095121 0.000000 0.000000
# 5 0.000000 0.000000 0.000000 0.000000 0.044537 0.000000
# 6 0.000000 0.000000 0.000000 0.000000 0.000000 0.049968
#
#
# Mechanical properties :
#
#
# Convention : Reuss Voigt Hill
#
# Bulk Modulus (GPa) = 39.77463 41.07299 40.42381
# Shear Modulus (GPa) = 16.40778 18.05122 17.22950
#
# Velocity S-wave (km/s) = 3.35200 3.51586 3.43491
# Velocity P-wave (km/s) = 6.49757 6.67893 6.58887
#
# Compressibility (1/GPa) = 0.02514165
#
# Stress axis : x y z
#
# Youngs Moduli (GPa) = 41.50633 38.13515 64.02554
#
# Poissons Ratio (x) = 0.38459 0.36873
# Poissons Ratio (y) = 0.41858 0.29146
# Poissons Ratio (z) = 0.23904 0.17360
#
# Static dielectric constant tensor:
#      x y z
#    x 2.961570 0.000000 0.000000 
#    y 0.000000 3.102720 0.000000 
#    z 0.000000 0.000000 2.880050 
# 
# 
# High freq. dielectric constant tensor:
#      x y z
#    x 1.565110 0.000000 0.000000 
#    y 0.000000 1.537990 0.000000 
#    z 0.000000 0.000000 1.527970 
# 
# From -- ./inp_files/28670.got.cif
#   From: 2010.03.12/outbox.cif.g09.slc.cpg/sg51_15_cif.got.tgz:28670.got - 2010.04.16 13:43:02.
