data_PCOD8207842
_publ_section_title
;
Structure prediction by ZEFSAII (Michael W. Deem and Ramdas Pophale) SiO2 
 PCOD8207842
Probable space group: P M M A
;
_chemical_formula_sum "Si O2"
_cell_formula_units_Z 48
_cell_length_a 8.719708
_cell_length_b 21.119125
_cell_length_c 19.432957
_cell_angle_alpha 90.000000
_cell_angle_beta 90.000000
_cell_angle_gamma 90.000000
_cell_volume 3578.629620
_symmetry_space_group_name_H-M "P M M A"
_symmetry_group_IT_number 51
_symmetry_cell_setting 'orthorhombic'
loop_
_space_group_symop_operation_xyz
x,y,z
1/2-x,-y,z
1/2+x,-y,-z
-x,y,-z
-x,-y,-z
1/2+x,y,-z
1/2-x,y,z
x,-y,z
loop_
_atom_site_type_symbol
_atom_site_label
_atom_site_fract_x
_atom_site_fract_y
_atom_site_fract_z
Si Si1 0.430892 0.238240 0.075853
Si Si2 0.430838 0.000000 0.925147
Si Si3 0.429362 0.926407 0.290240
Si Si4 0.571309 0.500000 0.074303
Si Si5 0.069180 0.123254 0.843561
Si Si6 0.422383 0.075249 0.568766
Si Si7 0.068853 0.635234 0.924314
O O1 0.250000 0.238916 0.068912
O O2 0.481957 0.183044 0.126254
O O3 0.488933 0.304153 0.111164
O O4 0.500000 0.227836 0.000000
O O5 0.488719 0.938254 0.884921
O O6 0.250000 0.000000 0.931121
O O7 0.500000 0.000000 0.000000
O O8 0.250000 0.914621 0.280469
O O9 0.523549 0.885043 0.235755
O O10 0.479340 0.902591 0.365591
O O11 0.472599 0.000000 0.280421
O O12 0.750000 0.500000 0.060500
O O13 0.529006 0.433115 0.112716
O O14 0.500000 0.500000 0.000000
O O15 0.250000 0.133392 0.850279
O O16 0.500000 0.103539 0.500000
O O17 0.250000 0.101874 0.575036
O O18 0.420208 0.000000 0.564223
O O19 0.250000 0.647339 0.926967
O O20 0.000000 0.631878 0.000000
#
# Coordination Sequence:
#
# PCOD8207842 Si02
#       7
#     8   4   8   4   8   8   8
#     4  11  21  32  43  57  74  97 126 159 197 238
#     4  10  22  34  46  58  69  86 117 158 202 244
#     4  10  19  30  44  61  79  99 122 152 190 233
#     4   8  14  22  36  56  76  94 116 142 177 220
#     4  11  21  34  46  58  73  96 125 160 200 240
#     4   9  16  26  41  60  81 102 122 147 179 221
#     4   9  15  25  39  56  75  96 118 147 183 224
#
# _framework density 13.412955999999999
#
# number of rings (size 3 to 8) (size 9 to 14) (size 15 to 20)
#    0.000    2.167    0.833    5.000    0.000    6.000 
#    0.000    0.000    0.000    0.000    0.000    0.000 
#    0.000    0.000    0.000    0.000    0.000    0.000 
#
# Total GULP energy -594856.144141 kJ/mol
# GULP energy per Si atom -12392.836336 kJ/mol
# Density = 1.338243 g / cm^3
# Si number density = 13.412956 Si / 1000 Ang^3
#
#
#
# Elastic Constant Matrix: (Units=GPa)
#
#
# Indices 1 2 3 4 5 6 
#
# 1 72.8921 34.3605 20.9754 0.0000 0.0000 0.0000
# 2 34.3605 101.5300 31.7268 0.0000 0.0000 0.0000
# 3 20.9754 31.7268 68.0984 0.0000 0.0000 0.0000
# 4 0.0000 0.0000 0.0000 1.6098 0.0000 0.0000
# 5 0.0000 0.0000 0.0000 0.0000 21.9540 0.0000
# 6 0.0000 0.0000 0.0000 0.0000 0.0000 14.1321
#
#
#
# Elastic Compliance Matrix: (Units=1/GPa)
#
#
# Indices 1 2 3 4 5 6 
#
# 1 0.016817 -0.004767 -0.002959 0.000000 0.000000 0.000000
# 2 -0.004767 0.012879 -0.004532 0.000000 0.000000 0.000000
# 3 -0.002959 -0.004532 0.017708 0.000000 0.000000 0.000000
# 4 0.000000 0.000000 0.000000 0.621203 0.000000 0.000000
# 5 0.000000 0.000000 0.000000 0.000000 0.045550 0.000000
# 6 0.000000 0.000000 0.000000 0.000000 0.000000 0.070761
#
#
# Mechanical properties :
#
#
# Convention : Reuss Voigt Hill
#
# Bulk Modulus (GPa) = 43.69125 46.29398 44.99262
# Shear Modulus (GPa) = 6.11949 17.90303 12.01126
#
# Velocity S-wave (km/s) = 2.13829 3.65740 2.99573
# Velocity P-wave (km/s) = 6.22423 7.24049 6.75151
#
# Compressibility (1/GPa) = 0.02288788
#
# Stress axis : x y z
#
# Youngs Moduli (GPa) = 59.46202 77.64794 56.47324
#
# Poissons Ratio (x) = 0.37013 0.16712
# Poissons Ratio (y) = 0.28344 0.25593
# Poissons Ratio (z) = 0.17596 0.35189
#
# Static dielectric constant tensor:
#      x y z
#    x 2.755750 0.000000 0.000000 
#    y 0.000000 3.072350 0.000000 
#    z 0.000000 0.000000 2.462990 
# 
# 
# High freq. dielectric constant tensor:
#      x y z
#    x 1.530860 0.000000 0.000000 
#    y 0.000000 1.490400 0.000000 
#    z 0.000000 0.000000 1.471630 
# 
# From -- ./inp_files/28122.got.cif
#   From: 2010.03.12/outbox.cif.g09.slc.cpg/sg51_15_cif.got.tgz:28122.got - 2010.04.16 13:43:02.
