data_PCOD8207808
_publ_section_title
;
Structure prediction by ZEFSAII (Michael W. Deem and Ramdas Pophale) SiO2 
 PCOD8207808
Probable space group: P M M A
;
_chemical_formula_sum "Si O2"
_cell_formula_units_Z 64
_cell_length_a 9.133664
_cell_length_b 22.617630
_cell_length_c 20.073714
_cell_angle_alpha 90.000000
_cell_angle_beta 90.000000
_cell_angle_gamma 90.000000
_cell_volume 4146.864631
_symmetry_space_group_name_H-M "P M M A"
_symmetry_group_IT_number 51
_symmetry_cell_setting 'orthorhombic'
loop_
_space_group_symop_operation_xyz
x,y,z
1/2-x,-y,z
1/2+x,-y,-z
-x,y,-z
-x,-y,-z
1/2+x,y,-z
1/2-x,y,z
x,-y,z
loop_
_atom_site_type_symbol
_atom_site_label
_atom_site_fract_x
_atom_site_fract_y
_atom_site_fract_z
Si Si1 0.918476 0.170016 0.225410
Si Si2 0.588816 0.345165 0.731753
Si Si3 0.423660 0.351609 0.932525
Si Si4 0.421640 0.566092 0.810194
Si Si5 0.084401 0.743364 0.144621
Si Si6 0.419323 0.932348 0.683822
Si Si7 0.417459 0.235390 0.337196
Si Si8 0.081824 0.864132 0.431587
O O1 0.750000 0.182289 0.207609
O O2 0.947088 0.101565 0.245575
O O3 0.015414 0.192377 0.162685
O O4 0.960380 0.206290 0.291096
O O5 0.750000 0.373429 0.728818
O O6 0.479133 0.399162 0.744872
O O7 0.577775 0.296925 0.790135
O O8 0.555087 0.307035 0.664110
O O9 0.250000 0.346801 0.941641
O O10 0.468117 0.400201 0.877367
O O11 0.488449 0.287606 0.912873
O O12 0.500000 0.373509 0.000000
O O13 0.250000 0.563462 0.803002
O O14 0.488047 0.500000 0.812261
O O15 0.250000 0.751905 0.118734
O O16 0.250000 0.924978 0.662564
O O17 0.518769 0.906978 0.624951
O O18 0.462277 0.000000 0.696345
O O19 0.250000 0.223597 0.310754
O O20 0.434622 0.205137 0.409713
O O21 0.250000 0.881208 0.442274
O O22 0.000000 0.875072 0.500000
#
# Coordination Sequence:
#
# PCOD8207808 Si02
#       8
#     8   8   8   8   8   8   8   8
#     4   9  15  24  41  62  80 100 130 168 208 246
#     4   8  14  25  41  59  76  97 128 165 204 244
#     4  10  19  30  43  59  81 110 143 175 205 238
#     4   9  18  30  41  56  81 111 140 169 200 236
#     4   9  16  27  42  59  80 104 131 166 208 249
#     4   9  18  31  44  59  82 112 144 175 205 240
#     4   8  15  27  41  57  78 102 129 165 209 250
#     4  10  19  30  43  59  81 110 142 175 208 244
#
# _framework density 15.433346
#
# number of rings (size 3 to 8) (size 9 to 14) (size 15 to 20)
#    0.000    3.000    0.000    2.250    0.000    5.500 
#    0.000    0.000    0.000    0.000    0.000    0.000 
#    0.000    1.000    0.000    2.500    0.000    4.500 
#
# Total GULP energy -792976.824149 kJ/mol
# GULP energy per Si atom -12390.262877 kJ/mol
# Density = 1.539822 g / cm^3
# Si number density = 15.433346 Si / 1000 Ang^3
#
#
#
# Elastic Constant Matrix: (Units=GPa)
#
#
# Indices 1 2 3 4 5 6 
#
# 1 71.2279 46.6069 20.3909 0.0000 0.0000 0.0000
# 2 46.6069 108.3472 42.7358 0.0000 0.0000 0.0000
# 3 20.3909 42.7358 20.0995 0.0000 0.0000 0.0000
# 4 0.0000 0.0000 0.0000 15.3358 0.0000 0.0000
# 5 0.0000 0.0000 0.0000 0.0000 19.4311 0.0000
# 6 0.0000 0.0000 0.0000 0.0000 0.0000 20.6778
#
#
#
# Elastic Compliance Matrix: (Units=1/GPa)
#
#
# Indices 1 2 3 4 5 6 
#
# 1 0.020025 -0.003724 -0.012397 0.000000 0.000000 0.000000
# 2 -0.003724 0.057896 -0.119321 0.000000 0.000000 0.000000
# 3 -0.012397 -0.119321 0.316033 0.000000 0.000000 0.000000
# 4 0.000000 0.000000 0.000000 0.065207 0.000000 0.000000
# 5 0.000000 0.000000 0.000000 0.000000 0.051464 0.000000
# 6 0.000000 0.000000 0.000000 0.000000 0.000000 0.048361
#
#
# Mechanical properties :
#
#
# Convention : Reuss Voigt Hill
#
# Bulk Modulus (GPa) = 8.12554 46.57132 27.34843
# Shear Modulus (GPa) = 5.74123 17.08500 11.41311
#
# Velocity S-wave (km/s) = 1.93083 3.33080 2.72234
# Velocity P-wave (km/s) = 3.20112 6.71071 5.25741
#
# Compressibility (1/GPa) = 0.12306876
#
# Stress axis : x y z
#
# Youngs Moduli (GPa) = 49.93649 17.27231 3.16423
#
# Poissons Ratio (x) = 0.06433 0.03923
# Poissons Ratio (y) = 0.18599 0.37756
# Poissons Ratio (z) = 0.61905 2.06096
#
# Static dielectric constant tensor:
#      x y z
#    x 3.054300 0.000000 0.000000 
#    y 0.000000 3.150260 0.000000 
#    z 0.000000 0.000000 2.760940 
# 
# 
# High freq. dielectric constant tensor:
#      x y z
#    x 1.604690 0.000000 0.000000 
#    y 0.000000 1.577040 0.000000 
#    z 0.000000 0.000000 1.547530 
# 
# From -- ./inp_files/28645.got.cif
#   From: 2010.03.12/outbox.cif.g09.slc.cpg/sg51_15_cif.got.tgz:28645.got - 2010.04.16 13:43:02.
