data_PCOD8207668
_publ_section_title
;
Structure prediction by ZEFSAII (Michael W. Deem and Ramdas Pophale) SiO2 
 PCOD8207668
Probable space group: P M M A
;
_chemical_formula_sum "Si O2"
_cell_formula_units_Z 56
_cell_length_a 18.197710
_cell_length_b 9.243367
_cell_length_c 19.089139
_cell_angle_alpha 90.000000
_cell_angle_beta 90.000000
_cell_angle_gamma 90.000000
_cell_volume 3210.948033
_symmetry_space_group_name_H-M "P M M A"
_symmetry_group_IT_number 51
_symmetry_cell_setting 'orthorhombic'
loop_
_space_group_symop_operation_xyz
x,y,z
1/2-x,-y,z
1/2+x,-y,-z
-x,y,-z
-x,-y,-z
1/2+x,y,-z
1/2-x,y,z
x,-y,z
loop_
_atom_site_type_symbol
_atom_site_label
_atom_site_fract_x
_atom_site_fract_y
_atom_site_fract_z
Si Si1 0.541838 0.166684 0.203233
Si Si2 0.663301 0.332755 0.590751
Si Si3 0.162878 0.160642 0.543055
Si Si4 0.168222 0.172492 0.696950
Si Si5 0.168619 0.665955 0.148850
Si Si6 0.478912 0.330353 0.076472
Si Si7 0.389012 0.833072 0.276331
O O1 0.612787 0.229956 0.243694
O O2 0.532306 0.255494 0.132113
O O3 0.473151 0.186542 0.254475
O O4 0.552547 0.000000 0.182407
O O5 0.750000 0.309565 0.600258
O O6 0.641560 0.500000 0.594175
O O7 0.634866 0.269728 0.516684
O O8 0.621032 0.247603 0.650840
O O9 0.250000 0.148805 0.541207
O O10 0.140383 0.222289 0.619750
O O11 0.129392 0.000000 0.530032
O O12 0.250000 0.233003 0.713297
O O13 0.169358 0.000000 0.696550
O O14 0.250000 0.688683 0.115770
O O15 0.157270 0.500000 0.172434
O O16 0.106578 0.708824 0.091942
O O17 0.163210 0.763896 0.217617
O O18 0.493472 0.500000 0.081249
O O19 0.500000 0.270521 0.000000
O O20 0.366825 0.000000 0.285022
#
# Coordination Sequence:
#
# PCOD8207668 Si02
#       7
#     8   8   8   8   8   8   8
#     4   9  18  32  50  72  94 117 149 186 225 271
#     4  10  19  29  42  62  89 121 156 192 229 270
#     4   8  14  26  45  66  86 113 151 191 229 268
#     4   8  14  28  51  73  91 115 150 191 231 271
#     4   9  17  30  48  68  90 120 157 191 222 261
#     4   9  18  33  51  70  95 126 154 181 221 272
#     4  10  19  29  43  65  93 122 151 187 229 271
#
# _framework density 17.440331
#
# number of rings (size 3 to 8) (size 9 to 14) (size 15 to 20)
#    0.000    3.000    0.000    2.143    0.000    3.714 
#    0.000    2.143    0.000    6.429    0.000    0.000 
#    0.000    0.000    0.000    0.000    0.000    0.000 
#
# Total GULP energy -694234.881307 kJ/mol
# GULP energy per Si atom -12397.051452 kJ/mol
# Density = 1.740064 g / cm^3
# Si number density = 17.440331 Si / 1000 Ang^3
#
#
#
# Elastic Constant Matrix: (Units=GPa)
#
#
# Indices 1 2 3 4 5 6 
#
# 1 76.9522 32.5354 66.6284 0.0000 0.0000 0.0000
# 2 32.5354 71.6770 59.4633 0.0000 0.0000 0.0000
# 3 66.6284 59.4633 159.4570 0.0000 0.0000 0.0000
# 4 0.0000 0.0000 0.0000 25.3064 0.0000 0.0000
# 5 0.0000 0.0000 0.0000 0.0000 21.9039 0.0000
# 6 0.0000 0.0000 0.0000 0.0000 0.0000 15.6064
#
#
#
# Elastic Compliance Matrix: (Units=1/GPa)
#
#
# Indices 1 2 3 4 5 6 
#
# 1 0.020869 -0.003241 -0.007511 0.000000 0.000000 0.000000
# 2 -0.003241 0.020705 -0.006367 0.000000 0.000000 0.000000
# 3 -0.007511 -0.006367 0.011784 0.000000 0.000000 0.000000
# 4 0.000000 0.000000 0.000000 0.039516 0.000000 0.000000
# 5 0.000000 0.000000 0.000000 0.000000 0.045654 0.000000
# 6 0.000000 0.000000 0.000000 0.000000 0.000000 0.064076
#
#
# Mechanical properties :
#
#
# Convention : Reuss Voigt Hill
#
# Bulk Modulus (GPa) = 52.30373 69.48224 60.89299
# Shear Modulus (GPa) = 20.55790 22.52726 21.54258
#
# Velocity S-wave (km/s) = 3.43703 3.59789 3.51838
# Velocity P-wave (km/s) = 6.76802 7.56216 7.17608
#
# Compressibility (1/GPa) = 0.01911910
#
# Stress axis : x y z
#
# Youngs Moduli (GPa) = 47.91756 48.29866 84.86084
#
# Poissons Ratio (x) = 0.15656 0.63742
# Poissons Ratio (y) = 0.15532 0.54027
# Poissons Ratio (z) = 0.35992 0.30749
#
# Static dielectric constant tensor:
#      x y z
#    x 3.228620 0.000000 0.000000 
#    y 0.000000 3.200000 0.000000 
#    z 0.000000 0.000000 3.326890 
# 
# 
# High freq. dielectric constant tensor:
#      x y z
#    x 1.656660 0.000000 0.000000 
#    y 0.000000 1.660620 0.000000 
#    z 0.000000 0.000000 1.668610 
# 
# From -- ./inp_files/33732.got.cif
#   From: 2010.03.12/outbox.cif.g09.slc.cpg/sg51_17_cif.got.tgz:33732.got - 2010.04.16 13:43:02.
