data_PCOD8207128
_publ_section_title
;
Structure prediction by ZEFSAII (Michael W. Deem and Ramdas Pophale) SiO2 
 PCOD8207128
Probable space group: P M M A
;
_chemical_formula_sum "Si O2"
_cell_formula_units_Z 40
_cell_length_a 25.769367
_cell_length_b 8.717416
_cell_length_c 9.971476
_cell_angle_alpha 90.000000
_cell_angle_beta 90.000000
_cell_angle_gamma 90.000000
_cell_volume 2240.015225
_symmetry_space_group_name_H-M "P M M A"
_symmetry_group_IT_number 51
_symmetry_cell_setting 'orthorhombic'
loop_
_space_group_symop_operation_xyz
x,y,z
1/2-x,-y,z
1/2+x,-y,-z
-x,y,-z
-x,-y,-z
1/2+x,y,-z
1/2-x,y,z
x,-y,z
loop_
_atom_site_type_symbol
_atom_site_label
_atom_site_fract_x
_atom_site_fract_y
_atom_site_fract_z
Si Si1 0.639227 0.817323 0.357590
Si Si2 0.356864 0.317737 0.353344
Si Si3 0.250000 0.830336 0.344630
Si Si4 0.750000 0.167161 0.337834
Si Si5 0.558205 0.681434 0.156174
Si Si6 0.558582 0.681272 0.854623
O O1 0.627261 0.745840 0.501846
O O2 0.695125 0.751136 0.300751
O O3 0.594457 0.773372 0.256396
O O4 0.643389 0.000000 0.374205
O O5 0.356582 0.500000 0.359582
O O6 0.301237 0.261013 0.299325
O O7 0.399671 0.252499 0.249589
O O8 0.250000 0.847298 0.502782
O O9 0.250000 0.000000 0.278629
O O10 0.750000 0.000000 0.269399
O O11 0.566198 0.500000 0.175812
O O12 0.499234 0.732429 0.188159
O O13 0.572061 0.735395 0.005391
O O14 0.559933 0.500000 0.854605
#
# Coordination Sequence:
#
# PCOD8207128 Si02
#       6
#     8   8   4   4   8   8
#     4  10  19  32  49  73 101 130 162 203 247 292
#     4  10  18  31  52  76  97 127 167 203 237 288
#     4   9  17  31  48  71 102 132 156 194 248 293
#     4   7  14  29  46  61  90 128 156 184 230 281
#     4   9  17  34  54  71  94 129 166 205 250 295
#     4   8  17  33  53  72  95 127 166 207 248 290
#
# _framework density 17.857021
#
# number of rings (size 3 to 8) (size 9 to 14) (size 15 to 20)
#    0.000    3.000    0.000    3.900    0.000    0.800 
#    0.000   12.500    0.000    3.600    0.000    0.000 
#    0.000    0.000    0.000    0.000    0.000    0.000 
#
# Total GULP energy -495649.271105 kJ/mol
# GULP energy per Si atom -12391.231778 kJ/mol
# Density = 1.781638 g / cm^3
# Si number density = 17.857021 Si / 1000 Ang^3
#
#
#
# Elastic Constant Matrix: (Units=GPa)
#
#
# Indices 1 2 3 4 5 6 
#
# 1 170.0398 37.8417 93.0550 0.0000 0.0000 0.0000
# 2 37.8417 58.1317 29.1223 0.0000 0.0000 0.0000
# 3 93.0550 29.1223 96.9036 0.0000 0.0000 0.0000
# 4 0.0000 0.0000 0.0000 5.3390 0.0000 0.0000
# 5 0.0000 0.0000 0.0000 0.0000 0.3443 0.0000
# 6 0.0000 0.0000 0.0000 0.0000 0.0000 23.3361
#
#
#
# Elastic Compliance Matrix: (Units=1/GPa)
#
#
# Indices 1 2 3 4 5 6 
#
# 1 0.012706 -0.002541 -0.011437 0.000000 0.000000 0.000000
# 2 -0.002541 0.020759 -0.003799 0.000000 0.000000 0.000000
# 3 -0.011437 -0.003799 0.022444 0.000000 0.000000 0.000000
# 4 0.000000 0.000000 0.000000 0.187301 0.000000 0.000000
# 5 0.000000 0.000000 0.000000 0.000000 2.904266 0.000000
# 6 0.000000 0.000000 0.000000 0.000000 0.000000 0.042852
#
#
# Mechanical properties :
#
#
# Convention : Reuss Voigt Hill
#
# Bulk Modulus (GPa) = 49.12754 71.67924 60.40339
# Shear Modulus (GPa) = 1.54671 16.80762 9.17717
#
# Velocity S-wave (km/s) = 0.93169 3.07128 2.26945
# Velocity P-wave (km/s) = 5.35992 7.26669 6.38489
#
# Compressibility (1/GPa) = 0.02035518
#
# Stress axis : x y z
#
# Youngs Moduli (GPa) = 78.70534 48.17074 44.55492
#
# Poissons Ratio (x) = 0.12241 0.50959
# Poissons Ratio (y) = 0.20000 0.16925
# Poissons Ratio (z) = 0.90018 0.18298
#
# Static dielectric constant tensor:
#      x y z
#    x 3.900480 0.000000 0.000000 
#    y 0.000000 3.083940 0.000000 
#    z 0.000000 0.000000 3.244670 
# 
# 
# High freq. dielectric constant tensor:
#      x y z
#    x 1.709210 0.000000 0.000000 
#    y 0.000000 1.670340 0.000000 
#    z 0.000000 0.000000 1.666800 
# 
# From -- ./inp_files/12173.got.cif
#   From: 2010.03.12/outbox.cif.g09.slc.cpg/sg51_7_cif.got.tgz:12173.got - 2010.04.16 13:43:02.
