data_PCOD8207771
_publ_section_title
;
Structure prediction by ZEFSAII (Michael W. Deem and Ramdas Pophale) SiO2 
 PCOD8207771
Probable space group: P M M A
;
_chemical_formula_sum "Si O2"
_cell_formula_units_Z 64
_cell_length_a 21.274293
_cell_length_b 9.563950
_cell_length_c 16.905697
_cell_angle_alpha 90.000000
_cell_angle_beta 90.000000
_cell_angle_gamma 90.000000
_cell_volume 3439.739187
_symmetry_space_group_name_H-M "P M M A"
_symmetry_group_IT_number 51
_symmetry_cell_setting 'orthorhombic'
loop_
_space_group_symop_operation_xyz
x,y,z
1/2-x,-y,z
1/2+x,-y,-z
-x,y,-z
-x,-y,-z
1/2+x,y,-z
1/2-x,y,z
x,-y,z
loop_
_atom_site_type_symbol
_atom_site_label
_atom_site_fract_x
_atom_site_fract_y
_atom_site_fract_z
Si Si1 0.617032 0.836138 0.570335
Si Si2 0.621306 0.158617 0.812215
Si Si3 0.322463 0.660972 0.558650
Si Si4 0.511214 0.158091 0.694312
Si Si5 0.177907 0.158683 0.023070
Si Si6 0.679243 0.650701 0.694371
Si Si7 0.822310 0.336591 0.125545
Si Si8 0.609555 0.660243 0.282315
O O1 0.626553 0.759153 0.486320
O O2 0.549457 0.813724 0.612521
O O3 0.667021 0.761782 0.626067
O O4 0.631854 0.000000 0.560695
O O5 0.552760 0.186313 0.773464
O O6 0.627188 0.179267 0.906361
O O7 0.667509 0.274248 0.777486
O O8 0.642128 0.000000 0.789436
O O9 0.250000 0.707295 0.544019
O O10 0.331734 0.500000 0.531211
O O11 0.336932 0.677317 0.651337
O O12 0.452378 0.258040 0.693674
O O13 0.486606 0.000000 0.694707
O O14 0.250000 0.195211 0.049267
O O15 0.175404 0.000000 0.992638
O O16 0.154248 0.256822 0.952419
O O17 0.750000 0.607934 0.688947
O O18 0.642240 0.500000 0.687152
O O19 0.750000 0.300804 0.142955
O O20 0.832216 0.500000 0.110881
O O21 0.862432 0.282605 0.200087
O O22 0.589643 0.500000 0.273137
#
# Coordination Sequence:
#
# PCOD8207771 Si02
#       8
#     8   8   8   8   8   8   8   8
#     4  10  21  36  53  75 105 139 173 209 254 307
#     4   9  18  33  51  72 102 140 178 214 256 306
#     4  10  21  37  57  81 107 133 167 214 264 313
#     4   9  20  37  54  74 103 140 178 214 252 300
#     4   9  17  30  51  79 107 135 171 215 261 310
#     4  10  19  29  45  72 104 137 173 213 257 304
#     4   9  18  34  55  78 105 135 168 211 265 318
#     4  10  21  37  57  78 101 135 176 216 261 311
#
# _framework density 18.606062000000001
#
# number of rings (size 3 to 8) (size 9 to 14) (size 15 to 20)
#    0.000    2.500    0.000    2.625    0.000    9.250 
#    0.000    4.375    0.000    6.000    0.000    0.000 
#    0.000    0.000    0.000    0.000    0.000    0.000 
#
# Total GULP energy -793121.219364 kJ/mol
# GULP energy per Si atom -12392.519053 kJ/mol
# Density = 1.856371 g / cm^3
# Si number density = 18.606062 Si / 1000 Ang^3
#
#
#
# Elastic Constant Matrix: (Units=GPa)
#
#
# Indices 1 2 3 4 5 6 
#
# 1 61.6242 32.3234 27.1810 0.0000 0.0000 0.0000
# 2 32.3234 84.6117 42.5275 0.0000 0.0000 0.0000
# 3 27.1810 42.5275 97.4036 0.0000 0.0000 0.0000
# 4 0.0000 0.0000 0.0000 32.0639 0.0000 0.0000
# 5 0.0000 0.0000 0.0000 0.0000 21.0334 0.0000
# 6 0.0000 0.0000 0.0000 0.0000 0.0000 26.0886
#
#
#
# Elastic Compliance Matrix: (Units=1/GPa)
#
#
# Indices 1 2 3 4 5 6 
#
# 1 0.020963 -0.006493 -0.003015 0.000000 0.000000 0.000000
# 2 -0.006493 0.017153 -0.005677 0.000000 0.000000 0.000000
# 3 -0.003015 -0.005677 0.013587 0.000000 0.000000 0.000000
# 4 0.000000 0.000000 0.000000 0.031188 0.000000 0.000000
# 5 0.000000 0.000000 0.000000 0.000000 0.047544 0.000000
# 6 0.000000 0.000000 0.000000 0.000000 0.000000 0.038331
#
#
# Mechanical properties :
#
#
# Convention : Reuss Voigt Hill
#
# Bulk Modulus (GPa) = 46.87761 49.74480 48.31121
# Shear Modulus (GPa) = 24.24303 25.27767 24.76035
#
# Velocity S-wave (km/s) = 3.61358 3.68988 3.65193
# Velocity P-wave (km/s) = 6.53147 6.70429 6.61844
#
# Compressibility (1/GPa) = 0.02133214
#
# Stress axis : x y z
#
# Youngs Moduli (GPa) = 47.70334 58.30036 73.60190
#
# Poissons Ratio (x) = 0.37854 0.22191
# Poissons Ratio (y) = 0.30973 0.41785
# Poissons Ratio (z) = 0.14382 0.33098
#
# Static dielectric constant tensor:
#      x y z
#    x 3.181880 0.000000 0.000000 
#    y 0.000000 3.592810 0.000000 
#    z 0.000000 0.000000 3.523160 
# 
# 
# High freq. dielectric constant tensor:
#      x y z
#    x 1.696390 0.000000 0.000000 
#    y 0.000000 1.730490 0.000000 
#    z 0.000000 0.000000 1.722140 
# 
# From -- ./inp_files/30605.got.cif
#   From: 2010.03.12/outbox.cif.g09.slc.cpg/sg51_16_cif.got.tgz:30605.got - 2010.04.16 13:43:02.
