data_PCOD8207509
_publ_section_title
;
Structure prediction by ZEFSAII (Michael W. Deem and Ramdas Pophale) SiO2 
 PCOD8207509
Probable space group: P M M A
;
_chemical_formula_sum "Si O2"
_cell_formula_units_Z 48
_cell_length_a 15.115789
_cell_length_b 16.816597
_cell_length_c 9.706318
_cell_angle_alpha 90.000000
_cell_angle_beta 90.000000
_cell_angle_gamma 90.000000
_cell_volume 2467.308491
_symmetry_space_group_name_H-M "P M M A"
_symmetry_group_IT_number 51
_symmetry_cell_setting 'orthorhombic'
loop_
_space_group_symop_operation_xyz
x,y,z
1/2-x,-y,z
1/2+x,-y,-z
-x,y,-z
-x,-y,-z
1/2+x,y,-z
1/2-x,y,z
x,-y,z
loop_
_atom_site_type_symbol
_atom_site_label
_atom_site_fract_x
_atom_site_fract_y
_atom_site_fract_z
Si Si1 0.899515 0.290990 0.529847
Si Si2 0.518995 0.910638 0.341671
Si Si3 0.649616 0.288474 0.971022
Si Si4 0.644612 0.409912 0.750334
Si Si5 0.350800 0.771855 0.745361
Si Si6 0.652324 0.838849 0.747542
O O1 0.891443 0.376274 0.604606
O O2 0.850676 0.289598 0.382359
O O3 0.855129 0.225538 0.626515
O O4 0.000000 0.268141 0.500000
O O5 0.500000 0.891810 0.500000
O O6 0.592154 0.850346 0.284980
O O7 0.425341 0.903486 0.261891
O O8 0.555020 0.000000 0.320679
O O9 0.750000 0.315038 0.994939
O O10 0.605035 0.358754 0.879250
O O11 0.642759 0.204787 0.893093
O O12 0.606659 0.274265 0.122194
O O13 0.750000 0.403410 0.747180
O O14 0.611439 0.500000 0.766403
O O15 0.250000 0.798478 0.777330
O O16 0.750000 0.878917 0.735829
#
# Coordination Sequence:
#
# PCOD8207509 Si02
#       6
#     8   8   8   8   8   8
#     4  11  19  33  55  82 111 145 191 232 268 325
#     4  11  23  37  54  85 115 141 184 234 286 333
#     4   8  18  33  56  82 106 144 190 229 271 332
#     4   9  18  35  57  82 113 151 190 229 279 335
#     4  11  20  36  57  82 112 147 188 231 279 329
#     4  10  18  36  57  78 107 146 193 230 269 330
#
# _framework density 19.454397
#
# number of rings (size 3 to 8) (size 9 to 14) (size 15 to 20)
#    0.000    2.000    3.333    2.500    0.000    1.667 
#    0.000    4.167    0.000    7.000    0.000    0.000 
#    0.000    0.000    0.000    0.000    0.000    0.000 
#
# Total GULP energy -594947.434954 kJ/mol
# GULP energy per Si atom -12394.738228 kJ/mol
# Density = 1.941012 g / cm^3
# Si number density = 19.454397 Si / 1000 Ang^3
#
#
#
# Elastic Constant Matrix: (Units=GPa)
#
#
# Indices 1 2 3 4 5 6 
#
# 1 78.8595 31.4425 22.6921 0.0000 0.0000 0.0000
# 2 31.4425 113.2010 60.4893 0.0000 0.0000 0.0000
# 3 22.6921 60.4893 155.3252 0.0000 0.0000 0.0000
# 4 0.0000 0.0000 0.0000 21.8702 0.0000 0.0000
# 5 0.0000 0.0000 0.0000 0.0000 18.4648 0.0000
# 6 0.0000 0.0000 0.0000 0.0000 0.0000 16.6628
#
#
#
# Elastic Compliance Matrix: (Units=1/GPa)
#
#
# Indices 1 2 3 4 5 6 
#
# 1 0.014318 -0.003610 -0.000686 0.000000 0.000000 0.000000
# 2 -0.003610 0.012066 -0.004171 0.000000 0.000000 0.000000
# 3 -0.000686 -0.004171 0.008163 0.000000 0.000000 0.000000
# 4 0.000000 0.000000 0.000000 0.045724 0.000000 0.000000
# 5 0.000000 0.000000 0.000000 0.000000 0.054157 0.000000
# 6 0.000000 0.000000 0.000000 0.000000 0.000000 0.060014
#
#
# Mechanical properties :
#
#
# Convention : Reuss Voigt Hill
#
# Bulk Modulus (GPa) = 56.78240 64.07039 60.42639
# Shear Modulus (GPa) = 23.01531 26.91701 24.96616
#
# Velocity S-wave (km/s) = 3.44327 3.72371 3.58623
# Velocity P-wave (km/s) = 6.71259 7.17587 6.94809
#
# Compressibility (1/GPa) = 0.01761109
#
# Stress axis : x y z
#
# Youngs Moduli (GPa) = 69.84403 82.88004 122.50781
#
# Poissons Ratio (x) = 0.29923 0.08400
# Poissons Ratio (y) = 0.25217 0.51102
# Poissons Ratio (z) = 0.04789 0.34572
#
# Static dielectric constant tensor:
#      x y z
#    x 3.567420 0.000000 0.000000 
#    y 0.000000 3.414250 0.000000 
#    z 0.000000 0.000000 3.867490 
# 
# 
# High freq. dielectric constant tensor:
#      x y z
#    x 1.749960 0.000000 0.000000 
#    y 0.000000 1.727310 0.000000 
#    z 0.000000 0.000000 1.764240 
# 
# From -- ./inp_files/8200.got.cif
#   From: 2010.03.12/outbox.cif.g09.slc.cpg/sg51_5_cif.got.tgz:8200.got - 2010.04.16 13:43:02.
