data_PCOD8207082
_publ_section_title
;
Structure prediction by ZEFSAII (Michael W. Deem and Ramdas Pophale) SiO2 
 PCOD8207082
Probable space group: P M M A
;
_chemical_formula_sum "Si O2"
_cell_formula_units_Z 48
_cell_length_a 8.678504
_cell_length_b 16.268543
_cell_length_c 18.251290
_cell_angle_alpha 90.000000
_cell_angle_beta 90.000000
_cell_angle_gamma 90.000000
_cell_volume 2576.837864
_symmetry_space_group_name_H-M "P M M A"
_symmetry_group_IT_number 51
_symmetry_cell_setting 'orthorhombic'
loop_
_space_group_symop_operation_xyz
x,y,z
1/2-x,-y,z
1/2+x,-y,-z
-x,y,-z
-x,-y,-z
1/2+x,y,-z
1/2-x,y,z
x,-y,z
loop_
_atom_site_type_symbol
_atom_site_label
_atom_site_fract_x
_atom_site_fract_y
_atom_site_fract_z
Si Si1 0.067330 0.000000 0.580995
Si Si2 0.071058 0.744011 0.707169
Si Si3 0.431033 0.162915 0.853854
Si Si4 0.428544 0.683375 0.073531
Si Si5 0.572001 0.593664 0.779408
Si Si6 0.931737 0.000000 0.918479
Si Si7 0.069326 0.165117 0.420288
O O1 0.000000 0.000000 0.500000
O O2 0.003587 0.083169 0.617617
O O3 0.250000 0.000000 0.582359
O O4 0.250000 0.752111 0.688183
O O5 0.023506 0.806354 0.772339
O O6 0.034033 0.650503 0.728815
O O7 0.971498 0.761718 0.634779
O O8 0.250000 0.148337 0.861154
O O9 0.482609 0.231920 0.911077
O O10 0.516828 0.078706 0.871801
O O11 0.250000 0.704238 0.063769
O O12 0.456506 0.615899 0.135980
O O13 0.500000 0.644860 0.000000
O O14 0.750000 0.608084 0.758584
O O15 0.521764 0.500000 0.766392
O O16 0.750000 0.000000 0.926469
O O17 0.000000 0.000000 0.000000
O O18 0.250000 0.153897 0.429436
O O19 0.000000 0.184007 0.500000
#
# Coordination Sequence:
#
# PCOD8207082 Si02
#       7
#     4   8   8   8   8   4   8
#     4  10  18  31  50  75 108 141 175 213 253 297
#     4  10  21  37  57  81 108 139 176 219 267 319
#     4  10  21  37  54  73 101 137 178 221 265 313
#     4  10  19  32  51  75 104 136 172 215 263 314
#     4   9  19  36  56  78 105 138 175 215 262 318
#     4  12  24  37  54  75 103 139 183 229 270 313
#     4  11  21  35  56  82 113 147 183 221 263 313
#
# _framework density 18.627482000000001
#
# number of rings (size 3 to 8) (size 9 to 14) (size 15 to 20)
#    0.000    1.833    0.000    6.000    0.000    4.000 
#    0.000    0.833    0.000    0.500    0.000    0.000 
#    0.000    0.000    0.000    0.000    0.000    0.000 
#
# Total GULP energy -595293.924905 kJ/mol
# GULP energy per Si atom -12401.956769 kJ/mol
# Density = 1.858508 g / cm^3
# Si number density = 18.627482 Si / 1000 Ang^3
#
#
#
# Elastic Constant Matrix: (Units=GPa)
#
#
# Indices 1 2 3 4 5 6 
#
# 1 124.6804 46.1283 47.8698 0.0000 0.0000 0.0000
# 2 46.1283 113.9336 46.4229 0.0000 0.0000 0.0000
# 3 47.8698 46.4229 94.6975 0.0000 0.0000 0.0000
# 4 0.0000 0.0000 0.0000 25.5680 0.0000 0.0000
# 5 0.0000 0.0000 0.0000 0.0000 30.7499 0.0000
# 6 0.0000 0.0000 0.0000 0.0000 0.0000 30.0458
#
#
#
# Elastic Compliance Matrix: (Units=1/GPa)
#
#
# Indices 1 2 3 4 5 6 
#
# 1 0.010543 -0.002620 -0.004045 0.000000 0.000000 0.000000
# 2 -0.002620 0.011619 -0.004371 0.000000 0.000000 0.000000
# 3 -0.004045 -0.004371 0.014748 0.000000 0.000000 0.000000
# 4 0.000000 0.000000 0.000000 0.039111 0.000000 0.000000
# 5 0.000000 0.000000 0.000000 0.000000 0.032520 0.000000
# 6 0.000000 0.000000 0.000000 0.000000 0.000000 0.033283
#
#
# Mechanical properties :
#
#
# Convention : Reuss Voigt Hill
#
# Bulk Modulus (GPa) = 67.40203 68.23929 67.82066
# Shear Modulus (GPa) = 29.61333 30.13209 29.87271
#
# Velocity S-wave (km/s) = 3.99151 4.02632 4.00895
# Velocity P-wave (km/s) = 7.58325 7.63729 7.61032
#
# Compressibility (1/GPa) = 0.01483635
#
# Stress axis : x y z
#
# Youngs Moduli (GPa) = 94.84965 86.06519 67.80775
#
# Poissons Ratio (x) = 0.22553 0.27428
# Poissons Ratio (y) = 0.24855 0.29641
# Poissons Ratio (z) = 0.38366 0.37622
#
# Static dielectric constant tensor:
#      x y z
#    x 3.489490 0.000000 0.000000 
#    y 0.000000 3.504500 0.000000 
#    z 0.000000 0.000000 3.314610 
# 
# 
# High freq. dielectric constant tensor:
#      x y z
#    x 1.737790 0.000000 0.000000 
#    y 0.000000 1.715130 0.000000 
#    z 0.000000 0.000000 1.710950 
# 
# From -- ./inp_files/27676.got.cif
#   From: 2010.03.12/outbox.cif.g09.slc.cpg/sg51_14_cif.got.tgz:27676.got - 2010.04.16 13:43:02.
