data_PCOD8207534
_publ_section_title
;
Structure prediction by ZEFSAII (Michael W. Deem and Ramdas Pophale) SiO2 
 PCOD8207534
Probable space group: P M M A
;
_chemical_formula_sum "Si O2"
_cell_formula_units_Z 64
_cell_length_a 25.189466
_cell_length_b 9.387451
_cell_length_c 18.426376
_cell_angle_alpha 90.000000
_cell_angle_beta 90.000000
_cell_angle_gamma 90.000000
_cell_volume 4357.190749
_symmetry_space_group_name_H-M "P M M A"
_symmetry_group_IT_number 51
_symmetry_cell_setting 'orthorhombic'
loop_
_space_group_symop_operation_xyz
x,y,z
1/2-x,-y,z
1/2+x,-y,-z
-x,y,-z
-x,-y,-z
1/2+x,y,-z
1/2-x,y,z
x,-y,z
loop_
_atom_site_type_symbol
_atom_site_label
_atom_site_fract_x
_atom_site_fract_y
_atom_site_fract_z
Si Si1 0.507718 0.831163 0.617512
Si Si2 0.496758 0.665383 0.234120
Si Si3 0.082806 0.168441 0.509392
Si Si4 0.311054 0.839708 0.730366
Si Si5 0.192103 0.169357 0.565480
Si Si6 0.578995 0.840451 0.043491
Si Si7 0.387177 0.335624 0.829408
Si Si8 0.538359 0.159989 0.893429
O O1 0.513424 0.745872 0.691255
O O2 0.454509 0.780042 0.575768
O O3 0.558281 0.787103 0.567874
O O4 0.506693 0.000000 0.633184
O O5 0.483005 0.500000 0.243289
O O6 0.557096 0.690301 0.210288
O O7 0.457045 0.731198 0.173741
O O8 0.142844 0.230579 0.517884
O O9 0.084205 0.000000 0.514169
O O10 0.250000 0.838135 0.753791
O O11 0.317626 0.784316 0.648274
O O12 0.341813 0.733190 0.781580
O O13 0.334226 0.000000 0.738009
O O14 0.250000 0.228174 0.538557
O O15 0.193733 0.000000 0.561420
O O16 0.614717 0.733360 0.090378
O O17 0.520180 0.837446 0.074620
O O18 0.602364 0.000000 0.050346
O O19 0.578241 0.793612 0.958581
O O20 0.374317 0.500000 0.839396
O O21 0.552139 0.000000 0.866718
#
# Coordination Sequence:
#
# PCOD8207534 Si02
#       8
#     8   8   8   8   8   8   8   8
#     4   9  16  26  40  55  74 103 135 165 195 232
#     4  10  19  27  36  55  81 106 133 162 193 232
#     4   8  14  24  38  56  75  98 131 165 197 236
#     4   9  17  28  42  59  77 100 132 167 199 230
#     4   8  13  22  38  59  79  97 122 162 206 239
#     4   8  14  25  40  56  74  98 129 160 187 220
#     4  10  19  27  37  55  79 107 134 160 193 232
#     4   8  14  25  40  56  74  99 129 158 188 221
#
# _framework density 14.688363000000001
#
# number of rings (size 3 to 8) (size 9 to 14) (size 15 to 20)
#    0.000    3.250    0.000    3.750    0.000    3.250 
#    0.000    3.750    0.000    0.750    0.000    0.000 
#    0.000    1.000    0.000    7.750    0.000    2.000 
#
# Total GULP energy -793076.686687 kJ/mol
# GULP energy per Si atom -12391.823229 kJ/mol
# Density = 1.465493 g / cm^3
# Si number density = 14.688363 Si / 1000 Ang^3
#
#
#
# Elastic Constant Matrix: (Units=GPa)
#
#
# Indices 1 2 3 4 5 6 
#
# 1 74.9723 29.2768 43.6947 0.0000 0.0000 0.0000
# 2 29.2768 69.0806 55.5578 0.0000 0.0000 0.0000
# 3 43.6947 55.5578 109.6859 0.0000 0.0000 0.0000
# 4 0.0000 0.0000 0.0000 5.5575 0.0000 0.0000
# 5 0.0000 0.0000 0.0000 0.0000 19.4650 0.0000
# 6 0.0000 0.0000 0.0000 0.0000 0.0000 12.4336
#
#
#
# Elastic Compliance Matrix: (Units=1/GPa)
#
#
# Indices 1 2 3 4 5 6 
#
# 1 0.017756 -0.003099 -0.005504 0.000000 0.000000 0.000000
# 2 -0.003099 0.024967 -0.011412 0.000000 0.000000 0.000000
# 3 -0.005504 -0.011412 0.017090 0.000000 0.000000 0.000000
# 4 0.000000 0.000000 0.000000 0.179937 0.000000 0.000000
# 5 0.000000 0.000000 0.000000 0.000000 0.051374 0.000000
# 6 0.000000 0.000000 0.000000 0.000000 0.000000 0.080427
#
#
# Mechanical properties :
#
#
# Convention : Reuss Voigt Hill
#
# Bulk Modulus (GPa) = 50.54559 56.75529 53.65044
# Shear Modulus (GPa) = 11.95672 15.83852 13.89762
#
# Velocity S-wave (km/s) = 2.85621 3.28732 3.07932
# Velocity P-wave (km/s) = 6.73528 7.28918 7.01769
#
# Compressibility (1/GPa) = 0.01978412
#
# Stress axis : x y z
#
# Youngs Moduli (GPa) = 56.31913 40.05288 58.51475
#
# Poissons Ratio (x) = 0.12411 0.32205
# Poissons Ratio (y) = 0.17452 0.66776
# Poissons Ratio (z) = 0.30997 0.45708
#
# Static dielectric constant tensor:
#      x y z
#    x 2.890320 0.000000 0.000000 
#    y 0.000000 2.701200 0.000000 
#    z 0.000000 0.000000 2.958410 
# 
# 
# High freq. dielectric constant tensor:
#      x y z
#    x 1.527010 0.000000 0.000000 
#    y 0.000000 1.542520 0.000000 
#    z 0.000000 0.000000 1.556390 
# 
# From -- ./inp_files/31007.got.cif
#   From: 2010.03.12/outbox.cif.g09.slc.cpg/sg51_16_cif.got.tgz:31007.got - 2010.04.16 13:43:02.
