data_PCOD8207360
_publ_section_title
;
Structure prediction by ZEFSAII (Michael W. Deem and Ramdas Pophale) SiO2 
 PCOD8207360
Probable space group: P M M A
;
_chemical_formula_sum "Si O2"
_cell_formula_units_Z 38
_cell_length_a 19.669895
_cell_length_b 7.574671
_cell_length_c 13.142332
_cell_angle_alpha 90.000000
_cell_angle_beta 90.000000
_cell_angle_gamma 90.000000
_cell_volume 1958.115251
_symmetry_space_group_name_H-M "P M M A"
_symmetry_group_IT_number 51
_symmetry_cell_setting 'orthorhombic'
loop_
_space_group_symop_operation_xyz
x,y,z
1/2-x,-y,z
1/2+x,-y,-z
-x,y,-z
-x,-y,-z
1/2+x,y,-z
1/2-x,y,z
x,-y,z
loop_
_atom_site_type_symbol
_atom_site_label
_atom_site_fract_x
_atom_site_fract_y
_atom_site_fract_z
Si Si1 0.171402 0.700245 0.381492
Si Si2 0.173085 0.791142 0.605583
Si Si3 0.985118 0.000000 0.118732
Si Si4 0.250000 0.705187 0.931179
Si Si5 0.750000 0.000000 0.903880
Si Si6 0.385685 0.699703 0.812749
Si Si7 0.623033 0.000000 0.757613
O O1 0.250000 0.760903 0.373054
O O2 0.161732 0.500000 0.343658
O O3 0.147176 0.716258 0.498049
O O4 0.125705 0.825510 0.311792
O O5 0.250000 0.724990 0.626516
O O6 0.123238 0.716015 0.691505
O O7 0.169424 0.000000 0.603908
O O8 0.944506 0.175624 0.146706
O O9 0.053634 0.000000 0.181915
O O10 0.000000 0.000000 0.000000
O O11 0.250000 0.500000 0.962976
O O12 0.315349 0.756433 0.865068
O O13 0.250000 0.820892 0.032026
O O14 0.683422 0.000000 0.836932
O O15 0.405897 0.500000 0.840962
#
# Coordination Sequence:
#
# PCOD8207360 Si02
#       7
#     8   8   4   4   2   8   4
#     4  10  20  37  63  96 131 161 197 249 311 374
#     4  10  18  32  64 101 133 162 196 244 311 380
#     4  12  28  46  63  85 121 174 215 261 317 369
#     4  10  22  38  63  95 122 151 203 266 317 364
#     4  12  24  40  66  84 118 154 212 278 314 354
#     4  11  22  40  65  96 127 161 205 253 313 374
#     4  12  24  43  63  87 120 163 220 256 305 375
#
# _framework density 19.406414999999999
#
# number of rings (size 3 to 8) (size 9 to 14) (size 15 to 20)
#    0.000    1.263    4.211    2.526    0.000    2.947 
#    0.000    2.105    0.000    2.526    0.000    0.000 
#    0.000    0.000    0.000    0.000    0.000    0.000 
#
# Total GULP energy -471393.417475 kJ/mol
# GULP energy per Si atom -12405.089934 kJ/mol
# Density = 1.936225 g / cm^3
# Si number density = 19.406415 Si / 1000 Ang^3
#
#
#
# Elastic Constant Matrix: (Units=GPa)
#
#
# Indices 1 2 3 4 5 6 
#
# 1 125.0231 60.3677 73.9215 0.0000 0.0000 0.0000
# 2 60.3677 121.0107 63.3469 0.0000 0.0000 0.0000
# 3 73.9215 63.3469 146.4331 0.0000 0.0000 0.0000
# 4 0.0000 0.0000 0.0000 7.1858 0.0000 0.0000
# 5 0.0000 0.0000 0.0000 0.0000 39.1780 0.0000
# 6 0.0000 0.0000 0.0000 0.0000 0.0000 25.8077
#
#
#
# Elastic Compliance Matrix: (Units=1/GPa)
#
#
# Indices 1 2 3 4 5 6 
#
# 1 0.012643 -0.003834 -0.004724 0.000000 0.000000 0.000000
# 2 -0.003834 0.011846 -0.003189 0.000000 0.000000 0.000000
# 3 -0.004724 -0.003189 0.010593 0.000000 0.000000 0.000000
# 4 0.000000 0.000000 0.000000 0.139163 0.000000 0.000000
# 5 0.000000 0.000000 0.000000 0.000000 0.025525 0.000000
# 6 0.000000 0.000000 0.000000 0.000000 0.000000 0.038748
#
#
# Mechanical properties :
#
#
# Convention : Reuss Voigt Hill
#
# Bulk Modulus (GPa) = 86.29451 87.52656 86.91053
# Shear Modulus (GPa) = 18.80596 27.42304 23.11450
#
# Velocity S-wave (km/s) = 3.11635 3.76319 3.45494
# Velocity P-wave (km/s) = 7.58369 8.00512 7.79725
#
# Compressibility (1/GPa) = 0.01158822
#
# Stress axis : x y z
#
# Youngs Moduli (GPa) = 79.09660 84.41764 94.40134
#
# Poissons Ratio (x) = 0.32368 0.44591
# Poissons Ratio (y) = 0.30328 0.30104
# Poissons Ratio (z) = 0.37361 0.26920
#
# Static dielectric constant tensor:
#      x y z
#    x 3.283870 0.000000 0.000000 
#    y 0.000000 3.613040 0.000000 
#    z 0.000000 0.000000 3.660900 
# 
# 
# High freq. dielectric constant tensor:
#      x y z
#    x 1.724210 0.000000 0.000000 
#    y 0.000000 1.773210 0.000000 
#    z 0.000000 0.000000 1.766050 
# 
# From -- ./inp_files/17127.got.cif
#   From: 2010.03.12/outbox.cif.g09.slc.cpg/sg51_9_cif.got.tgz:17127.got - 2010.04.16 13:43:02.
