data_PCOD8207385
_publ_section_title
;
Structure prediction by ZEFSAII (Michael W. Deem and Ramdas Pophale) SiO2 
 PCOD8207385
Probable space group: P M M A
;
_chemical_formula_sum "Si O2"
_cell_formula_units_Z 56
_cell_length_a 17.428123
_cell_length_b 8.989831
_cell_length_c 18.495546
_cell_angle_alpha 90.000000
_cell_angle_beta 90.000000
_cell_angle_gamma 90.000000
_cell_volume 2897.805953
_symmetry_space_group_name_H-M "P M M A"
_symmetry_group_IT_number 51
_symmetry_cell_setting 'orthorhombic'
loop_
_space_group_symop_operation_xyz
x,y,z
1/2-x,-y,z
1/2+x,-y,-z
-x,y,-z
-x,-y,-z
1/2+x,y,-z
1/2-x,y,z
x,-y,z
loop_
_atom_site_type_symbol
_atom_site_label
_atom_site_fract_x
_atom_site_fract_y
_atom_site_fract_z
Si Si1 0.541811 0.676553 0.663238
Si Si2 0.900209 0.173928 0.413271
Si Si3 0.664288 0.323773 0.934834
Si Si4 0.111165 0.324630 0.909132
Si Si5 0.460312 0.323500 0.173005
Si Si6 0.750000 0.175934 0.334202
Si Si7 0.750000 0.824461 0.170040
Si Si8 0.338438 0.172552 0.429997
O O1 0.538913 0.500000 0.660969
O O2 0.474814 0.739894 0.613147
O O3 0.532925 0.737628 0.745346
O O4 0.623982 0.731415 0.633901
O O5 0.826464 0.239544 0.371460
O O6 0.886944 0.203510 0.497713
O O7 0.912507 0.000000 0.397282
O O8 0.750000 0.253627 0.935034
O O9 0.671115 0.500000 0.931328
O O10 0.617363 0.263440 0.865365
O O11 0.617602 0.278802 0.006923
O O12 0.123110 0.500000 0.898922
O O13 0.175332 0.239713 0.865883
O O14 0.030864 0.269282 0.876382
O O15 0.458713 0.500000 0.174709
O O16 0.750000 0.228637 0.252360
O O17 0.750000 0.000000 0.345013
O O18 0.750000 0.000000 0.163076
O O19 0.250000 0.221224 0.440653
O O20 0.343143 0.000000 0.408990
#
# Coordination Sequence:
#
# PCOD8207385 Si02
#       8
#     8   8   8   8   8   4   4   8
#     4  11  23  36  52  82 119 150 175 214 279 342
#     4  10  19  37  61  81 104 139 187 233 268 314
#     4   9  16  29  53  83 105 131 180 232 267 299
#     4  10  18  33  55  79 104 137 184 227 261 308
#     4   9  19  33  51  78 113 144 176 222 270 316
#     4   9  18  33  55  81 106 139 182 224 267 321
#     4  11  21  31  49  79 114 143 166 208 273 331
#     4  10  21  39  62  83 103 138 190 238 271 310
#
# _framework density 19.324964999999999
#
# number of rings (size 3 to 8) (size 9 to 14) (size 15 to 20)
#    0.000    2.143    1.429    2.357    0.000    4.857 
#    0.000    3.214    0.000    3.429    0.000    0.000 
#    0.000    0.000    0.000    0.000    0.000    0.000 
#
# Total GULP energy -694374.411683 kJ/mol
# GULP energy per Si atom -12399.543066 kJ/mol
# Density = 1.928098 g / cm^3
# Si number density = 19.324965 Si / 1000 Ang^3
#
#
#
# Elastic Constant Matrix: (Units=GPa)
#
#
# Indices 1 2 3 4 5 6 
#
# 1 138.5419 31.8361 78.2794 0.0000 0.0000 0.0000
# 2 31.8361 34.9178 32.9786 0.0000 0.0000 0.0000
# 3 78.2794 32.9786 122.2275 0.0000 0.0000 0.0000
# 4 0.0000 0.0000 0.0000 20.4365 0.0000 0.0000
# 5 0.0000 0.0000 0.0000 0.0000 42.6299 0.0000
# 6 0.0000 0.0000 0.0000 0.0000 0.0000 29.7972
#
#
#
# Elastic Compliance Matrix: (Units=1/GPa)
#
#
# Indices 1 2 3 4 5 6 
#
# 1 0.011905 -0.004903 -0.006302 0.000000 0.000000 0.000000
# 2 -0.004903 0.040451 -0.007774 0.000000 0.000000 0.000000
# 3 -0.006302 -0.007774 0.014315 0.000000 0.000000 0.000000
# 4 0.000000 0.000000 0.000000 0.048932 0.000000 0.000000
# 5 0.000000 0.000000 0.000000 0.000000 0.023458 0.000000
# 6 0.000000 0.000000 0.000000 0.000000 0.000000 0.033560
#
#
# Mechanical properties :
#
#
# Convention : Reuss Voigt Hill
#
# Bulk Modulus (GPa) = 34.82642 64.65282 49.73962
# Shear Modulus (GPa) = 22.71169 28.74560 25.72865
#
# Velocity S-wave (km/s) = 3.43191 3.86098 3.65275
# Velocity P-wave (km/s) = 5.81073 7.30783 6.60186
#
# Compressibility (1/GPa) = 0.02871383
#
# Stress axis : x y z
#
# Youngs Moduli (GPa) = 83.99586 24.72099 69.85660
#
# Poissons Ratio (x) = 0.12120 0.44022
# Poissons Ratio (y) = 0.41181 0.54309
# Poissons Ratio (z) = 0.52933 0.19219
#
# Static dielectric constant tensor:
#      x y z
#    x 3.647130 0.000000 0.000000 
#    y 0.000000 3.107650 0.000000 
#    z 0.000000 0.000000 3.812910 
# 
# 
# High freq. dielectric constant tensor:
#      x y z
#    x 1.767900 0.000000 0.000000 
#    y 0.000000 1.705300 0.000000 
#    z 0.000000 0.000000 1.763850 
# 
# From -- ./inp_files/33583.got.cif
#   From: 2010.03.12/outbox.cif.g09.slc.cpg/sg51_17_cif.got.tgz:33583.got - 2010.04.16 13:43:02.
