data_PCOD8207644
_publ_section_title
;
Structure prediction by ZEFSAII (Michael W. Deem and Ramdas Pophale) SiO2 
 PCOD8207644
Probable space group: P M M A
;
_chemical_formula_sum "Si O2"
_cell_formula_units_Z 64
_cell_length_a 25.863916
_cell_length_b 8.959874
_cell_length_c 18.270509
_cell_angle_alpha 90.000000
_cell_angle_beta 90.000000
_cell_angle_gamma 90.000000
_cell_volume 4233.960773
_symmetry_space_group_name_H-M "P M M A"
_symmetry_group_IT_number 51
_symmetry_cell_setting 'orthorhombic'
loop_
_space_group_symop_operation_xyz
x,y,z
1/2-x,-y,z
1/2+x,-y,-z
-x,y,-z
-x,-y,-z
1/2+x,y,-z
1/2-x,y,z
x,-y,z
loop_
_atom_site_type_symbol
_atom_site_label
_atom_site_fract_x
_atom_site_fract_y
_atom_site_fract_z
Si Si1 0.897238 0.674144 0.916980
Si Si2 0.900837 0.325147 0.589600
Si Si3 0.309498 0.171099 0.168737
Si Si4 0.493398 0.823206 0.325335
Si Si5 0.554656 0.835964 0.460778
Si Si6 0.999758 0.675355 0.829458
Si Si7 0.309332 0.828400 0.337490
Si Si8 0.947260 0.168008 0.044499
O O1 0.897049 0.500000 0.933937
O O2 0.843452 0.721247 0.881137
O O3 0.943652 0.716250 0.861955
O O4 0.903074 0.758230 0.994379
O O5 0.908793 0.500000 0.597507
O O6 0.940370 0.244286 0.643949
O O7 0.909137 0.279069 0.504594
O O8 0.843155 0.279473 0.612028
O O9 0.250000 0.195995 0.147125
O O10 0.318546 0.213633 0.253041
O O11 0.325789 0.000000 0.155052
O O12 0.542229 0.782617 0.377953
O O13 0.506453 0.756016 0.247321
O O14 0.485638 0.000000 0.319936
O O15 0.500000 0.847819 0.500000
O O16 0.581094 0.000000 0.460855
O O17 0.006826 0.500000 0.819344
O O18 0.045118 0.736019 0.882004
O O19 0.250000 0.801269 0.359059
O O20 0.324827 0.000000 0.351332
O O21 0.930645 0.000000 0.065156
O O22 0.000000 0.169233 0.000000
#
# Coordination Sequence:
#
# PCOD8207644 Si02
#       8
#     8   8   8   8   8   8   8   8
#     4  10  19  29  42  61  85 113 142 173 212 252
#     4  11  20  28  42  63  86 112 141 176 217 255
#     4   9  18  31  45  61  81 108 144 181 212 245
#     4  10  19  30  44  61  83 113 147 177 206 248
#     4   8  16  30  44  58  79 109 143 176 207 245
#     4  10  19  29  42  63  89 112 138 175 215 253
#     4   9  18  32  47  61  81 112 147 180 212 248
#     4   9  17  29  44  60  80 110 144 174 205 245
#
# _framework density 15.115869999999999
#
# number of rings (size 3 to 8) (size 9 to 14) (size 15 to 20)
#    0.000    2.500    0.000    4.875    0.000    8.750 
#    0.000    1.250    0.000    0.000    0.000    0.000 
#    0.000    1.000    0.000    8.750    0.000    4.875 
#
# Total GULP energy -793550.540822 kJ/mol
# GULP energy per Si atom -12399.227200 kJ/mol
# Density = 1.508147 g / cm^3
# Si number density = 15.115870 Si / 1000 Ang^3
#
#
#
# Elastic Constant Matrix: (Units=GPa)
#
#
# Indices 1 2 3 4 5 6 
#
# 1 56.7212 35.7255 41.9918 0.0000 0.0000 0.0000
# 2 35.7255 92.2879 53.8553 0.0000 0.0000 0.0000
# 3 41.9918 53.8553 101.9885 0.0000 0.0000 0.0000
# 4 0.0000 0.0000 0.0000 23.9747 0.0000 0.0000
# 5 0.0000 0.0000 0.0000 0.0000 24.0998 0.0000
# 6 0.0000 0.0000 0.0000 0.0000 0.0000 19.3703
#
#
#
# Elastic Compliance Matrix: (Units=1/GPa)
#
#
# Indices 1 2 3 4 5 6 
#
# 1 0.027356 -0.005806 -0.008197 0.000000 0.000000 0.000000
# 2 -0.005806 0.016894 -0.006530 0.000000 0.000000 0.000000
# 3 -0.008197 -0.006530 0.016629 0.000000 0.000000 0.000000
# 4 0.000000 0.000000 0.000000 0.041711 0.000000 0.000000
# 5 0.000000 0.000000 0.000000 0.000000 0.041494 0.000000
# 6 0.000000 0.000000 0.000000 0.000000 0.000000 0.051625
#
#
# Mechanical properties :
#
#
# Convention : Reuss Voigt Hill
#
# Bulk Modulus (GPa) = 50.47770 57.12699 53.80234
# Shear Modulus (GPa) = 20.54405 21.45062 20.99734
#
# Velocity S-wave (km/s) = 3.69060 3.77115 3.73110
# Velocity P-wave (km/s) = 7.18520 7.53903 7.36424
#
# Compressibility (1/GPa) = 0.01981073
#
# Stress axis : x y z
#
# Youngs Moduli (GPa) = 36.55563 59.19216 60.13761
#
# Poissons Ratio (x) = 0.34367 0.49296
# Poissons Ratio (y) = 0.21224 0.39273
# Poissons Ratio (z) = 0.29966 0.38655
#
# Static dielectric constant tensor:
#      x y z
#    x 2.657630 0.000000 0.000000 
#    y 0.000000 2.964430 0.000000 
#    z 0.000000 0.000000 3.030470 
# 
# 
# High freq. dielectric constant tensor:
#      x y z
#    x 1.541060 0.000000 0.000000 
#    y 0.000000 1.590360 0.000000 
#    z 0.000000 0.000000 1.570320 
# 
# From -- ./inp_files/30847.got.cif
#   From: 2010.03.12/outbox.cif.g09.slc.cpg/sg51_16_cif.got.tgz:30847.got - 2010.04.16 13:43:02.
