data_PCOD8207389
_publ_section_title
;
Structure prediction by ZEFSAII (Michael W. Deem and Ramdas Pophale) SiO2 
 PCOD8207389
Probable space group: P M M A
;
_chemical_formula_sum "Si O2"
_cell_formula_units_Z 56
_cell_length_a 15.985642
_cell_length_b 9.144794
_cell_length_c 18.911474
_cell_angle_alpha 90.000000
_cell_angle_beta 90.000000
_cell_angle_gamma 90.000000
_cell_volume 2764.581449
_symmetry_space_group_name_H-M "P M M A"
_symmetry_group_IT_number 51
_symmetry_cell_setting 'orthorhombic'
loop_
_space_group_symop_operation_xyz
x,y,z
1/2-x,-y,z
1/2+x,-y,-z
-x,y,-z
-x,-y,-z
1/2+x,y,-z
1/2-x,y,z
x,-y,z
loop_
_atom_site_type_symbol
_atom_site_label
_atom_site_fract_x
_atom_site_fract_y
_atom_site_fract_z
Si Si1 0.585258 0.830882 0.836744
Si Si2 0.156375 0.336343 0.786811
Si Si3 0.250000 0.824936 0.404220
Si Si4 0.154663 0.667181 0.039894
Si Si5 0.905182 0.171436 0.343757
Si Si6 0.250000 0.826083 0.563537
Si Si7 0.407691 0.830852 0.910351
Si Si8 0.412098 0.171734 0.323766
O O1 0.650486 0.735102 0.881484
O O2 0.496278 0.808341 0.873443
O O3 0.584386 0.768696 0.756612
O O4 0.612698 0.000000 0.838217
O O5 0.250000 0.342372 0.756974
O O6 0.119938 0.500000 0.795848
O O7 0.101347 0.247146 0.731763
O O8 0.158511 0.254436 0.861802
O O9 0.250000 0.764196 0.484216
O O10 0.167185 0.761390 0.365577
O O11 0.250000 0.000000 0.404754
O O12 0.250000 0.677144 0.013420
O O13 0.123535 0.500000 0.041266
O O14 0.094740 0.760245 0.988122
O O15 0.835275 0.231149 0.398504
O O16 0.001303 0.205558 0.366986
O O17 0.891623 0.000000 0.331390
O O18 0.250000 0.000000 0.563367
O O19 0.382947 0.000000 0.917071
O O20 0.399602 0.000000 0.319367
#
# Coordination Sequence:
#
# PCOD8207389 Si02
#       8
#     8   8   4   8   8   4   8   8
#     4  10  21  37  58  83 108 145 195 242 289 345
#     4  11  22  34  52  82 116 151 190 234 287 349
#     4   9  18  32  52  87 124 153 190 239 293 340
#     4  11  25  41  55  79 114 150 190 239 292 346
#     4  10  18  33  55  82 116 152 191 236 287 344
#     4   9  18  30  53  87 122 157 190 229 287 350
#     4  11  22  38  59  83 112 146 191 240 289 346
#     4   9  18  33  54  82 118 153 190 240 291 341
#
# _framework density 20.256229999999999
#
# number of rings (size 3 to 8) (size 9 to 14) (size 15 to 20)
#    0.000    1.857    2.143    2.143    1.000    7.143 
#    0.000    2.857    0.000    0.000    0.000    5.000 
#    0.000    0.000    0.000    0.000    0.000    0.000 
#
# Total GULP energy -694263.359205 kJ/mol
# GULP energy per Si atom -12397.559986 kJ/mol
# Density = 2.021013 g / cm^3
# Si number density = 20.256230 Si / 1000 Ang^3
#
#
#
# Elastic Constant Matrix: (Units=GPa)
#
#
# Indices 1 2 3 4 5 6 
#
# 1 119.6061 33.3423 64.7834 0.0000 0.0000 0.0000
# 2 33.3423 75.2789 35.8845 0.0000 0.0000 0.0000
# 3 64.7834 35.8845 142.2530 0.0000 0.0000 0.0000
# 4 0.0000 0.0000 0.0000 4.8415 0.0000 0.0000
# 5 0.0000 0.0000 0.0000 0.0000 30.8122 0.0000
# 6 0.0000 0.0000 0.0000 0.0000 0.0000 16.1756
#
#
#
# Elastic Compliance Matrix: (Units=1/GPa)
#
#
# Indices 1 2 3 4 5 6 
#
# 1 0.011663 -0.002994 -0.004556 0.000000 0.000000 0.000000
# 2 -0.002994 0.015868 -0.002639 0.000000 0.000000 0.000000
# 3 -0.004556 -0.002639 0.009771 0.000000 0.000000 0.000000
# 4 0.000000 0.000000 0.000000 0.206546 0.000000 0.000000
# 5 0.000000 0.000000 0.000000 0.000000 0.032455 0.000000
# 6 0.000000 0.000000 0.000000 0.000000 0.000000 0.061822
#
#
# Mechanical properties :
#
#
# Convention : Reuss Voigt Hill
#
# Bulk Modulus (GPa) = 59.09241 67.23985 63.16613
# Shear Modulus (GPa) = 13.73084 23.90773 18.81928
#
# Velocity S-wave (km/s) = 2.60639 3.43923 3.05136
# Velocity P-wave (km/s) = 6.18818 7.00270 6.60800
#
# Compressibility (1/GPa) = 0.01692265
#
# Stress axis : x y z
#
# Youngs Moduli (GPa) = 85.73919 63.01924 102.34850
#
# Poissons Ratio (x) = 0.18867 0.46633
# Poissons Ratio (y) = 0.25670 0.27014
# Poissons Ratio (z) = 0.39066 0.16633
#
# Static dielectric constant tensor:
#      x y z
#    x 3.783490 0.000000 0.000000 
#    y 0.000000 3.355440 0.000000 
#    z 0.000000 0.000000 3.746900 
# 
# 
# High freq. dielectric constant tensor:
#      x y z
#    x 1.798800 0.000000 0.000000 
#    y 0.000000 1.753130 0.000000 
#    z 0.000000 0.000000 1.785640 
# 
# From -- ./inp_files/33564.got.cif
#   From: 2010.03.12/outbox.cif.g09.slc.cpg/sg51_17_cif.got.tgz:33564.got - 2010.04.16 13:43:02.
