data_PCOD8207824
_publ_section_title
;
Structure prediction by ZEFSAII (Michael W. Deem and Ramdas Pophale) SiO2 
 PCOD8207824
Probable space group: P M M A
;
_chemical_formula_sum "Si O2"
_cell_formula_units_Z 56
_cell_length_a 8.953423
_cell_length_b 22.579060
_cell_length_c 14.551653
_cell_angle_alpha 90.000000
_cell_angle_beta 90.000000
_cell_angle_gamma 90.000000
_cell_volume 2941.760353
_symmetry_space_group_name_H-M "P M M A"
_symmetry_group_IT_number 51
_symmetry_cell_setting 'orthorhombic'
loop_
_space_group_symop_operation_xyz
x,y,z
1/2-x,-y,z
1/2+x,-y,-z
-x,y,-z
-x,-y,-z
1/2+x,y,-z
1/2-x,y,z
x,-y,z
loop_
_atom_site_type_symbol
_atom_site_label
_atom_site_fract_x
_atom_site_fract_y
_atom_site_fract_z
Si Si1 0.074338 0.889316 0.588401
Si Si2 0.917454 0.776583 0.648194
Si Si3 0.426936 0.663730 0.712241
Si Si4 0.083868 0.176363 0.147123
Si Si5 0.076373 0.569145 0.404876
Si Si6 0.925342 0.710161 0.089412
Si Si7 0.923965 0.932987 0.213118
O O1 0.250000 0.887842 0.575154
O O2 0.028244 0.924133 0.680601
O O3 0.000000 0.921707 0.500000
O O4 0.011720 0.822397 0.588118
O O5 0.750000 0.768524 0.608168
O O6 0.908817 0.801675 0.749742
O O7 0.003276 0.714210 0.647268
O O8 0.250000 0.663688 0.699697
O O9 0.496796 0.601700 0.680343
O O10 0.471335 0.674368 0.818880
O O11 0.250000 0.173766 0.104025
O O12 0.982321 0.222065 0.091131
O O13 0.012566 0.110690 0.145006
O O14 0.250000 0.586230 0.409158
O O15 0.052410 0.500000 0.387018
O O16 0.000000 0.588891 0.500000
O O17 0.750000 0.710794 0.076323
O O18 0.000000 0.679031 0.000000
O O19 0.750000 0.918292 0.202818
O O20 0.961647 0.000000 0.184025
#
# Coordination Sequence:
#
# PCOD8207824 Si02
#       7
#     8   8   8   8   8   8   8
#     4  10  19  30  43  61  88 121 159 205 257 312
#     4   9  17  30  47  67  92 123 160 202 250 304
#     4  10  20  34  54  81 111 142 177 219 266 313
#     4   9  17  30  49  72  97 125 159 201 248 300
#     4  10  21  37  57  81 110 146 187 228 267 308
#     4  10  20  34  55  83 113 143 174 212 260 316
#     4   9  18  32  48  65  88 122 163 206 254 309
#
# _framework density 19.03622
#
# number of rings (size 3 to 8) (size 9 to 14) (size 15 to 20)
#    0.000    2.429    0.000    2.571    0.000    7.714 
#    0.000    2.857    0.000    0.857    0.000    0.000 
#    0.000    0.000    0.000    0.000    0.000    0.000 
#
# Total GULP energy -694337.844692 kJ/mol
# GULP energy per Si atom -12398.890084 kJ/mol
# Density = 1.899289 g / cm^3
# Si number density = 19.036220 Si / 1000 Ang^3
#
#
#
# Elastic Constant Matrix: (Units=GPa)
#
#
# Indices 1 2 3 4 5 6 
#
# 1 105.5027 40.2938 37.6836 0.0000 0.0000 0.0000
# 2 40.2938 82.3094 32.2763 0.0000 0.0000 0.0000
# 3 37.6836 32.2763 70.4438 0.0000 0.0000 0.0000
# 4 0.0000 0.0000 0.0000 17.6804 0.0000 0.0000
# 5 0.0000 0.0000 0.0000 0.0000 30.1450 0.0000
# 6 0.0000 0.0000 0.0000 0.0000 0.0000 30.9800
#
#
#
# Elastic Compliance Matrix: (Units=1/GPa)
#
#
# Indices 1 2 3 4 5 6 
#
# 1 0.012905 -0.004401 -0.004887 0.000000 0.000000 0.000000
# 2 -0.004401 0.016311 -0.005119 0.000000 0.000000 0.000000
# 3 -0.004887 -0.005119 0.019155 0.000000 0.000000 0.000000
# 4 0.000000 0.000000 0.000000 0.056560 0.000000 0.000000
# 5 0.000000 0.000000 0.000000 0.000000 0.033173 0.000000
# 6 0.000000 0.000000 0.000000 0.000000 0.000000 0.032279
#
#
# Mechanical properties :
#
#
# Convention : Reuss Voigt Hill
#
# Bulk Modulus (GPa) = 51.13221 53.19592 52.16406
# Shear Modulus (GPa) = 24.30530 25.62790 24.96660
#
# Velocity S-wave (km/s) = 3.57710 3.67314 3.62544
# Velocity P-wave (km/s) = 6.63172 6.78192 6.70724
#
# Compressibility (1/GPa) = 0.01955715
#
# Stress axis : x y z
#
# Youngs Moduli (GPa) = 77.49054 61.30750 52.20447
#
# Poissons Ratio (x) = 0.26982 0.25511
# Poissons Ratio (y) = 0.34105 0.26725
# Poissons Ratio (z) = 0.37868 0.31385
#
# Static dielectric constant tensor:
#      x y z
#    x 3.632050 0.000000 0.000000 
#    y 0.000000 3.336950 0.000000 
#    z 0.000000 0.000000 3.446330 
# 
# 
# High freq. dielectric constant tensor:
#      x y z
#    x 1.753500 0.000000 0.000000 
#    y 0.000000 1.716930 0.000000 
#    z 0.000000 0.000000 1.726980 
# 
# From -- ./inp_files/21712.got.cif
#   From: 2010.03.12/outbox.cif.g09.slc.cpg/sg51_11_cif.got.tgz:21712.got - 2010.04.16 13:43:02.
