data_PCOD8207908
_publ_section_title
;
Structure prediction by ZEFSAII (Michael W. Deem and Ramdas Pophale) SiO2 
 PCOD8207908
Probable space group: P M M A
;
_chemical_formula_sum "Si O2"
_cell_formula_units_Z 48
_cell_length_a 9.143563
_cell_length_b 24.443394
_cell_length_c 13.594150
_cell_angle_alpha 90.000000
_cell_angle_beta 90.000000
_cell_angle_gamma 90.000000
_cell_volume 3038.288623
_symmetry_space_group_name_H-M "P M M A"
_symmetry_group_IT_number 51
_symmetry_cell_setting 'orthorhombic'
loop_
_space_group_symop_operation_xyz
x,y,z
1/2-x,-y,z
1/2+x,-y,-z
-x,y,-z
-x,-y,-z
1/2+x,y,-z
1/2-x,y,z
x,-y,z
loop_
_atom_site_type_symbol
_atom_site_label
_atom_site_fract_x
_atom_site_fract_y
_atom_site_fract_z
Si Si1 0.578330 0.176171 0.604073
Si Si2 0.919477 0.720953 0.725943
Si Si3 0.919198 0.385188 0.602073
Si Si4 0.919686 0.942255 0.602170
Si Si5 0.078378 0.664583 0.897612
Si Si6 0.917622 0.561481 0.226697
O O1 0.500000 0.184520 0.500000
O O2 0.750000 0.183429 0.584304
O O3 0.525720 0.221380 0.681948
O O4 0.540382 0.116110 0.652766
O O5 0.750000 0.722389 0.758177
O O6 0.945862 0.675714 0.642274
O O7 0.017801 0.708955 0.820741
O O8 0.750000 0.398063 0.586025
O O9 0.000000 0.392287 0.500000
O O10 0.982054 0.429135 0.678589
O O11 0.750000 0.941315 0.577531
O O12 0.000000 0.944051 0.500000
O O13 0.957550 0.000000 0.660404
O O14 0.250000 0.673657 0.910887
O O15 0.040193 0.603403 0.860172
O O16 0.000000 0.674490 0.000000
O O17 0.750000 0.571043 0.258704
O O18 0.943344 0.500000 0.187161
#
# Coordination Sequence:
#
# PCOD8207908 Si02
#       6
#     8   8   8   8   8   8
#     4   9  16  25  39  60  87 119 151 182 213 245
#     4   9  18  31  45  63  87 113 144 179 212 250
#     4  10  19  30  45  64  87 116 146 176 210 246
#     4   8  13  21  33  51  78 113 150 182 210 241
#     4  10  20  34  52  70  87 108 133 166 211 258
#     4   9  19  35  51  67  87 110 138 170 203 245
#
# _framework density 15.798367000000001
#
# number of rings (size 3 to 8) (size 9 to 14) (size 15 to 20)
#    0.000    2.833    0.000    1.500    0.000    3.000 
#    0.000    0.000    0.000    0.000    0.000    0.000 
#    0.000    0.667    0.000    1.167    0.000    2.000 
#
# Total GULP energy -594787.049696 kJ/mol
# GULP energy per Si atom -12391.396869 kJ/mol
# Density = 1.576241 g / cm^3
# Si number density = 15.798367 Si / 1000 Ang^3
#
#
#
# Elastic Constant Matrix: (Units=GPa)
#
#
# Indices 1 2 3 4 5 6 
#
# 1 59.3693 32.2284 42.8065 0.0000 0.0000 0.0000
# 2 32.2284 136.3192 46.3953 0.0000 0.0000 0.0000
# 3 42.8065 46.3953 87.4431 0.0000 0.0000 0.0000
# 4 0.0000 0.0000 0.0000 -161.2321 0.0000 0.0000
# 5 0.0000 0.0000 0.0000 0.0000 22.8765 0.0000
# 6 0.0000 0.0000 0.0000 0.0000 0.0000 17.0564
#
#
#
# Elastic Compliance Matrix: (Units=1/GPa)
#
#
# Indices 1 2 3 4 5 6 
#
# 1 0.026593 -0.002266 -0.011816 0.000000 0.000000 0.000000
# 2 -0.002266 0.009145 -0.003743 0.000000 0.000000 0.000000
# 3 -0.011816 -0.003743 0.019207 0.000000 0.000000 0.000000
# 4 0.000000 0.000000 0.000000 -0.006202 0.000000 0.000000
# 5 0.000000 0.000000 0.000000 0.000000 0.043713 0.000000
# 6 0.000000 0.000000 0.000000 0.000000 0.000000 0.058629
#
#
# Mechanical properties :
#
#
# Convention : Reuss Voigt Hill
#
# Bulk Modulus (GPa) = 51.82676 58.44354 55.13515
# Shear Modulus (GPa) = 25.88431 -13.47975 6.20228
#
# Velocity S-wave (km/s) = 4.05213 -2.92419 1.98354
# Velocity P-wave (km/s) = 7.40063 5.06681 6.34200
#
# Compressibility (1/GPa) = 0.01929505
#
# Stress axis : x y z
#
# Youngs Moduli (GPa) = 37.60328 109.34551 52.06541
#
# Poissons Ratio (x) = 0.24773 0.61522
# Poissons Ratio (y) = 0.08519 0.19489
# Poissons Ratio (z) = 0.44433 0.40930
#
# Static dielectric constant tensor:
#      x y z
#    x 3.026370 0.000000 0.000000 
#    y 0.000000 3.567790 0.000000 
#    z 0.000000 0.000000 2.650080 
# 
# 
# High freq. dielectric constant tensor:
#      x y z
#    x 1.614940 0.000000 0.000000 
#    y 0.000000 1.616330 0.000000 
#    z 0.000000 0.000000 1.563650 
# 
# From -- ./inp_files/14422.got.cif
#   From: 2010.03.12/outbox.cif.g09.slc.cpg/sg51_8_cif.got.tgz:14422.got - 2010.04.16 13:43:02.
