data_PCOD8207065
_publ_section_title
;
Structure prediction by ZEFSAII (Michael W. Deem and Ramdas Pophale) SiO2 
 PCOD8207065
Probable space group: P M M A
;
_chemical_formula_sum "Si O2"
_cell_formula_units_Z 64
_cell_length_a 18.150601
_cell_length_b 14.067756
_cell_length_c 15.412994
_cell_angle_alpha 90.000000
_cell_angle_beta 90.000000
_cell_angle_gamma 90.000000
_cell_volume 3935.526547
_symmetry_space_group_name_H-M "P M M A"
_symmetry_group_IT_number 51
_symmetry_cell_setting 'orthorhombic'
loop_
_space_group_symop_operation_xyz
x,y,z
1/2-x,-y,z
1/2+x,-y,-z
-x,y,-z
-x,-y,-z
1/2+x,y,-z
1/2-x,y,z
x,-y,z
loop_
_atom_site_type_symbol
_atom_site_label
_atom_site_fract_x
_atom_site_fract_y
_atom_site_fract_z
Si Si1 0.427824 0.606467 0.444375
Si Si2 0.165799 0.889851 0.500076
Si Si3 0.333063 0.886969 0.011696
Si Si4 0.069039 0.793811 0.353743
Si Si5 0.919897 0.109801 0.821827
Si Si6 0.101200 0.792637 0.663269
Si Si7 0.091347 0.890634 0.838383
Si Si8 0.335441 0.393038 0.607794
O O1 0.500000 0.633265 0.500000
O O2 0.434693 0.500000 0.405743
O O3 0.419265 0.680509 0.365447
O O4 0.357071 0.615871 0.506540
O O5 0.250000 0.873111 0.470242
O O6 0.110446 0.849588 0.428968
O O7 0.153891 0.838039 0.591373
O O8 0.148209 0.000000 0.513090
O O9 0.250000 0.849051 0.012575
O O10 0.372949 0.849381 0.098122
O O11 0.337441 0.000000 0.011267
O O12 0.372736 0.847787 0.925516
O O13 0.101062 0.826471 0.261287
O O14 0.982787 0.819197 0.359084
O O15 0.004383 0.121148 0.847992
O O16 0.900885 0.000000 0.800520
O O17 0.123123 0.832621 0.757125
O O18 0.115555 0.679091 0.664973
O O19 0.113811 0.000000 0.824684
O O20 0.250000 0.367635 0.616787
O O21 0.352417 0.500000 0.640824
#
# Coordination Sequence:
#
# PCOD8207065 Si02
#       8
#     8   8   8   8   8   8   8   8
#     4  10  18  31  50  71  95 125 163 204 243 281
#     4  11  23  34  44  63  96 134 166 197 236 282
#     4   9  17  30  48  69  92 120 155 197 244 287
#     4  11  20  32  49  71  94 128 165 200 238 287
#     4   9  18  31  47  67  94 126 161 197 236 284
#     4  11  20  32  49  71  95 126 164 200 240 286
#     4   9  18  31  48  69  94 124 158 196 237 284
#     4  10  20  33  49  69  95 126 159 199 245 288
#
# _framework density 16.262118000000001
#
# number of rings (size 3 to 8) (size 9 to 14) (size 15 to 20)
#    0.000    2.000    2.500    1.875    0.000    5.000 
#    0.000    2.500    0.000    0.000    0.000    0.875 
#    0.000    5.000    0.000    0.000    0.000    0.000 
#
# Total GULP energy -793651.037407 kJ/mol
# GULP energy per Si atom -12400.797459 kJ/mol
# Density = 1.622510 g / cm^3
# Si number density = 16.262118 Si / 1000 Ang^3
#
#
#
# Elastic Constant Matrix: (Units=GPa)
#
#
# Indices 1 2 3 4 5 6 
#
# 1 65.9065 29.8347 45.7097 0.0000 0.0000 0.0000
# 2 29.8347 89.1101 59.6920 0.0000 0.0000 0.0000
# 3 45.7097 59.6920 132.5854 0.0000 0.0000 0.0000
# 4 0.0000 0.0000 0.0000 12.1038 0.0000 0.0000
# 5 0.0000 0.0000 0.0000 0.0000 14.6849 0.0000
# 6 0.0000 0.0000 0.0000 0.0000 0.0000 19.7862
#
#
#
# Elastic Compliance Matrix: (Units=1/GPa)
#
#
# Indices 1 2 3 4 5 6 
#
# 1 0.020504 -0.003049 -0.005696 0.000000 0.000000 0.000000
# 2 -0.003049 0.016521 -0.006387 0.000000 0.000000 0.000000
# 3 -0.005696 -0.006387 0.012382 0.000000 0.000000 0.000000
# 4 0.000000 0.000000 0.000000 0.082618 0.000000 0.000000
# 5 0.000000 0.000000 0.000000 0.000000 0.068097 0.000000
# 6 0.000000 0.000000 0.000000 0.000000 0.000000 0.050540
#
#
# Mechanical properties :
#
#
# Convention : Reuss Voigt Hill
#
# Bulk Modulus (GPa) = 52.24012 62.00831 57.12421
# Shear Modulus (GPa) = 17.40292 19.47268 18.43780
#
# Velocity S-wave (km/s) = 3.27487 3.46414 3.37083
# Velocity P-wave (km/s) = 6.81859 7.36299 7.09601
#
# Compressibility (1/GPa) = 0.01914238
#
# Stress axis : x y z
#
# Youngs Moduli (GPa) = 48.77130 60.52767 80.76536
#
# Poissons Ratio (x) = 0.18456 0.46004
# Poissons Ratio (y) = 0.14872 0.51584
# Poissons Ratio (z) = 0.27780 0.38659
#
# Static dielectric constant tensor:
#      x y z
#    x 3.151950 0.000000 0.000000 
#    y 0.000000 3.081120 0.000000 
#    z 0.000000 0.000000 3.074330 
# 
# 
# High freq. dielectric constant tensor:
#      x y z
#    x 1.633400 0.000000 0.000000 
#    y 0.000000 1.606620 0.000000 
#    z 0.000000 0.000000 1.607160 
# 
# From -- ./inp_files/25342.got.cif
#   From: 2010.03.12/outbox.cif.g09.slc.cpg/sg51_13_cif.got.tgz:25342.got - 2010.04.16 13:43:02.
