data_PCOD8207683
_publ_section_title
;
Structure prediction by ZEFSAII (Michael W. Deem and Ramdas Pophale) SiO2 
 PCOD8207683
Probable space group: P M M A
;
_chemical_formula_sum "Si O2"
_cell_formula_units_Z 64
_cell_length_a 29.756981
_cell_length_b 9.271627
_cell_length_c 14.947351
_cell_angle_alpha 90.000000
_cell_angle_beta 90.000000
_cell_angle_gamma 90.000000
_cell_volume 4123.908798
_symmetry_space_group_name_H-M "P M M A"
_symmetry_group_IT_number 51
_symmetry_cell_setting 'orthorhombic'
loop_
_space_group_symop_operation_xyz
x,y,z
1/2-x,-y,z
1/2+x,-y,-z
-x,y,-z
-x,-y,-z
1/2+x,y,-z
1/2-x,y,z
x,-y,z
loop_
_atom_site_type_symbol
_atom_site_label
_atom_site_fract_x
_atom_site_fract_y
_atom_site_fract_z
Si Si1 0.614843 0.332735 0.803825
Si Si2 0.701001 0.832559 0.517854
Si Si3 0.895513 0.832864 0.473466
Si Si4 0.056491 0.329121 0.367771
Si Si5 0.533051 0.169262 0.327091
Si Si6 0.528915 0.829585 0.127599
Si Si7 0.934159 0.829673 0.946175
Si Si8 0.800022 0.335003 0.698705
O O1 0.610879 0.500000 0.826205
O O2 0.579906 0.289275 0.725932
O O3 0.606595 0.246386 0.895272
O O4 0.664972 0.288111 0.774574
O O5 0.750000 0.782466 0.477239
O O6 0.657706 0.799128 0.455144
O O7 0.691736 0.757256 0.611282
O O8 0.703358 0.000000 0.538932
O O9 0.913405 0.732751 0.552528
O O10 0.921817 0.798069 0.382234
O O11 0.902413 0.000000 0.501016
O O12 0.051629 0.500000 0.380643
O O13 0.007663 0.256121 0.371756
O O14 0.542358 0.226348 0.226107
O O15 0.520645 0.000000 0.328112
O O16 0.479555 0.773537 0.101730
O O17 0.527347 0.000000 0.126261
O O18 0.564423 0.780529 0.050839
O O19 0.928299 0.000000 0.937396
O O20 0.750000 0.312854 0.737586
O O21 0.809039 0.500000 0.670725
#
# Coordination Sequence:
#
# PCOD8207683 Si02
#       8
#     8   8   8   8   8   8   8   8
#     4  10  19  29  42  65  91 114 142 176 215 258
#     4   9  17  29  44  63  86 109 139 182 222 253
#     4  10  20  31  45  64  85 116 152 179 213 259
#     4  11  21  31  42  62  92 122 149 179 213 252
#     4  10  19  32  47  62  85 118 153 186 213 253
#     4   8  15  28  45  64  83 106 146 184 210 245
#     4   9  16  28  47  65  81 110 145 178 214 253
#     4   9  17  30  46  62  84 115 147 177 212 258
#
# _framework density 15.519257
#
# number of rings (size 3 to 8) (size 9 to 14) (size 15 to 20)
#    0.000    2.500    2.500    1.500    0.000    3.000 
#    0.000    1.875    0.000    0.000    0.000    0.875 
#    0.000    3.000    0.000    0.000    0.000    0.000 
#
# Total GULP energy -793184.780594 kJ/mol
# GULP energy per Si atom -12393.512197 kJ/mol
# Density = 1.548393 g / cm^3
# Si number density = 15.519257 Si / 1000 Ang^3
#
#
#
# Elastic Constant Matrix: (Units=GPa)
#
#
# Indices 1 2 3 4 5 6 
#
# 1 124.6824 32.8153 54.4646 0.0000 0.0000 0.0000
# 2 32.8153 35.5347 26.7540 0.0000 0.0000 0.0000
# 3 54.4646 26.7540 75.7430 0.0000 0.0000 0.0000
# 4 0.0000 0.0000 0.0000 2.8981 0.0000 0.0000
# 5 0.0000 0.0000 0.0000 0.0000 20.9691 0.0000
# 6 0.0000 0.0000 0.0000 0.0000 0.0000 17.3734
#
#
#
# Elastic Compliance Matrix: (Units=1/GPa)
#
#
# Indices 1 2 3 4 5 6 
#
# 1 0.012747 -0.006635 -0.006822 0.000000 0.000000 0.000000
# 2 -0.006635 0.041790 -0.009990 0.000000 0.000000 0.000000
# 3 -0.006822 -0.009990 0.021637 0.000000 0.000000 0.000000
# 4 0.000000 0.000000 0.000000 0.345051 0.000000 0.000000
# 5 0.000000 0.000000 0.000000 0.000000 0.047689 0.000000
# 6 0.000000 0.000000 0.000000 0.000000 0.000000 0.057559
#
#
# Mechanical properties :
#
#
# Convention : Reuss Voigt Hill
#
# Bulk Modulus (GPa) = 34.15384 51.55865 42.85625
# Shear Modulus (GPa) = 8.57444 16.37653 12.47549
#
# Velocity S-wave (km/s) = 2.35309 3.25197 2.83834
# Velocity P-wave (km/s) = 5.42567 6.88440 6.19810
#
# Compressibility (1/GPa) = 0.02927928
#
# Stress axis : x y z
#
# Youngs Moduli (GPa) = 78.45145 23.92904 46.21711
#
# Poissons Ratio (x) = 0.15876 0.31531
# Poissons Ratio (y) = 0.52051 0.46172
# Poissons Ratio (z) = 0.53522 0.23906
#
# Static dielectric constant tensor:
#      x y z
#    x 3.178580 0.000000 0.000000 
#    y 0.000000 2.863990 0.000000 
#    z 0.000000 0.000000 3.042030 
# 
# 
# High freq. dielectric constant tensor:
#      x y z
#    x 1.589060 0.000000 0.000000 
#    y 0.000000 1.586460 0.000000 
#    z 0.000000 0.000000 1.573920 
# 
# From -- ./inp_files/26668.got.cif
#   From: 2010.03.12/outbox.cif.g09.slc.cpg/sg51_14_cif.got.tgz:26668.got - 2010.04.16 13:43:02.
