data_PCOD8207302
_publ_section_title
;
Structure prediction by ZEFSAII (Michael W. Deem and Ramdas Pophale) SiO2 
 PCOD8207302
Probable space group: P M M A
;
_chemical_formula_sum "Si O2"
_cell_formula_units_Z 64
_cell_length_a 31.028369
_cell_length_b 9.092585
_cell_length_c 12.064711
_cell_angle_alpha 90.000000
_cell_angle_beta 90.000000
_cell_angle_gamma 90.000000
_cell_volume 3403.793781
_symmetry_space_group_name_H-M "P M M A"
_symmetry_group_IT_number 51
_symmetry_cell_setting 'orthorhombic'
loop_
_space_group_symop_operation_xyz
x,y,z
1/2-x,-y,z
1/2+x,-y,-z
-x,y,-z
-x,-y,-z
1/2+x,y,-z
1/2-x,y,z
x,-y,z
loop_
_atom_site_type_symbol
_atom_site_label
_atom_site_fract_x
_atom_site_fract_y
_atom_site_fract_z
Si Si1 0.700997 0.670749 0.511049
Si Si2 0.323897 0.327451 0.244256
Si Si3 0.412167 0.831794 0.250225
Si Si4 0.047294 0.172675 0.480962
Si Si5 0.873011 0.824746 0.375475
Si Si6 0.953384 0.829983 0.982226
Si Si7 0.702175 0.831326 0.970826
Si Si8 0.874429 0.824642 0.123687
O O1 0.750000 0.700475 0.472669
O O2 0.688688 0.500000 0.499056
O O3 0.696457 0.720768 0.638718
O O4 0.669462 0.764325 0.434547
O O5 0.320651 0.500000 0.227006
O O6 0.373084 0.278778 0.239741
O O7 0.297875 0.252982 0.145240
O O8 0.439893 0.788144 0.356396
O O9 0.442545 0.809040 0.145665
O O10 0.395246 0.000000 0.258003
O O11 0.083711 0.235832 0.564462
O O12 0.000000 0.244183 0.500000
O O13 0.044257 0.000000 0.501724
O O14 0.873700 0.766510 0.249372
O O15 0.870811 0.000000 0.381813
O O16 0.956649 0.000000 0.015657
O O17 0.916624 0.759831 0.061297
O O18 0.000000 0.753646 0.000000
O O19 0.750000 0.816707 0.022872
O O20 0.690267 0.000000 0.945276
O O21 0.667854 0.765915 0.058573
O O22 0.874655 0.000000 0.122244
#
# Coordination Sequence:
#
# PCOD8207302 Si02
#       8
#     8   8   8   8   8   8   8   8
#     4  10  22  39  56  75 104 141 177 219 272 322
#     4  11  21  35  56  80 109 139 176 221 269 317
#     4  10  18  32  55  80 109 141 178 219 267 320
#     4   9  18  30  49  81 114 139 170 219 268 308
#     4  10  20  34  55  81 108 139 178 221 263 313
#     4   9  17  28  49  80 108 136 172 215 261 312
#     4  10  20  35  55  78 105 137 172 215 268 321
#     4   9  18  32  50  77 110 137 169 216 264 310
#
# _framework density 18.802548999999999
#
# number of rings (size 3 to 8) (size 9 to 14) (size 15 to 20)
#    0.000    2.250    2.500    0.750    1.750    2.000 
#    0.000    1.875    0.000    1.875    0.000    0.000 
#    0.000    0.000    0.000    0.000    0.000    0.000 
#
# Total GULP energy -793513.227291 kJ/mol
# GULP energy per Si atom -12398.644176 kJ/mol
# Density = 1.875975 g / cm^3
# Si number density = 18.802549 Si / 1000 Ang^3
#
#
#
# Elastic Constant Matrix: (Units=GPa)
#
#
# Indices 1 2 3 4 5 6 
#
# 1 154.3940 17.6542 71.1605 0.0000 0.0000 0.0000
# 2 17.6542 19.6503 23.4263 0.0000 0.0000 0.0000
# 3 71.1605 23.4263 153.2838 0.0000 0.0000 0.0000
# 4 0.0000 0.0000 0.0000 13.5249 0.0000 0.0000
# 5 0.0000 0.0000 0.0000 0.0000 28.7376 0.0000
# 6 0.0000 0.0000 0.0000 0.0000 0.0000 10.9741
#
#
#
# Elastic Compliance Matrix: (Units=1/GPa)
#
#
# Indices 1 2 3 4 5 6 
#
# 1 0.008439 -0.003560 -0.003374 0.000000 0.000000 0.000000
# 2 -0.003560 0.063729 -0.008087 0.000000 0.000000 0.000000
# 3 -0.003374 -0.008087 0.009326 0.000000 0.000000 0.000000
# 4 0.000000 0.000000 0.000000 0.073938 0.000000 0.000000
# 5 0.000000 0.000000 0.000000 0.000000 0.034798 0.000000
# 6 0.000000 0.000000 0.000000 0.000000 0.000000 0.091124
#
#
# Mechanical properties :
#
#
# Convention : Reuss Voigt Hill
#
# Bulk Modulus (GPa) = 19.43522 61.31223 40.37373
# Shear Modulus (GPa) = 15.21863 24.98648 20.10255
#
# Velocity S-wave (km/s) = 2.84807 3.64935 3.27332
# Velocity P-wave (km/s) = 4.60155 7.10185 5.98375
#
# Compressibility (1/GPa) = 0.05145297
#
# Stress axis : x y z
#
# Youngs Moduli (GPa) = 118.49901 15.69143 107.22742
#
# Poissons Ratio (x) = 0.05586 0.36175
# Poissons Ratio (y) = 0.42182 0.86716
# Poissons Ratio (z) = 0.39977 0.12690
#
# Static dielectric constant tensor:
#      x y z
#    x 3.708870 0.000000 0.000000 
#    y 0.000000 3.008480 0.000000 
#    z 0.000000 0.000000 3.632070 
# 
# 
# High freq. dielectric constant tensor:
#      x y z
#    x 1.746900 0.000000 0.000000 
#    y 0.000000 1.675710 0.000000 
#    z 0.000000 0.000000 1.737870 
# 
# From -- ./inp_files/19511.got.cif
#   From: 2010.03.12/outbox.cif.g09.slc.cpg/sg51_10_cif.got.tgz:19511.got - 2010.04.16 13:43:02.
