data_PCOD8207370
_publ_section_title
;
Structure prediction by ZEFSAII (Michael W. Deem and Ramdas Pophale) SiO2 
 PCOD8207370
Probable space group: P M M A
;
_chemical_formula_sum "Si O2"
_cell_formula_units_Z 56
_cell_length_a 8.895194
_cell_length_b 20.410054
_cell_length_c 15.299162
_cell_angle_alpha 90.000000
_cell_angle_beta 90.000000
_cell_angle_gamma 90.000000
_cell_volume 2777.584125
_symmetry_space_group_name_H-M "P M M A"
_symmetry_group_IT_number 51
_symmetry_cell_setting 'orthorhombic'
loop_
_space_group_symop_operation_xyz
x,y,z
1/2-x,-y,z
1/2+x,-y,-z
-x,y,-z
-x,-y,-z
1/2+x,y,-z
1/2-x,y,z
x,-y,z
loop_
_atom_site_type_symbol
_atom_site_label
_atom_site_fract_x
_atom_site_fract_y
_atom_site_fract_z
Si Si1 0.071589 0.670191 0.909675
Si Si2 0.421972 0.425625 0.757165
Si Si3 0.073315 0.928124 0.224698
Si Si4 0.572665 0.107565 0.584222
Si Si5 0.928946 0.623585 0.588072
Si Si6 0.079659 0.199285 0.824483
Si Si7 0.576381 0.761256 0.373595
O O1 0.250000 0.666690 0.916612
O O2 0.015235 0.621515 0.833427
O O3 0.017798 0.745001 0.890278
O O4 0.000000 0.646415 0.000000
O O5 0.250000 0.406067 0.733737
O O6 0.431428 0.500000 0.791370
O O7 0.523330 0.419502 0.671057
O O8 0.250000 0.918998 0.223137
O O9 0.015941 0.924468 0.325113
O O10 0.007458 0.869591 0.165887
O O11 0.026387 0.000000 0.187812
O O12 0.500000 0.070760 0.500000
O O13 0.750000 0.103322 0.576251
O O14 0.515626 0.181762 0.579853
O O15 0.750000 0.625611 0.580896
O O16 0.000000 0.592072 0.500000
O O17 0.996711 0.695488 0.597561
O O18 0.250000 0.181803 0.846677
O O19 0.063475 0.231509 0.730019
O O20 0.750000 0.762134 0.403898
#
# Coordination Sequence:
#
# PCOD8207370 Si02
#       7
#     8   8   8   8   8   8   8
#     4  10  21  39  63  95 125 153 190 236 290 351
#     4  10  22  43  66  87 120 162 198 240 292 343
#     4   9  19  34  51  74 106 144 188 236 288 346
#     4  10  19  30  44  68 102 141 187 237 291 343
#     4  12  24  37  57  84 117 156 202 249 295 347
#     4   9  18  34  57  82 113 147 186 235 285 340
#     4  10  18  33  54  76 107 146 191 241 294 344
#
# _framework density 20.161404999999998
#
# number of rings (size 3 to 8) (size 9 to 14) (size 15 to 20)
#    0.000    2.000    1.429    2.571    0.000    3.714 
#    0.000    0.000    0.000    0.429    0.000    0.000 
#    0.000    0.000    0.000    0.000    0.000    0.000 
#
# Total GULP energy -694293.004920 kJ/mol
# GULP energy per Si atom -12398.089374 kJ/mol
# Density = 2.011552 g / cm^3
# Si number density = 20.161405 Si / 1000 Ang^3
#
#
#
# Elastic Constant Matrix: (Units=GPa)
#
#
# Indices 1 2 3 4 5 6 
#
# 1 55.0783 24.3633 22.6806 0.0000 0.0000 0.0000
# 2 24.3633 112.0100 39.6957 0.0000 0.0000 0.0000
# 3 22.6806 39.6957 90.0202 0.0000 0.0000 0.0000
# 4 0.0000 0.0000 0.0000 12.4728 0.0000 0.0000
# 5 0.0000 0.0000 0.0000 0.0000 30.0334 0.0000
# 6 0.0000 0.0000 0.0000 0.0000 0.0000 24.9821
#
#
#
# Elastic Compliance Matrix: (Units=1/GPa)
#
#
# Indices 1 2 3 4 5 6 
#
# 1 0.021195 -0.003221 -0.003920 0.000000 0.000000 0.000000
# 2 -0.003221 0.011071 -0.004070 0.000000 0.000000 0.000000
# 3 -0.003920 -0.004070 0.013891 0.000000 0.000000 0.000000
# 4 0.000000 0.000000 0.000000 0.080175 0.000000 0.000000
# 5 0.000000 0.000000 0.000000 0.000000 0.033296 0.000000
# 6 0.000000 0.000000 0.000000 0.000000 0.000000 0.040029
#
#
# Mechanical properties :
#
#
# Convention : Reuss Voigt Hill
#
# Bulk Modulus (GPa) = 42.13235 47.84307 44.98771
# Shear Modulus (GPa) = 21.74011 24.85560 23.29785
#
# Velocity S-wave (km/s) = 3.28732 3.51498 3.40305
# Velocity P-wave (km/s) = 5.94571 6.34468 6.14843
#
# Compressibility (1/GPa) = 0.02373473
#
# Stress axis : x y z
#
# Youngs Moduli (GPa) = 47.18138 90.32716 71.98873
#
# Poissons Ratio (x) = 0.29094 0.28217
# Poissons Ratio (y) = 0.15197 0.29302
# Poissons Ratio (z) = 0.18494 0.36766
#
# Static dielectric constant tensor:
#      x y z
#    x 3.559550 0.000000 0.000000 
#    y 0.000000 3.711390 0.000000 
#    z 0.000000 0.000000 3.663490 
# 
# 
# High freq. dielectric constant tensor:
#      x y z
#    x 1.778360 0.000000 0.000000 
#    y 0.000000 1.788540 0.000000 
#    z 0.000000 0.000000 1.771400 
# 
# From -- ./inp_files/21761.got.cif
#   From: 2010.03.12/outbox.cif.g09.slc.cpg/sg51_11_cif.got.tgz:21761.got - 2010.04.16 13:43:02.
