data_PCOD8207260
_publ_section_title
;
Structure prediction by ZEFSAII (Michael W. Deem and Ramdas Pophale) SiO2 
 PCOD8207260
Probable space group: P M M A
;
_chemical_formula_sum "Si O2"
_cell_formula_units_Z 48
_cell_length_a 8.489579
_cell_length_b 30.847010
_cell_length_c 9.241860
_cell_angle_alpha 90.000000
_cell_angle_beta 90.000000
_cell_angle_gamma 90.000000
_cell_volume 2420.240999
_symmetry_space_group_name_H-M "P M M A"
_symmetry_group_IT_number 51
_symmetry_cell_setting 'orthorhombic'
loop_
_space_group_symop_operation_xyz
x,y,z
1/2-x,-y,z
1/2+x,-y,-z
-x,y,-z
-x,-y,-z
1/2+x,y,-z
1/2-x,y,z
x,-y,z
loop_
_atom_site_type_symbol
_atom_site_label
_atom_site_fract_x
_atom_site_fract_y
_atom_site_fract_z
Si Si1 0.063245 0.500000 0.661429
Si Si2 0.437881 0.000000 0.662718
Si Si3 0.564467 0.258763 0.842886
Si Si4 0.436999 0.088387 0.338673
Si Si5 0.063735 0.664848 0.659276
Si Si6 0.935388 0.834620 0.153775
Si Si7 0.563551 0.417413 0.161005
O O1 0.250000 0.500000 0.655240
O O2 0.999259 0.542077 0.746308
O O3 0.000000 0.500000 0.500000
O O4 0.500000 0.000000 0.500000
O O5 0.506920 0.956514 0.738960
O O6 0.250000 0.000000 0.667896
O O7 0.750000 0.262116 0.848142
O O8 0.499167 0.289914 0.719504
O O9 0.514017 0.210441 0.799300
O O10 0.500000 0.272288 0.000000
O O11 0.500000 0.087316 0.500000
O O12 0.250000 0.093024 0.331213
O O13 0.520563 0.129091 0.267624
O O14 0.250000 0.666224 0.653674
O O15 0.002238 0.626353 0.762717
O O16 0.000000 0.656337 0.500000
O O17 0.750000 0.827587 0.145065
O O18 0.000000 0.850278 0.000000
O O19 0.750000 0.418255 0.154754
O O20 0.500000 0.420101 0.000000
#
# Coordination Sequence:
#
# PCOD8207260 Si02
#       7
#     4   4   8   8   8   8   8
#     4  10  21  38  58  86 118 152 191 238 288 340
#     4  10  18  32  53  80 111 148 189 234 284 338
#     4  11  22  39  61  85 112 148 188 231 279 337
#     4  11  21  36  57  84 114 149 190 236 284 337
#     4  11  23  39  58  85 116 150 189 236 287 340
#     4  11  22  39  60  85 115 150 188 232 283 341
#     4  10  22  38  59  85 116 151 194 237 283 340
#
# _framework density 19.832737000000002
#
# number of rings (size 3 to 8) (size 9 to 14) (size 15 to 20)
#    0.000    1.333    0.000    9.000    0.000    4.000 
#    0.000    3.750    0.000    0.000    0.000    0.000 
#    0.000    0.000    0.000    0.000    0.000    0.000 
#
# Total GULP energy -595330.007851 kJ/mol
# GULP energy per Si atom -12402.708497 kJ/mol
# Density = 1.978760 g / cm^3
# Si number density = 19.832737 Si / 1000 Ang^3
#
#
#
# Elastic Constant Matrix: (Units=GPa)
#
#
# Indices 1 2 3 4 5 6 
#
# 1 67.5377 12.2395 24.7534 0.0000 0.0000 0.0000
# 2 12.2395 123.7490 69.3209 0.0000 0.0000 0.0000
# 3 24.7534 69.3209 121.7429 0.0000 0.0000 0.0000
# 4 0.0000 0.0000 0.0000 37.5580 0.0000 0.0000
# 5 0.0000 0.0000 0.0000 0.0000 36.1623 0.0000
# 6 0.0000 0.0000 0.0000 0.0000 0.0000 -40.0512
#
#
#
# Elastic Compliance Matrix: (Units=1/GPa)
#
#
# Indices 1 2 3 4 5 6 
#
# 1 0.016009 0.000352 -0.003456 0.000000 0.000000 0.000000
# 2 0.000352 0.011873 -0.006832 0.000000 0.000000 0.000000
# 3 -0.003456 -0.006832 0.012807 0.000000 0.000000 0.000000
# 4 0.000000 0.000000 0.000000 0.026625 0.000000 0.000000
# 5 0.000000 0.000000 0.000000 0.000000 0.027653 0.000000
# 6 0.000000 0.000000 0.000000 0.000000 0.000000 -0.024968
#
#
# Mechanical properties :
#
#
# Convention : Reuss Voigt Hill
#
# Bulk Modulus (GPa) = 48.03486 58.40635 53.22060
# Shear Modulus (GPa) = 51.64702 20.51488 36.08095
#
# Velocity S-wave (km/s) = 5.10860 3.21969 4.26991
# Velocity P-wave (km/s) = 7.68568 6.58295 7.15559
#
# Compressibility (1/GPa) = 0.02081821
#
# Stress axis : x y z
#
# Youngs Moduli (GPa) = 62.46385 84.22238 78.08198
#
# Poissons Ratio (x) = -0.02968 0.26983
# Poissons Ratio (y) = -0.02201 0.53349
# Poissons Ratio (z) = 0.21586 0.57544
#
# Static dielectric constant tensor:
#      x y z
#    x 3.698130 0.000000 0.000000 
#    y 0.000000 4.180620 0.000000 
#    z 0.000000 0.000000 3.443200 
# 
# 
# High freq. dielectric constant tensor:
#      x y z
#    x 1.786320 0.000000 0.000000 
#    y 0.000000 1.796270 0.000000 
#    z 0.000000 0.000000 1.762650 
# 
# From -- ./inp_files/6203.got.cif
#   From: 2010.03.12/outbox.cif.g09.slc.cpg/sg51_4_cif.got.tgz:6203.got - 2010.04.16 13:43:02.
