data_PCOD8207434
_publ_section_title
;
Structure prediction by ZEFSAII (Michael W. Deem and Ramdas Pophale) SiO2 
 PCOD8207434
Probable space group: P M M A
;
_chemical_formula_sum "Si O2"
_cell_formula_units_Z 64
_cell_length_a 30.739959
_cell_length_b 9.131123
_cell_length_c 11.777308
_cell_angle_alpha 90.000000
_cell_angle_beta 90.000000
_cell_angle_gamma 90.000000
_cell_volume 3305.776665
_symmetry_space_group_name_H-M "P M M A"
_symmetry_group_IT_number 51
_symmetry_cell_setting 'orthorhombic'
loop_
_space_group_symop_operation_xyz
x,y,z
1/2-x,-y,z
1/2+x,-y,-z
-x,y,-z
-x,-y,-z
1/2+x,y,-z
1/2-x,y,z
x,-y,z
loop_
_atom_site_type_symbol
_atom_site_label
_atom_site_fract_x
_atom_site_fract_y
_atom_site_fract_z
Si Si1 0.337202 0.330784 0.506118
Si Si2 0.543825 0.329274 0.726399
Si Si3 0.798137 0.673791 0.729533
Si Si4 0.074440 0.167921 0.494443
Si Si5 0.799412 0.332520 0.252940
Si Si6 0.124647 0.671120 0.111609
Si Si7 0.040622 0.833032 0.739995
Si Si8 0.374797 0.173348 0.874698
O O1 0.351364 0.500000 0.489984
O O2 0.312701 0.271238 0.394611
O O3 0.379307 0.233997 0.527726
O O4 0.305498 0.310061 0.612642
O O5 0.537291 0.500000 0.706422
O O6 0.552100 0.255856 0.605825
O O7 0.583772 0.295987 0.808735
O O8 0.500052 0.263633 0.781953
O O9 0.750000 0.736452 0.757227
O O10 0.797133 0.500000 0.728160
O O11 0.831997 0.728107 0.824503
O O12 0.043999 0.180120 0.604380
O O13 0.080351 0.000000 0.457037
O O14 0.750000 0.290813 0.222436
O O15 0.809452 0.500000 0.219410
O O16 0.830400 0.230074 0.179904
O O17 0.128065 0.500000 0.081519
O O18 0.118750 0.763753 0.999251
O O19 0.084432 0.773657 0.799111
O O20 0.032098 0.000000 0.776816
O O21 0.372105 0.000000 0.880329
#
# Coordination Sequence:
#
# PCOD8207434 Si02
#       8
#     8   8   8   8   8   8   8   8
#     4  10  18  33  59  90 120 150 192 239 287 346
#     4  11  23  39  61  90 119 149 191 243 295 349
#     4   9  17  33  59  87 117 151 186 233 291 345
#     4  11  21  36  59  86 121 158 190 232 291 354
#     4  10  21  37  61  92 122 154 194 241 293 348
#     4  10  22  40  59  85 117 150 196 248 295 343
#     4  10  23  41  59  84 118 156 194 236 293 354
#     4  11  24  42  61  83 115 157 202 245 290 344
#
# _framework density 19.360050000000001
#
# number of rings (size 3 to 8) (size 9 to 14) (size 15 to 20)
#    0.000    1.750    2.500    1.875    0.000    7.250 
#    0.000    3.750    0.000    1.875    0.000    0.000 
#    0.000    0.000    0.000    0.000    0.000    0.000 
#
# Total GULP energy -793813.152898 kJ/mol
# GULP energy per Si atom -12403.330514 kJ/mol
# Density = 1.931599 g / cm^3
# Si number density = 19.360050 Si / 1000 Ang^3
#
#
#
# Elastic Constant Matrix: (Units=GPa)
#
#
# Indices 1 2 3 4 5 6 
#
# 1 146.6673 60.8960 41.9650 0.0000 0.0000 0.0000
# 2 60.8960 77.5845 44.9717 0.0000 0.0000 0.0000
# 3 41.9650 44.9717 92.8942 0.0000 0.0000 0.0000
# 4 0.0000 0.0000 0.0000 26.9271 0.0000 0.0000
# 5 0.0000 0.0000 0.0000 0.0000 10.1885 0.0000
# 6 0.0000 0.0000 0.0000 0.0000 0.0000 24.2516
#
#
#
# Elastic Compliance Matrix: (Units=1/GPa)
#
#
# Indices 1 2 3 4 5 6 
#
# 1 0.010183 -0.007404 -0.001016 0.000000 0.000000 0.000000
# 2 -0.007404 0.023300 -0.007935 0.000000 0.000000 0.000000
# 3 -0.001016 -0.007935 0.015065 0.000000 0.000000 0.000000
# 4 0.000000 0.000000 0.000000 0.037137 0.000000 0.000000
# 5 0.000000 0.000000 0.000000 0.000000 0.098150 0.000000
# 6 0.000000 0.000000 0.000000 0.000000 0.000000 0.041234
#
#
# Mechanical properties :
#
#
# Convention : Reuss Voigt Hill
#
# Bulk Modulus (GPa) = 63.13683 68.09016 65.61350
# Shear Modulus (GPa) = 19.00716 23.56099 21.28407
#
# Velocity S-wave (km/s) = 3.13672 3.49232 3.31929
# Velocity P-wave (km/s) = 6.76768 7.17695 6.97531
#
# Compressibility (1/GPa) = 0.01583862
#
# Stress axis : x y z
#
# Youngs Moduli (GPa) = 98.20496 42.91852 66.37696
#
# Poissons Ratio (x) = 0.31775 0.06743
# Poissons Ratio (y) = 0.72707 0.52672
# Poissons Ratio (z) = 0.09976 0.34057
#
# Static dielectric constant tensor:
#      x y z
#    x 3.790100 0.000000 0.000000 
#    y 0.000000 3.419210 0.000000 
#    z 0.000000 0.000000 3.494860 
# 
# 
# High freq. dielectric constant tensor:
#      x y z
#    x 1.768060 0.000000 0.000000 
#    y 0.000000 1.737410 0.000000 
#    z 0.000000 0.000000 1.752540 
# 
# From -- ./inp_files/19525.got.cif
#   From: 2010.03.12/outbox.cif.g09.slc.cpg/sg51_10_cif.got.tgz:19525.got - 2010.04.16 13:43:02.
