data_PCOD8207122
_publ_section_title
;
Structure prediction by ZEFSAII (Michael W. Deem and Ramdas Pophale) SiO2 
 PCOD8207122
Probable space group: P M M A
;
_chemical_formula_sum "Si O2"
_cell_formula_units_Z 48
_cell_length_a 18.171345
_cell_length_b 9.103731
_cell_length_c 16.053769
_cell_angle_alpha 90.000000
_cell_angle_beta 90.000000
_cell_angle_gamma 90.000000
_cell_volume 2655.727435
_symmetry_space_group_name_H-M "P M M A"
_symmetry_group_IT_number 51
_symmetry_cell_setting 'orthorhombic'
loop_
_space_group_symop_operation_xyz
x,y,z
1/2-x,-y,z
1/2+x,-y,-z
-x,y,-z
-x,-y,-z
1/2+x,y,-z
1/2-x,y,z
x,-y,z
loop_
_atom_site_type_symbol
_atom_site_label
_atom_site_fract_x
_atom_site_fract_y
_atom_site_fract_z
Si Si1 0.612176 0.172180 0.473312
Si Si2 0.121314 0.173531 0.883872
Si Si3 0.750000 0.674587 0.214640
Si Si4 0.832833 0.174293 0.931877
Si Si5 0.975157 0.828336 0.631763
Si Si6 0.250000 0.672212 0.594940
Si Si7 0.537299 0.174616 0.816501
O O1 0.592414 0.203357 0.569872
O O2 0.548994 0.231754 0.411353
O O3 0.681829 0.267453 0.454981
O O4 0.626969 0.000000 0.459228
O O5 0.176370 0.258956 0.824027
O O6 0.037844 0.221049 0.862933
O O7 0.133161 0.000000 0.871048
O O8 0.139155 0.223055 0.977500
O O9 0.750000 0.500000 0.203266
O O10 0.750000 0.725366 0.310179
O O11 0.750000 0.236068 0.915386
O O12 0.891209 0.238440 0.864917
O O13 0.831123 0.000000 0.926700
O O14 0.962089 0.757623 0.722928
O O15 0.986066 0.000000 0.644072
O O16 0.250000 0.500000 0.589723
O O17 0.543114 0.000000 0.814686
#
# Coordination Sequence:
#
# PCOD8207122 Si02
#       7
#     8   8   4   8   8   4   8
#     4   9  17  32  53  73  99 130 162 204 249 294
#     4  10  18  31  52  76 100 130 169 205 244 294
#     4  11  23  35  49  72 103 132 160 207 257 297
#     4   9  16  27  43  71 108 135 160 202 248 289
#     4   8  15  29  48  73 101 128 163 204 247 294
#     4  11  23  35  47  72 103 128 162 203 245 299
#     4   9  16  26  46  76 105 132 163 205 249 290
#
# _framework density 18.074144
#
# number of rings (size 3 to 8) (size 9 to 14) (size 15 to 20)
#    0.000    2.667    0.833    3.000    0.000    4.667 
#    1.500    1.667    0.000    3.000    0.000    1.167 
#    0.000    0.000    0.000    0.000    0.000    0.000 
#
# Total GULP energy -594990.587099 kJ/mol
# GULP energy per Si atom -12395.637231 kJ/mol
# Density = 1.803301 g / cm^3
# Si number density = 18.074144 Si / 1000 Ang^3
#
#
#
# Elastic Constant Matrix: (Units=GPa)
#
#
# Indices 1 2 3 4 5 6 
#
# 1 156.6203 23.5767 84.7993 0.0000 0.0000 0.0000
# 2 23.5767 19.4782 19.0834 0.0000 0.0000 0.0000
# 3 84.7993 19.0834 125.7339 0.0000 0.0000 0.0000
# 4 0.0000 0.0000 0.0000 13.3961 0.0000 0.0000
# 5 0.0000 0.0000 0.0000 0.0000 27.3801 0.0000
# 6 0.0000 0.0000 0.0000 0.0000 0.0000 -124.4650
#
#
#
# Elastic Compliance Matrix: (Units=1/GPa)
#
#
# Indices 1 2 3 4 5 6 
#
# 1 0.010809 -0.006979 -0.006231 0.000000 0.000000 0.000000
# 2 -0.006979 0.064813 -0.005130 0.000000 0.000000 0.000000
# 3 -0.006231 -0.005130 0.012934 0.000000 0.000000 0.000000
# 4 0.000000 0.000000 0.000000 0.074648 0.000000 0.000000
# 5 0.000000 0.000000 0.000000 0.000000 0.036523 0.000000
# 6 0.000000 0.000000 0.000000 0.000000 0.000000 -0.008034
#
#
# Mechanical properties :
#
#
# Convention : Reuss Voigt Hill
#
# Bulk Modulus (GPa) = 19.27657 61.86125 40.56891
# Shear Modulus (GPa) = 20.35292 -5.11291 7.62000
#
# Velocity S-wave (km/s) = 3.35935 -1.68374 2.05551
# Velocity P-wave (km/s) = 5.07301 5.52455 5.30359
#
# Compressibility (1/GPa) = 0.05187644
#
# Stress axis : x y z
#
# Youngs Moduli (GPa) = 92.51613 15.42898 77.31467
#
# Poissons Ratio (x) = 0.10768 0.48172
# Poissons Ratio (y) = 0.64566 0.39665
# Poissons Ratio (z) = 0.57644 0.07916
#
# Static dielectric constant tensor:
#      x y z
#    x 3.524960 0.000000 0.000000 
#    y 0.000000 2.762330 0.000000 
#    z 0.000000 0.000000 3.760740 
# 
# 
# High freq. dielectric constant tensor:
#      x y z
#    x 1.710050 0.000000 0.000000 
#    y 0.000000 1.637270 0.000000 
#    z 0.000000 0.000000 1.712720 
# 
# From -- ./inp_files/24858.got.cif
#   From: 2010.03.12/outbox.cif.g09.slc.cpg/sg51_13_cif.got.tgz:24858.got - 2010.04.16 13:43:02.
