data_PCOD8207421
_publ_section_title
;
Structure prediction by ZEFSAII (Michael W. Deem and Ramdas Pophale) SiO2 
 PCOD8207421
Probable space group: P M M A
;
_chemical_formula_sum "Si O2"
_cell_formula_units_Z 48
_cell_length_a 21.638410
_cell_length_b 8.639989
_cell_length_c 12.462261
_cell_angle_alpha 90.000000
_cell_angle_beta 90.000000
_cell_angle_gamma 90.000000
_cell_volume 2329.889786
_symmetry_space_group_name_H-M "P M M A"
_symmetry_group_IT_number 51
_symmetry_cell_setting 'orthorhombic'
loop_
_space_group_symop_operation_xyz
x,y,z
1/2-x,-y,z
1/2+x,-y,-z
-x,y,-z
-x,-y,-z
1/2+x,y,-z
1/2-x,y,z
x,-y,z
loop_
_atom_site_type_symbol
_atom_site_label
_atom_site_fract_x
_atom_site_fract_y
_atom_site_fract_z
Si Si1 0.430031 0.182178 0.481641
Si Si2 0.318370 0.184374 0.629214
Si Si3 0.990940 0.825796 0.120466
Si Si4 0.179592 0.176063 0.090135
Si Si5 0.089948 0.321764 0.257079
Si Si6 0.651693 0.826170 0.141358
O O1 0.500000 0.251151 0.500000
O O2 0.376654 0.251448 0.561079
O O3 0.405986 0.219817 0.363504
O O4 0.433583 0.000000 0.498102
O O5 0.250000 0.229437 0.581741
O O6 0.320816 0.252503 0.751230
O O7 0.325365 0.000000 0.633110
O O8 0.921086 0.823500 0.156304
O O9 0.025123 0.710011 0.199800
O O10 0.018371 0.000000 0.129980
O O11 0.000000 0.764307 0.000000
O O12 0.250000 0.177759 0.125635
O O13 0.144593 0.277762 0.176856
O O14 0.153043 0.000000 0.089362
O O15 0.171317 0.253304 0.971374
O O16 0.095023 0.500000 0.289258
O O17 0.677850 0.000000 0.134239
#
# Coordination Sequence:
#
# PCOD8207421 Si02
#       6
#     8   8   8   8   8   8
#     4  10  21  39  62  84 110 147 197 250 297 347
#     4   9  17  30  53  86 115 139 179 239 300 350
#     4  10  18  33  58  84 113 146 188 234 280 342
#     4  10  20  36  59  85 114 151 195 238 283 342
#     4  12  25  38  55  82 120 155 190 234 289 358
#     4   9  16  30  55  87 117 143 176 232 295 345
#
# _framework density 20.601832000000002
#
# number of rings (size 3 to 8) (size 9 to 14) (size 15 to 20)
#    0.000    2.000    1.667    3.000    0.000    6.333 
#    0.000    1.667    0.000    1.000    0.000    0.000 
#    0.000    0.000    0.000    0.000    0.000    0.000 
#
# Total GULP energy -594914.964684 kJ/mol
# GULP energy per Si atom -12394.061764 kJ/mol
# Density = 2.055494 g / cm^3
# Si number density = 20.601832 Si / 1000 Ang^3
#
#
#
# Elastic Constant Matrix: (Units=GPa)
#
#
# Indices 1 2 3 4 5 6 
#
# 1 138.9946 13.3866 53.0444 0.0000 0.0000 0.0000
# 2 13.3866 17.8128 0.7478 0.0000 0.0000 0.0000
# 3 53.0444 0.7478 131.6631 0.0000 0.0000 0.0000
# 4 0.0000 0.0000 0.0000 5.1933 0.0000 0.0000
# 5 0.0000 0.0000 0.0000 0.0000 26.6919 0.0000
# 6 0.0000 0.0000 0.0000 0.0000 0.0000 8.6481
#
#
#
# Elastic Compliance Matrix: (Units=1/GPa)
#
#
# Indices 1 2 3 4 5 6 
#
# 1 0.009258 -0.006803 -0.003691 0.000000 0.000000 0.000000
# 2 -0.006803 0.061151 0.002393 0.000000 0.000000 0.000000
# 3 -0.003691 0.002393 0.009069 0.000000 0.000000 0.000000
# 4 0.000000 0.000000 0.000000 0.192557 0.000000 0.000000
# 5 0.000000 0.000000 0.000000 0.000000 0.037465 0.000000
# 6 0.000000 0.000000 0.000000 0.000000 0.000000 0.115633
#
#
# Mechanical properties :
#
#
# Convention : Reuss Voigt Hill
#
# Bulk Modulus (GPa) = 15.80355 46.98088 31.39222
# Shear Modulus (GPa) = 10.81251 22.85943 16.83597
#
# Velocity S-wave (km/s) = 2.29341 3.33465 2.86179
# Velocity P-wave (km/s) = 3.83413 6.13843 5.11766
#
# Compressibility (1/GPa) = 0.06327691
#
# Stress axis : x y z
#
# Youngs Moduli (GPa) = 108.00933 16.35285 110.26884
#
# Poissons Ratio (x) = 0.11125 0.40705
# Poissons Ratio (y) = 0.73478 -0.26392
# Poissons Ratio (z) = 0.39871 -0.03914
#
# Static dielectric constant tensor:
#      x y z
#    x 3.981630 0.000000 0.000000 
#    y 0.000000 3.127080 0.000000 
#    z 0.000000 0.000000 3.865780 
# 
# 
# High freq. dielectric constant tensor:
#      x y z
#    x 1.823330 0.000000 0.000000 
#    y 0.000000 1.734770 0.000000 
#    z 0.000000 0.000000 1.814440 
# 
# From -- ./inp_files/18604.got.cif
#   From: 2010.03.12/outbox.cif.g09.slc.cpg/sg51_10_cif.got.tgz:18604.got - 2010.04.16 13:43:02.
