data_PCOD8207472
_publ_section_title
;
Structure prediction by ZEFSAII (Michael W. Deem and Ramdas Pophale) SiO2 
 PCOD8207472
Probable space group: P M M A
;
_chemical_formula_sum "Si O2"
_cell_formula_units_Z 64
_cell_length_a 30.896320
_cell_length_b 9.025608
_cell_length_c 11.949754
_cell_angle_alpha 90.000000
_cell_angle_beta 90.000000
_cell_angle_gamma 90.000000
_cell_volume 3332.285373
_symmetry_space_group_name_H-M "P M M A"
_symmetry_group_IT_number 51
_symmetry_cell_setting 'orthorhombic'
loop_
_space_group_symop_operation_xyz
x,y,z
1/2-x,-y,z
1/2+x,-y,-z
-x,y,-z
-x,-y,-z
1/2+x,y,-z
1/2-x,y,z
x,-y,z
loop_
_atom_site_type_symbol
_atom_site_label
_atom_site_fract_x
_atom_site_fract_y
_atom_site_fract_z
Si Si1 0.549225 0.324467 0.985176
Si Si2 0.818498 0.326567 0.755372
Si Si3 0.549180 0.324350 0.518567
Si Si4 0.798274 0.670889 0.506889
Si Si5 0.584444 0.324384 0.751799
Si Si6 0.702563 0.828910 0.977339
Si Si7 0.122485 0.825217 0.876210
Si Si8 0.375971 0.174535 0.618014
O O1 0.554888 0.500000 0.995556
O O2 0.562099 0.263023 0.863316
O O3 0.500000 0.274621 0.000000
O O4 0.579101 0.250965 0.078948
O O5 0.817232 0.500000 0.780160
O O6 0.796013 0.287807 0.638060
O O7 0.867042 0.264610 0.748993
O O8 0.794708 0.248691 0.857356
O O9 0.500000 0.274992 0.500000
O O10 0.555162 0.500000 0.507058
O O11 0.560369 0.264667 0.642097
O O12 0.580742 0.249466 0.429088
O O13 0.750000 0.697227 0.457468
O O14 0.812770 0.500000 0.493485
O O15 0.832692 0.771349 0.443434
O O16 0.583093 0.500000 0.751273
O O17 0.750000 0.806284 0.034420
O O18 0.692984 0.000000 0.955988
O O19 0.664702 0.763942 0.056898
O O20 0.128355 0.780730 0.747425
O O21 0.117636 0.000000 0.890577
O O22 0.379870 0.000000 0.601185
#
# Coordination Sequence:
#
# PCOD8207472 Si02
#       8
#     8   8   8   8   8   8   8   8
#     4  10  21  36  59  88 115 144 185 236 280 327
#     4  10  18  34  59  85 116 146 178 227 285 338
#     4  10  21  38  63  88 114 151 191 233 284 340
#     4  10  21  38  60  85 114 149 189 236 289 343
#     4   9  17  33  56  86 116 143 180 228 283 334
#     4  10  21  37  57  81 110 146 189 232 275 331
#     4  10  23  41  57  78 113 154 191 229 281 337
#     4  11  24  40  58  82 116 154 193 238 284 337
#
# _framework density 19.206037999999999
#
# number of rings (size 3 to 8) (size 9 to 14) (size 15 to 20)
#    0.000    2.000    2.500    0.750    1.750    3.500 
#    0.000    1.875    0.000    0.000    0.000    0.000 
#    0.000    0.000    0.000    0.000    0.000    0.000 
#
# Total GULP energy -793586.598099 kJ/mol
# GULP energy per Si atom -12399.790595 kJ/mol
# Density = 1.916232 g / cm^3
# Si number density = 19.206038 Si / 1000 Ang^3
#
#
#
# Elastic Constant Matrix: (Units=GPa)
#
#
# Indices 1 2 3 4 5 6 
#
# 1 153.7370 38.9159 60.2672 0.0000 0.0000 0.0000
# 2 38.9159 41.3771 38.7175 0.0000 0.0000 0.0000
# 3 60.2672 38.7175 120.1709 0.0000 0.0000 0.0000
# 4 0.0000 0.0000 0.0000 26.8876 0.0000 0.0000
# 5 0.0000 0.0000 0.0000 0.0000 15.7327 0.0000
# 6 0.0000 0.0000 0.0000 0.0000 0.0000 12.1168
#
#
#
# Elastic Compliance Matrix: (Units=1/GPa)
#
#
# Indices 1 2 3 4 5 6 
#
# 1 0.009061 -0.006113 -0.002575 0.000000 0.000000 0.000000
# 2 -0.006113 0.038723 -0.009410 0.000000 0.000000 0.000000
# 3 -0.002575 -0.009410 0.012645 0.000000 0.000000 0.000000
# 4 0.000000 0.000000 0.000000 0.037192 0.000000 0.000000
# 5 0.000000 0.000000 0.000000 0.000000 0.063562 0.000000
# 6 0.000000 0.000000 0.000000 0.000000 0.000000 0.082530
#
#
# Mechanical properties :
#
#
# Convention : Reuss Voigt Hill
#
# Bulk Modulus (GPa) = 41.26675 65.67624 53.47149
# Shear Modulus (GPa) = 17.36196 22.77307 20.06751
#
# Velocity S-wave (km/s) = 3.00990 3.44717 3.23593
# Velocity P-wave (km/s) = 5.79761 7.07911 6.47017
#
# Compressibility (1/GPa) = 0.02423258
#
# Stress axis : x y z
#
# Youngs Moduli (GPa) = 110.35805 25.82463 79.08491
#
# Poissons Ratio (x) = 0.15787 0.20363
# Poissons Ratio (y) = 0.67463 0.74420
# Poissons Ratio (z) = 0.28416 0.24301
#
# Static dielectric constant tensor:
#      x y z
#    x 3.626800 0.000000 0.000000 
#    y 0.000000 3.241890 0.000000 
#    z 0.000000 0.000000 3.631040 
# 
# 
# High freq. dielectric constant tensor:
#      x y z
#    x 1.765180 0.000000 0.000000 
#    y 0.000000 1.721210 0.000000 
#    z 0.000000 0.000000 1.750590 
# 
# From -- ./inp_files/19439.got.cif
#   From: 2010.03.12/outbox.cif.g09.slc.cpg/sg51_10_cif.got.tgz:19439.got - 2010.04.16 13:43:02.
