data_PCOD8207783
_publ_section_title
;
Structure prediction by ZEFSAII (Michael W. Deem and Ramdas Pophale) SiO2 
 PCOD8207783
Probable space group: P M M A
;
_chemical_formula_sum "Si O2"
_cell_formula_units_Z 64
_cell_length_a 23.750491
_cell_length_b 9.094694
_cell_length_c 16.578668
_cell_angle_alpha 90.000000
_cell_angle_beta 90.000000
_cell_angle_gamma 90.000000
_cell_volume 3581.049451
_symmetry_space_group_name_H-M "P M M A"
_symmetry_group_IT_number 51
_symmetry_cell_setting 'orthorhombic'
loop_
_space_group_symop_operation_xyz
x,y,z
1/2-x,-y,z
1/2+x,-y,-z
-x,y,-z
-x,-y,-z
1/2+x,y,-z
1/2-x,y,z
x,-y,z
loop_
_atom_site_type_symbol
_atom_site_label
_atom_site_fract_x
_atom_site_fract_y
_atom_site_fract_z
Si Si1 0.685182 0.673132 0.257405
Si Si2 0.187409 0.166155 0.363610
Si Si3 0.315088 0.172682 0.078845
Si Si4 0.087748 0.173250 0.651890
Si Si5 0.369400 0.671775 0.225215
Si Si6 0.082664 0.831091 0.466231
Si Si7 0.816531 0.661760 0.078182
Si Si8 0.977912 0.327140 0.674108
O O1 0.750000 0.720509 0.270974
O O2 0.678043 0.500000 0.272378
O O3 0.647164 0.763208 0.319381
O O4 0.663971 0.714290 0.166920
O O5 0.250000 0.193699 0.396359
O O6 0.176027 0.276699 0.290656
O O7 0.146754 0.195179 0.438701
O O8 0.179978 0.000000 0.330224
O O9 0.250000 0.219357 0.095002
O O10 0.357287 0.246970 0.141762
O O11 0.322257 0.000000 0.084854
O O12 0.335384 0.223453 0.990168
O O13 0.079453 0.215870 0.558616
O O14 0.036066 0.248755 0.699980
O O15 0.087047 0.000000 0.666520
O O16 0.362055 0.500000 0.210970
O O17 0.431760 0.711733 0.257517
O O18 0.041213 0.731960 0.413251
O O19 0.063924 0.000000 0.453996
O O20 0.750000 0.648375 0.081466
O O21 0.841754 0.500000 0.058180
O O22 0.987495 0.500000 0.667392
#
# Coordination Sequence:
#
# PCOD8207783 Si02
#       8
#     8   8   8   8   8   8   8   8
#     4   9  19  36  56  78 105 135 165 200 245 294
#     4   9  17  30  47  66  94 132 166 198 242 293
#     4  10  19  29  46  75 106 134 164 198 240 291
#     4  11  22  34  53  78 101 129 165 206 252 301
#     4  10  20  32  47  69  97 130 167 206 246 288
#     4   9  19  34  50  71  99 130 167 210 253 297
#     4   8  15  30  51  73  99 132 166 199 238 285
#     4  10  21  36  53  72  96 129 170 213 254 295
#
# _framework density 17.871855
#
# number of rings (size 3 to 8) (size 9 to 14) (size 15 to 20)
#    0.000    2.500    0.000    3.000    0.000    7.750 
#    0.000    2.500    0.000    0.750    0.000    5.250 
#    0.000    0.000    0.000    0.000    0.000    0.000 
#
# Total GULP energy -793549.021215 kJ/mol
# GULP energy per Si atom -12399.203456 kJ/mol
# Density = 1.783118 g / cm^3
# Si number density = 17.871855 Si / 1000 Ang^3
#
#
#
# Elastic Constant Matrix: (Units=GPa)
#
#
# Indices 1 2 3 4 5 6 
#
# 1 102.8092 48.0407 39.0471 0.0000 0.0000 0.0000
# 2 48.0407 84.7959 47.4629 0.0000 0.0000 0.0000
# 3 39.0471 47.4629 72.2227 0.0000 0.0000 0.0000
# 4 0.0000 0.0000 0.0000 30.8299 0.0000 0.0000
# 5 0.0000 0.0000 0.0000 0.0000 15.8869 0.0000
# 6 0.0000 0.0000 0.0000 0.0000 0.0000 26.7125
#
#
#
# Elastic Compliance Matrix: (Units=1/GPa)
#
#
# Indices 1 2 3 4 5 6 
#
# 1 0.013821 -0.005770 -0.003680 0.000000 0.000000 0.000000
# 2 -0.005770 0.021064 -0.010723 0.000000 0.000000 0.000000
# 3 -0.003680 -0.010723 0.022883 0.000000 0.000000 0.000000
# 4 0.000000 0.000000 0.000000 0.032436 0.000000 0.000000
# 5 0.000000 0.000000 0.000000 0.000000 0.062945 0.000000
# 6 0.000000 0.000000 0.000000 0.000000 0.000000 0.037436
#
#
# Mechanical properties :
#
#
# Convention : Reuss Voigt Hill
#
# Bulk Modulus (GPa) = 57.40325 58.76990 58.08658
# Shear Modulus (GPa) = 21.12034 23.03766 22.07900
#
# Velocity S-wave (km/s) = 3.44141 3.59423 3.51865
# Velocity P-wave (km/s) = 6.92677 7.08379 7.00572
#
# Compressibility (1/GPa) = 0.01742062
#
# Stress axis : x y z
#
# Youngs Moduli (GPa) = 72.35474 47.47380 43.70102
#
# Poissons Ratio (x) = 0.27393 0.16083
# Poissons Ratio (y) = 0.41750 0.46862
# Poissons Ratio (z) = 0.26628 0.50907
#
# Static dielectric constant tensor:
#      x y z
#    x 3.253920 0.000000 0.000000 
#    y 0.000000 3.337220 0.000000 
#    z 0.000000 0.000000 3.312230 
# 
# 
# High freq. dielectric constant tensor:
#      x y z
#    x 1.677820 0.000000 0.000000 
#    y 0.000000 1.695560 0.000000 
#    z 0.000000 0.000000 1.681330 
# 
# From -- ./inp_files/26171.got.cif
#   From: 2010.03.12/outbox.cif.g09.slc.cpg/sg51_14_cif.got.tgz:26171.got - 2010.04.16 13:43:02.
