data_PCOD8207105
_publ_section_title
;
Structure prediction by ZEFSAII (Michael W. Deem and Ramdas Pophale) SiO2 
 PCOD8207105
Probable space group: P M M A
;
_chemical_formula_sum "Si O2"
_cell_formula_units_Z 40
_cell_length_a 8.618443
_cell_length_b 25.284058
_cell_length_c 9.932476
_cell_angle_alpha 90.000000
_cell_angle_beta 90.000000
_cell_angle_gamma 90.000000
_cell_volume 2164.378025
_symmetry_space_group_name_H-M "P M M A"
_symmetry_group_IT_number 51
_symmetry_cell_setting 'orthorhombic'
loop_
_space_group_symop_operation_xyz
x,y,z
1/2-x,-y,z
1/2+x,-y,-z
-x,y,-z
-x,-y,-z
1/2+x,y,-z
1/2-x,y,z
x,-y,z
loop_
_atom_site_type_symbol
_atom_site_label
_atom_site_fract_x
_atom_site_fract_y
_atom_site_fract_z
Si Si1 0.567133 0.139338 0.648152
Si Si2 0.565927 0.753495 0.350448
Si Si3 0.933223 0.559493 0.859045
Si Si4 0.066048 0.354054 0.351665
Si Si5 0.570516 0.062074 0.141663
O O1 0.500000 0.129600 0.500000
O O2 0.750000 0.145250 0.636984
O O3 0.496847 0.192621 0.717830
O O4 0.522729 0.089786 0.739195
O O5 0.500000 0.754123 0.500000
O O6 0.750000 0.752738 0.348635
O O7 0.500174 0.699855 0.283195
O O8 0.750000 0.560905 0.869190
O O9 0.993241 0.500000 0.828706
O O10 0.991821 0.597431 0.739972
O O11 0.000000 0.580344 0.000000
O O12 0.250000 0.350131 0.359805
O O13 0.000000 0.363554 0.500000
O O14 0.750000 0.078380 0.146913
O O15 0.546856 0.000000 0.162272
O O16 0.500000 0.080709 0.000000
#
# Coordination Sequence:
#
# PCOD8207105 Si02
#       5
#     8   8   8   8   8
#     4  11  21  35  56  81 109 140 177 219 263 310
#     4  10  18  31  51  75 104 136 171 210 259 311
#     4   9  19  35  53  73 100 134 170 209 254 304
#     4  10  19  32  51  76 104 133 169 210 254 304
#     4  10  21  38  58  80 108 142 178 216 262 314
#
# _framework density 18.481059999999999
#
# number of rings (size 3 to 8) (size 9 to 14) (size 15 to 20)
#    0.000    2.000    0.000    7.200    0.000    3.600 
#    0.000    1.000    0.000    2.400    0.000    0.000 
#    0.000    0.000    0.000    0.000    0.000    0.000 
#
# Total GULP energy -495965.904893 kJ/mol
# GULP energy per Si atom -12399.147622 kJ/mol
# Density = 1.843900 g / cm^3
# Si number density = 18.481060 Si / 1000 Ang^3
#
#
#
# Elastic Constant Matrix: (Units=GPa)
#
#
# Indices 1 2 3 4 5 6 
#
# 1 119.7727 46.9998 39.9084 0.0000 0.0000 0.0000
# 2 46.9998 102.3405 63.6143 0.0000 0.0000 0.0000
# 3 39.9084 63.6143 93.5146 0.0000 0.0000 0.0000
# 4 0.0000 0.0000 0.0000 10.6637 0.0000 0.0000
# 5 0.0000 0.0000 0.0000 0.0000 29.5200 0.0000
# 6 0.0000 0.0000 0.0000 0.0000 0.0000 28.8672
#
#
#
# Elastic Compliance Matrix: (Units=1/GPa)
#
#
# Indices 1 2 3 4 5 6 
#
# 1 0.010409 -0.003498 -0.002062 0.000000 0.000000 0.000000
# 2 -0.003498 0.018106 -0.010824 0.000000 0.000000 0.000000
# 3 -0.002062 -0.010824 0.018937 0.000000 0.000000 0.000000
# 4 0.000000 0.000000 0.000000 0.093776 0.000000 0.000000
# 5 0.000000 0.000000 0.000000 0.000000 0.033875 0.000000
# 6 0.000000 0.000000 0.000000 0.000000 0.000000 0.034641
#
#
# Mechanical properties :
#
#
# Convention : Reuss Voigt Hill
#
# Bulk Modulus (GPa) = 68.10786 68.51917 68.31351
# Shear Modulus (GPa) = 20.20951 24.81719 22.51335
#
# Velocity S-wave (km/s) = 3.31044 3.66846 3.49404
# Velocity P-wave (km/s) = 7.17947 7.42289 7.30219
#
# Compressibility (1/GPa) = 0.01468259
#
# Stress axis : x y z
#
# Youngs Moduli (GPa) = 96.06935 55.23043 52.80764
#
# Poissons Ratio (x) = 0.19322 0.10891
# Poissons Ratio (y) = 0.33609 0.57158
# Poissons Ratio (z) = 0.19813 0.59780
#
# Static dielectric constant tensor:
#      x y z
#    x 3.479240 0.000000 0.000000 
#    y 0.000000 4.124820 0.000000 
#    z 0.000000 0.000000 3.080700 
# 
# 
# High freq. dielectric constant tensor:
#      x y z
#    x 1.732680 0.000000 0.000000 
#    y 0.000000 1.731720 0.000000 
#    z 0.000000 0.000000 1.688030 
# 
# From -- ./inp_files/14241.got.cif
#   From: 2010.03.12/outbox.cif.g09.slc.cpg/sg51_8_cif.got.tgz:14241.got - 2010.04.16 13:43:02.
