data_PCOD8207246
_publ_section_title
;
Structure prediction by ZEFSAII (Michael W. Deem and Ramdas Pophale) SiO2 
 PCOD8207246
Probable space group: P M M A
;
_chemical_formula_sum "Si O2"
_cell_formula_units_Z 48
_cell_length_a 16.744426
_cell_length_b 16.492817
_cell_length_c 9.185388
_cell_angle_alpha 90.000000
_cell_angle_beta 90.000000
_cell_angle_gamma 90.000000
_cell_volume 2536.662045
_symmetry_space_group_name_H-M "P M M A"
_symmetry_group_IT_number 51
_symmetry_cell_setting 'orthorhombic'
loop_
_space_group_symop_operation_xyz
x,y,z
1/2-x,-y,z
1/2+x,-y,-z
-x,y,-z
-x,-y,-z
1/2+x,y,-z
1/2-x,y,z
x,-y,z
loop_
_atom_site_type_symbol
_atom_site_label
_atom_site_fract_x
_atom_site_fract_y
_atom_site_fract_z
Si Si1 0.342924 0.814968 0.701702
Si Si2 0.092768 0.259542 0.969753
Si Si3 0.091641 0.090386 0.461881
Si Si4 0.157272 0.591400 0.795172
Si Si5 0.908528 0.331774 0.472081
Si Si6 0.658141 0.764558 0.716369
O O1 0.250000 0.790183 0.698565
O O2 0.375012 0.814034 0.867350
O O3 0.357534 0.897642 0.612481
O O4 0.398595 0.750889 0.617737
O O5 0.107162 0.346891 0.894851
O O6 0.142291 0.254070 0.116689
O O7 0.000000 0.247370 0.000000
O O8 0.111935 0.154970 0.336142
O O9 0.000000 0.100253 0.500000
O O10 0.110854 0.000000 0.403939
O O11 0.250000 0.613631 0.810396
O O12 0.140028 0.500000 0.848125
O O13 0.132079 0.597763 0.624653
O O14 0.866615 0.316755 0.627859
O O15 0.000000 0.354093 0.500000
O O16 0.750000 0.782602 0.688296
#
# Coordination Sequence:
#
# PCOD8207246 Si02
#       6
#     8   8   8   8   8   8
#     4  10  19  34  55  77 105 142 182 214 251 314
#     4  11  21  36  56  78 106 138 176 218 263 316
#     4  10  20  35  55  80 110 142 176 215 260 307
#     4  10  21  38  56  74 103 142 178 213 260 318
#     4  10  18  32  53  77 103 134 174 214 257 308
#     4  11  20  32  54  81 107 134 172 221 266 307
#
# _framework density 18.922505000000001
#
# number of rings (size 3 to 8) (size 9 to 14) (size 15 to 20)
#    0.000    1.667    0.000   10.500    0.000    2.000 
#    0.000    1.667    0.000    8.000    0.000    0.000 
#    0.000    0.000    0.000    0.000    0.000    0.000 
#
# Total GULP energy -594983.742188 kJ/mol
# GULP energy per Si atom -12395.494629 kJ/mol
# Density = 1.887944 g / cm^3
# Si number density = 18.922505 Si / 1000 Ang^3
#
#
#
# Elastic Constant Matrix: (Units=GPa)
#
#
# Indices 1 2 3 4 5 6 
#
# 1 81.2468 20.4590 15.9361 0.0000 0.0000 0.0000
# 2 20.4590 68.0440 20.5598 0.0000 0.0000 0.0000
# 3 15.9361 20.5598 119.2484 0.0000 0.0000 0.0000
# 4 0.0000 0.0000 0.0000 30.2981 0.0000 0.0000
# 5 0.0000 0.0000 0.0000 0.0000 36.2697 0.0000
# 6 0.0000 0.0000 0.0000 0.0000 0.0000 50.0085
#
#
#
# Elastic Compliance Matrix: (Units=1/GPa)
#
#
# Indices 1 2 3 4 5 6 
#
# 1 0.013467 -0.003698 -0.001162 0.000000 0.000000 0.000000
# 2 -0.003698 0.016520 -0.002354 0.000000 0.000000 0.000000
# 3 -0.001162 -0.002354 0.008947 0.000000 0.000000 0.000000
# 4 0.000000 0.000000 0.000000 0.033005 0.000000 0.000000
# 5 0.000000 0.000000 0.000000 0.000000 0.027571 0.000000
# 6 0.000000 0.000000 0.000000 0.000000 0.000000 0.019997
#
#
# Mechanical properties :
#
#
# Convention : Reuss Voigt Hill
#
# Bulk Modulus (GPa) = 40.80719 42.49432 41.65075
# Shear Modulus (GPa) = 35.18549 37.42088 36.30318
#
# Velocity S-wave (km/s) = 4.31681 4.45183 4.38484
# Velocity P-wave (km/s) = 6.81607 6.99506 6.90614
#
# Compressibility (1/GPa) = 0.02450549
#
# Stress axis : x y z
#
# Youngs Moduli (GPa) = 74.25361 60.53429 111.76910
#
# Poissons Ratio (x) = 0.22386 0.12989
# Poissons Ratio (y) = 0.27460 0.26310
# Poissons Ratio (z) = 0.08629 0.14249
#
# Static dielectric constant tensor:
#      x y z
#    x 3.392950 0.000000 0.000000 
#    y 0.000000 3.452640 0.000000 
#    z 0.000000 0.000000 3.753600 
# 
# 
# High freq. dielectric constant tensor:
#      x y z
#    x 1.751970 0.000000 0.000000 
#    y 0.000000 1.706970 0.000000 
#    z 0.000000 0.000000 1.736840 
# 
# From -- ./inp_files/8208.got.cif
#   From: 2010.03.12/outbox.cif.g09.slc.cpg/sg51_5_cif.got.tgz:8208.got - 2010.04.16 13:43:02.
