data_PCOD8207957
_publ_section_title
;
Structure prediction by ZEFSAII (Michael W. Deem and Ramdas Pophale) SiO2 
 PCOD8207957
Probable space group: P M M A
;
_chemical_formula_sum "Si O2"
_cell_formula_units_Z 64
_cell_length_a 28.535748
_cell_length_b 9.009443
_cell_length_c 15.401302
_cell_angle_alpha 90.000000
_cell_angle_beta 90.000000
_cell_angle_gamma 90.000000
_cell_volume 3959.539137
_symmetry_space_group_name_H-M "P M M A"
_symmetry_group_IT_number 51
_symmetry_cell_setting 'orthorhombic'
loop_
_space_group_symop_operation_xyz
x,y,z
1/2-x,-y,z
1/2+x,-y,-z
-x,y,-z
-x,-y,-z
1/2+x,y,-z
1/2-x,y,z
x,-y,z
loop_
_atom_site_type_symbol
_atom_site_label
_atom_site_fract_x
_atom_site_fract_y
_atom_site_fract_z
Si Si1 0.047913 0.825080 0.183521
Si Si2 0.448353 0.324584 0.823850
Si Si3 0.603757 0.328679 0.669463
Si Si4 0.945638 0.671382 0.488736
Si Si5 0.603227 0.173938 0.329779
Si Si6 0.301680 0.672301 0.409462
Si Si7 0.444505 0.163331 0.994353
Si Si8 0.801842 0.172217 0.412520
O O1 0.084041 0.777627 0.256888
O O2 0.071709 0.783718 0.090378
O O3 0.999111 0.741249 0.197893
O O4 0.037708 0.000000 0.188446
O O5 0.451481 0.500000 0.818547
O O6 0.411566 0.264975 0.754437
O O7 0.429655 0.277954 0.919428
O O8 0.594516 0.500000 0.694419
O O9 0.579784 0.289769 0.578387
O O10 0.659277 0.292358 0.663090
O O11 0.937598 0.500000 0.462558
O O12 0.925825 0.775247 0.413481
O O13 0.000000 0.707704 0.500000
O O14 0.658568 0.209316 0.341514
O O15 0.593922 0.000000 0.315229
O O16 0.250000 0.723214 0.376432
O O17 0.302256 0.500000 0.431507
O O18 0.315802 0.749506 0.498543
O O19 0.423887 0.000000 0.971961
O O20 0.500000 0.152514 0.000000
O O21 0.750000 0.223119 0.379499
O O22 0.801832 0.000000 0.434226
#
# Coordination Sequence:
#
# PCOD8207957 Si02
#       8
#     8   8   8   8   8   8   8   8
#     4  10  20  33  50  71  97 127 159 195 234 279
#     4  11  21  32  49  71  97 127 159 195 233 279
#     4  10  19  30  45  68  97 128 160 196 236 279
#     4  10  20  32  44  62  93 130 163 195 229 269
#     4  11  21  32  48  69  94 126 160 196 236 282
#     4   9  17  30  48  68  91 122 159 198 240 282
#     4   8  16  32  50  69  94 122 154 195 237 275
#     4   9  18  32  49  69  92 120 157 200 242 281
#
# _framework density 16.163497
#
# number of rings (size 3 to 8) (size 9 to 14) (size 15 to 20)
#    0.000    2.250    1.250    3.375    0.000    5.500 
#    0.000    0.000    0.000    0.000    0.000    0.875 
#    0.000    1.000    0.000    0.000    0.000    0.000 
#
# Total GULP energy -793428.100240 kJ/mol
# GULP energy per Si atom -12397.314066 kJ/mol
# Density = 1.612671 g / cm^3
# Si number density = 16.163497 Si / 1000 Ang^3
#
#
#
# Elastic Constant Matrix: (Units=GPa)
#
#
# Indices 1 2 3 4 5 6 
#
# 1 87.1012 42.3013 50.2002 0.0000 0.0000 0.0000
# 2 42.3013 83.7510 54.0214 0.0000 0.0000 0.0000
# 3 50.2002 54.0214 103.5417 0.0000 0.0000 0.0000
# 4 0.0000 0.0000 0.0000 23.5551 0.0000 0.0000
# 5 0.0000 0.0000 0.0000 0.0000 4.6051 0.0000
# 6 0.0000 0.0000 0.0000 0.0000 0.0000 16.5331
#
#
#
# Elastic Compliance Matrix: (Units=1/GPa)
#
#
# Indices 1 2 3 4 5 6 
#
# 1 0.017214 -0.004991 -0.005742 0.000000 0.000000 0.000000
# 2 -0.004991 0.019444 -0.007725 0.000000 0.000000 0.000000
# 3 -0.005742 -0.007725 0.016472 0.000000 0.000000 0.000000
# 4 0.000000 0.000000 0.000000 0.042454 0.000000 0.000000
# 5 0.000000 0.000000 0.000000 0.000000 0.217150 0.000000
# 6 0.000000 0.000000 0.000000 0.000000 0.000000 0.060485
#
#
# Mechanical properties :
#
#
# Convention : Reuss Voigt Hill
#
# Bulk Modulus (GPa) = 61.67256 63.04886 62.36071
# Shear Modulus (GPa) = 12.03257 17.46338 14.74798
#
# Velocity S-wave (km/s) = 2.73138 3.29054 3.02391
# Velocity P-wave (km/s) = 6.94158 7.31632 7.13141
#
# Compressibility (1/GPa) = 0.01621467
#
# Stress axis : x y z
#
# Youngs Moduli (GPa) = 58.09188 51.43094 60.70870
#
# Poissons Ratio (x) = 0.25668 0.34859
# Poissons Ratio (y) = 0.28993 0.46896
# Poissons Ratio (z) = 0.33357 0.39729
#
# Static dielectric constant tensor:
#      x y z
#    x 3.223760 0.000000 0.000000 
#    y 0.000000 3.099250 0.000000 
#    z 0.000000 0.000000 3.211390 
# 
# 
# High freq. dielectric constant tensor:
#      x y z
#    x 1.605630 0.000000 0.000000 
#    y 0.000000 1.627260 0.000000 
#    z 0.000000 0.000000 1.609230 
# 
# From -- ./inp_files/26735.got.cif
#   From: 2010.03.12/outbox.cif.g09.slc.cpg/sg51_14_cif.got.tgz:26735.got - 2010.04.16 13:43:02.
