data_PCOD8207396
_publ_section_title
;
Structure prediction by ZEFSAII (Michael W. Deem and Ramdas Pophale) SiO2 
 PCOD8207396
Probable space group: P M M A
;
_chemical_formula_sum "Si O2"
_cell_formula_units_Z 56
_cell_length_a 14.231703
_cell_length_b 8.790574
_cell_length_c 23.207352
_cell_angle_alpha 90.000000
_cell_angle_beta 90.000000
_cell_angle_gamma 90.000000
_cell_volume 2903.352021
_symmetry_space_group_name_H-M "P M M A"
_symmetry_group_IT_number 51
_symmetry_cell_setting 'orthorhombic'
loop_
_space_group_symop_operation_xyz
x,y,z
1/2-x,-y,z
1/2+x,-y,-z
-x,y,-z
-x,-y,-z
1/2+x,y,-z
1/2-x,y,z
x,-y,z
loop_
_atom_site_type_symbol
_atom_site_label
_atom_site_fract_x
_atom_site_fract_y
_atom_site_fract_z
Si Si1 0.146800 0.819934 0.641087
Si Si2 0.042645 0.319087 0.085213
Si Si3 0.891697 0.170920 0.485911
Si Si4 0.539060 0.177087 0.695429
Si Si5 0.353597 0.330535 0.401710
Si Si6 0.856493 0.319805 0.801341
Si Si7 0.855178 0.319165 0.029221
O O1 0.250000 0.766445 0.662229
O O2 0.126403 0.755290 0.577063
O O3 0.069570 0.768371 0.688393
O O4 0.139566 0.000000 0.635850
O O5 0.043470 0.500000 0.086326
O O6 0.085216 0.252420 0.144409
O O7 0.933959 0.263890 0.075797
O O8 0.109634 0.262188 0.033363
O O9 0.842085 0.277452 0.532514
O O10 0.000000 0.168826 0.500000
O O11 0.849772 0.000000 0.489126
O O12 0.585912 0.208962 0.633708
O O13 0.589248 0.274661 0.743955
O O14 0.548220 0.000000 0.710674
O O15 0.250000 0.335931 0.373992
O O16 0.398605 0.500000 0.398798
O O17 0.750000 0.254231 0.801459
O O18 0.852592 0.500000 0.805001
O O19 0.750000 0.253087 0.042381
O O20 0.850094 0.500000 0.029479
#
# Coordination Sequence:
#
# PCOD8207396 Si02
#       7
#     8   8   8   8   8   8   8
#     4   9  18  34  55  75  96 125 161 202 248 297
#     4   8  14  24  40  65  98 133 166 201 246 299
#     4  10  18  33  56  80 101 125 161 202 246 298
#     4  11  22  37  55  74  96 126 171 216 249 290
#     4  11  23  36  51  75 106 135 161 197 251 306
#     4  10  20  34  51  72 101 135 167 204 256 308
#     4   8  12  20  38  66  98 131 167 205 243 288
#
# _framework density 19.288049999999998
#
# number of rings (size 3 to 8) (size 9 to 14) (size 15 to 20)
#    0.000    2.429    1.429    3.000    0.000    5.714 
#    0.000    0.714    0.000    3.429    0.000    2.000 
#    0.000    1.143    0.000    0.000    0.000    0.000 
#
# Total GULP energy -693996.057954 kJ/mol
# GULP energy per Si atom -12392.786749 kJ/mol
# Density = 1.924415 g / cm^3
# Si number density = 19.288050 Si / 1000 Ang^3
#
#
#
# Elastic Constant Matrix: (Units=GPa)
#
#
# Indices 1 2 3 4 5 6 
#
# 1 174.7162 11.9664 66.4952 0.0000 0.0000 0.0000
# 2 11.9664 21.5730 6.4480 0.0000 0.0000 0.0000
# 3 66.4952 6.4480 104.2161 0.0000 0.0000 0.0000
# 4 0.0000 0.0000 0.0000 2.2950 0.0000 0.0000
# 5 0.0000 0.0000 0.0000 0.0000 30.3627 0.0000
# 6 0.0000 0.0000 0.0000 0.0000 0.0000 14.6186
#
#
#
# Elastic Compliance Matrix: (Units=1/GPa)
#
#
# Indices 1 2 3 4 5 6 
#
# 1 0.007729 -0.002866 -0.004754 0.000000 0.000000 0.000000
# 2 -0.002866 0.048291 -0.001159 0.000000 0.000000 0.000000
# 3 -0.004754 -0.001159 0.012701 0.000000 0.000000 0.000000
# 4 0.000000 0.000000 0.000000 0.435735 0.000000 0.000000
# 5 0.000000 0.000000 0.000000 0.000000 0.032935 0.000000
# 6 0.000000 0.000000 0.000000 0.000000 0.000000 0.068406
#
#
# Mechanical properties :
#
#
# Convention : Reuss Voigt Hill
#
# Bulk Modulus (GPa) = 19.54602 52.25829 35.90215
# Shear Modulus (GPa) = 7.80749 23.82829 15.81789
#
# Velocity S-wave (km/s) = 2.01411 3.51863 2.86682
# Velocity P-wave (km/s) = 3.94520 6.60758 5.44172
#
# Compressibility (1/GPa) = 0.05116132
#
# Stress axis : x y z
#
# Youngs Moduli (GPa) = 129.37686 20.70794 78.73592
#
# Poissons Ratio (x) = 0.05936 0.37434
# Poissons Ratio (y) = 0.37084 0.09125
# Poissons Ratio (z) = 0.61511 0.02400
#
# Static dielectric constant tensor:
#      x y z
#    x 3.993980 0.000000 0.000000 
#    y 0.000000 3.025830 0.000000 
#    z 0.000000 0.000000 3.495080 
# 
# 
# High freq. dielectric constant tensor:
#      x y z
#    x 1.769400 0.000000 0.000000 
#    y 0.000000 1.697150 0.000000 
#    z 0.000000 0.000000 1.732670 
# 
# From -- ./inp_files/33449.got.cif
#   From: 2010.03.12/outbox.cif.g09.slc.cpg/sg51_17_cif.got.tgz:33449.got - 2010.04.16 13:43:02.
