data_PCOD8207869
_publ_section_title
;
Structure prediction by ZEFSAII (Michael W. Deem and Ramdas Pophale) SiO2 
 PCOD8207869
Probable space group: P M M A
;
_chemical_formula_sum "Si O2"
_cell_formula_units_Z 64
_cell_length_a 9.275158
_cell_length_b 14.209544
_cell_length_c 30.826109
_cell_angle_alpha 90.000000
_cell_angle_beta 90.000000
_cell_angle_gamma 90.000000
_cell_volume 4062.750639
_symmetry_space_group_name_H-M "P M M A"
_symmetry_group_IT_number 51
_symmetry_cell_setting 'orthorhombic'
loop_
_space_group_symop_operation_xyz
x,y,z
1/2-x,-y,z
1/2+x,-y,-z
-x,y,-z
-x,-y,-z
1/2+x,y,-z
1/2-x,y,z
x,-y,z
loop_
_atom_site_type_symbol
_atom_site_label
_atom_site_fract_x
_atom_site_fract_y
_atom_site_fract_z
Si Si1 0.582381 0.109116 0.044094
Si Si2 0.915889 0.889088 0.200401
Si Si3 0.078625 0.106245 0.364886
Si Si4 0.916973 0.395866 0.247403
Si Si5 0.408999 0.888209 0.460503
Si Si6 0.916590 0.791787 0.290282
Si Si7 0.585029 0.604338 0.838744
Si Si8 0.081472 0.796701 0.122024
O O1 0.750000 0.136377 0.039144
O O2 0.509817 0.170284 0.081213
O O3 0.565198 0.000000 0.056605
O O4 0.500000 0.132852 0.000000
O O5 0.750000 0.863025 0.189019
O O6 0.959600 0.848555 0.247149
O O7 0.022782 0.846223 0.165082
O O8 0.938451 0.000000 0.201506
O O9 0.250000 0.112163 0.362699
O O10 0.025712 0.136946 0.413127
O O11 0.011239 0.176206 0.330426
O O12 0.027060 0.000000 0.354697
O O13 0.750000 0.392464 0.235473
O O14 0.963332 0.500000 0.263921
O O15 0.952135 0.318874 0.284005
O O16 0.995453 0.367832 0.203356
O O17 0.500000 0.843975 0.500000
O O18 0.250000 0.844798 0.464763
O O19 0.401421 0.000000 0.464688
O O20 0.750000 0.809102 0.301533
O O21 0.750000 0.605014 0.823861
O O22 0.541555 0.500000 0.856463
O O23 0.558702 0.683685 0.875173
O O24 0.250000 0.822690 0.116317
#
# Coordination Sequence:
#
# PCOD8207869 Si02
#       8
#     8   8   8   8   8   8   8   8
#     4  10  21  37  56  76  99 126 154 187 227 269
#     4  10  20  32  44  62  92 126 157 190 224 260
#     4   9  18  30  42  59  87 122 156 188 224 268
#     4   9  17  30  48  67  87 114 150 193 235 271
#     4   8  14  25  40  58  80 108 145 188 228 265
#     4  10  19  30  44  63  89 120 155 190 225 270
#     4   9  18  32  49  70  95 121 151 189 231 271
#     4  11  21  32  50  74  97 122 155 191 226 269
#
# _framework density 15.752875
#
# number of rings (size 3 to 8) (size 9 to 14) (size 15 to 20)
#    0.000    2.500    1.250    2.250    0.000    5.250 
#    0.000    1.250    0.000    0.375    0.000    0.000 
#    0.000    0.500    0.000    1.125    0.000    1.750 
#
# Total GULP energy -793398.460885 kJ/mol
# GULP energy per Si atom -12396.850951 kJ/mol
# Density = 1.571702 g / cm^3
# Si number density = 15.752875 Si / 1000 Ang^3
#
#
#
# Elastic Constant Matrix: (Units=GPa)
#
#
# Indices 1 2 3 4 5 6 
#
# 1 72.2604 39.0585 57.9315 0.0000 0.0000 0.0000
# 2 39.0585 79.6300 55.1132 0.0000 0.0000 0.0000
# 3 57.9315 55.1132 116.7664 0.0000 0.0000 0.0000
# 4 0.0000 0.0000 0.0000 5.9379 0.0000 0.0000
# 5 0.0000 0.0000 0.0000 0.0000 30.9231 0.0000
# 6 0.0000 0.0000 0.0000 0.0000 0.0000 19.9831
#
#
#
# Elastic Compliance Matrix: (Units=1/GPa)
#
#
# Indices 1 2 3 4 5 6 
#
# 1 0.024415 -0.005334 -0.009595 0.000000 0.000000 0.000000
# 2 -0.005334 0.019816 -0.006707 0.000000 0.000000 0.000000
# 3 -0.009595 -0.006707 0.016490 0.000000 0.000000 0.000000
# 4 0.000000 0.000000 0.000000 0.168411 0.000000 0.000000
# 5 0.000000 0.000000 0.000000 0.000000 0.032338 0.000000
# 6 0.000000 0.000000 0.000000 0.000000 0.000000 0.050042
#
#
# Mechanical properties :
#
#
# Convention : Reuss Voigt Hill
#
# Bulk Modulus (GPa) = 57.31071 63.65146 60.48109
# Shear Modulus (GPa) = 13.86573 19.13904 16.50239
#
# Velocity S-wave (km/s) = 2.97004 3.48940 3.24014
# Velocity P-wave (km/s) = 6.94418 7.53184 7.24397
#
# Compressibility (1/GPa) = 0.01744874
#
# Stress axis : x y z
#
# Youngs Moduli (GPa) = 40.95904 50.46320 60.64277
#
# Poissons Ratio (x) = 0.26920 0.58187
# Poissons Ratio (y) = 0.21850 0.40671
# Poissons Ratio (z) = 0.39300 0.33844
#
# Static dielectric constant tensor:
#      x y z
#    x 3.093510 0.000000 0.000000 
#    y 0.000000 3.126900 0.000000 
#    z 0.000000 0.000000 2.972120 
# 
# 
# High freq. dielectric constant tensor:
#      x y z
#    x 1.610620 0.000000 0.000000 
#    y 0.000000 1.589810 0.000000 
#    z 0.000000 0.000000 1.590540 
# 
# From -- ./inp_files/37655.got.cif
#   From: 2010.03.12/outbox.cif.g09.slc.cpg/sg51_19_cif.got.tgz:37655.got - 2010.04.16 13:43:02.
