data_PCOD8207502
_publ_section_title
;
Structure prediction by ZEFSAII (Michael W. Deem and Ramdas Pophale) SiO2 
 PCOD8207502
Probable space group: P M M A
;
_chemical_formula_sum "Si O2"
_cell_formula_units_Z 64
_cell_length_a 8.903213
_cell_length_b 23.849132
_cell_length_c 15.478079
_cell_angle_alpha 90.000000
_cell_angle_beta 90.000000
_cell_angle_gamma 90.000000
_cell_volume 3286.520910
_symmetry_space_group_name_H-M "P M M A"
_symmetry_group_IT_number 51
_symmetry_cell_setting 'orthorhombic'
loop_
_space_group_symop_operation_xyz
x,y,z
1/2-x,-y,z
1/2+x,-y,-z
-x,y,-z
-x,-y,-z
1/2+x,y,-z
1/2-x,y,z
x,-y,z
loop_
_atom_site_type_symbol
_atom_site_label
_atom_site_fract_x
_atom_site_fract_y
_atom_site_fract_z
Si Si1 0.427145 0.743271 0.852656
Si Si2 0.072369 0.367724 0.087167
Si Si3 0.428523 0.135866 0.588892
Si Si4 0.923913 0.434305 0.240135
Si Si5 0.573443 0.866612 0.088292
Si Si6 0.571185 0.063195 0.250318
Si Si7 0.573129 0.628090 0.412192
Si Si8 0.071871 0.254077 0.656381
O O1 0.250000 0.730608 0.857635
O O2 0.516743 0.695914 0.903637
O O3 0.469431 0.802201 0.895439
O O4 0.486001 0.743787 0.754434
O O5 0.250000 0.369146 0.078777
O O6 0.023043 0.405123 0.167704
O O7 0.000000 0.393282 0.000000
O O8 0.500000 0.114590 0.500000
O O9 0.250000 0.134922 0.581424
O O10 0.486139 0.094462 0.663823
O O11 0.489430 0.198443 0.609514
O O12 0.750000 0.418759 0.223913
O O13 0.953054 0.500000 0.236717
O O14 0.975499 0.412070 0.333704
O O15 0.750000 0.874459 0.081088
O O16 0.509109 0.904350 0.166379
O O17 0.500000 0.888029 0.000000
O O18 0.750000 0.063967 0.248997
O O19 0.508094 0.000000 0.250166
O O20 0.500000 0.605135 0.500000
O O21 0.750000 0.627552 0.424429
O O22 0.513170 0.691052 0.393693
O O23 0.250000 0.252240 0.658836
#
# Coordination Sequence:
#
# PCOD8207502 Si02
#       8
#     8   8   8   8   8   8   8   8
#     4  10  18  35  60  83 112 148 186 229 280 341
#     4  12  25  40  61  89 119 151 187 232 286 342
#     4  10  19  33  54  80 108 144 184 228 279 333
#     4  10  22  42  65  86 113 154 199 239 281 329
#     4  10  20  34  56  82 109 143 183 228 280 335
#     4   9  18  34  55  77 104 145 194 232 271 334
#     4  10  20  35  57  84 115 149 185 229 280 335
#     4   9  16  31  56  80 108 146 184 224 279 337
#
# _framework density 19.473481
#
# number of rings (size 3 to 8) (size 9 to 14) (size 15 to 20)
#    0.000    2.000    2.500    1.875    0.000    3.250 
#    0.000    1.250    0.000    0.750    0.000    0.000 
#    0.000    0.000    0.000    0.000    0.000    0.000 
#
# Total GULP energy -793745.084071 kJ/mol
# GULP energy per Si atom -12402.266939 kJ/mol
# Density = 1.942916 g / cm^3
# Si number density = 19.473481 Si / 1000 Ang^3
#
#
#
# Elastic Constant Matrix: (Units=GPa)
#
#
# Indices 1 2 3 4 5 6 
#
# 1 54.4966 39.1923 49.1677 0.0000 0.0000 0.0000
# 2 39.1923 122.5034 59.5181 0.0000 0.0000 0.0000
# 3 49.1677 59.5181 171.5384 0.0000 0.0000 0.0000
# 4 0.0000 0.0000 0.0000 10.3854 0.0000 0.0000
# 5 0.0000 0.0000 0.0000 0.0000 33.6379 0.0000
# 6 0.0000 0.0000 0.0000 0.0000 0.0000 10.8104
#
#
#
# Elastic Compliance Matrix: (Units=1/GPa)
#
#
# Indices 1 2 3 4 5 6 
#
# 1 0.028094 -0.006105 -0.005934 0.000000 0.000000 0.000000
# 2 -0.006105 0.011145 -0.002117 0.000000 0.000000 0.000000
# 3 -0.005934 -0.002117 0.008265 0.000000 0.000000 0.000000
# 4 0.000000 0.000000 0.000000 0.096289 0.000000 0.000000
# 5 0.000000 0.000000 0.000000 0.000000 0.029728 0.000000
# 6 0.000000 0.000000 0.000000 0.000000 0.000000 0.092504
#
#
# Mechanical properties :
#
#
# Convention : Reuss Voigt Hill
#
# Bulk Modulus (GPa) = 52.10647 71.58826 61.84737
# Shear Modulus (GPa) = 16.62592 24.34409 20.48501
#
# Velocity S-wave (km/s) = 2.92511 3.53953 3.24689
# Velocity P-wave (km/s) = 6.18256 7.31752 6.77385
#
# Compressibility (1/GPa) = 0.01919147
#
# Stress axis : x y z
#
# Youngs Moduli (GPa) = 35.59424 89.72845 120.99077
#
# Poissons Ratio (x) = 0.54779 0.71801
# Poissons Ratio (y) = 0.21730 0.25614
# Poissons Ratio (z) = 0.21123 0.18995
#
# Static dielectric constant tensor:
#      x y z
#    x 3.116270 0.000000 0.000000 
#    y 0.000000 3.672510 0.000000 
#    z 0.000000 0.000000 3.714530 
# 
# 
# High freq. dielectric constant tensor:
#      x y z
#    x 1.718540 0.000000 0.000000 
#    y 0.000000 1.759270 0.000000 
#    z 0.000000 0.000000 1.776300 
# 
# From -- ./inp_files/22241.got.cif
#   From: 2010.03.12/outbox.cif.g09.slc.cpg/sg51_12_cif.got.tgz:22241.got - 2010.04.16 13:43:02.
