data_PCOD8207654
_publ_section_title
;
Structure prediction by ZEFSAII (Michael W. Deem and Ramdas Pophale) SiO2 
 PCOD8207654
Probable space group: P M M A
;
_chemical_formula_sum "Si O2"
_cell_formula_units_Z 56
_cell_length_a 9.151034
_cell_length_b 21.235241
_cell_length_c 18.251955
_cell_angle_alpha 90.000000
_cell_angle_beta 90.000000
_cell_angle_gamma 90.000000
_cell_volume 3546.800430
_symmetry_space_group_name_H-M "P M M A"
_symmetry_group_IT_number 51
_symmetry_cell_setting 'orthorhombic'
loop_
_space_group_symop_operation_xyz
x,y,z
1/2-x,-y,z
1/2+x,-y,-z
-x,y,-z
-x,-y,-z
1/2+x,y,-z
1/2-x,y,z
x,-y,z
loop_
_atom_site_type_symbol
_atom_site_label
_atom_site_fract_x
_atom_site_fract_y
_atom_site_fract_z
Si Si1 0.080729 0.928374 0.661339
Si Si2 0.582811 0.821672 0.573448
Si Si3 0.085188 0.756065 0.284266
Si Si4 0.417884 0.142938 0.800339
Si Si5 0.418743 0.201481 0.076316
Si Si6 0.913701 0.330786 0.837363
Si Si7 0.579940 0.427658 0.073801
O O1 0.250000 0.913945 0.643691
O O2 0.052243 0.917728 0.748678
O O3 0.982001 0.884178 0.610696
O O4 0.039356 0.000000 0.642783
O O5 0.500000 0.803011 0.500000
O O6 0.750000 0.836413 0.554197
O O7 0.569873 0.760887 0.627754
O O8 0.250000 0.779947 0.261472
O O9 0.065978 0.686023 0.249486
O O10 0.958216 0.798253 0.250669
O O11 0.250000 0.147651 0.824682
O O12 0.516114 0.144740 0.873713
O O13 0.250000 0.187464 0.062360
O O14 0.445637 0.267822 0.116340
O O15 0.500000 0.203153 0.000000
O O16 0.750000 0.355275 0.852953
O O17 0.025340 0.385745 0.858536
O O18 0.750000 0.416373 0.061812
O O19 0.543386 0.500000 0.091859
O O20 0.500000 0.405343 0.000000
#
# Coordination Sequence:
#
# PCOD8207654 Si02
#       7
#     8   8   8   8   8   8   8
#     4   9  18  32  48  65  85 111 144 177 208 249
#     4  10  19  31  47  67  92 118 142 171 209 253
#     4   8  16  30  45  62  85 112 141 174 211 252
#     4   9  16  27  44  63  82 106 136 172 215 258
#     4  10  19  29  42  62  86 109 137 176 219 260
#     4   9  17  29  45  63  83 110 144 179 213 250
#     4  10  20  31  42  59  86 120 154 185 216 249
#
# _framework density 15.788876999999999
#
# number of rings (size 3 to 8) (size 9 to 14) (size 15 to 20)
#    0.000    2.714    0.000    3.000    0.000    6.571 
#    0.000    0.000    0.000    0.429    0.000    0.000 
#    0.000    0.571    0.000    1.286    0.000    2.286 
#
# Total GULP energy -694003.341697 kJ/mol
# GULP energy per Si atom -12392.916816 kJ/mol
# Density = 1.575294 g / cm^3
# Si number density = 15.788877 Si / 1000 Ang^3
#
#
#
# Elastic Constant Matrix: (Units=GPa)
#
#
# Indices 1 2 3 4 5 6 
#
# 1 92.8023 34.2386 56.6521 0.0000 0.0000 0.0000
# 2 34.2386 53.0845 43.5890 0.0000 0.0000 0.0000
# 3 56.6521 43.5890 105.5994 0.0000 0.0000 0.0000
# 4 0.0000 0.0000 0.0000 19.5930 0.0000 0.0000
# 5 0.0000 0.0000 0.0000 0.0000 28.5595 0.0000
# 6 0.0000 0.0000 0.0000 0.0000 0.0000 20.0579
#
#
#
# Elastic Compliance Matrix: (Units=1/GPa)
#
#
# Indices 1 2 3 4 5 6 
#
# 1 0.016934 -0.005238 -0.006923 0.000000 0.000000 0.000000
# 2 -0.005238 0.030117 -0.009621 0.000000 0.000000 0.000000
# 3 -0.006923 -0.009621 0.017155 0.000000 0.000000 0.000000
# 4 0.000000 0.000000 0.000000 0.051039 0.000000 0.000000
# 5 0.000000 0.000000 0.000000 0.000000 0.035015 0.000000
# 6 0.000000 0.000000 0.000000 0.000000 0.000000 0.049856
#
#
# Mechanical properties :
#
#
# Convention : Reuss Voigt Hill
#
# Bulk Modulus (GPa) = 48.44522 57.82728 53.13625
# Shear Modulus (GPa) = 19.95535 21.44253 20.69894
#
# Velocity S-wave (km/s) = 3.55897 3.68921 3.62468
# Velocity P-wave (km/s) = 6.90204 7.40620 7.15856
#
# Compressibility (1/GPa) = 0.02064187
#
# Stress axis : x y z
#
# Youngs Moduli (GPa) = 59.05241 33.20437 58.29118
#
# Poissons Ratio (x) = 0.17391 0.40354
# Poissons Ratio (y) = 0.30930 0.56085
# Poissons Ratio (z) = 0.40881 0.31948
#
# Static dielectric constant tensor:
#      x y z
#    x 3.131330 0.000000 0.000000 
#    y 0.000000 2.802460 0.000000 
#    z 0.000000 0.000000 3.121550 
# 
# 
# High freq. dielectric constant tensor:
#      x y z
#    x 1.622140 0.000000 0.000000 
#    y 0.000000 1.563920 0.000000 
#    z 0.000000 0.000000 1.598700 
# 
# From -- ./inp_files/28181.got.cif
#   From: 2010.03.12/outbox.cif.g09.slc.cpg/sg51_15_cif.got.tgz:28181.got - 2010.04.16 13:43:02.
