data_PCOD8207040
_publ_section_title
;
Structure prediction by ZEFSAII (Michael W. Deem and Ramdas Pophale) SiO2 
 PCOD8207040
Probable space group: P M M A
;
_chemical_formula_sum "Si O2"
_cell_formula_units_Z 64
_cell_length_a 15.699246
_cell_length_b 17.388320
_cell_length_c 13.019506
_cell_angle_alpha 90.000000
_cell_angle_beta 90.000000
_cell_angle_gamma 90.000000
_cell_volume 3554.110488
_symmetry_space_group_name_H-M "P M M A"
_symmetry_group_IT_number 51
_symmetry_cell_setting 'orthorhombic'
loop_
_space_group_symop_operation_xyz
x,y,z
1/2-x,-y,z
1/2+x,-y,-z
-x,y,-z
-x,-y,-z
1/2+x,y,-z
1/2-x,y,z
x,-y,z
loop_
_atom_site_type_symbol
_atom_site_label
_atom_site_fract_x
_atom_site_fract_y
_atom_site_fract_z
Si Si1 0.908040 0.689662 0.198174
Si Si2 0.843112 0.415522 0.035825
Si Si3 0.429559 0.588468 0.171756
Si Si4 0.652582 0.797688 0.364037
Si Si5 0.343924 0.731340 0.211571
Si Si6 0.652970 0.829486 0.594759
Si Si7 0.999226 0.088800 0.311404
Si Si8 0.986034 0.821727 0.885394
O O1 0.870156 0.716205 0.308569
O O2 0.983371 0.627475 0.209816
O O3 0.933814 0.769102 0.143721
O O4 0.840310 0.648036 0.125218
O O5 0.750000 0.412113 0.981862
O O6 0.857876 0.500000 0.085730
O O7 0.917274 0.403499 0.951611
O O8 0.424543 0.500000 0.207880
O O9 0.354430 0.639160 0.222045
O O10 0.750000 0.821494 0.334842
O O11 0.644260 0.786842 0.486113
O O12 0.586702 0.865013 0.336281
O O13 0.250000 0.753733 0.177471
O O14 0.367868 0.764458 0.322245
O O15 0.403440 0.766697 0.122604
O O16 0.750000 0.863250 0.607821
O O17 0.579398 0.893597 0.612313
O O18 0.024918 0.107301 0.193354
O O19 0.976944 0.000000 0.322995
O O20 0.000000 0.854211 0.000000
#
# Coordination Sequence:
#
# PCOD8207040 Si02
#       8
#     8   8   8   8   8   8   8   8
#     4  10  18  31  49  68  95 130 169 209 252 302
#     4  10  19  29  44  69 100 133 169 212 262 311
#     4  10  19  29  44  70 101 132 168 211 260 310
#     4  10  21  36  55  77 100 130 169 212 256 303
#     4   9  17  31  51  72  97 130 170 215 255 297
#     4   9  19  36  57  80 102 128 167 213 257 298
#     4  10  21  35  53  79 108 135 163 200 249 306
#     4   9  18  32  49  71  98 131 169 204 241 289
#
# _framework density 18.007318999999999
#
# number of rings (size 3 to 8) (size 9 to 14) (size 15 to 20)
#    0.000    2.375    0.000    4.125    0.000    3.500 
#    0.000    3.750    0.000    2.250    0.000    8.750 
#    0.000    0.000    0.000    0.000    0.000    0.000 
#
# Total GULP energy -792920.538279 kJ/mol
# GULP energy per Si atom -12389.383411 kJ/mol
# Density = 1.796633 g / cm^3
# Si number density = 18.007319 Si / 1000 Ang^3
#
#
#
# Elastic Constant Matrix: (Units=GPa)
#
#
# Indices 1 2 3 4 5 6 
#
# 1 102.8328 39.5785 39.7774 0.0000 0.0000 0.0000
# 2 39.5785 104.6509 38.4250 0.0000 0.0000 0.0000
# 3 39.7774 38.4250 93.2826 0.0000 0.0000 0.0000
# 4 0.0000 0.0000 0.0000 19.1652 0.0000 0.0000
# 5 0.0000 0.0000 0.0000 0.0000 25.0548 0.0000
# 6 0.0000 0.0000 0.0000 0.0000 0.0000 19.1220
#
#
#
# Elastic Compliance Matrix: (Units=1/GPa)
#
#
# Indices 1 2 3 4 5 6 
#
# 1 0.012529 -0.003272 -0.003995 0.000000 0.000000 0.000000
# 2 -0.003272 0.012113 -0.003594 0.000000 0.000000 0.000000
# 3 -0.003995 -0.003594 0.013904 0.000000 0.000000 0.000000
# 4 0.000000 0.000000 0.000000 0.052178 0.000000 0.000000
# 5 0.000000 0.000000 0.000000 0.000000 0.039913 0.000000
# 6 0.000000 0.000000 0.000000 0.000000 0.000000 0.052296
#
#
# Mechanical properties :
#
#
# Convention : Reuss Voigt Hill
#
# Bulk Modulus (GPa) = 59.43875 59.59199 59.51537
# Shear Modulus (GPa) = 23.77986 24.86743 24.32364
#
# Velocity S-wave (km/s) = 3.63790 3.72016 3.67926
# Velocity P-wave (km/s) = 7.12219 7.18456 7.15344
#
# Compressibility (1/GPa) = 0.01682404
#
# Stress axis : x y z
#
# Youngs Moduli (GPa) = 79.81473 82.55849 71.92047
#
# Poissons Ratio (x) = 0.27010 0.28732
# Poissons Ratio (y) = 0.26112 0.25851
# Poissons Ratio (z) = 0.31886 0.29675
#
# Static dielectric constant tensor:
#      x y z
#    x 3.561310 0.000000 0.000000 
#    y 0.000000 3.268460 0.000000 
#    z 0.000000 0.000000 3.298420 
# 
# 
# High freq. dielectric constant tensor:
#      x y z
#    x 1.711060 0.000000 0.000000 
#    y 0.000000 1.679150 0.000000 
#    z 0.000000 0.000000 1.678860 
# 
# From -- ./inp_files/16844.got.cif
#   From: 2010.03.12/outbox.cif.g09.slc.cpg/sg51_9_cif.got.tgz:16844.got - 2010.04.16 13:43:02.
