data_PCOD8207784
_publ_section_title
;
Structure prediction by ZEFSAII (Michael W. Deem and Ramdas Pophale) SiO2 
 PCOD8207784
Probable space group: P M M A
;
_chemical_formula_sum "Si O2"
_cell_formula_units_Z 52
_cell_length_a 9.193751
_cell_length_b 12.656046
_cell_length_c 22.540160
_cell_angle_alpha 90.000000
_cell_angle_beta 90.000000
_cell_angle_gamma 90.000000
_cell_volume 2622.694929
_symmetry_space_group_name_H-M "P M M A"
_symmetry_group_IT_number 51
_symmetry_cell_setting 'orthorhombic'
loop_
_space_group_symop_operation_xyz
x,y,z
1/2-x,-y,z
1/2+x,-y,-z
-x,y,-z
-x,-y,-z
1/2+x,y,-z
1/2-x,y,z
x,-y,z
loop_
_atom_site_type_symbol
_atom_site_label
_atom_site_fract_x
_atom_site_fract_y
_atom_site_fract_z
Si Si1 0.583304 0.678136 0.441605
Si Si2 0.087487 0.621522 0.325549
Si Si3 0.909242 0.879393 0.729954
Si Si4 0.417465 0.829859 0.844488
Si Si5 0.579316 0.000000 0.061925
Si Si6 0.085335 0.881722 0.620151
Si Si7 0.081667 0.380192 0.789572
O O1 0.500000 0.638844 0.500000
O O2 0.750000 0.639801 0.445684
O O3 0.510711 0.628402 0.383864
O O4 0.572937 0.805970 0.436977
O O5 0.250000 0.669672 0.335342
O O6 0.101148 0.500000 0.309276
O O7 0.011449 0.668968 0.265562
O O8 0.750000 0.827988 0.739120
O O9 0.998536 0.878109 0.789708
O O10 0.988046 0.826837 0.672389
O O11 0.895046 0.000000 0.710377
O O12 0.250000 0.857319 0.834303
O O13 0.469213 0.892348 0.903392
O O14 0.442428 0.701551 0.845060
O O15 0.750000 0.000000 0.049755
O O16 0.500000 0.000000 0.000000
O O17 0.250000 0.883556 0.644492
O O18 0.035818 0.000000 0.601968
O O19 0.250000 0.379428 0.769713
O O20 0.036071 0.500000 0.808299
#
# Coordination Sequence:
#
# PCOD8207784 Si02
#       7
#     8   8   8   8   4   8   8
#     4  11  23  37  53  72  95 129 173 219 266 319
#     4  10  21  37  56  78 105 135 167 210 265 319
#     4  10  19  29  46  76 107 133 167 213 266 317
#     4  10  19  33  54  78 108 146 182 219 262 312
#     4  10  22  38  56  80 112 152 193 226 261 304
#     4   9  19  35  52  70  97 133 169 208 259 320
#     4   9  18  33  55  83 111 139 174 217 267 321
#
# _framework density 19.826936
#
# number of rings (size 3 to 8) (size 9 to 14) (size 15 to 20)
#    0.000    2.154    0.769    2.308    0.000    8.308 
#    0.000    0.000    0.000    0.462    0.000    0.000 
#    0.000    0.000    0.000    0.000    0.000    0.000 
#
# Total GULP energy -644419.429049 kJ/mol
# GULP energy per Si atom -12392.681328 kJ/mol
# Density = 1.978181 g / cm^3
# Si number density = 19.826936 Si / 1000 Ang^3
#
#
#
# Elastic Constant Matrix: (Units=GPa)
#
#
# Indices 1 2 3 4 5 6 
#
# 1 93.2404 21.9309 48.0967 0.0000 0.0000 0.0000
# 2 21.9309 82.0716 44.3922 0.0000 0.0000 0.0000
# 3 48.0967 44.3922 116.1798 0.0000 0.0000 0.0000
# 4 0.0000 0.0000 0.0000 21.8670 0.0000 0.0000
# 5 0.0000 0.0000 0.0000 0.0000 30.4613 0.0000
# 6 0.0000 0.0000 0.0000 0.0000 0.0000 18.1384
#
#
#
# Elastic Compliance Matrix: (Units=1/GPa)
#
#
# Indices 1 2 3 4 5 6 
#
# 1 0.013673 -0.000746 -0.005375 0.000000 0.000000 0.000000
# 2 -0.000746 0.015399 -0.005575 0.000000 0.000000 0.000000
# 3 -0.005375 -0.005575 0.012963 0.000000 0.000000 0.000000
# 4 0.000000 0.000000 0.000000 0.045731 0.000000 0.000000
# 5 0.000000 0.000000 0.000000 0.000000 0.032828 0.000000
# 6 0.000000 0.000000 0.000000 0.000000 0.000000 0.055132
#
#
# Mechanical properties :
#
#
# Convention : Reuss Voigt Hill
#
# Bulk Modulus (GPa) = 53.64198 57.81460 55.72829
# Shear Modulus (GPa) = 24.35048 25.89815 25.12431
#
# Velocity S-wave (km/s) = 3.50830 3.61807 3.56361
# Velocity P-wave (km/s) = 6.59733 6.83205 6.71571
#
# Compressibility (1/GPa) = 0.01864211
#
# Stress axis : x y z
#
# Youngs Moduli (GPa) = 73.13515 64.93719 77.14274
#
# Poissons Ratio (x) = 0.04845 0.41468
# Poissons Ratio (y) = 0.05457 0.43009
# Poissons Ratio (z) = 0.39313 0.36204
#
# Static dielectric constant tensor:
#      x y z
#    x 3.841120 0.000000 0.000000 
#    y 0.000000 4.047900 0.000000 
#    z 0.000000 0.000000 3.167630 
# 
# 
# High freq. dielectric constant tensor:
#      x y z
#    x 1.777640 0.000000 0.000000 
#    y 0.000000 1.800240 0.000000 
#    z 0.000000 0.000000 1.722150 
# 
# From -- ./inp_files/31738.got.cif
#   From: 2010.03.12/outbox.cif.g09.slc.cpg/sg51_16_cif.got.tgz:31738.got - 2010.04.16 13:43:02.
