data_PCOD8207063
_publ_section_title
;
Structure prediction by ZEFSAII (Michael W. Deem and Ramdas Pophale) SiO2 
 PCOD8207063
Probable space group: P M M A
;
_chemical_formula_sum "Si O2"
_cell_formula_units_Z 64
_cell_length_a 9.036525
_cell_length_b 19.915097
_cell_length_c 19.769696
_cell_angle_alpha 90.000000
_cell_angle_beta 90.000000
_cell_angle_gamma 90.000000
_cell_volume 3557.819177
_symmetry_space_group_name_H-M "P M M A"
_symmetry_group_IT_number 51
_symmetry_cell_setting 'orthorhombic'
loop_
_space_group_symop_operation_xyz
x,y,z
1/2-x,-y,z
1/2+x,-y,-z
-x,y,-z
-x,-y,-z
1/2+x,y,-z
1/2-x,y,z
x,-y,z
loop_
_atom_site_type_symbol
_atom_site_label
_atom_site_fract_x
_atom_site_fract_y
_atom_site_fract_z
Si Si1 0.579927 0.574510 0.620201
Si Si2 0.578120 0.813360 0.325732
Si Si3 0.922104 0.700931 0.434574
Si Si4 0.417600 0.574409 0.899917
Si Si5 0.922265 0.292440 0.934725
Si Si6 0.923241 0.076681 0.430894
Si Si7 0.424305 0.254301 0.213095
Si Si8 0.080582 0.389187 0.749417
O O1 0.750000 0.597933 0.624016
O O2 0.567070 0.500000 0.587996
O O3 0.488252 0.626930 0.575856
O O4 0.512719 0.569670 0.695247
O O5 0.750000 0.820394 0.306883
O O6 0.546693 0.747036 0.369872
O O7 0.522748 0.877928 0.368165
O O8 0.484186 0.809863 0.255548
O O9 0.750000 0.694495 0.450034
O O10 0.000000 0.733831 0.500000
O O11 0.250000 0.593438 0.921160
O O12 0.460450 0.500000 0.927104
O O13 0.527385 0.629900 0.929608
O O14 0.429463 0.571089 0.819168
O O15 0.750000 0.292328 0.948170
O O16 0.962200 0.249906 0.867195
O O17 0.000000 0.258507 0.000000
O O18 0.750000 0.087040 0.442426
O O19 0.000000 0.100287 0.500000
O O20 0.964584 0.000000 0.413515
O O21 0.250000 0.263483 0.223601
O O22 0.512050 0.315849 0.244346
O O23 0.250000 0.381202 0.724583
#
# Coordination Sequence:
#
# PCOD8207063 Si02
#       8
#     8   8   8   8   8   8   8   8
#     4  11  23  36  50  68  91 121 160 209 264 317
#     4  10  20  34  54  80 106 138 176 211 252 297
#     4  11  23  37  53  72  95 126 166 211 257 308
#     4   9  18  31  47  67  91 121 157 198 248 308
#     4  10  21  35  50  70  95 127 163 203 255 310
#     4   9  18  33  53  80 116 153 186 216 248 293
#     4  10  20  33  52  76 101 129 166 210 254 300
#     4  10  18  31  50  71  94 121 157 203 256 312
#
# _framework density 17.988548000000002
#
# number of rings (size 3 to 8) (size 9 to 14) (size 15 to 20)
#    0.000    2.000    1.250    2.625    0.000    5.250 
#    0.000    0.000    0.000    0.000    0.000    0.000 
#    0.000    0.500    0.000    1.125    0.000    1.750 
#
# Total GULP energy -793505.533617 kJ/mol
# GULP energy per Si atom -12398.523963 kJ/mol
# Density = 1.794761 g / cm^3
# Si number density = 17.988548 Si / 1000 Ang^3
#
#
#
# Elastic Constant Matrix: (Units=GPa)
#
#
# Indices 1 2 3 4 5 6 
#
# 1 91.6887 31.7807 53.2061 0.0000 0.0000 0.0000
# 2 31.7807 68.0216 39.1202 0.0000 0.0000 0.0000
# 3 53.2061 39.1202 113.0215 0.0000 0.0000 0.0000
# 4 0.0000 0.0000 0.0000 -6.7574 0.0000 0.0000
# 5 0.0000 0.0000 0.0000 0.0000 33.1922 0.0000
# 6 0.0000 0.0000 0.0000 0.0000 0.0000 17.5660
#
#
#
# Elastic Compliance Matrix: (Units=1/GPa)
#
#
# Indices 1 2 3 4 5 6 
#
# 1 0.015782 -0.003871 -0.006090 0.000000 0.000000 0.000000
# 2 -0.003871 0.019305 -0.004859 0.000000 0.000000 0.000000
# 3 -0.006090 -0.004859 0.013397 0.000000 0.000000 0.000000
# 4 0.000000 0.000000 0.000000 -0.147986 0.000000 0.000000
# 5 0.000000 0.000000 0.000000 0.000000 0.030128 0.000000
# 6 0.000000 0.000000 0.000000 0.000000 0.000000 0.056928
#
#
# Mechanical properties :
#
#
# Convention : Reuss Voigt Hill
#
# Bulk Modulus (GPa) = 53.07139 57.88287 55.47713
# Shear Modulus (GPa) = 212.99344 18.70848 115.85096
#
# Velocity S-wave (km/s) = 10.89321 3.22844 8.03383
# Velocity P-wave (km/s) = 13.70339 6.79298 10.81498
#
# Compressibility (1/GPa) = 0.01884254
#
# Stress axis : x y z
#
# Youngs Moduli (GPa) = 63.36296 51.80082 74.64574
#
# Poissons Ratio (x) = 0.20054 0.45456
# Poissons Ratio (y) = 0.24531 0.36274
# Poissons Ratio (z) = 0.38585 0.25172
#
# Static dielectric constant tensor:
#      x y z
#    x 3.371040 0.000000 0.000000 
#    y 0.000000 3.089540 0.000000 
#    z 0.000000 0.000000 3.534400 
# 
# 
# High freq. dielectric constant tensor:
#      x y z
#    x 1.704910 0.000000 0.000000 
#    y 0.000000 1.653490 0.000000 
#    z 0.000000 0.000000 1.699310 
# 
# From -- ./inp_files/32343.got.cif
#   From: 2010.03.12/outbox.cif.g09.slc.cpg/sg51_17_cif.got.tgz:32343.got - 2010.04.16 13:43:02.
