data_PCOD8207386
_publ_section_title
;
Structure prediction by ZEFSAII (Michael W. Deem and Ramdas Pophale) SiO2 
 PCOD8207386
Probable space group: P M M A
;
_chemical_formula_sum "Si O2"
_cell_formula_units_Z 44
_cell_length_a 8.727523
_cell_length_b 18.166021
_cell_length_c 14.400024
_cell_angle_alpha 90.000000
_cell_angle_beta 90.000000
_cell_angle_gamma 90.000000
_cell_volume 2283.042677
_symmetry_space_group_name_H-M "P M M A"
_symmetry_group_IT_number 51
_symmetry_cell_setting 'orthorhombic'
loop_
_space_group_symop_operation_xyz
x,y,z
1/2-x,-y,z
1/2+x,-y,-z
-x,y,-z
-x,-y,-z
1/2+x,y,-z
1/2-x,y,z
x,-y,z
loop_
_atom_site_type_symbol
_atom_site_label
_atom_site_fract_x
_atom_site_fract_y
_atom_site_fract_z
Si Si1 0.426575 0.417150 0.230806
Si Si2 0.569570 0.353215 0.405504
Si Si3 0.068707 0.856563 0.208075
Si Si4 0.931150 0.806667 0.595025
Si Si5 0.931067 0.713824 0.898948
Si Si6 0.567174 0.000000 0.897637
O O1 0.250000 0.400950 0.256499
O O2 0.448475 0.500000 0.192890
O O3 0.528393 0.408010 0.322488
O O4 0.483978 0.360887 0.152024
O O5 0.500000 0.386848 0.500000
O O6 0.750000 0.344561 0.415839
O O7 0.495716 0.274105 0.385713
O O8 0.250000 0.855725 0.200141
O O9 0.021183 0.857070 0.316939
O O10 0.003066 0.783776 0.157759
O O11 0.003454 0.928930 0.157503
O O12 0.750000 0.801013 0.584448
O O13 0.000000 0.840794 0.500000
O O14 0.750000 0.718008 0.907045
O O15 0.000000 0.714403 0.000000
O O16 0.750000 0.000000 0.903167
O O17 0.500000 0.000000 0.000000
#
# Coordination Sequence:
#
# PCOD8207386 Si02
#       6
#     8   8   8   8   8   4
#     4  10  21  38  57  76 106 145 183 225 274 325
#     4  11  21  34  55  82 111 143 180 226 273 326
#     4   9  18  34  57  80 111 146 180 219 269 326
#     4  10  18  33  55  81 111 145 183 224 266 323
#     4  10  20  36  55  78 105 139 181 225 272 323
#     4  10  20  36  57  84 112 148 183 222 275 322
#
# _framework density 19.272527
#
# number of rings (size 3 to 8) (size 9 to 14) (size 15 to 20)
#    0.000    2.000    1.818    3.818    0.000    1.818 
#    0.000    2.273    0.000    0.000    0.000    0.000 
#    0.000    0.000    0.000    0.000    0.000    0.000 
#
# Total GULP energy -545603.911273 kJ/mol
# GULP energy per Si atom -12400.088893 kJ/mol
# Density = 1.922866 g / cm^3
# Si number density = 19.272527 Si / 1000 Ang^3
#
#
#
# Elastic Constant Matrix: (Units=GPa)
#
#
# Indices 1 2 3 4 5 6 
#
# 1 66.2504 28.3648 41.0576 0.0000 0.0000 0.0000
# 2 28.3648 137.3727 87.8998 0.0000 0.0000 0.0000
# 3 41.0576 87.8998 177.9188 0.0000 0.0000 0.0000
# 4 0.0000 0.0000 0.0000 27.4310 0.0000 0.0000
# 5 0.0000 0.0000 0.0000 0.0000 34.8906 0.0000
# 6 0.0000 0.0000 0.0000 0.0000 0.0000 13.8941
#
#
#
# Elastic Compliance Matrix: (Units=1/GPa)
#
#
# Indices 1 2 3 4 5 6 
#
# 1 0.017831 -0.001534 -0.003357 0.000000 0.000000 0.000000
# 2 -0.001534 0.010776 -0.004970 0.000000 0.000000 0.000000
# 3 -0.003357 -0.004970 0.008851 0.000000 0.000000 0.000000
# 4 0.000000 0.000000 0.000000 0.036455 0.000000 0.000000
# 5 0.000000 0.000000 0.000000 0.000000 0.028661 0.000000
# 6 0.000000 0.000000 0.000000 0.000000 0.000000 0.071973
#
#
# Mechanical properties :
#
#
# Convention : Reuss Voigt Hill
#
# Bulk Modulus (GPa) = 56.38068 77.35405 66.86737
# Shear Modulus (GPa) = 24.97731 30.19110 27.58421
#
# Velocity S-wave (km/s) = 3.60391 3.96224 3.78732
# Velocity P-wave (km/s) = 6.82902 7.82027 7.34139
#
# Compressibility (1/GPa) = 0.01773657
#
# Stress axis : x y z
#
# Youngs Moduli (GPa) = 56.08070 92.79616 112.98558
#
# Poissons Ratio (x) = 0.14232 0.37931
# Poissons Ratio (y) = 0.08601 0.56154
# Poissons Ratio (z) = 0.18827 0.46120
#
# Static dielectric constant tensor:
#      x y z
#    x 3.022430 0.000000 0.000000 
#    y 0.000000 3.625670 0.000000 
#    z 0.000000 0.000000 3.773330 
# 
# 
# High freq. dielectric constant tensor:
#      x y z
#    x 1.729980 0.000000 0.000000 
#    y 0.000000 1.738170 0.000000 
#    z 0.000000 0.000000 1.763060 
# 
# From -- ./inp_files/20897.got.cif
#   From: 2010.03.12/outbox.cif.g09.slc.cpg/sg51_11_cif.got.tgz:20897.got - 2010.04.16 13:43:02.
