data_PCOD8207479
_publ_section_title
;
Structure prediction by ZEFSAII (Michael W. Deem and Ramdas Pophale) SiO2 
 PCOD8207479
Probable space group: P M M A
;
_chemical_formula_sum "Si O2"
_cell_formula_units_Z 56
_cell_length_a 14.770919
_cell_length_b 8.943621
_cell_length_c 21.968190
_cell_angle_alpha 90.000000
_cell_angle_beta 90.000000
_cell_angle_gamma 90.000000
_cell_volume 2902.118754
_symmetry_space_group_name_H-M "P M M A"
_symmetry_group_IT_number 51
_symmetry_cell_setting 'orthorhombic'
loop_
_space_group_symop_operation_xyz
x,y,z
1/2-x,-y,z
1/2+x,-y,-z
-x,y,-z
-x,-y,-z
1/2+x,y,-z
1/2-x,y,z
x,-y,z
loop_
_atom_site_type_symbol
_atom_site_label
_atom_site_fract_x
_atom_site_fract_y
_atom_site_fract_z
Si Si1 0.565643 0.674135 0.446358
Si Si2 0.854250 0.329219 0.137183
Si Si3 0.151557 0.175570 0.116522
Si Si4 0.495901 0.177153 0.208923
Si Si5 0.104910 0.832729 0.986997
Si Si6 0.750000 0.177448 0.479175
Si Si7 0.940604 0.327793 0.668291
Si Si8 0.250000 0.325512 0.390686
O O1 0.500000 0.732296 0.500000
O O2 0.587749 0.500000 0.456444
O O3 0.660199 0.762452 0.445473
O O4 0.513468 0.704401 0.383924
O O5 0.750000 0.311947 0.154285
O O6 0.886096 0.500000 0.139013
O O7 0.872200 0.269628 0.069792
O O8 0.906847 0.238959 0.189361
O O9 0.250000 0.210126 0.144981
O O10 0.076791 0.245649 0.161059
O O11 0.132527 0.000000 0.110944
O O12 0.148774 0.239829 0.047758
O O13 0.468557 0.225319 0.275941
O O14 0.498086 0.000000 0.206567
O O15 0.142300 0.000000 0.973641
O O16 0.000000 0.840106 0.000000
O O17 0.750000 0.228831 0.548693
O O18 0.750000 0.000000 0.475693
O O19 0.943425 0.500000 0.688311
O O20 0.839354 0.284064 0.647476
O O21 0.250000 0.500000 0.409127
#
# Coordination Sequence:
#
# PCOD8207479 Si02
#       8
#     8   8   8   8   8   4   8   4
#     4  10  20  40  67  89 118 163 208 247 294 358
#     4  11  24  41  61  85 115 153 202 254 305 358
#     4   9  18  33  54  82 116 153 189 228 283 355
#     4  11  23  40  61  85 119 158 198 244 298 357
#     4  10  18  34  60  87 115 148 193 243 298 358
#     4  12  24  36  60  98 134 158 195 254 309 356
#     4  10  22  40  64  91 121 160 205 249 291 350
#     4  10  20  40  66  92 126 166 207 234 285 368
#
# _framework density 19.296247000000001
#
# number of rings (size 3 to 8) (size 9 to 14) (size 15 to 20)
#    0.000    1.714    2.857    1.929    1.000    3.429 
#    1.286    0.000    0.000    0.857    0.000    0.000 
#    0.000    0.000    0.000    0.000    0.000    0.000 
#
# Total GULP energy -694435.757516 kJ/mol
# GULP energy per Si atom -12400.638527 kJ/mol
# Density = 1.925233 g / cm^3
# Si number density = 19.296247 Si / 1000 Ang^3
#
#
#
# Elastic Constant Matrix: (Units=GPa)
#
#
# Indices 1 2 3 4 5 6 
#
# 1 139.5124 57.5960 61.8642 0.0000 0.0000 0.0000
# 2 57.5960 85.1759 51.2904 0.0000 0.0000 0.0000
# 3 61.8642 51.2904 109.1466 0.0000 0.0000 0.0000
# 4 0.0000 0.0000 0.0000 34.3131 0.0000 0.0000
# 5 0.0000 0.0000 0.0000 0.0000 20.7962 0.0000
# 6 0.0000 0.0000 0.0000 0.0000 0.0000 32.7627
#
#
#
# Elastic Compliance Matrix: (Units=1/GPa)
#
#
# Indices 1 2 3 4 5 6 
#
# 1 0.010974 -0.005125 -0.003811 0.000000 0.000000 0.000000
# 2 -0.005125 0.018768 -0.005914 0.000000 0.000000 0.000000
# 3 -0.003811 -0.005914 0.014102 0.000000 0.000000 0.000000
# 4 0.000000 0.000000 0.000000 0.029143 0.000000 0.000000
# 5 0.000000 0.000000 0.000000 0.000000 0.048086 0.000000
# 6 0.000000 0.000000 0.000000 0.000000 0.000000 0.030522
#
#
# Mechanical properties :
#
#
# Convention : Reuss Voigt Hill
#
# Bulk Modulus (GPa) = 70.71709 75.03734 72.87721
# Shear Modulus (GPa) = 26.88021 28.44668 27.66344
#
# Velocity S-wave (km/s) = 3.73638 3.84371 3.79042
# Velocity P-wave (km/s) = 7.43920 7.65965 7.55023
#
# Compressibility (1/GPa) = 0.01414085
#
# Stress axis : x y z
#
# Youngs Moduli (GPa) = 91.12514 53.28332 70.91428
#
# Poissons Ratio (x) = 0.27310 0.27029
# Poissons Ratio (y) = 0.46706 0.41940
# Poissons Ratio (z) = 0.34732 0.31513
#
# Static dielectric constant tensor:
#      x y z
#    x 3.773550 0.000000 0.000000 
#    y 0.000000 3.369820 0.000000 
#    z 0.000000 0.000000 3.402660 
# 
# 
# High freq. dielectric constant tensor:
#      x y z
#    x 1.768790 0.000000 0.000000 
#    y 0.000000 1.729420 0.000000 
#    z 0.000000 0.000000 1.748310 
# 
# From -- ./inp_files/33526.got.cif
#   From: 2010.03.12/outbox.cif.g09.slc.cpg/sg51_17_cif.got.tgz:33526.got - 2010.04.16 13:43:02.
