data_PCOD8207483
_publ_section_title
;
Structure prediction by ZEFSAII (Michael W. Deem and Ramdas Pophale) SiO2 
 PCOD8207483
Probable space group: P M M A
;
_chemical_formula_sum "Si O2"
_cell_formula_units_Z 64
_cell_length_a 30.713100
_cell_length_b 8.897922
_cell_length_c 11.902231
_cell_angle_alpha 90.000000
_cell_angle_beta 90.000000
_cell_angle_gamma 90.000000
_cell_volume 3252.674635
_symmetry_space_group_name_H-M "P M M A"
_symmetry_group_IT_number 51
_symmetry_cell_setting 'orthorhombic'
loop_
_space_group_symop_operation_xyz
x,y,z
1/2-x,-y,z
1/2+x,-y,-z
-x,y,-z
-x,-y,-z
1/2+x,y,-z
1/2-x,y,z
x,-y,z
loop_
_atom_site_type_symbol
_atom_site_label
_atom_site_fract_x
_atom_site_fract_y
_atom_site_fract_z
Si Si1 0.122285 0.177651 0.607979
Si Si2 0.702069 0.172111 0.537552
Si Si3 0.449953 0.824585 0.006397
Si Si4 0.951591 0.326920 0.532842
Si Si5 0.798443 0.678304 0.004856
Si Si6 0.420951 0.330481 0.224308
Si Si7 0.120496 0.321335 0.850574
Si Si8 0.179413 0.327864 0.240239
O O1 0.165877 0.239710 0.546356
O O2 0.080929 0.218286 0.532568
O O3 0.118965 0.259584 0.725919
O O4 0.123873 0.000000 0.627927
O O5 0.750000 0.191899 0.482333
O O6 0.703869 0.247950 0.658850
O O7 0.690179 0.000000 0.558606
O O8 0.433440 0.789635 0.130969
O O9 0.444466 0.000000 0.981018
O O10 0.500000 0.773472 0.000000
O O11 0.422271 0.733162 0.915658
O O12 0.940707 0.500000 0.502465
O O13 0.949518 0.299906 0.665957
O O14 0.000000 0.281329 0.500000
O O15 0.750000 0.727225 0.045960
O O16 0.802736 0.500000 0.000314
O O17 0.835569 0.740732 0.088718
O O18 0.806749 0.743125 0.879718
O O19 0.428031 0.500000 0.177645
O O20 0.371496 0.306917 0.260201
O O21 0.119957 0.500000 0.847819
O O22 0.193906 0.500000 0.243232
#
# Coordination Sequence:
#
# PCOD8207483 Si02
#       8
#     8   8   8   8   8   8   8   8
#     4  11  24  41  60  85 119 159 199 245 299 351
#     4  10  22  39  58  84 120 160 199 239 291 354
#     4  11  25  42  61  89 123 158 198 243 294 353
#     4  10  22  40  62  90 120 155 199 245 293 350
#     4   9  18  34  57  86 117 148 187 239 297 350
#     4  10  20  37  62  91 121 154 197 244 294 351
#     4  11  23  41  63  86 116 156 200 248 297 348
#     4  10  18  34  60  89 119 150 191 243 296 347
#
# _framework density 19.676114999999999
#
# number of rings (size 3 to 8) (size 9 to 14) (size 15 to 20)
#    0.000    1.750    2.500    1.500    1.750    4.000 
#    0.000    0.000    0.000    1.875    0.000    0.000 
#    0.000    0.000    0.000    0.000    0.000    0.000 
#
# Total GULP energy -793715.560569 kJ/mol
# GULP energy per Si atom -12401.805634 kJ/mol
# Density = 1.963133 g / cm^3
# Si number density = 19.676115 Si / 1000 Ang^3
#
#
#
# Elastic Constant Matrix: (Units=GPa)
#
#
# Indices 1 2 3 4 5 6 
#
# 1 114.4049 36.1348 48.7974 0.0000 0.0000 0.0000
# 2 36.1348 53.6663 32.3311 0.0000 0.0000 0.0000
# 3 48.7974 32.3311 106.3286 0.0000 0.0000 0.0000
# 4 0.0000 0.0000 0.0000 23.9529 0.0000 0.0000
# 5 0.0000 0.0000 0.0000 0.0000 28.2709 0.0000
# 6 0.0000 0.0000 0.0000 0.0000 0.0000 21.6149
#
#
#
# Elastic Compliance Matrix: (Units=1/GPa)
#
#
# Indices 1 2 3 4 5 6 
#
# 1 0.012245 -0.005949 -0.003811 0.000000 0.000000 0.000000
# 2 -0.005949 0.025703 -0.005085 0.000000 0.000000 0.000000
# 3 -0.003811 -0.005085 0.012700 0.000000 0.000000 0.000000
# 4 0.000000 0.000000 0.000000 0.041749 0.000000 0.000000
# 5 0.000000 0.000000 0.000000 0.000000 0.035372 0.000000
# 6 0.000000 0.000000 0.000000 0.000000 0.000000 0.046264
#
#
# Mechanical properties :
#
#
# Convention : Reuss Voigt Hill
#
# Bulk Modulus (GPa) = 47.71482 56.54737 52.13110
# Shear Modulus (GPa) = 23.72929 25.24348 24.48639
#
# Velocity S-wave (km/s) = 3.47651 3.58572 3.53154
# Velocity P-wave (km/s) = 6.35748 6.77825 6.57123
#
# Compressibility (1/GPa) = 0.02095785
#
# Stress axis : x y z
#
# Youngs Moduli (GPa) = 81.66325 38.90593 78.74062
#
# Poissons Ratio (x) = 0.23146 0.30006
# Poissons Ratio (y) = 0.48584 0.40041
# Poissons Ratio (z) = 0.31120 0.19784
#
# Static dielectric constant tensor:
#      x y z
#    x 3.844410 0.000000 0.000000 
#    y 0.000000 3.397550 0.000000 
#    z 0.000000 0.000000 3.582530 
# 
# 
# High freq. dielectric constant tensor:
#      x y z
#    x 1.783150 0.000000 0.000000 
#    y 0.000000 1.747230 0.000000 
#    z 0.000000 0.000000 1.769430 
# 
# From -- ./inp_files/19654.got.cif
#   From: 2010.03.12/outbox.cif.g09.slc.cpg/sg51_10_cif.got.tgz:19654.got - 2010.04.16 13:43:02.
