data_PCOD8207449
_publ_section_title
;
Structure prediction by ZEFSAII (Michael W. Deem and Ramdas Pophale) SiO2 
 PCOD8207449
Probable space group: P M M A
;
_chemical_formula_sum "Si O2"
_cell_formula_units_Z 64
_cell_length_a 31.127207
_cell_length_b 9.064280
_cell_length_c 12.067773
_cell_angle_alpha 90.000000
_cell_angle_beta 90.000000
_cell_angle_gamma 90.000000
_cell_volume 3404.870500
_symmetry_space_group_name_H-M "P M M A"
_symmetry_group_IT_number 51
_symmetry_cell_setting 'orthorhombic'
loop_
_space_group_symop_operation_xyz
x,y,z
1/2-x,-y,z
1/2+x,-y,-z
-x,y,-z
-x,-y,-z
1/2+x,y,-z
1/2-x,y,z
x,-y,z
loop_
_atom_site_type_symbol
_atom_site_label
_atom_site_fract_x
_atom_site_fract_y
_atom_site_fract_z
Si Si1 0.479196 0.833884 0.619707
Si Si2 0.699981 0.665160 0.737937
Si Si3 0.297650 0.324618 0.013210
Si Si4 0.377818 0.327590 0.873319
Si Si5 0.939043 0.825537 0.745837
Si Si6 0.549426 0.174461 0.992090
Si Si7 0.608463 0.671072 0.376897
Si Si8 0.363438 0.825442 0.409195
O O1 0.500000 0.836888 0.500000
O O2 0.514011 0.772457 0.707006
O O3 0.440566 0.720894 0.622636
O O4 0.463635 0.000000 0.650698
O O5 0.750000 0.661347 0.713685
O O6 0.680813 0.500000 0.723664
O O7 0.680180 0.777054 0.649634
O O8 0.690993 0.725457 0.861871
O O9 0.250000 0.263946 0.979072
O O10 0.295905 0.500000 0.008563
O O11 0.334992 0.263112 0.932792
O O12 0.383319 0.500000 0.898716
O O13 0.421159 0.248570 0.914583
O O14 0.371293 0.297101 0.743348
O O15 0.902416 0.759908 0.665598
O O16 0.937581 0.000000 0.734698
O O17 0.931766 0.776433 0.872519
O O18 0.551706 0.000000 0.009536
O O19 0.500000 0.228024 0.000000
O O20 0.610485 0.500000 0.407205
O O21 0.635536 0.759749 0.467710
O O22 0.365670 0.000000 0.419377
#
# Coordination Sequence:
#
# PCOD8207449 Si02
#       8
#     8   8   8   8   8   8   8   8
#     4  10  18  34  56  74  99 139 184 224 265 317
#     4   9  18  34  57  84 110 133 163 211 267 320
#     4   8  15  32  59  85 107 136 175 216 265 325
#     4  10  21  36  54  78 109 142 181 228 272 319
#     4   9  18  32  51  77 103 130 172 222 266 312
#     4  10  20  34  53  76 105 141 179 219 267 328
#     4  11  23  36  50  75 110 143 181 227 270 314
#     4  11  21  35  54  76 104 139 178 217 259 312
#
# _framework density 18.796603000000001
#
# number of rings (size 3 to 8) (size 9 to 14) (size 15 to 20)
#    0.000    2.250    1.250    3.000    0.000    2.750 
#    0.000    1.875    0.000    3.375    0.000    0.000 
#    0.000    0.000    0.000    0.000    0.000    0.000 
#
# Total GULP energy -793544.333925 kJ/mol
# GULP energy per Si atom -12399.130218 kJ/mol
# Density = 1.875382 g / cm^3
# Si number density = 18.796603 Si / 1000 Ang^3
#
#
#
# Elastic Constant Matrix: (Units=GPa)
#
#
# Indices 1 2 3 4 5 6 
#
# 1 101.1291 36.6142 59.6317 0.0000 0.0000 0.0000
# 2 36.6142 56.9038 47.5095 0.0000 0.0000 0.0000
# 3 59.6317 47.5095 121.4601 0.0000 0.0000 0.0000
# 4 0.0000 0.0000 0.0000 256.4654 0.0000 0.0000
# 5 0.0000 0.0000 0.0000 0.0000 32.6296 0.0000
# 6 0.0000 0.0000 0.0000 0.0000 0.0000 48.2313
#
#
#
# Elastic Compliance Matrix: (Units=1/GPa)
#
#
# Indices 1 2 3 4 5 6 
#
# 1 0.014871 -0.005157 -0.005284 0.000000 0.000000 0.000000
# 2 -0.005157 0.027884 -0.008375 0.000000 0.000000 0.000000
# 3 -0.005284 -0.008375 0.014103 0.000000 0.000000 0.000000
# 4 0.000000 0.000000 0.000000 0.003899 0.000000 0.000000
# 5 0.000000 0.000000 0.000000 0.000000 0.030647 0.000000
# 6 0.000000 0.000000 0.000000 0.000000 0.000000 0.020733
#
#
# Mechanical properties :
#
#
# Convention : Reuss Voigt Hill
#
# Bulk Modulus (GPa) = 52.01161 63.00042 57.50601
# Shear Modulus (GPa) = 32.01446 76.51444 54.26445
#
# Velocity S-wave (km/s) = 4.13147 6.38709 5.37884
# Velocity P-wave (km/s) = 7.10560 9.37992 8.32083
#
# Compressibility (1/GPa) = 0.01922648
#
# Stress axis : x y z
#
# Youngs Moduli (GPa) = 67.24396 35.86253 70.90559
#
# Poissons Ratio (x) = 0.18495 0.37466
# Poissons Ratio (y) = 0.34679 0.59384
# Poissons Ratio (z) = 0.35531 0.30035
#
# Static dielectric constant tensor:
#      x y z
#    x 3.477540 0.000000 0.000000 
#    y 0.000000 3.239660 0.000000 
#    z 0.000000 0.000000 3.530630 
# 
# 
# High freq. dielectric constant tensor:
#      x y z
#    x 1.725720 0.000000 0.000000 
#    y 0.000000 1.700900 0.000000 
#    z 0.000000 0.000000 1.738790 
# 
# From -- ./inp_files/19534.got.cif
#   From: 2010.03.12/outbox.cif.g09.slc.cpg/sg51_10_cif.got.tgz:19534.got - 2010.04.16 13:43:02.
