data_PCOD8207569
_publ_section_title
;
Structure prediction by ZEFSAII (Michael W. Deem and Ramdas Pophale) SiO2 
 PCOD8207569
Probable space group: P M M A
;
_chemical_formula_sum "Si O2"
_cell_formula_units_Z 56
_cell_length_a 18.031769
_cell_length_b 9.254505
_cell_length_c 21.242827
_cell_angle_alpha 90.000000
_cell_angle_beta 90.000000
_cell_angle_gamma 90.000000
_cell_volume 3544.898803
_symmetry_space_group_name_H-M "P M M A"
_symmetry_group_IT_number 51
_symmetry_cell_setting 'orthorhombic'
loop_
_space_group_symop_operation_xyz
x,y,z
1/2-x,-y,z
1/2+x,-y,-z
-x,y,-z
-x,-y,-z
1/2+x,y,-z
1/2-x,y,z
x,-y,z
loop_
_atom_site_type_symbol
_atom_site_label
_atom_site_fract_x
_atom_site_fract_y
_atom_site_fract_z
Si Si1 0.548477 0.840441 0.437413
Si Si2 0.664233 0.333071 0.504824
Si Si3 0.542946 0.336961 0.065413
Si Si4 0.082308 0.168961 0.124881
Si Si5 0.835024 0.167494 0.003144
Si Si6 0.597925 0.170905 0.621744
Si Si7 0.666730 0.171674 0.752177
O O1 0.500000 0.846120 0.500000
O O2 0.616472 0.729908 0.446201
O O3 0.490154 0.791295 0.383243
O O4 0.580884 0.000000 0.422601
O O5 0.750000 0.311946 0.487645
O O6 0.643334 0.500000 0.513592
O O7 0.646511 0.250742 0.569265
O O8 0.556730 0.500000 0.088389
O O9 0.495128 0.253348 0.117767
O O10 0.621550 0.258310 0.055949
O O11 0.500000 0.332030 0.000000
O O12 0.122189 0.228946 0.187329
O O13 0.063825 0.000000 0.129703
O O14 0.136666 0.202173 0.066875
O O15 0.750000 0.214249 0.006746
O O16 0.846748 0.000000 0.018909
O O17 0.625412 0.225548 0.689454
O O18 0.610509 0.000000 0.612197
O O19 0.750000 0.235350 0.753238
O O20 0.669997 0.000000 0.754264
#
# Coordination Sequence:
#
# PCOD8207569 Si02
#       7
#     8   8   8   8   8   8   8
#     4   8  15  27  42  60  81 107 139 171 205 247
#     4  10  19  28  40  61  86 110 138 173 212 251
#     4   9  17  28  41  58  82 112 143 173 208 250
#     4   9  16  27  43  62  85 113 143 172 202 242
#     4   9  16  26  42  64  87 109 136 173 213 249
#     4   9  17  29  44  62  85 113 143 172 203 244
#     4   9  16  26  43  66  88 112 142 172 202 239
#
# _framework density 15.797348
#
# number of rings (size 3 to 8) (size 9 to 14) (size 15 to 20)
#    0.000    3.000    0.000    2.571    0.000    8.000 
#    0.000    0.714    0.000    2.143    0.000    1.000 
#    0.000    3.429    0.000    0.000    0.000    0.000 
#
# Total GULP energy -694223.066848 kJ/mol
# GULP energy per Si atom -12396.840479 kJ/mol
# Density = 1.576139 g / cm^3
# Si number density = 15.797348 Si / 1000 Ang^3
#
#
#
# Elastic Constant Matrix: (Units=GPa)
#
#
# Indices 1 2 3 4 5 6 
#
# 1 126.2361 58.5008 61.8625 0.0000 0.0000 0.0000
# 2 58.5008 68.9105 32.2757 0.0000 0.0000 0.0000
# 3 61.8625 32.2757 78.8599 0.0000 0.0000 0.0000
# 4 0.0000 0.0000 0.0000 9.2845 0.0000 0.0000
# 5 0.0000 0.0000 0.0000 0.0000 28.3546 0.0000
# 6 0.0000 0.0000 0.0000 0.0000 0.0000 19.9230
#
#
#
# Elastic Compliance Matrix: (Units=1/GPa)
#
#
# Indices 1 2 3 4 5 6 
#
# 1 0.017259 -0.010282 -0.009331 0.000000 0.000000 0.000000
# 2 -0.010282 0.024078 -0.001789 0.000000 0.000000 0.000000
# 3 -0.009331 -0.001789 0.020733 0.000000 0.000000 0.000000
# 4 0.000000 0.000000 0.000000 0.107707 0.000000 0.000000
# 5 0.000000 0.000000 0.000000 0.000000 0.035268 0.000000
# 6 0.000000 0.000000 0.000000 0.000000 0.000000 0.050193
#
#
# Mechanical properties :
#
#
# Convention : Reuss Voigt Hill
#
# Bulk Modulus (GPa) = 51.90387 64.36496 58.13442
# Shear Modulus (GPa) = 16.42235 19.60358 18.01296
#
# Velocity S-wave (km/s) = 3.22772 3.52652 3.38043
# Velocity P-wave (km/s) = 6.84239 7.57723 7.21917
#
# Compressibility (1/GPa) = 0.01926638
#
# Stress axis : x y z
#
# Youngs Moduli (GPa) = 57.94044 41.53180 48.23265
#
# Poissons Ratio (x) = 0.42701 0.45006
# Poissons Ratio (y) = 0.59572 0.08630
# Poissons Ratio (z) = 0.54065 0.07431
#
# Static dielectric constant tensor:
#      x y z
#    x 3.181280 0.000000 0.000000 
#    y 0.000000 2.938350 0.000000 
#    z 0.000000 0.000000 2.920710 
# 
# 
# High freq. dielectric constant tensor:
#      x y z
#    x 1.607090 0.000000 0.000000 
#    y 0.000000 1.594850 0.000000 
#    z 0.000000 0.000000 1.570530 
# 
# From -- ./inp_files/33688.got.cif
#   From: 2010.03.12/outbox.cif.g09.slc.cpg/sg51_17_cif.got.tgz:33688.got - 2010.04.16 13:43:02.
