data_PCOD8207652
_publ_section_title
;
Structure prediction by ZEFSAII (Michael W. Deem and Ramdas Pophale) SiO2 
 PCOD8207652
Probable space group: P M M A
;
_chemical_formula_sum "Si O2"
_cell_formula_units_Z 64
_cell_length_a 26.458090
_cell_length_b 9.188916
_cell_length_c 14.528626
_cell_angle_alpha 90.000000
_cell_angle_beta 90.000000
_cell_angle_gamma 90.000000
_cell_volume 3532.216501
_symmetry_space_group_name_H-M "P M M A"
_symmetry_group_IT_number 51
_symmetry_cell_setting 'orthorhombic'
loop_
_space_group_symop_operation_xyz
x,y,z
1/2-x,-y,z
1/2+x,-y,-z
-x,y,-z
-x,-y,-z
1/2+x,y,-z
1/2-x,y,z
x,-y,z
loop_
_atom_site_type_symbol
_atom_site_label
_atom_site_fract_x
_atom_site_fract_y
_atom_site_fract_z
Si Si1 0.692952 0.666275 0.878931
Si Si2 0.599444 0.669524 0.000537
Si Si3 0.454380 0.831203 0.156406
Si Si4 0.585424 0.166264 0.377584
Si Si5 0.359133 0.170871 0.277736
Si Si6 0.381323 0.670018 0.447821
Si Si7 0.069544 0.166697 0.823315
Si Si8 0.990707 0.654435 0.603776
O O1 0.750000 0.691711 0.913928
O O2 0.684382 0.500000 0.846303
O O3 0.682517 0.771612 0.793390
O O4 0.655579 0.703470 0.963021
O O5 0.587600 0.500000 0.004387
O O6 0.596781 0.733049 0.102707
O O7 0.557224 0.742599 0.936240
O O8 0.414927 0.789414 0.237051
O O9 0.510512 0.787589 0.190614
O O10 0.449931 0.000000 0.130939
O O11 0.618176 0.262953 0.448736
O O12 0.602316 0.184502 0.271242
O O13 0.526834 0.212923 0.370194
O O14 0.588410 0.000000 0.411147
O O15 0.344904 0.246271 0.376392
O O16 0.352856 0.000000 0.291122
O O17 0.367768 0.500000 0.457023
O O18 0.432754 0.701996 0.391987
O O19 0.071384 0.000000 0.856582
O O20 0.000546 0.500000 0.658815
O O21 0.000000 0.611550 0.500000
#
# Coordination Sequence:
#
# PCOD8207652 Si02
#       8
#     8   8   8   8   8   8   8   8
#     4   9  19  37  57  76 100 125 149 186 240 298
#     4  10  20  32  49  73  95 121 160 201 242 289
#     4   9  18  32  47  65  95 133 166 198 240 288
#     4  10  19  29  42  61  87 124 169 208 239 275
#     4  10  19  31  50  75  99 125 161 200 237 283
#     4  10  19  30  43  62  92 127 160 196 240 283
#     4  10  20  32  45  64  95 135 171 202 241 285
#     4   8  15  26  38  55  82 118 159 200 238 272
#
# _framework density 18.118933999999999
#
# number of rings (size 3 to 8) (size 9 to 14) (size 15 to 20)
#    0.000    2.500    0.000    3.375    0.000    8.000 
#    0.000    0.000    0.000    0.000    0.000    0.875 
#    0.000    3.000    0.000    0.000    0.000    0.000 
#
# Total GULP energy -793000.989317 kJ/mol
# GULP energy per Si atom -12390.640458 kJ/mol
# Density = 1.807769 g / cm^3
# Si number density = 18.118934 Si / 1000 Ang^3
#
#
#
# Elastic Constant Matrix: (Units=GPa)
#
#
# Indices 1 2 3 4 5 6 
#
# 1 50.4262 19.7241 25.4478 0.0000 0.0000 0.0000
# 2 19.7241 96.0069 62.5917 0.0000 0.0000 0.0000
# 3 25.4478 62.5917 111.9941 0.0000 0.0000 0.0000
# 4 0.0000 0.0000 0.0000 26.9960 0.0000 0.0000
# 5 0.0000 0.0000 0.0000 0.0000 9.2293 0.0000
# 6 0.0000 0.0000 0.0000 0.0000 0.0000 17.2280
#
#
#
# Elastic Compliance Matrix: (Units=1/GPa)
#
#
# Indices 1 2 3 4 5 6 
#
# 1 0.022651 -0.002042 -0.004006 0.000000 0.000000 0.000000
# 2 -0.002042 0.016571 -0.008797 0.000000 0.000000 0.000000
# 3 -0.004006 -0.008797 0.014756 0.000000 0.000000 0.000000
# 4 0.000000 0.000000 0.000000 0.037043 0.000000 0.000000
# 5 0.000000 0.000000 0.000000 0.000000 0.108351 0.000000
# 6 0.000000 0.000000 0.000000 0.000000 0.000000 0.058045
#
#
# Mechanical properties :
#
#
# Convention : Reuss Voigt Hill
#
# Bulk Modulus (GPa) = 41.17250 52.66159 46.91705
# Shear Modulus (GPa) = 16.93757 20.73489 18.83623
#
# Velocity S-wave (km/s) = 3.06077 3.38653 3.22776
# Velocity P-wave (km/s) = 5.93834 6.66476 6.31201
#
# Compressibility (1/GPa) = 0.02428806
#
# Stress axis : x y z
#
# Youngs Moduli (GPa) = 44.14785 60.34734 67.77005
#
# Poissons Ratio (x) = 0.12324 0.27146
# Poissons Ratio (y) = 0.09015 0.59618
# Poissons Ratio (z) = 0.17684 0.53088
#
# Static dielectric constant tensor:
#      x y z
#    x 2.766950 0.000000 0.000000 
#    y 0.000000 3.389150 0.000000 
#    z 0.000000 0.000000 3.321460 
# 
# 
# High freq. dielectric constant tensor:
#      x y z
#    x 1.642200 0.000000 0.000000 
#    y 0.000000 1.715260 0.000000 
#    z 0.000000 0.000000 1.704310 
# 
# From -- ./inp_files/26572.got.cif
#   From: 2010.03.12/outbox.cif.g09.slc.cpg/sg51_14_cif.got.tgz:26572.got - 2010.04.16 13:43:02.
