data_PCOD8207595
_publ_section_title
;
Structure prediction by ZEFSAII (Michael W. Deem and Ramdas Pophale) SiO2 
 PCOD8207595
Probable space group: P M M A
;
_chemical_formula_sum "Si O2"
_cell_formula_units_Z 48
_cell_length_a 19.934807
_cell_length_b 9.378346
_cell_length_c 15.064128
_cell_angle_alpha 90.000000
_cell_angle_beta 90.000000
_cell_angle_gamma 90.000000
_cell_volume 2816.321846
_symmetry_space_group_name_H-M "P M M A"
_symmetry_group_IT_number 51
_symmetry_cell_setting 'orthorhombic'
loop_
_space_group_symop_operation_xyz
x,y,z
1/2-x,-y,z
1/2+x,-y,-z
-x,y,-z
-x,-y,-z
1/2+x,y,-z
1/2-x,y,z
x,-y,z
loop_
_atom_site_type_symbol
_atom_site_label
_atom_site_fract_x
_atom_site_fract_y
_atom_site_fract_z
Si Si1 0.827183 0.337566 0.600813
Si Si2 0.432329 0.660065 0.887277
Si Si3 0.410179 0.659872 0.080820
Si Si4 0.951905 0.834022 0.277574
Si Si5 0.568323 0.334036 0.451536
Si Si6 0.107741 0.834307 0.245724
O O1 0.750000 0.318528 0.574583
O O2 0.843984 0.500000 0.628740
O O3 0.869987 0.294663 0.514962
O O4 0.843994 0.236210 0.682553
O O5 0.410030 0.500000 0.860440
O O6 0.511005 0.662732 0.903867
O O7 0.414287 0.768855 0.808417
O O8 0.395171 0.706704 0.978841
O O9 0.382710 0.500000 0.097383
O O10 0.375039 0.767363 0.149517
O O11 0.921962 0.758440 0.363689
O O12 0.031229 0.804583 0.273328
O O13 0.935110 0.000000 0.281547
O O14 0.500000 0.288970 0.500000
O O15 0.566855 0.500000 0.425086
O O16 0.124215 0.000000 0.240476
#
# Coordination Sequence:
#
# PCOD8207595 Si02
#       6
#     8   8   8   8   8   8
#     4  10  21  36  52  70  93 123 162 205 244 287
#     4   8  14  25  41  63  92 125 159 194 231 275
#     4   8  14  25  42  63  90 125 160 192 229 274
#     4  10  19  28  43  69  99 128 158 196 241 289
#     4  10  19  32  51  71  91 123 163 202 245 293
#     4  10  19  29  44  68  97 128 158 192 238 290
#
# _framework density 17.043507999999999
#
# number of rings (size 3 to 8) (size 9 to 14) (size 15 to 20)
#    0.000    2.667    1.667    2.000    0.000    3.333 
#    0.000    3.333    0.000    0.000    0.000    1.167 
#    0.000    4.000    0.000    0.000    0.000    0.000 
#
# Total GULP energy -595112.656105 kJ/mol
# GULP energy per Si atom -12398.180336 kJ/mol
# Density = 1.700472 g / cm^3
# Si number density = 17.043508 Si / 1000 Ang^3
#
#
#
# Elastic Constant Matrix: (Units=GPa)
#
#
# Indices 1 2 3 4 5 6 
#
# 1 50.9442 33.0016 41.7933 0.0000 0.0000 0.0000
# 2 33.0016 103.5191 88.6414 0.0000 0.0000 0.0000
# 3 41.7933 88.6414 162.0010 0.0000 0.0000 0.0000
# 4 0.0000 0.0000 0.0000 14.8894 0.0000 0.0000
# 5 0.0000 0.0000 0.0000 0.0000 14.8897 0.0000
# 6 0.0000 0.0000 0.0000 0.0000 0.0000 12.6812
#
#
#
# Elastic Compliance Matrix: (Units=1/GPa)
#
#
# Indices 1 2 3 4 5 6 
#
# 1 0.026113 -0.004810 -0.004105 0.000000 0.000000 0.000000
# 2 -0.004810 0.019062 -0.009189 0.000000 0.000000 0.000000
# 3 -0.004105 -0.009189 0.012260 0.000000 0.000000 0.000000
# 4 0.000000 0.000000 0.000000 0.067162 0.000000 0.000000
# 5 0.000000 0.000000 0.000000 0.000000 0.067161 0.000000
# 6 0.000000 0.000000 0.000000 0.000000 0.000000 0.078857
#
#
# Mechanical properties :
#
#
# Convention : Reuss Voigt Hill
#
# Bulk Modulus (GPa) = 47.11039 71.48187 59.29613
# Shear Modulus (GPa) = 15.92879 18.69392 17.31136
#
# Velocity S-wave (km/s) = 3.06043 3.31544 3.19049
# Velocity P-wave (km/s) = 6.33953 7.52915 6.95980
#
# Compressibility (1/GPa) = 0.02122674
#
# Stress axis : x y z
#
# Youngs Moduli (GPa) = 38.29571 52.46062 81.56743
#
# Poissons Ratio (x) = 0.25232 0.33482
# Poissons Ratio (y) = 0.18419 0.74954
# Poissons Ratio (z) = 0.15720 0.48207
#
# Static dielectric constant tensor:
#      x y z
#    x 2.699000 0.000000 0.000000 
#    y 0.000000 3.212690 0.000000 
#    z 0.000000 0.000000 3.458140 
# 
# 
# High freq. dielectric constant tensor:
#      x y z
#    x 1.596510 0.000000 0.000000 
#    y 0.000000 1.658670 0.000000 
#    z 0.000000 0.000000 1.670810 
# 
# From -- ./inp_files/25440.got.cif
#   From: 2010.03.12/outbox.cif.g09.slc.cpg/sg51_13_cif.got.tgz:25440.got - 2010.04.16 13:43:02.
