data_PCOD8207158
_publ_section_title
;
Structure prediction by ZEFSAII (Michael W. Deem and Ramdas Pophale) SiO2 
 PCOD8207158
Probable space group: P M M A
;
_chemical_formula_sum "Si O2"
_cell_formula_units_Z 40
_cell_length_a 26.040629
_cell_length_b 8.760396
_cell_length_c 9.280849
_cell_angle_alpha 90.000000
_cell_angle_beta 90.000000
_cell_angle_gamma 90.000000
_cell_volume 2117.205021
_symmetry_space_group_name_H-M "P M M A"
_symmetry_group_IT_number 51
_symmetry_cell_setting 'orthorhombic'
loop_
_space_group_symop_operation_xyz
x,y,z
1/2-x,-y,z
1/2+x,-y,-z
-x,y,-z
-x,-y,-z
1/2+x,y,-z
1/2-x,y,z
x,-y,z
loop_
_atom_site_type_symbol
_atom_site_label
_atom_site_fract_x
_atom_site_fract_y
_atom_site_fract_z
Si Si1 0.948541 0.821072 0.914928
Si Si2 0.250000 0.331290 0.581123
Si Si3 0.144794 0.819319 0.594003
Si Si4 0.250000 0.666468 0.922557
Si Si5 0.048012 0.819120 0.411719
Si Si6 0.359589 0.317955 0.903355
O O1 0.954927 0.761452 0.752301
O O2 0.935758 0.000000 0.922854
O O3 0.902226 0.727813 0.983322
O O4 0.000000 0.781116 0.000000
O O5 0.250000 0.500000 0.510209
O O6 0.301143 0.241871 0.532522
O O7 0.250000 0.347113 0.751069
O O8 0.101271 0.765171 0.482268
O O9 0.128390 0.753669 0.748552
O O10 0.147909 0.000000 0.607829
O O11 0.250000 0.500000 0.995373
O O12 0.195862 0.747395 0.963133
O O13 0.000000 0.748761 0.500000
O O14 0.043988 0.000000 0.414652
O O15 0.356290 0.500000 0.885458
#
# Coordination Sequence:
#
# PCOD8207158 Si02
#       6
#     8   4   8   4   8   8
#     4  10  20  35  55  77 102 134 174 220 269 318
#     4   9  17  31  50  75 108 140 172 212 258 305
#     4  10  18  31  54  80 105 137 177 215 256 308
#     4   7  14  29  48  69  96 132 166 200 242 291
#     4   9  18  33  53  77 103 132 170 219 269 313
#     4  10  19  33  53  77 107 139 173 214 260 309
#
# _framework density 18.892833
#
# number of rings (size 3 to 8) (size 9 to 14) (size 15 to 20)
#    0.000    2.600    0.000    3.900    0.000    3.600 
#    0.000    4.500    0.000    7.800    0.000    0.000 
#    0.000    0.000    0.000    0.000    0.000    0.000 
#
# Total GULP energy -495789.563234 kJ/mol
# GULP energy per Si atom -12394.739081 kJ/mol
# Density = 1.884983 g / cm^3
# Si number density = 18.892833 Si / 1000 Ang^3
#
#
#
# Elastic Constant Matrix: (Units=GPa)
#
#
# Indices 1 2 3 4 5 6 
#
# 1 186.0235 48.0038 86.7767 0.0000 0.0000 0.0000
# 2 48.0038 61.2279 29.2750 0.0000 0.0000 0.0000
# 3 86.7767 29.2750 121.0915 0.0000 0.0000 0.0000
# 4 0.0000 0.0000 0.0000 10.3663 0.0000 0.0000
# 5 0.0000 0.0000 0.0000 0.0000 29.4032 0.0000
# 6 0.0000 0.0000 0.0000 0.0000 0.0000 23.7358
#
#
#
# Elastic Compliance Matrix: (Units=1/GPa)
#
#
# Indices 1 2 3 4 5 6 
#
# 1 0.009062 -0.004523 -0.005401 0.000000 0.000000 0.000000
# 2 -0.004523 0.020724 -0.001769 0.000000 0.000000 0.000000
# 3 -0.005401 -0.001769 0.012556 0.000000 0.000000 0.000000
# 4 0.000000 0.000000 0.000000 0.096466 0.000000 0.000000
# 5 0.000000 0.000000 0.000000 0.000000 0.034010 0.000000
# 6 0.000000 0.000000 0.000000 0.000000 0.000000 0.042131
#
#
# Mechanical properties :
#
#
# Convention : Reuss Voigt Hill
#
# Bulk Modulus (GPa) = 52.75009 77.38377 65.06693
# Shear Modulus (GPa) = 20.43711 26.32023 23.37867
#
# Velocity S-wave (km/s) = 3.29255 3.73652 3.52154
# Velocity P-wave (km/s) = 6.51428 7.72423 7.14491
#
# Compressibility (1/GPa) = 0.01895731
#
# Stress axis : x y z
#
# Youngs Moduli (GPa) = 110.35030 48.25291 79.64192
#
# Poissons Ratio (x) = 0.21823 0.43012
# Poissons Ratio (y) = 0.49907 0.14091
# Poissons Ratio (z) = 0.59597 0.08537
#
# Static dielectric constant tensor:
#      x y z
#    x 4.121300 0.000000 0.000000 
#    y 0.000000 3.228150 0.000000 
#    z 0.000000 0.000000 3.306690 
# 
# 
# High freq. dielectric constant tensor:
#      x y z
#    x 1.758990 0.000000 0.000000 
#    y 0.000000 1.709270 0.000000 
#    z 0.000000 0.000000 1.709340 
# 
# From -- ./inp_files/12210.got.cif
#   From: 2010.03.12/outbox.cif.g09.slc.cpg/sg51_7_cif.got.tgz:12210.got - 2010.04.16 13:43:02.
