data_PCOD8207181
_publ_section_title
;
Structure prediction by ZEFSAII (Michael W. Deem and Ramdas Pophale) SiO2 
 PCOD8207181
Probable space group: P M M A
;
_chemical_formula_sum "Si O2"
_cell_formula_units_Z 64
_cell_length_a 17.013293
_cell_length_b 17.221640
_cell_length_c 12.273562
_cell_angle_alpha 90.000000
_cell_angle_beta 90.000000
_cell_angle_gamma 90.000000
_cell_volume 3596.114480
_symmetry_space_group_name_H-M "P M M A"
_symmetry_group_IT_number 51
_symmetry_cell_setting 'orthorhombic'
loop_
_space_group_symop_operation_xyz
x,y,z
1/2-x,-y,z
1/2+x,-y,-z
-x,y,-z
-x,-y,-z
1/2+x,y,-z
1/2-x,y,z
x,-y,z
loop_
_atom_site_type_symbol
_atom_site_label
_atom_site_fract_x
_atom_site_fract_y
_atom_site_fract_z
Si Si1 0.335630 0.333459 0.627284
Si Si2 0.033976 0.587900 0.730153
Si Si3 0.058160 0.741421 0.248795
Si Si4 0.091320 0.726673 0.014141
Si Si5 0.839075 0.791558 0.550966
Si Si6 0.611468 0.205889 0.212928
Si Si7 0.838802 0.414085 0.080728
Si Si8 0.157748 0.913918 0.623776
O O1 0.250000 0.375229 0.632838
O O2 0.408853 0.393791 0.627100
O O3 0.342221 0.288106 0.514833
O O4 0.339172 0.274208 0.729859
O O5 0.000820 0.500000 0.723599
O O6 0.095121 0.600123 0.828564
O O7 0.961584 0.648622 0.738467
O O8 0.103750 0.759613 0.135552
O O9 0.110036 0.778472 0.342435
O O10 0.977999 0.788471 0.250915
O O11 0.119079 0.786585 0.918965
O O12 0.143864 0.648758 0.012072
O O13 0.000000 0.704412 0.000000
O O14 0.750000 0.811518 0.585735
O O15 0.875208 0.860297 0.475007
O O16 0.640801 0.122741 0.256735
O O17 0.750000 0.404060 0.127520
O O18 0.848455 0.500000 0.030176
O O19 0.250000 0.919263 0.608826
O O20 0.119906 0.000000 0.617759
#
# Coordination Sequence:
#
# PCOD8207181 Si02
#       8
#     8   8   8   8   8   8   8   8
#     4   9  16  29  48  69  97 128 164 215 268 304
#     4  10  19  30  48  73  98 131 169 220 274 310
#     4  10  20  34  50  70 102 141 178 212 246 304
#     4  10  18  32  48  70 101 140 171 207 253 304
#     4   9  19  35  53  72  97 133 173 210 250 304
#     4   9  17  29  49  77 101 129 166 205 249 302
#     4  10  19  29  45  73 102 128 169 222 267 305
#     4   9  18  34  58  85 110 132 157 202 258 303
#
# _framework density 17.796987000000001
#
# number of rings (size 3 to 8) (size 9 to 14) (size 15 to 20)
#    0.000    2.500    3.750    1.500    0.000    7.000 
#    0.000    2.500    0.000    5.250    0.000    1.750 
#    0.000    0.000    0.000    0.000    0.000    0.000 
#
# Total GULP energy -792919.848658 kJ/mol
# GULP energy per Si atom -12389.372635 kJ/mol
# Density = 1.775648 g / cm^3
# Si number density = 17.796987 Si / 1000 Ang^3
#
#
#
# Elastic Constant Matrix: (Units=GPa)
#
#
# Indices 1 2 3 4 5 6 
#
# 1 40.6940 21.5173 36.0726 0.0000 0.0000 0.0000
# 2 21.5173 90.1366 44.5429 0.0000 0.0000 0.0000
# 3 36.0726 44.5429 113.3421 0.0000 0.0000 0.0000
# 4 0.0000 0.0000 0.0000 12.8264 0.0000 0.0000
# 5 0.0000 0.0000 0.0000 0.0000 19.9062 0.0000
# 6 0.0000 0.0000 0.0000 0.0000 0.0000 19.0701
#
#
#
# Elastic Compliance Matrix: (Units=1/GPa)
#
#
# Indices 1 2 3 4 5 6 
#
# 1 0.035123 -0.003550 -0.009783 0.000000 0.000000 0.000000
# 2 -0.003550 0.014127 -0.004422 0.000000 0.000000 0.000000
# 3 -0.009783 -0.004422 0.013674 0.000000 0.000000 0.000000
# 4 0.000000 0.000000 0.000000 0.077964 0.000000 0.000000
# 5 0.000000 0.000000 0.000000 0.000000 0.050236 0.000000
# 6 0.000000 0.000000 0.000000 0.000000 0.000000 0.052438
#
#
# Mechanical properties :
#
#
# Convention : Reuss Voigt Hill
#
# Bulk Modulus (GPa) = 36.47792 49.82648 43.15220
# Shear Modulus (GPa) = 17.34845 19.82986 18.58916
#
# Velocity S-wave (km/s) = 3.12556 3.34162 3.23540
# Velocity P-wave (km/s) = 5.79368 6.55336 6.18519
#
# Compressibility (1/GPa) = 0.02741385
#
# Stress axis : x y z
#
# Youngs Moduli (GPa) = 28.47145 70.78677 73.12986
#
# Poissons Ratio (x) = 0.25129 0.71544
# Poissons Ratio (y) = 0.10107 0.32338
# Poissons Ratio (z) = 0.27854 0.31302
#
# Static dielectric constant tensor:
#      x y z
#    x 3.282130 0.000000 0.000000 
#    y 0.000000 3.379200 0.000000 
#    z 0.000000 0.000000 3.276800 
# 
# 
# High freq. dielectric constant tensor:
#      x y z
#    x 1.678520 0.000000 0.000000 
#    y 0.000000 1.661060 0.000000 
#    z 0.000000 0.000000 1.671730 
# 
# From -- ./inp_files/17694.got.cif
#   From: 2010.03.12/outbox.cif.g09.slc.cpg/sg51_9_cif.got.tgz:17694.got - 2010.04.16 13:43:02.
