data_PCOD8207657
_publ_section_title
;
Structure prediction by ZEFSAII (Michael W. Deem and Ramdas Pophale) SiO2 
 PCOD8207657
Probable space group: P M M A
;
_chemical_formula_sum "Si O2"
_cell_formula_units_Z 48
_cell_length_a 13.558243
_cell_length_b 13.355067
_cell_length_c 16.634294
_cell_angle_alpha 90.000000
_cell_angle_beta 90.000000
_cell_angle_gamma 90.000000
_cell_volume 3011.992302
_symmetry_space_group_name_H-M "P M M A"
_symmetry_group_IT_number 51
_symmetry_cell_setting 'orthorhombic'
loop_
_space_group_symop_operation_xyz
x,y,z
1/2-x,-y,z
1/2+x,-y,-z
-x,y,-z
-x,-y,-z
1/2+x,y,-z
1/2-x,y,z
x,-y,z
loop_
_atom_site_type_symbol
_atom_site_label
_atom_site_fract_x
_atom_site_fract_y
_atom_site_fract_z
Si Si1 0.449724 0.881626 0.374724
Si Si2 0.367175 0.218075 0.217057
Si Si3 0.458186 0.384462 0.123350
Si Si4 0.635107 0.695984 0.032848
Si Si5 0.857623 0.881490 0.459544
Si Si6 0.133570 0.109988 0.057022
O O1 0.413138 0.822065 0.298334
O O2 0.386956 0.844736 0.451435
O O3 0.563343 0.850211 0.391858
O O4 0.437934 0.000000 0.359500
O O5 0.250000 0.222626 0.224788
O O6 0.410012 0.328608 0.199522
O O7 0.403238 0.147170 0.144072
O O8 0.466254 0.500000 0.146093
O O9 0.568202 0.341462 0.106387
O O10 0.387830 0.370706 0.045741
O O11 0.750000 0.685477 0.055755
O O12 0.604395 0.811322 0.012863
O O13 0.750000 0.837741 0.436515
O O14 0.855815 0.000000 0.463636
O O15 0.250000 0.104039 0.061157
O O16 0.088727 0.000000 0.037907
#
# Coordination Sequence:
#
# PCOD8207657 Si02
#       6
#     8   8   8   8   8   8
#     4   9  16  26  43  67  93 120 148 176 209 254
#     4  10  19  29  42  62  87 114 145 178 219 269
#     4  10  20  32  45  63  85 107 141 190 235 268
#     4   9  17  30  48  66  83 109 146 182 220 268
#     4   8  14  25  42  65  92 121 150 177 206 244
#     4   8  14  25  41  61  86 114 140 170 210 255
#
# _framework density 15.936296
#
# number of rings (size 3 to 8) (size 9 to 14) (size 15 to 20)
#    0.000    3.000    0.000    4.500    0.000    4.000 
#    0.000    8.333    0.000    0.000    0.000    2.333 
#    0.000    1.333    0.000    0.000    0.000    0.000 
#
# Total GULP energy -594887.869916 kJ/mol
# GULP energy per Si atom -12393.497290 kJ/mol
# Density = 1.590002 g / cm^3
# Si number density = 15.936296 Si / 1000 Ang^3
#
#
#
# Elastic Constant Matrix: (Units=GPa)
#
#
# Indices 1 2 3 4 5 6 
#
# 1 115.1245 33.5012 43.2594 0.0000 0.0000 0.0000
# 2 33.5012 108.0612 39.8019 0.0000 0.0000 0.0000
# 3 43.2594 39.8019 73.2981 0.0000 0.0000 0.0000
# 4 0.0000 0.0000 0.0000 18.1699 0.0000 0.0000
# 5 0.0000 0.0000 0.0000 0.0000 21.2066 0.0000
# 6 0.0000 0.0000 0.0000 0.0000 0.0000 16.7952
#
#
#
# Elastic Compliance Matrix: (Units=1/GPa)
#
#
# Indices 1 2 3 4 5 6 
#
# 1 0.011308 -0.001309 -0.005963 0.000000 0.000000 0.000000
# 2 -0.001309 0.011719 -0.005591 0.000000 0.000000 0.000000
# 3 -0.005963 -0.005591 0.020198 0.000000 0.000000 0.000000
# 4 0.000000 0.000000 0.000000 0.055036 0.000000 0.000000
# 5 0.000000 0.000000 0.000000 0.000000 0.047155 0.000000
# 6 0.000000 0.000000 0.000000 0.000000 0.000000 0.059541
#
#
# Mechanical properties :
#
#
# Convention : Reuss Voigt Hill
#
# Bulk Modulus (GPa) = 57.14616 58.84543 57.99579
# Shear Modulus (GPa) = 21.14021 23.22910 22.18466
#
# Velocity S-wave (km/s) = 3.64613 3.82202 3.73511
# Velocity P-wave (km/s) = 7.32548 7.51550 7.42110
#
# Compressibility (1/GPa) = 0.01749899
#
# Stress axis : x y z
#
# Youngs Moduli (GPa) = 88.43430 85.32964 49.51002
#
# Poissons Ratio (x) = 0.11173 0.29521
# Poissons Ratio (y) = 0.11580 0.27681
# Poissons Ratio (z) = 0.52730 0.47707
#
# Static dielectric constant tensor:
#      x y z
#    x 3.385230 0.000000 0.000000 
#    y 0.000000 3.008120 0.000000 
#    z 0.000000 0.000000 2.734160 
# 
# 
# High freq. dielectric constant tensor:
#      x y z
#    x 1.624800 0.000000 0.000000 
#    y 0.000000 1.585610 0.000000 
#    z 0.000000 0.000000 1.577550 
# 
# From -- ./inp_files/24230.got.cif
#   From: 2010.03.12/outbox.cif.g09.slc.cpg/sg51_13_cif.got.tgz:24230.got - 2010.04.16 13:43:02.
