data_PCOD8207910
_publ_section_title
;
Structure prediction by ZEFSAII (Michael W. Deem and Ramdas Pophale) SiO2 
 PCOD8207910
Probable space group: P M M A
;
_chemical_formula_sum "Si O2"
_cell_formula_units_Z 56
_cell_length_a 9.488802
_cell_length_b 19.812114
_cell_length_c 15.279804
_cell_angle_alpha 90.000000
_cell_angle_beta 90.000000
_cell_angle_gamma 90.000000
_cell_volume 2872.499661
_symmetry_space_group_name_H-M "P M M A"
_symmetry_group_IT_number 51
_symmetry_cell_setting 'orthorhombic'
loop_
_space_group_symop_operation_xyz
x,y,z
1/2-x,-y,z
1/2+x,-y,-z
-x,y,-z
-x,-y,-z
1/2+x,y,-z
1/2-x,y,z
x,-y,z
loop_
_atom_site_type_symbol
_atom_site_label
_atom_site_fract_x
_atom_site_fract_y
_atom_site_fract_z
Si Si1 0.595749 0.851228 0.575770
Si Si2 0.413590 0.577409 0.085642
Si Si3 0.096605 0.925629 0.689899
Si Si4 0.083880 0.687615 0.223680
Si Si5 0.594428 0.925036 0.105393
Si Si6 0.081777 0.205070 0.081819
Si Si7 0.407207 0.307191 0.419533
O O1 0.500000 0.883650 0.500000
O O2 0.750000 0.883951 0.572044
O O3 0.522426 0.871243 0.666410
O O4 0.606221 0.771886 0.566093
O O5 0.250000 0.590722 0.064584
O O6 0.442643 0.500000 0.111264
O O7 0.462999 0.622256 0.167981
O O8 0.500000 0.598536 0.000000
O O9 0.250000 0.903082 0.652582
O O10 0.105748 0.928782 0.792225
O O11 0.057421 0.000000 0.653290
O O12 0.250000 0.691037 0.236388
O O13 0.036466 0.755059 0.170597
O O14 0.021410 0.681422 0.322875
O O15 0.750000 0.902448 0.069176
O O16 0.470807 0.872633 0.081259
O O17 0.555528 0.000000 0.069586
O O18 0.250000 0.208765 0.068575
O O19 0.000000 0.240524 0.000000
O O20 0.500000 0.337998 0.500000
O O21 0.250000 0.339620 0.424612
#
# Coordination Sequence:
#
# PCOD8207910 Si02
#       7
#     8   8   8   8   8   8   8
#     4  10  19  30  45  64  87 117 153 196 248 303
#     4   9  17  31  53  80 110 145 180 211 248 298
#     4   9  18  32  48  65  86 113 148 194 247 301
#     4   9  18  33  53  77 107 139 171 211 257 305
#     4   9  19  36  54  70  92 125 165 209 255 304
#     4  11  22  35  52  75 103 134 169 212 260 308
#     4   9  18  33  51  72  98 128 165 208 251 297
#
# _framework density 19.495215999999999
#
# number of rings (size 3 to 8) (size 9 to 14) (size 15 to 20)
#    0.000    2.571    0.000    3.000    0.000    3.429 
#    0.000    4.286    0.000    0.429    0.000    0.000 
#    0.000    0.000    0.000    0.000    0.000    0.000 
#
# Total GULP energy -693813.666878 kJ/mol
# GULP energy per Si atom -12389.529766 kJ/mol
# Density = 1.945084 g / cm^3
# Si number density = 19.495216 Si / 1000 Ang^3
#
#
#
# Elastic Constant Matrix: (Units=GPa)
#
#
# Indices 1 2 3 4 5 6 
#
# 1 104.4266 27.4163 53.3003 0.0000 0.0000 0.0000
# 2 27.4163 62.3980 34.9311 0.0000 0.0000 0.0000
# 3 53.3003 34.9311 138.6180 0.0000 0.0000 0.0000
# 4 0.0000 0.0000 0.0000 23.1336 0.0000 0.0000
# 5 0.0000 0.0000 0.0000 0.0000 32.1249 0.0000
# 6 0.0000 0.0000 0.0000 0.0000 0.0000 17.5617
#
#
#
# Elastic Compliance Matrix: (Units=1/GPa)
#
#
# Indices 1 2 3 4 5 6 
#
# 1 0.012456 -0.003250 -0.003970 0.000000 0.000000 0.000000
# 2 -0.003250 0.019506 -0.003666 0.000000 0.000000 0.000000
# 3 -0.003970 -0.003666 0.009665 0.000000 0.000000 0.000000
# 4 0.000000 0.000000 0.000000 0.043227 0.000000 0.000000
# 5 0.000000 0.000000 0.000000 0.000000 0.031128 0.000000
# 6 0.000000 0.000000 0.000000 0.000000 0.000000 0.056942
#
#
# Mechanical properties :
#
#
# Convention : Reuss Voigt Hill
#
# Bulk Modulus (GPa) = 50.36758 59.63756 55.00257
# Shear Modulus (GPa) = 24.83668 27.21705 26.02686
#
# Velocity S-wave (km/s) = 3.57317 3.74048 3.65778
# Velocity P-wave (km/s) = 6.55098 7.02226 6.79071
#
# Compressibility (1/GPa) = 0.01985404
#
# Stress axis : x y z
#
# Youngs Moduli (GPa) = 80.28289 51.26533 103.47138
#
# Poissons Ratio (x) = 0.16662 0.41083
# Poissons Ratio (y) = 0.26093 0.37930
# Poissons Ratio (z) = 0.31876 0.18793
#
# Static dielectric constant tensor:
#      x y z
#    x 3.914570 0.000000 0.000000 
#    y 0.000000 3.405710 0.000000 
#    z 0.000000 0.000000 3.841790 
# 
# 
# High freq. dielectric constant tensor:
#      x y z
#    x 1.747540 0.000000 0.000000 
#    y 0.000000 1.727110 0.000000 
#    z 0.000000 0.000000 1.768950 
# 
# From -- ./inp_files/21811.got.cif
#   From: 2010.03.12/outbox.cif.g09.slc.cpg/sg51_11_cif.got.tgz:21811.got - 2010.04.16 13:43:02.
