data_PCOD8207369
_publ_section_title
;
Structure prediction by ZEFSAII (Michael W. Deem and Ramdas Pophale) SiO2 
 PCOD8207369
Probable space group: P M M A
;
_chemical_formula_sum "Si O2"
_cell_formula_units_Z 64
_cell_length_a 8.886662
_cell_length_b 24.978938
_cell_length_c 15.275799
_cell_angle_alpha 90.000000
_cell_angle_beta 90.000000
_cell_angle_gamma 90.000000
_cell_volume 3390.912378
_symmetry_space_group_name_H-M "P M M A"
_symmetry_group_IT_number 51
_symmetry_cell_setting 'orthorhombic'
loop_
_space_group_symop_operation_xyz
x,y,z
1/2-x,-y,z
1/2+x,-y,-z
-x,y,-z
-x,-y,-z
1/2+x,y,-z
1/2-x,y,z
x,-y,z
loop_
_atom_site_type_symbol
_atom_site_label
_atom_site_fract_x
_atom_site_fract_y
_atom_site_fract_z
Si Si1 0.071722 0.825320 0.085806
Si Si2 0.422315 0.438782 0.744262
Si Si3 0.927519 0.149451 0.722726
Si Si4 0.072034 0.637869 0.590432
Si Si5 0.580474 0.256147 0.321143
Si Si6 0.422184 0.284754 0.876613
Si Si7 0.927762 0.939343 0.590630
Si Si8 0.428560 0.396435 0.086773
O O1 0.250000 0.827122 0.078387
O O2 0.015304 0.853455 0.176267
O O3 0.013512 0.764871 0.084831
O O4 0.000000 0.854525 0.000000
O O5 0.250000 0.422855 0.766871
O O6 0.433845 0.500000 0.713387
O O7 0.485801 0.402029 0.665995
O O8 0.523565 0.430770 0.829589
O O9 0.750000 0.150553 0.722517
O O10 0.987952 0.098024 0.669529
O O11 0.979642 0.203267 0.674027
O O12 0.250000 0.633982 0.582906
O O13 0.021683 0.699080 0.610914
O O14 0.000000 0.619088 0.500000
O O15 0.750000 0.238270 0.343081
O O16 0.573322 0.284764 0.227760
O O17 0.250000 0.283203 0.910580
O O18 0.506128 0.336878 0.909392
O O19 0.750000 0.934718 0.580474
O O20 0.000000 0.919655 0.500000
O O21 0.977767 0.000000 0.612314
O O22 0.250000 0.395128 0.079844
O O23 0.500000 0.423756 0.000000
#
# Coordination Sequence:
#
# PCOD8207369 Si02
#       8
#     8   8   8   8   8   8   8   8
#     4  10  19  31  47  73 107 143 182 221 264 312
#     4  10  22  43  65  81 105 140 178 225 273 319
#     4   9  19  33  51  77 108 141 181 221 263 320
#     4  10  21  38  58  84 111 141 177 216 266 323
#     4   9  18  33  53  76 109 144 176 214 262 316
#     4  10  18  33  54  76 106 142 180 218 262 315
#     4   9  18  34  55  78 105 139 179 226 274 319
#     4  12  24  37  57  83 111 141 177 219 267 324
#
# _framework density 18.873975999999999
#
# number of rings (size 3 to 8) (size 9 to 14) (size 15 to 20)
#    0.000    2.125    1.250    2.250    0.000    3.750 
#    0.000    2.500    0.000    0.375    0.000    0.000 
#    0.000    0.000    0.000    0.000    0.000    0.375 
#
# Total GULP energy -793571.643704 kJ/mol
# GULP energy per Si atom -12399.556933 kJ/mol
# Density = 1.883102 g / cm^3
# Si number density = 18.873976 Si / 1000 Ang^3
#
#
#
# Elastic Constant Matrix: (Units=GPa)
#
#
# Indices 1 2 3 4 5 6 
#
# 1 56.0352 24.7282 36.6481 0.0000 0.0000 0.0000
# 2 24.7282 87.9679 64.4070 0.0000 0.0000 0.0000
# 3 36.6481 64.4070 135.8507 0.0000 0.0000 0.0000
# 4 0.0000 0.0000 0.0000 -54.8766 0.0000 0.0000
# 5 0.0000 0.0000 0.0000 0.0000 32.3386 0.0000
# 6 0.0000 0.0000 0.0000 0.0000 0.0000 21.5236
#
#
#
# Elastic Compliance Matrix: (Units=1/GPa)
#
#
# Indices 1 2 3 4 5 6 
#
# 1 0.022120 -0.002832 -0.004625 0.000000 0.000000 0.000000
# 2 -0.002832 0.017774 -0.007663 0.000000 0.000000 0.000000
# 3 -0.004625 -0.007663 0.012242 0.000000 0.000000 0.000000
# 4 0.000000 0.000000 0.000000 -0.018223 0.000000 0.000000
# 5 0.000000 0.000000 0.000000 0.000000 0.030923 0.000000
# 6 0.000000 0.000000 0.000000 0.000000 0.000000 0.046461
#
#
# Mechanical properties :
#
#
# Convention : Reuss Voigt Hill
#
# Bulk Modulus (GPa) = 45.66821 59.04670 52.35746
# Shear Modulus (GPa) = 33.59420 10.06848 21.83134
#
# Velocity S-wave (km/s) = 4.22349 2.31218 3.40470
# Velocity P-wave (km/s) = 6.93056 6.20329 6.57699
#
# Compressibility (1/GPa) = 0.02189707
#
# Stress axis : x y z
#
# Youngs Moduli (GPa) = 45.20728 56.26078 81.68899
#
# Poissons Ratio (x) = 0.15934 0.37778
# Poissons Ratio (y) = 0.12803 0.62597
# Poissons Ratio (z) = 0.20907 0.43112
#
# Static dielectric constant tensor:
#      x y z
#    x 3.377790 0.000000 0.000000 
#    y 0.000000 3.385280 0.000000 
#    z 0.000000 0.000000 3.842650 
# 
# 
# High freq. dielectric constant tensor:
#      x y z
#    x 1.727850 0.000000 0.000000 
#    y 0.000000 1.711260 0.000000 
#    z 0.000000 0.000000 1.743130 
# 
# From -- ./inp_files/22213.got.cif
#   From: 2010.03.12/outbox.cif.g09.slc.cpg/sg51_12_cif.got.tgz:22213.got - 2010.04.16 13:43:02.
