data_PCOD8207093
_publ_section_title
;
Structure prediction by ZEFSAII (Michael W. Deem and Ramdas Pophale) SiO2 
 PCOD8207093
Probable space group: P M M A
;
_chemical_formula_sum "Si O2"
_cell_formula_units_Z 64
_cell_length_a 19.512068
_cell_length_b 8.958452
_cell_length_c 19.960693
_cell_angle_alpha 90.000000
_cell_angle_beta 90.000000
_cell_angle_gamma 90.000000
_cell_volume 3489.087710
_symmetry_space_group_name_H-M "P M M A"
_symmetry_group_IT_number 51
_symmetry_cell_setting 'orthorhombic'
loop_
_space_group_symop_operation_xyz
x,y,z
1/2-x,-y,z
1/2+x,-y,-z
-x,y,-z
-x,-y,-z
1/2+x,y,-z
1/2-x,y,z
x,-y,z
loop_
_atom_site_type_symbol
_atom_site_label
_atom_site_fract_x
_atom_site_fract_y
_atom_site_fract_z
Si Si1 0.886493 0.171594 0.392256
Si Si2 0.578728 0.332206 0.520748
Si Si3 0.828175 0.825837 0.898519
Si Si4 0.443341 0.823408 0.202174
Si Si5 0.409817 0.176381 0.844568
Si Si6 0.328752 0.669467 0.728968
Si Si7 0.456977 0.172044 0.351145
Si Si8 0.171793 0.324046 0.962721
O O1 0.879213 0.233611 0.467610
O O2 0.836088 0.267590 0.345924
O O3 0.962669 0.191201 0.363921
O O4 0.863426 0.000000 0.392057
O O5 0.500000 0.329984 0.500000
O O6 0.607876 0.500000 0.521133
O O7 0.587306 0.262915 0.594631
O O8 0.750000 0.793168 0.877153
O O9 0.876701 0.768987 0.838483
O O10 0.839993 0.000000 0.913430
O O11 0.848783 0.735853 0.964544
O O12 0.511540 0.770584 0.163244
O O13 0.440402 0.759528 0.277822
O O14 0.445888 0.000000 0.208717
O O15 0.369714 0.224075 0.778505
O O16 0.379400 0.253945 0.909651
O O17 0.403174 0.000000 0.853011
O O18 0.250000 0.672682 0.750688
O O19 0.356930 0.500000 0.732671
O O20 0.435205 0.000000 0.357231
O O21 0.250000 0.277984 0.945479
O O22 0.162716 0.500000 0.961617
#
# Coordination Sequence:
#
# PCOD8207093 Si02
#       8
#     8   8   8   8   8   8   8   8
#     4  10  18  31  51  73  98 134 178 219 258 306
#     4   9  17  28  45  72 102 132 169 213 258 305
#     4   9  18  35  59  81 100 131 174 213 255 315
#     4   9  18  33  53  79 109 135 167 218 270 308
#     4  11  21  35  54  77 104 137 176 217 260 310
#     4  11  23  36  50  72 106 144 177 216 267 316
#     4   9  16  30  49  72 102 135 169 210 262 308
#     4  10  21  37  54  74 105 140 173 215 261 305
#
# _framework density 18.342904000000001
#
# number of rings (size 3 to 8) (size 9 to 14) (size 15 to 20)
#    0.000    2.250    1.250    2.250    0.000    5.750 
#    0.000    4.375    0.000    0.750    0.000    1.750 
#    0.000    0.000    0.000    0.000    0.000    0.000 
#
# Total GULP energy -793679.552294 kJ/mol
# GULP energy per Si atom -12401.243005 kJ/mol
# Density = 1.830115 g / cm^3
# Si number density = 18.342904 Si / 1000 Ang^3
#
#
#
# Elastic Constant Matrix: (Units=GPa)
#
#
# Indices 1 2 3 4 5 6 
#
# 1 69.8292 24.1505 60.2587 0.0000 0.0000 0.0000
# 2 24.1505 69.5463 46.3690 0.0000 0.0000 0.0000
# 3 60.2587 46.3690 154.7872 0.0000 0.0000 0.0000
# 4 0.0000 0.0000 0.0000 14.1304 0.0000 0.0000
# 5 0.0000 0.0000 0.0000 0.0000 17.7864 0.0000
# 6 0.0000 0.0000 0.0000 0.0000 0.0000 18.0327
#
#
#
# Elastic Compliance Matrix: (Units=1/GPa)
#
#
# Indices 1 2 3 4 5 6 
#
# 1 0.021881 -0.002398 -0.007800 0.000000 0.000000 0.000000
# 2 -0.002398 0.018230 -0.004528 0.000000 0.000000 0.000000
# 3 -0.007800 -0.004528 0.010853 0.000000 0.000000 0.000000
# 4 0.000000 0.000000 0.000000 0.070769 0.000000 0.000000
# 5 0.000000 0.000000 0.000000 0.000000 0.056223 0.000000
# 6 0.000000 0.000000 0.000000 0.000000 0.000000 0.055455
#
#
# Mechanical properties :
#
#
# Convention : Reuss Voigt Hill
#
# Bulk Modulus (GPa) = 46.48216 61.74655 54.11436
# Shear Modulus (GPa) = 18.51622 20.88221 19.69922
#
# Velocity S-wave (km/s) = 3.18063 3.37773 3.28066
# Velocity P-wave (km/s) = 6.23572 6.99625 6.62691
#
# Compressibility (1/GPa) = 0.02151363
#
# Stress axis : x y z
#
# Youngs Moduli (GPa) = 45.70215 54.85357 92.13762
#
# Poissons Ratio (x) = 0.13153 0.71866
# Poissons Ratio (y) = 0.10959 0.41717
# Poissons Ratio (z) = 0.35647 0.24836
#
# Static dielectric constant tensor:
#      x y z
#    x 3.206630 0.000000 0.000000 
#    y 0.000000 3.367690 0.000000 
#    z 0.000000 0.000000 3.582650 
# 
# 
# High freq. dielectric constant tensor:
#      x y z
#    x 1.680290 0.000000 0.000000 
#    y 0.000000 1.708210 0.000000 
#    z 0.000000 0.000000 1.720830 
# 
# From -- ./inp_files/30516.got.cif
#   From: 2010.03.12/outbox.cif.g09.slc.cpg/sg51_16_cif.got.tgz:30516.got - 2010.04.16 13:43:02.
