data_PCOD8207101
_publ_section_title
;
Structure prediction by ZEFSAII (Michael W. Deem and Ramdas Pophale) SiO2 
 PCOD8207101
Probable space group: P M M A
;
_chemical_formula_sum "Si O2"
_cell_formula_units_Z 64
_cell_length_a 18.737968
_cell_length_b 9.581261
_cell_length_c 19.803305
_cell_angle_alpha 90.000000
_cell_angle_beta 90.000000
_cell_angle_gamma 90.000000
_cell_volume 3555.353926
_symmetry_space_group_name_H-M "P M M A"
_symmetry_group_IT_number 51
_symmetry_cell_setting 'orthorhombic'
loop_
_space_group_symop_operation_xyz
x,y,z
1/2-x,-y,z
1/2+x,-y,-z
-x,y,-z
-x,-y,-z
1/2+x,y,-z
1/2-x,y,z
x,-y,z
loop_
_atom_site_type_symbol
_atom_site_label
_atom_site_fract_x
_atom_site_fract_y
_atom_site_fract_z
Si Si1 0.421464 0.836699 0.844240
Si Si2 0.169268 0.666008 0.456983
Si Si3 0.102893 0.664961 0.598169
Si Si4 0.830898 0.340690 0.899968
Si Si5 0.832296 0.837822 0.025490
Si Si6 0.832106 0.157762 0.286193
Si Si7 0.451310 0.338114 0.202605
Si Si8 0.948043 0.334696 0.644815
O O1 0.378000 0.791148 0.910236
O O2 0.375770 0.795596 0.779101
O O3 0.493512 0.748378 0.842343
O O4 0.439869 0.000000 0.845800
O O5 0.250000 0.726338 0.451487
O O6 0.171868 0.500000 0.455037
O O7 0.131634 0.715426 0.525896
O O8 0.120654 0.724793 0.395597
O O9 0.111190 0.500000 0.607603
O O10 0.151716 0.737930 0.653439
O O11 0.020529 0.711564 0.606845
O O12 0.750000 0.299015 0.882317
O O13 0.836979 0.500000 0.924362
O O14 0.874549 0.316381 0.831406
O O15 0.860758 0.246112 0.960673
O O16 0.750000 0.801459 0.040743
O O17 0.842480 0.000000 0.009621
O O18 0.750000 0.168891 0.265978
O O19 0.851955 0.000000 0.308005
O O20 0.474560 0.500000 0.203328
O O21 0.447644 0.276964 0.278713
O O22 0.942564 0.500000 0.646277
#
# Coordination Sequence:
#
# PCOD8207101 Si02
#       8
#     8   8   8   8   8   8   8   8
#     4  10  20  34  52  74 102 133 167 207 249 296
#     4   9  17  28  46  75 104 130 167 213 255 294
#     4  10  18  31  51  75 102 131 165 207 252 299
#     4   9  19  35  53  74 101 132 167 209 255 299
#     4   9  18  34  55  76  99 131 171 210 249 297
#     4  10  20  33  50  73 102 135 167 200 244 296
#     4  10  20  34  52  75 102 134 170 207 250 300
#     4   9  17  30  48  70 100 136 168 204 251 299
#
# _framework density 18.001021999999999
#
# number of rings (size 3 to 8) (size 9 to 14) (size 15 to 20)
#    0.000    2.500    1.250    1.125    0.000    5.750 
#    0.000    5.000    0.000    4.500    0.000    0.000 
#    0.000    0.000    0.000    0.000    0.000    0.000 
#
# Total GULP energy -793634.137416 kJ/mol
# GULP energy per Si atom -12400.533397 kJ/mol
# Density = 1.796005 g / cm^3
# Si number density = 18.001022 Si / 1000 Ang^3
#
#
#
# Elastic Constant Matrix: (Units=GPa)
#
#
# Indices 1 2 3 4 5 6 
#
# 1 105.5312 28.0277 58.1479 0.0000 0.0000 0.0000
# 2 28.0277 31.1695 30.6899 0.0000 0.0000 0.0000
# 3 58.1479 30.6899 108.0257 0.0000 0.0000 0.0000
# 4 0.0000 0.0000 0.0000 18.4634 0.0000 0.0000
# 5 0.0000 0.0000 0.0000 0.0000 36.0333 0.0000
# 6 0.0000 0.0000 0.0000 0.0000 0.0000 22.2540
#
#
#
# Elastic Compliance Matrix: (Units=1/GPa)
#
#
# Indices 1 2 3 4 5 6 
#
# 1 0.014634 -0.007501 -0.005746 0.000000 0.000000 0.000000
# 2 -0.007501 0.048388 -0.009709 0.000000 0.000000 0.000000
# 3 -0.005746 -0.009709 0.015108 0.000000 0.000000 0.000000
# 4 0.000000 0.000000 0.000000 0.054161 0.000000 0.000000
# 5 0.000000 0.000000 0.000000 0.000000 0.027752 0.000000
# 6 0.000000 0.000000 0.000000 0.000000 0.000000 0.044936
#
#
# Mechanical properties :
#
#
# Convention : Reuss Voigt Hill
#
# Bulk Modulus (GPa) = 31.03941 53.16193 42.10067
# Shear Modulus (GPa) = 19.11084 23.87419 21.49252
#
# Velocity S-wave (km/s) = 3.26184 3.64575 3.45912
# Velocity P-wave (km/s) = 5.60952 6.87887 6.27636
#
# Compressibility (1/GPa) = 0.03221711
#
# Stress axis : x y z
#
# Youngs Moduli (GPa) = 68.33256 20.66646 66.18835
#
# Poissons Ratio (x) = 0.15503 0.38033
# Poissons Ratio (y) = 0.51259 0.64262
# Poissons Ratio (z) = 0.39265 0.20065
#
# Static dielectric constant tensor:
#      x y z
#    x 3.456030 0.000000 0.000000 
#    y 0.000000 3.050830 0.000000 
#    z 0.000000 0.000000 3.455280 
# 
# 
# High freq. dielectric constant tensor:
#      x y z
#    x 1.704160 0.000000 0.000000 
#    y 0.000000 1.661870 0.000000 
#    z 0.000000 0.000000 1.702900 
# 
# From -- ./inp_files/30593.got.cif
#   From: 2010.03.12/outbox.cif.g09.slc.cpg/sg51_16_cif.got.tgz:30593.got - 2010.04.16 13:43:02.
