data_PCOD8207860
_publ_section_title
;
Structure prediction by ZEFSAII (Michael W. Deem and Ramdas Pophale) SiO2 
 PCOD8207860
Probable space group: P M M A
;
_chemical_formula_sum "Si O2"
_cell_formula_units_Z 64
_cell_length_a 9.482519
_cell_length_b 23.387601
_cell_length_c 17.480088
_cell_angle_alpha 90.000000
_cell_angle_beta 90.000000
_cell_angle_gamma 90.000000
_cell_volume 3876.618038
_symmetry_space_group_name_H-M "P M M A"
_symmetry_group_IT_number 51
_symmetry_cell_setting 'orthorhombic'
loop_
_space_group_symop_operation_xyz
x,y,z
1/2-x,-y,z
1/2+x,-y,-z
-x,y,-z
-x,-y,-z
1/2+x,y,-z
1/2-x,y,z
x,-y,z
loop_
_atom_site_type_symbol
_atom_site_label
_atom_site_fract_x
_atom_site_fract_y
_atom_site_fract_z
Si Si1 0.918266 0.562534 0.735317
Si Si2 0.087149 0.935351 0.711215
Si Si3 0.916298 0.151727 0.423958
Si Si4 0.405076 0.140504 0.191874
Si Si5 0.082581 0.319835 0.207790
Si Si6 0.095562 0.433180 0.434097
Si Si7 0.407404 0.769002 0.326906
Si Si8 0.582782 0.236129 0.921940
O O1 0.750000 0.560580 0.731693
O O2 0.974079 0.500000 0.763863
O O3 0.970178 0.613919 0.790830
O O4 0.973739 0.575684 0.649619
O O5 0.250000 0.932480 0.732136
O O6 0.054340 0.899505 0.635114
O O7 0.009236 0.910870 0.786334
O O8 0.036549 0.000000 0.695955
O O9 0.750000 0.160006 0.439868
O O10 0.000000 0.134295 0.500000
O O11 0.982079 0.210899 0.391562
O O12 0.250000 0.114332 0.177297
O O13 0.397436 0.184467 0.260942
O O14 0.455757 0.175147 0.116696
O O15 0.250000 0.315887 0.205875
O O16 0.034490 0.288941 0.286880
O O17 0.025957 0.287743 0.132363
O O18 0.250000 0.404039 0.437857
O O19 0.111637 0.500000 0.450833
O O20 0.000000 0.404240 0.500000
O O21 0.250000 0.760681 0.362689
O O22 0.750000 0.240919 0.935965
O O23 0.500000 0.241894 0.000000
#
# Coordination Sequence:
#
# PCOD8207860 Si02
#       8
#     8   8   8   8   8   8   8   8
#     4   8  13  22  39  63  87 113 148 184 215 253
#     4   9  18  31  46  66  91 118 149 184 220 257
#     4  10  19  30  44  62  87 118 151 187 224 261
#     4   8  15  28  45  65  87 112 144 179 214 256
#     4   8  14  26  44  64  87 114 143 178 218 262
#     4   8  13  21  34  52  73  98 130 168 206 241
#     4   8  14  27  45  61  80 109 144 182 224 263
#     4   9  17  29  47  71  94 114 140 176 219 264
#
# _framework density 16.509236000000001
#
# number of rings (size 3 to 8) (size 9 to 14) (size 15 to 20)
#    0.000    3.500    0.000    2.625    0.000    1.500 
#    0.000    2.500    0.000    3.750    0.000    0.000 
#    0.000    0.000    0.000    0.000    0.000    0.000 
#
# Total GULP energy -792928.299191 kJ/mol
# GULP energy per Si atom -12389.504675 kJ/mol
# Density = 1.647166 g / cm^3
# Si number density = 16.509236 Si / 1000 Ang^3
#
#
#
# Elastic Constant Matrix: (Units=GPa)
#
#
# Indices 1 2 3 4 5 6 
#
# 1 57.2583 39.3048 43.4885 0.0000 0.0000 0.0000
# 2 39.3048 104.4307 56.2353 0.0000 0.0000 0.0000
# 3 43.4885 56.2353 92.9001 0.0000 0.0000 0.0000
# 4 0.0000 0.0000 0.0000 17.6209 0.0000 0.0000
# 5 0.0000 0.0000 0.0000 0.0000 27.6972 0.0000
# 6 0.0000 0.0000 0.0000 0.0000 0.0000 12.0479
#
#
#
# Elastic Compliance Matrix: (Units=1/GPa)
#
#
# Indices 1 2 3 4 5 6 
#
# 1 0.028980 -0.005344 -0.010331 0.000000 0.000000 0.000000
# 2 -0.005344 0.015192 -0.006695 0.000000 0.000000 0.000000
# 3 -0.010331 -0.006695 0.019653 0.000000 0.000000 0.000000
# 4 0.000000 0.000000 0.000000 0.056751 0.000000 0.000000
# 5 0.000000 0.000000 0.000000 0.000000 0.036105 0.000000
# 6 0.000000 0.000000 0.000000 0.000000 0.000000 0.083002
#
#
# Mechanical properties :
#
#
# Convention : Reuss Voigt Hill
#
# Bulk Modulus (GPa) = 52.39635 59.18293 55.78964
# Shear Modulus (GPa) = 17.19492 19.17724 18.18608
#
# Velocity S-wave (km/s) = 3.23078 3.41193 3.32259
# Velocity P-wave (km/s) = 6.76193 7.17272 6.97035
#
# Compressibility (1/GPa) = 0.01908530
#
# Stress axis : x y z
#
# Youngs Moduli (GPa) = 34.50693 65.82407 50.88291
#
# Poissons Ratio (x) = 0.35175 0.52568
# Poissons Ratio (y) = 0.18440 0.34064
# Poissons Ratio (z) = 0.35650 0.44067
#
# Static dielectric constant tensor:
#      x y z
#    x 3.082850 0.000000 0.000000 
#    y 0.000000 3.301480 0.000000 
#    z 0.000000 0.000000 2.987190 
# 
# 
# High freq. dielectric constant tensor:
#      x y z
#    x 1.609920 0.000000 0.000000 
#    y 0.000000 1.623020 0.000000 
#    z 0.000000 0.000000 1.613290 
# 
# From -- ./inp_files/28590.got.cif
#   From: 2010.03.12/outbox.cif.g09.slc.cpg/sg51_15_cif.got.tgz:28590.got - 2010.04.16 13:43:02.
