data_PCOD8207247
_publ_section_title
;
Structure prediction by ZEFSAII (Michael W. Deem and Ramdas Pophale) SiO2 
 PCOD8207247
Probable space group: P M M A
;
_chemical_formula_sum "Si O2"
_cell_formula_units_Z 64
_cell_length_a 8.965551
_cell_length_b 24.558217
_cell_length_c 15.175859
_cell_angle_alpha 90.000000
_cell_angle_beta 90.000000
_cell_angle_gamma 90.000000
_cell_volume 3341.389478
_symmetry_space_group_name_H-M "P M M A"
_symmetry_group_IT_number 51
_symmetry_cell_setting 'orthorhombic'
loop_
_space_group_symop_operation_xyz
x,y,z
1/2-x,-y,z
1/2+x,-y,-z
-x,y,-z
-x,-y,-z
1/2+x,y,-z
1/2-x,y,z
x,-y,z
loop_
_atom_site_type_symbol
_atom_site_label
_atom_site_fract_x
_atom_site_fract_y
_atom_site_fract_z
Si Si1 0.578114 0.562196 0.773625
Si Si2 0.574869 0.395311 0.585094
Si Si3 0.925240 0.360145 0.090046
Si Si4 0.418223 0.251590 0.821450
Si Si5 0.924573 0.143256 0.780622
Si Si6 0.920379 0.283135 0.375969
Si Si7 0.925836 0.828194 0.584944
Si Si8 0.923990 0.063284 0.089750
O O1 0.750000 0.578184 0.789201
O O2 0.547236 0.500000 0.800316
O O3 0.535515 0.569780 0.671321
O O4 0.477037 0.600946 0.831927
O O5 0.500000 0.424375 0.500000
O O6 0.750000 0.390764 0.570462
O O7 0.506496 0.335441 0.590947
O O8 0.750000 0.366498 0.081214
O O9 0.969018 0.297040 0.108059
O O10 0.000000 0.379554 0.000000
O O11 0.250000 0.230706 0.839832
O O12 0.527945 0.200195 0.825370
O O13 0.426105 0.282385 0.729075
O O14 0.750000 0.135859 0.795621
O O15 0.966440 0.141695 0.676731
O O16 0.010207 0.093851 0.825953
O O17 0.750000 0.283324 0.409927
O O18 0.005672 0.231673 0.414919
O O19 0.750000 0.825193 0.572392
O O20 0.000000 0.858899 0.500000
O O21 0.750000 0.075356 0.082182
O O22 0.959074 0.000000 0.104067
O O23 0.000000 0.084612 0.000000
#
# Coordination Sequence:
#
# PCOD8207247 Si02
#       8
#     8   8   8   8   8   8   8   8
#     4  10  23  43  63  82 107 141 182 231 282 333
#     4  11  22  35  55  81 110 142 179 224 275 334
#     4  11  23  40  62  88 113 144 183 226 280 338
#     4   9  19  35  55  80 114 150 185 226 275 332
#     4  10  21  35  56  86 119 155 194 236 284 336
#     4  10  18  32  53  77 108 145 185 227 272 326
#     4  10  20  33  50  78 114 154 195 234 280 329
#     4  10  21  38  61  87 116 152 194 240 289 338
#
# _framework density 19.153707000000001
#
# number of rings (size 3 to 8) (size 9 to 14) (size 15 to 20)
#    0.000    1.875    1.250    2.625    0.000    5.500 
#    0.000    1.250    0.000    0.375    0.000    0.000 
#    0.000    0.000    0.000    0.000    0.000    0.000 
#
# Total GULP energy -793687.298150 kJ/mol
# GULP energy per Si atom -12401.364034 kJ/mol
# Density = 1.911011 g / cm^3
# Si number density = 19.153707 Si / 1000 Ang^3
#
#
#
# Elastic Constant Matrix: (Units=GPa)
#
#
# Indices 1 2 3 4 5 6 
#
# 1 112.5221 49.5296 66.0059 0.0000 0.0000 0.0000
# 2 49.5296 67.9092 48.4485 0.0000 0.0000 0.0000
# 3 66.0059 48.4485 108.3268 0.0000 0.0000 0.0000
# 4 0.0000 0.0000 0.0000 8.2125 0.0000 0.0000
# 5 0.0000 0.0000 0.0000 0.0000 36.1706 0.0000
# 6 0.0000 0.0000 0.0000 0.0000 0.0000 26.6750
#
#
#
# Elastic Compliance Matrix: (Units=1/GPa)
#
#
# Indices 1 2 3 4 5 6 
#
# 1 0.015712 -0.006799 -0.006533 0.000000 0.000000 0.000000
# 2 -0.006799 0.024568 -0.006845 0.000000 0.000000 0.000000
# 3 -0.006533 -0.006845 0.016273 0.000000 0.000000 0.000000
# 4 0.000000 0.000000 0.000000 0.121765 0.000000 0.000000
# 5 0.000000 0.000000 0.000000 0.000000 0.027647 0.000000
# 6 0.000000 0.000000 0.000000 0.000000 0.000000 0.037488
#
#
# Mechanical properties :
#
#
# Convention : Reuss Voigt Hill
#
# Bulk Modulus (GPa) = 61.73035 68.52513 65.12774
# Shear Modulus (GPa) = 17.28863 22.52990 19.90926
#
# Velocity S-wave (km/s) = 3.00763 3.43340 3.22754
# Velocity P-wave (km/s) = 6.66033 7.18135 6.92574
#
# Compressibility (1/GPa) = 0.01619949
#
# Stress axis : x y z
#
# Youngs Moduli (GPa) = 63.64527 40.70366 61.44969
#
# Poissons Ratio (x) = 0.27674 0.40145
# Poissons Ratio (y) = 0.43271 0.42063
# Poissons Ratio (z) = 0.41579 0.27862
#
# Static dielectric constant tensor:
#      x y z
#    x 3.582700 0.000000 0.000000 
#    y 0.000000 3.238930 0.000000 
#    z 0.000000 0.000000 3.790470 
# 
# 
# High freq. dielectric constant tensor:
#      x y z
#    x 1.755950 0.000000 0.000000 
#    y 0.000000 1.718530 0.000000 
#    z 0.000000 0.000000 1.757030 
# 
# From -- ./inp_files/22280.got.cif
#   From: 2010.03.12/outbox.cif.g09.slc.cpg/sg51_12_cif.got.tgz:22280.got - 2010.04.16 13:43:02.
