data_PCOD8207191
_publ_section_title
;
Structure prediction by ZEFSAII (Michael W. Deem and Ramdas Pophale) SiO2 
 PCOD8207191
Probable space group: P M M A
;
_chemical_formula_sum "Si O2"
_cell_formula_units_Z 52
_cell_length_a 8.694579
_cell_length_b 23.262175
_cell_length_c 14.283140
_cell_angle_alpha 90.000000
_cell_angle_beta 90.000000
_cell_angle_gamma 90.000000
_cell_volume 2888.833885
_symmetry_space_group_name_H-M "P M M A"
_symmetry_group_IT_number 51
_symmetry_cell_setting 'orthorhombic'
loop_
_space_group_symop_operation_xyz
x,y,z
1/2-x,-y,z
1/2+x,-y,-z
-x,y,-z
-x,-y,-z
1/2+x,y,-z
1/2-x,y,z
x,-y,z
loop_
_atom_site_type_symbol
_atom_site_label
_atom_site_fract_x
_atom_site_fract_y
_atom_site_fract_z
Si Si1 0.067844 0.435784 0.900574
Si Si2 0.932168 0.150898 0.597426
Si Si3 0.067476 0.276218 0.596388
Si Si4 0.931795 0.779936 0.101516
Si Si5 0.431683 0.110056 0.780395
Si Si6 0.932257 0.670907 0.213554
Si Si7 0.431437 0.000000 0.897100
O O1 0.250000 0.433348 0.908824
O O2 0.012380 0.500000 0.872444
O O3 0.006307 0.390788 0.822827
O O4 0.000000 0.417233 0.000000
O O5 0.750000 0.154592 0.589965
O O6 0.000000 0.126780 0.500000
O O7 0.999993 0.213795 0.618269
O O8 0.983262 0.108326 0.680352
O O9 0.250000 0.270375 0.589277
O O10 0.015911 0.319375 0.679221
O O11 0.000000 0.301622 0.500000
O O12 0.750000 0.777946 0.093190
O O13 0.984538 0.833045 0.165079
O O14 0.998082 0.721664 0.147868
O O15 0.000000 0.788412 0.000000
O O16 0.250000 0.108681 0.762820
O O17 0.488163 0.055758 0.840509
O O18 0.750000 0.672919 0.207858
O O19 0.250000 0.000000 0.907853
O O20 0.500000 0.000000 0.000000
#
# Coordination Sequence:
#
# PCOD8207191 Si02
#       7
#     8   8   8   8   8   8   4
#     4   9  17  30  48  70  97 132 172 207 245 295
#     4  11  21  34  55  81 106 134 168 209 257 311
#     4  10  18  32  51  73 103 134 166 206 254 307
#     4  10  19  31  47  69 100 131 162 204 253 297
#     4  10  20  37  55  75 104 139 171 210 254 300
#     4   9  17  30  48  70  99 133 163 203 254 301
#     4  10  22  38  59  80 105 140 179 214 254 302
#
# _framework density 18.000343999999998
#
# number of rings (size 3 to 8) (size 9 to 14) (size 15 to 20)
#    0.000    2.154    1.538    3.692    0.000    1.231 
#    0.000    1.923    0.000    0.462    0.000    0.000 
#    0.000    0.000    0.000    0.000    0.000    0.615 
#
# Total GULP energy -644776.879625 kJ/mol
# GULP energy per Si atom -12399.555377 kJ/mol
# Density = 1.795937 g / cm^3
# Si number density = 18.000344 Si / 1000 Ang^3
#
#
#
# Elastic Constant Matrix: (Units=GPa)
#
#
# Indices 1 2 3 4 5 6 
#
# 1 54.3568 27.1688 43.2463 0.0000 0.0000 0.0000
# 2 27.1688 115.8816 79.0496 0.0000 0.0000 0.0000
# 3 43.2463 79.0496 174.3045 0.0000 0.0000 0.0000
# 4 0.0000 0.0000 0.0000 34.1951 0.0000 0.0000
# 5 0.0000 0.0000 0.0000 0.0000 33.1066 0.0000
# 6 0.0000 0.0000 0.0000 0.0000 0.0000 12.0665
#
#
#
# Elastic Compliance Matrix: (Units=1/GPa)
#
#
# Indices 1 2 3 4 5 6 
#
# 1 0.023303 -0.002200 -0.004784 0.000000 0.000000 0.000000
# 2 -0.002200 0.012703 -0.005215 0.000000 0.000000 0.000000
# 3 -0.004784 -0.005215 0.009289 0.000000 0.000000 0.000000
# 4 0.000000 0.000000 0.000000 0.029244 0.000000 0.000000
# 5 0.000000 0.000000 0.000000 0.000000 0.030205 0.000000
# 6 0.000000 0.000000 0.000000 0.000000 0.000000 0.082874
#
#
# Mechanical properties :
#
#
# Convention : Reuss Voigt Hill
#
# Bulk Modulus (GPa) = 47.85449 71.49690 59.67570
# Shear Modulus (GPa) = 22.83296 28.87883 25.85590
#
# Velocity S-wave (km/s) = 3.56543 4.00978 3.79411
# Velocity P-wave (km/s) = 6.60248 7.82584 7.24004
#
# Compressibility (1/GPa) = 0.02089668
#
# Stress axis : x y z
#
# Youngs Moduli (GPa) = 42.91363 78.72282 107.65327
#
# Poissons Ratio (x) = 0.17319 0.51499
# Poissons Ratio (y) = 0.09441 0.56142
# Poissons Ratio (z) = 0.20529 0.41054
#
# Static dielectric constant tensor:
#      x y z
#    x 2.956100 0.000000 0.000000 
#    y 0.000000 3.495900 0.000000 
#    z 0.000000 0.000000 3.586460 
# 
# 
# High freq. dielectric constant tensor:
#      x y z
#    x 1.681590 0.000000 0.000000 
#    y 0.000000 1.682050 0.000000 
#    z 0.000000 0.000000 1.707860 
# 
# From -- ./inp_files/22064.got.cif
#   From: 2010.03.12/outbox.cif.g09.slc.cpg/sg51_12_cif.got.tgz:22064.got - 2010.04.16 13:43:02.
