data_PCOD8207517
_publ_section_title
;
Structure prediction by ZEFSAII (Michael W. Deem and Ramdas Pophale) SiO2 
 PCOD8207517
Probable space group: P M M A
;
_chemical_formula_sum "Si O2"
_cell_formula_units_Z 56
_cell_length_a 14.863780
_cell_length_b 8.947673
_cell_length_c 22.153870
_cell_angle_alpha 90.000000
_cell_angle_beta 90.000000
_cell_angle_gamma 90.000000
_cell_volume 2946.381478
_symmetry_space_group_name_H-M "P M M A"
_symmetry_group_IT_number 51
_symmetry_cell_setting 'orthorhombic'
loop_
_space_group_symop_operation_xyz
x,y,z
1/2-x,-y,z
1/2+x,-y,-z
-x,y,-z
-x,-y,-z
1/2+x,y,-z
1/2-x,y,z
x,-y,z
loop_
_atom_site_type_symbol
_atom_site_label
_atom_site_fract_x
_atom_site_fract_y
_atom_site_fract_z
Si Si1 0.565551 0.676374 0.444968
Si Si2 0.849385 0.327491 0.129411
Si Si3 0.149762 0.167595 0.123345
Si Si4 0.487418 0.323811 0.205764
Si Si5 0.100622 0.826042 0.991529
Si Si6 0.750000 0.178414 0.480667
Si Si7 0.939900 0.322821 0.663584
Si Si8 0.250000 0.322225 0.388757
O O1 0.500000 0.719100 0.500000
O O2 0.585938 0.500000 0.444974
O O3 0.660232 0.762642 0.447377
O O4 0.513370 0.730594 0.385055
O O5 0.750000 0.303785 0.156794
O O6 0.872393 0.500000 0.119571
O O7 0.852490 0.253571 0.064100
O O8 0.920094 0.258502 0.177412
O O9 0.250000 0.174087 0.149477
O O10 0.092456 0.284940 0.160534
O O11 0.109141 0.000000 0.130231
O O12 0.153389 0.211450 0.052876
O O13 0.493213 0.500000 0.212775
O O14 0.468521 0.253365 0.271725
O O15 0.101503 0.000000 0.976220
O O16 0.000000 0.765485 0.000000
O O17 0.750000 0.239166 0.548062
O O18 0.750000 0.000000 0.480012
O O19 0.939216 0.500000 0.665798
O O20 0.838827 0.269448 0.647375
O O21 0.250000 0.500000 0.400747
#
# Coordination Sequence:
#
# PCOD8207517 Si02
#       8
#     8   8   8   8   8   4   8   4
#     4  10  19  37  63  86 110 147 196 238 273 320
#     4  10  21  36  54  78 110 144 180 227 283 336
#     4  10  21  36  53  77 109 142 178 223 274 330
#     4  10  21  37  56  81 111 143 181 226 278 329
#     4  10  19  34  57  79 102 137 184 231 274 322
#     4  12  24  36  56  90 126 152 179 226 293 344
#     4   9  19  35  59  87 112 144 189 236 272 317
#     4  10  18  36  62  86 114 148 191 230 265 326
#
# _framework density 19.006364000000001
#
# number of rings (size 3 to 8) (size 9 to 14) (size 15 to 20)
#    0.000    2.000    2.857    1.071    1.000    2.286 
#    1.286    1.429    0.000    0.000    0.000    0.000 
#    0.000    0.000    0.000    0.000    0.000    0.000 
#
# Total GULP energy -694320.271071 kJ/mol
# GULP energy per Si atom -12398.576269 kJ/mol
# Density = 1.896310 g / cm^3
# Si number density = 19.006364 Si / 1000 Ang^3
#
#
#
# Elastic Constant Matrix: (Units=GPa)
#
#
# Indices 1 2 3 4 5 6 
#
# 1 149.6922 32.4264 74.1104 0.0000 0.0000 0.0000
# 2 32.4264 32.4909 24.4648 0.0000 0.0000 0.0000
# 3 74.1104 24.4648 137.0081 0.0000 0.0000 0.0000
# 4 0.0000 0.0000 0.0000 7.0707 0.0000 0.0000
# 5 0.0000 0.0000 0.0000 0.0000 11.5271 0.0000
# 6 0.0000 0.0000 0.0000 0.0000 0.0000 16.5002
#
#
#
# Elastic Compliance Matrix: (Units=1/GPa)
#
#
# Indices 1 2 3 4 5 6 
#
# 1 0.010362 -0.007072 -0.004342 0.000000 0.000000 0.000000
# 2 -0.007072 0.040385 -0.003386 0.000000 0.000000 0.000000
# 3 -0.004342 -0.003386 0.010252 0.000000 0.000000 0.000000
# 4 0.000000 0.000000 0.000000 0.141429 0.000000 0.000000
# 5 0.000000 0.000000 0.000000 0.000000 0.086752 0.000000
# 6 0.000000 0.000000 0.000000 0.000000 0.000000 0.060605
#
#
# Mechanical properties :
#
#
# Convention : Reuss Voigt Hill
#
# Bulk Modulus (GPa) = 31.84785 64.57714 48.21250
# Shear Modulus (GPa) = 12.82535 19.56557 16.19546
#
# Velocity S-wave (km/s) = 2.60049 3.21194 2.92225
# Velocity P-wave (km/s) = 5.08031 6.91417 6.06693
#
# Compressibility (1/GPa) = 0.03139929
#
# Stress axis : x y z
#
# Youngs Moduli (GPa) = 96.50559 24.76143 97.53926
#
# Poissons Ratio (x) = 0.17511 0.42354
# Poissons Ratio (y) = 0.68248 0.33027
# Poissons Ratio (z) = 0.41905 0.08384
#
# Static dielectric constant tensor:
#      x y z
#    x 3.766020 0.000000 0.000000 
#    y 0.000000 3.159890 0.000000 
#    z 0.000000 0.000000 3.647870 
# 
# 
# High freq. dielectric constant tensor:
#      x y z
#    x 1.754810 0.000000 0.000000 
#    y 0.000000 1.705410 0.000000 
#    z 0.000000 0.000000 1.735890 
# 
# From -- ./inp_files/33527.got.cif
#   From: 2010.03.12/outbox.cif.g09.slc.cpg/sg51_17_cif.got.tgz:33527.got - 2010.04.16 13:43:02.
