data_PCOD8207416
_publ_section_title
;
Structure prediction by ZEFSAII (Michael W. Deem and Ramdas Pophale) SiO2 
 PCOD8207416
Probable space group: P M M A
;
_chemical_formula_sum "Si O2"
_cell_formula_units_Z 56
_cell_length_a 21.845338
_cell_length_b 9.008106
_cell_length_c 14.718007
_cell_angle_alpha 90.000000
_cell_angle_beta 90.000000
_cell_angle_gamma 90.000000
_cell_volume 2896.284778
_symmetry_space_group_name_H-M "P M M A"
_symmetry_group_IT_number 51
_symmetry_cell_setting 'orthorhombic'
loop_
_space_group_symop_operation_xyz
x,y,z
1/2-x,-y,z
1/2+x,-y,-z
-x,y,-z
-x,-y,-z
1/2+x,y,-z
1/2-x,y,z
x,-y,z
loop_
_atom_site_type_symbol
_atom_site_label
_atom_site_fract_x
_atom_site_fract_y
_atom_site_fract_z
Si Si1 0.042424 0.174933 0.297465
Si Si2 0.089806 0.823386 0.760220
Si Si3 0.250000 0.336014 0.373062
Si Si4 0.870774 0.167059 0.860569
Si Si5 0.178073 0.324330 0.628153
Si Si6 0.250000 0.340687 0.163590
Si Si7 0.059604 0.832221 0.958170
Si Si8 0.634956 0.823596 0.549589
O O1 0.080400 0.238868 0.210467
O O2 0.073709 0.220709 0.393586
O O3 0.971941 0.228664 0.293343
O O4 0.042346 0.000000 0.287059
O O5 0.149583 0.742156 0.720127
O O6 0.083990 0.763462 0.863959
O O7 0.100210 0.000000 0.753905
O O8 0.250000 0.500000 0.423928
O O9 0.250000 0.369804 0.269117
O O10 0.191692 0.237181 0.394279
O O11 0.809082 0.254574 0.865288
O O12 0.857458 0.000000 0.828020
O O13 0.889794 0.171815 0.965031
O O14 0.250000 0.279356 0.618258
O O15 0.170646 0.500000 0.627846
O O16 0.136662 0.254059 0.548198
O O17 0.250000 0.500000 0.113776
O O18 0.039343 0.000000 0.932186
O O19 0.000000 0.748945 0.000000
O O20 0.639690 0.000000 0.536934
#
# Coordination Sequence:
#
# PCOD8207416 Si02
#       8
#     8   8   4   8   8   4   8   8
#     4   9  18  32  57  92 122 146 179 234 293 344
#     4  10  20  38  63  90 117 146 189 241 292 347
#     4  11  21  33  51  80 117 154 191 233 280 334
#     4  10  18  33  57  85 117 152 192 237 289 345
#     4  11  25  44  61  79 112 158 201 242 287 335
#     4  11  23  35  49  78 121 162 195 233 286 342
#     4   9  16  31  61  92 114 142 185 240 296 344
#     4  11  21  35  60  89 114 148 193 234 282 344
#
# _framework density 19.335115999999999
#
# number of rings (size 3 to 8) (size 9 to 14) (size 15 to 20)
#    0.000    1.857    3.571    1.286    0.000    2.000 
#    1.286    5.714    0.000    0.857    0.000    0.000 
#    0.000    0.000    0.000    0.000    0.000    0.000 
#
# Total GULP energy -694027.834372 kJ/mol
# GULP energy per Si atom -12393.354185 kJ/mol
# Density = 1.929111 g / cm^3
# Si number density = 19.335116 Si / 1000 Ang^3
#
#
#
# Elastic Constant Matrix: (Units=GPa)
#
#
# Indices 1 2 3 4 5 6 
#
# 1 90.3913 37.7517 43.1552 0.0000 0.0000 0.0000
# 2 37.7517 67.5277 34.7593 0.0000 0.0000 0.0000
# 3 43.1552 34.7593 124.0651 0.0000 0.0000 0.0000
# 4 0.0000 0.0000 0.0000 12.7594 0.0000 0.0000
# 5 0.0000 0.0000 0.0000 0.0000 2.0630 0.0000
# 6 0.0000 0.0000 0.0000 0.0000 0.0000 -12.7554
#
#
#
# Elastic Compliance Matrix: (Units=1/GPa)
#
#
# Indices 1 2 3 4 5 6 
#
# 1 0.015629 -0.006940 -0.003492 0.000000 0.000000 0.000000
# 2 -0.006940 0.020386 -0.003298 0.000000 0.000000 0.000000
# 3 -0.003492 -0.003298 0.010199 0.000000 0.000000 0.000000
# 4 0.000000 0.000000 0.000000 0.078373 0.000000 0.000000
# 5 0.000000 0.000000 0.000000 0.000000 0.484729 0.000000
# 6 0.000000 0.000000 0.000000 0.000000 0.000000 -0.078398
#
#
# Mechanical properties :
#
#
# Convention : Reuss Voigt Hill
#
# Bulk Modulus (GPa) = 53.32014 57.03517 55.17766
# Shear Modulus (GPa) = 8.85539 11.50126 10.17832
#
# Velocity S-wave (km/s) = 2.14240 2.44158 2.29687
# Velocity P-wave (km/s) = 5.81004 6.12459 5.96939
#
# Compressibility (1/GPa) = 0.01875464
#
# Stress axis : x y z
#
# Youngs Moduli (GPa) = 63.98550 49.05367 98.05053
#
# Poissons Ratio (x) = 0.34042 0.34239
# Poissons Ratio (y) = 0.44404 0.32333
# Poissons Ratio (z) = 0.22344 0.16176
#
# Static dielectric constant tensor:
#      x y z
#    x 4.431540 0.000000 0.000000 
#    y 0.000000 3.335280 0.000000 
#    z 0.000000 0.000000 3.751420 
# 
# 
# High freq. dielectric constant tensor:
#      x y z
#    x 1.752810 0.000000 0.000000 
#    y 0.000000 1.719160 0.000000 
#    z 0.000000 0.000000 1.759420 
# 
# From -- ./inp_files/25912.got.cif
#   From: 2010.03.12/outbox.cif.g09.slc.cpg/sg51_13_cif.got.tgz:25912.got - 2010.04.16 13:43:02.
