data_PCOD8207099
_publ_section_title
;
Structure prediction by ZEFSAII (Michael W. Deem and Ramdas Pophale) SiO2 
 PCOD8207099
Probable space group: P M M A
;
_chemical_formula_sum "Si O2"
_cell_formula_units_Z 48
_cell_length_a 8.795596
_cell_length_b 20.631304
_cell_length_c 14.517253
_cell_angle_alpha 90.000000
_cell_angle_beta 90.000000
_cell_angle_gamma 90.000000
_cell_volume 2634.367726
_symmetry_space_group_name_H-M "P M M A"
_symmetry_group_IT_number 51
_symmetry_cell_setting 'orthorhombic'
loop_
_space_group_symop_operation_xyz
x,y,z
1/2-x,-y,z
1/2+x,-y,-z
-x,y,-z
-x,-y,-z
1/2+x,y,-z
1/2-x,y,z
x,-y,z
loop_
_atom_site_type_symbol
_atom_site_label
_atom_site_fract_x
_atom_site_fract_y
_atom_site_fract_z
Si Si1 0.569455 0.071459 0.785666
Si Si2 0.429777 0.807387 0.099648
Si Si3 0.574149 0.307185 0.211235
Si Si4 0.571215 0.427788 0.095505
Si Si5 0.426730 0.735250 0.590063
Si Si6 0.930170 0.124965 0.593176
O O1 0.750000 0.074519 0.786748
O O2 0.506020 0.125689 0.855978
O O3 0.512920 0.084522 0.681512
O O4 0.511288 0.000000 0.816094
O O5 0.250000 0.809437 0.090136
O O6 0.473678 0.748362 0.165471
O O7 0.500000 0.797080 0.000000
O O8 0.750000 0.292976 0.187296
O O9 0.521759 0.377369 0.174311
O O10 0.547698 0.309654 0.320918
O O11 0.750000 0.428315 0.082207
O O12 0.512224 0.500000 0.121921
O O13 0.500000 0.403886 0.000000
O O14 0.500000 0.700566 0.500000
O O15 0.250000 0.749238 0.572281
O O16 0.512417 0.802325 0.606765
O O17 0.750000 0.124719 0.584950
O O18 0.000000 0.093983 0.500000
#
# Coordination Sequence:
#
# PCOD8207099 Si02
#       6
#     8   8   8   8   8   8
#     4   9  19  35  52  70  97 133 169 206 253 306
#     4  11  22  36  54  75 100 131 169 212 257 302
#     4  10  20  34  54  79 105 134 169 210 251 296
#     4   9  18  33  52  76 106 138 170 204 247 297
#     4  10  19  31  50  75 104 132 165 206 250 298
#     4  10  18  31  51  74  99 129 164 203 253 304
#
# _framework density 18.220692
#
# number of rings (size 3 to 8) (size 9 to 14) (size 15 to 20)
#    0.000    2.167    1.667    3.000    0.000    3.333 
#    0.000    0.000    0.000    7.500    0.000    0.000 
#    0.000    0.000    0.000    0.000    0.000    0.667 
#
# Total GULP energy -595096.026857 kJ/mol
# GULP energy per Si atom -12397.833893 kJ/mol
# Density = 1.817922 g / cm^3
# Si number density = 18.220692 Si / 1000 Ang^3
#
#
#
# Elastic Constant Matrix: (Units=GPa)
#
#
# Indices 1 2 3 4 5 6 
#
# 1 54.0698 22.9104 31.9804 0.0000 0.0000 0.0000
# 2 22.9104 102.6294 57.4265 0.0000 0.0000 0.0000
# 3 31.9804 57.4265 124.4778 0.0000 0.0000 0.0000
# 4 0.0000 0.0000 0.0000 29.4976 0.0000 0.0000
# 5 0.0000 0.0000 0.0000 0.0000 26.9285 0.0000
# 6 0.0000 0.0000 0.0000 0.0000 0.0000 18.1832
#
#
#
# Elastic Compliance Matrix: (Units=1/GPa)
#
#
# Indices 1 2 3 4 5 6 
#
# 1 0.022232 -0.002382 -0.004613 0.000000 0.000000 0.000000
# 2 -0.002382 0.013389 -0.005565 0.000000 0.000000 0.000000
# 3 -0.004613 -0.005565 0.011786 0.000000 0.000000 0.000000
# 4 0.000000 0.000000 0.000000 0.033901 0.000000 0.000000
# 5 0.000000 0.000000 0.000000 0.000000 0.037135 0.000000
# 6 0.000000 0.000000 0.000000 0.000000 0.000000 0.054996
#
#
# Mechanical properties :
#
#
# Convention : Reuss Voigt Hill
#
# Bulk Modulus (GPa) = 44.86726 56.20126 50.53426
# Shear Modulus (GPa) = 24.27309 26.17918 25.22614
#
# Velocity S-wave (km/s) = 3.65385 3.79460 3.72489
# Velocity P-wave (km/s) = 6.51757 7.07887 6.80401
#
# Compressibility (1/GPa) = 0.02228797
#
# Stress axis : x y z
#
# Youngs Moduli (GPa) = 44.97966 74.68539 84.84530
#
# Poissons Ratio (x) = 0.17788 0.39139
# Poissons Ratio (y) = 0.10713 0.47218
# Poissons Ratio (z) = 0.20749 0.41564
#
# Static dielectric constant tensor:
#      x y z
#    x 3.265490 0.000000 0.000000 
#    y 0.000000 3.463410 0.000000 
#    z 0.000000 0.000000 3.620300 
# 
# 
# High freq. dielectric constant tensor:
#      x y z
#    x 1.697010 0.000000 0.000000 
#    y 0.000000 1.688600 0.000000 
#    z 0.000000 0.000000 1.714420 
# 
# From -- ./inp_files/21392.got.cif
#   From: 2010.03.12/outbox.cif.g09.slc.cpg/sg51_11_cif.got.tgz:21392.got - 2010.04.16 13:43:02.
