data_PCOD8207795
_publ_section_title
;
Structure prediction by ZEFSAII (Michael W. Deem and Ramdas Pophale) SiO2 
 PCOD8207795
Probable space group: P M M A
;
_chemical_formula_sum "Si O2"
_cell_formula_units_Z 64
_cell_length_a 9.348057
_cell_length_b 30.870424
_cell_length_c 14.364469
_cell_angle_alpha 90.000000
_cell_angle_beta 90.000000
_cell_angle_gamma 90.000000
_cell_volume 4145.276676
_symmetry_space_group_name_H-M "P M M A"
_symmetry_group_IT_number 51
_symmetry_cell_setting 'orthorhombic'
loop_
_space_group_symop_operation_xyz
x,y,z
1/2-x,-y,z
1/2+x,-y,-z
-x,y,-z
-x,-y,-z
1/2+x,y,-z
1/2-x,y,z
x,-y,z
loop_
_atom_site_type_symbol
_atom_site_label
_atom_site_fract_x
_atom_site_fract_y
_atom_site_fract_z
Si Si1 0.585202 0.954246 0.905743
Si Si2 0.081885 0.860428 0.097015
Si Si3 0.584831 0.613491 0.785562
Si Si4 0.414999 0.350834 0.411909
Si Si5 0.084521 0.550646 0.907921
Si Si6 0.916681 0.698287 0.905163
Si Si7 0.919636 0.779217 0.787424
Si Si8 0.917557 0.250720 0.590229
O O1 0.750000 0.953375 0.933818
O O2 0.549213 0.908131 0.856409
O O3 0.552256 0.000000 0.849705
O O4 0.500000 0.955667 0.000000
O O5 0.250000 0.854064 0.077070
O O6 0.027040 0.824898 0.170692
O O7 0.000000 0.854323 0.000000
O O8 0.750000 0.599551 0.796935
O O9 0.544980 0.621122 0.678143
O O10 0.482720 0.575268 0.820440
O O11 0.553476 0.657198 0.841038
O O12 0.500000 0.369630 0.500000
O O13 0.250000 0.355173 0.436439
O O14 0.454752 0.300945 0.392790
O O15 0.250000 0.563492 0.920697
O O16 0.065766 0.500000 0.888913
O O17 0.000000 0.565299 0.000000
O O18 0.750000 0.703641 0.928024
O O19 0.978155 0.740474 0.852130
O O20 0.000000 0.691665 0.000000
O O21 0.750000 0.775428 0.784768
O O22 0.974909 0.774839 0.681332
O O23 0.750000 0.243383 0.573922
O O24 0.000000 0.232543 0.500000
#
# Coordination Sequence:
#
# PCOD8207795 Si02
#       8
#     8   8   8   8   8   8   8   8
#     4   8  13  21  33  50  72  98 133 176 213 244
#     4   9  16  25  38  55  77 111 146 172 206 251
#     4  10  19  32  50  70  93 119 147 178 216 257
#     4   9  17  30  48  69  91 116 144 178 218 258
#     4  10  21  36  53  73  96 121 149 182 218 254
#     4  10  19  30  42  60  87 117 145 173 203 241
#     4   9  16  28  43  57  81 115 143 168 206 254
#     4   9  16  29  46  62  82 109 140 176 214 252
#
# _framework density 15.439259
#
# number of rings (size 3 to 8) (size 9 to 14) (size 15 to 20)
#    0.000    2.750    1.250    1.125    0.000    2.750 
#    0.000    1.250    0.000    0.375    0.000    0.000 
#    0.000    0.500    0.000    0.375    0.000    1.000 
#
# Total GULP energy -793132.560009 kJ/mol
# GULP energy per Si atom -12392.696250 kJ/mol
# Density = 1.540412 g / cm^3
# Si number density = 15.439259 Si / 1000 Ang^3
#
#
#
# Elastic Constant Matrix: (Units=GPa)
#
#
# Indices 1 2 3 4 5 6 
#
# 1 48.8475 38.9986 47.5116 0.0000 0.0000 0.0000
# 2 38.9986 87.0003 52.2467 0.0000 0.0000 0.0000
# 3 47.5116 52.2467 111.9617 0.0000 0.0000 0.0000
# 4 0.0000 0.0000 0.0000 8.8038 0.0000 0.0000
# 5 0.0000 0.0000 0.0000 0.0000 24.5695 0.0000
# 6 0.0000 0.0000 0.0000 0.0000 0.0000 15.1361
#
#
#
# Elastic Compliance Matrix: (Units=1/GPa)
#
#
# Indices 1 2 3 4 5 6 
#
# 1 0.041384 -0.011121 -0.012372 0.000000 0.000000 0.000000
# 2 -0.011121 0.018958 -0.004127 0.000000 0.000000 0.000000
# 3 -0.012372 -0.004127 0.016108 0.000000 0.000000 0.000000
# 4 0.000000 0.000000 0.000000 0.113587 0.000000 0.000000
# 5 0.000000 0.000000 0.000000 0.000000 0.040701 0.000000
# 6 0.000000 0.000000 0.000000 0.000000 0.000000 0.066067
#
#
# Mechanical properties :
#
#
# Convention : Reuss Voigt Hill
#
# Bulk Modulus (GPa) = 47.14956 58.36925 52.75940
# Shear Modulus (GPa) = 13.92308 16.97207 15.44758
#
# Velocity S-wave (km/s) = 3.00625 3.31914 3.16656
# Velocity P-wave (km/s) = 6.53109 7.25098 6.90043
#
# Compressibility (1/GPa) = 0.02120911
#
# Stress axis : x y z
#
# Youngs Moduli (GPa) = 24.16370 52.74827 62.08155
#
# Poissons Ratio (x) = 0.58661 0.76808
# Poissons Ratio (y) = 0.26873 0.25624
# Poissons Ratio (z) = 0.29896 0.21771
#
# Static dielectric constant tensor:
#      x y z
#    x 2.848080 0.000000 0.000000 
#    y 0.000000 3.258760 0.000000 
#    z 0.000000 0.000000 2.819180 
# 
# 
# High freq. dielectric constant tensor:
#      x y z
#    x 1.583720 0.000000 0.000000 
#    y 0.000000 1.588820 0.000000 
#    z 0.000000 0.000000 1.570030 
# 
# From -- ./inp_files/22618.got.cif
#   From: 2010.03.12/outbox.cif.g09.slc.cpg/sg51_12_cif.got.tgz:22618.got - 2010.04.16 13:43:02.
