data_PCOD8207634
_publ_section_title
;
Structure prediction by ZEFSAII (Michael W. Deem and Ramdas Pophale) SiO2 
 PCOD8207634
Probable space group: P M M A
;
_chemical_formula_sum "Si O2"
_cell_formula_units_Z 64
_cell_length_a 8.909421
_cell_length_b 22.506072
_cell_length_c 20.584389
_cell_angle_alpha 90.000000
_cell_angle_beta 90.000000
_cell_angle_gamma 90.000000
_cell_volume 4127.500796
_symmetry_space_group_name_H-M "P M M A"
_symmetry_group_IT_number 51
_symmetry_cell_setting 'orthorhombic'
loop_
_space_group_symop_operation_xyz
x,y,z
1/2-x,-y,z
1/2+x,-y,-z
-x,y,-z
-x,-y,-z
1/2+x,y,-z
1/2-x,y,z
x,-y,z
loop_
_atom_site_type_symbol
_atom_site_label
_atom_site_fract_x
_atom_site_fract_y
_atom_site_fract_z
Si Si1 0.081116 0.746137 0.645686
Si Si2 0.573156 0.934336 0.818074
Si Si3 0.574403 0.833027 0.729408
Si Si4 0.570678 0.847187 0.932184
Si Si5 0.584223 0.344373 0.235437
Si Si6 0.072259 0.650358 0.432306
Si Si7 0.427248 0.761599 0.843685
Si Si8 0.926462 0.566178 0.683593
O O1 0.250000 0.755373 0.620439
O O2 0.074884 0.705302 0.708960
O O3 0.012426 0.810642 0.664832
O O4 0.985399 0.715625 0.588427
O O5 0.750000 0.940179 0.824277
O O6 0.534039 0.901002 0.749760
O O7 0.517146 0.896966 0.880369
O O8 0.498527 0.000000 0.817637
O O9 0.750000 0.824498 0.716547
O O10 0.527893 0.794623 0.791014
O O11 0.750000 0.840506 0.936425
O O12 0.493822 0.783731 0.912569
O O13 0.500000 0.867469 0.000000
O O14 0.750000 0.372172 0.232784
O O15 0.547557 0.309643 0.167847
O O16 0.473348 0.398785 0.250871
O O17 0.250000 0.651927 0.438648
O O18 0.016768 0.601502 0.379948
O O19 0.000000 0.631025 0.500000
O O20 0.250000 0.776701 0.836527
O O21 0.750000 0.562095 0.683187
O O22 0.996797 0.500000 0.683222
#
# Coordination Sequence:
#
# PCOD8207634 Si02
#       8
#     8   8   8   8   8   8   8   8
#     4   9  16  27  42  59  80 104 133 170 212 252
#     4   8  15  27  41  58  82 112 144 175 205 241
#     4   9  15  24  41  62  81 103 133 169 211 252
#     4  10  19  29  42  59  81 111 145 177 210 246
#     4   8  15  26  41  60  78 100 130 167 210 249
#     4  10  19  30  43  59  82 111 144 177 208 244
#     4   9  16  27  42  59  80 103 132 171 213 253
#     4   9  18  30  42  58  82 112 143 173 203 238
#
# _framework density 15.505751999999999
#
# number of rings (size 3 to 8) (size 9 to 14) (size 15 to 20)
#    0.000    3.000    0.000    3.375    0.000    4.750 
#    0.000    0.000    0.000   13.125    0.000    0.000 
#    0.000    1.000    0.000    3.000    0.000    4.625 
#
# Total GULP energy -792950.826491 kJ/mol
# GULP energy per Si atom -12389.856664 kJ/mol
# Density = 1.547046 g / cm^3
# Si number density = 15.505752 Si / 1000 Ang^3
#
#
#
# Elastic Constant Matrix: (Units=GPa)
#
#
# Indices 1 2 3 4 5 6 
#
# 1 56.7010 36.2114 19.7012 0.0000 0.0000 0.0000
# 2 36.2114 103.1643 52.3420 0.0000 0.0000 0.0000
# 3 19.7012 52.3420 32.1514 0.0000 0.0000 0.0000
# 4 0.0000 0.0000 0.0000 16.5276 0.0000 0.0000
# 5 0.0000 0.0000 0.0000 0.0000 24.2193 0.0000
# 6 0.0000 0.0000 0.0000 0.0000 0.0000 14.8636
#
#
#
# Elastic Compliance Matrix: (Units=1/GPa)
#
#
# Indices 1 2 3 4 5 6 
#
# 1 0.022896 -0.005278 -0.005438 0.000000 0.000000 0.000000
# 2 -0.005278 0.056920 -0.089431 0.000000 0.000000 0.000000
# 3 -0.005438 -0.089431 0.180027 0.000000 0.000000 0.000000
# 4 0.000000 0.000000 0.000000 0.060505 0.000000 0.000000
# 5 0.000000 0.000000 0.000000 0.000000 0.041289 0.000000
# 6 0.000000 0.000000 0.000000 0.000000 0.000000 0.067279
#
#
# Mechanical properties :
#
#
# Convention : Reuss Voigt Hill
#
# Bulk Modulus (GPa) = 16.79250 45.39175 31.09212
# Shear Modulus (GPa) = 7.70347 16.70623 12.20485
#
# Velocity S-wave (km/s) = 2.23135 3.28597 2.80860
# Velocity P-wave (km/s) = 4.18233 6.61321 5.53292
#
# Compressibility (1/GPa) = 0.05955040
#
# Stress axis : x y z
#
# Youngs Moduli (GPa) = 43.67494 17.56857 5.55473
#
# Poissons Ratio (x) = 0.09272 0.03021
# Poissons Ratio (y) = 0.23051 0.49676
# Poissons Ratio (z) = 0.23750 1.57117
#
# Static dielectric constant tensor:
#      x y z
#    x 2.973250 0.000000 0.000000 
#    y 0.000000 3.281120 0.000000 
#    z 0.000000 0.000000 2.896700 
# 
# 
# High freq. dielectric constant tensor:
#      x y z
#    x 1.598680 0.000000 0.000000 
#    y 0.000000 1.575970 0.000000 
#    z 0.000000 0.000000 1.558340 
# 
# From -- ./inp_files/32625.got.cif
#   From: 2010.03.12/outbox.cif.g09.slc.cpg/sg51_17_cif.got.tgz:32625.got - 2010.04.16 13:43:02.
