data_PCOD8207600
_publ_section_title
;
Structure prediction by ZEFSAII (Michael W. Deem and Ramdas Pophale) SiO2 
 PCOD8207600
Probable space group: P M M A
;
_chemical_formula_sum "Si O2"
_cell_formula_units_Z 40
_cell_length_a 9.743393
_cell_length_b 15.726455
_cell_length_c 19.169730
_cell_angle_alpha 90.000000
_cell_angle_beta 90.000000
_cell_angle_gamma 90.000000
_cell_volume 2937.359163
_symmetry_space_group_name_H-M "P M M A"
_symmetry_group_IT_number 51
_symmetry_cell_setting 'orthorhombic'
loop_
_space_group_symop_operation_xyz
x,y,z
1/2-x,-y,z
1/2+x,-y,-z
-x,y,-z
-x,-y,-z
1/2+x,y,-z
1/2-x,y,z
x,-y,z
loop_
_atom_site_type_symbol
_atom_site_label
_atom_site_fract_x
_atom_site_fract_y
_atom_site_fract_z
Si Si1 0.403947 0.500000 0.435071
Si Si2 0.909785 0.839872 0.663539
Si Si3 0.901717 0.898849 0.059188
Si Si4 0.908979 0.000000 0.568371
Si Si5 0.910595 0.901537 0.215320
Si Si6 0.591320 0.315675 0.568927
O O1 0.250000 0.500000 0.464403
O O2 0.500000 0.500000 0.500000
O O3 0.429187 0.409991 0.395295
O O4 0.750000 0.841434 0.684231
O O5 0.953628 0.752725 0.626093
O O6 0.999079 0.844613 0.733357
O O7 0.946777 0.917307 0.612809
O O8 0.750000 0.862560 0.044931
O O9 0.950195 0.872905 0.136772
O O10 0.898912 0.000000 0.054332
O O11 0.000000 0.859255 0.000000
O O12 0.000000 0.000000 0.500000
O O13 0.750000 0.000000 0.546120
O O14 0.750000 0.886129 0.229461
O O15 0.948071 0.000000 0.226970
O O16 0.500000 0.304694 0.500000
O O17 0.750000 0.300557 0.547506
#
# Coordination Sequence:
#
# PCOD8207600 Si02
#       6
#     4   8   8   4   8   8
#     4   8  14  26  42  58  74  92 115 150 195 236
#     4  10  19  29  39  54  75  99 128 160 191 224
#     4   8  14  24  37  54  73  93 122 156 186 217
#     4  10  20  30  38  50  69  94 127 162 191 218
#     4   9  17  28  40  54  74 101 131 159 187 221
#     4   9  17  28  42  58  75  95 123 158 195 235
#
# _framework density 13.617673999999999
#
# number of rings (size 3 to 8) (size 9 to 14) (size 15 to 20)
#    0.000    3.000    1.000    1.800    0.000    2.400 
#    0.000    2.000    0.000    0.000    0.000    0.000 
#    0.000    0.000    0.000    0.900    0.000    9.400 
#
# Total GULP energy -495669.746363 kJ/mol
# GULP energy per Si atom -12391.743659 kJ/mol
# Density = 1.358668 g / cm^3
# Si number density = 13.617674 Si / 1000 Ang^3
#
#
#
# Elastic Constant Matrix: (Units=GPa)
#
#
# Indices 1 2 3 4 5 6 
#
# 1 58.7833 32.7055 59.8667 0.0000 0.0000 0.0000
# 2 32.7055 89.9824 48.0014 0.0000 0.0000 0.0000
# 3 59.8667 48.0014 108.1079 0.0000 0.0000 0.0000
# 4 0.0000 0.0000 0.0000 6.1955 0.0000 0.0000
# 5 0.0000 0.0000 0.0000 0.0000 29.2348 0.0000
# 6 0.0000 0.0000 0.0000 0.0000 0.0000 10.9855
#
#
#
# Elastic Compliance Matrix: (Units=1/GPa)
#
#
# Indices 1 2 3 4 5 6 
#
# 1 0.039865 -0.003555 -0.020497 0.000000 0.000000 0.000000
# 2 -0.003555 0.014880 -0.004638 0.000000 0.000000 0.000000
# 3 -0.020497 -0.004638 0.022660 0.000000 0.000000 0.000000
# 4 0.000000 0.000000 0.000000 0.161406 0.000000 0.000000
# 5 0.000000 0.000000 0.000000 0.000000 0.034206 0.000000
# 6 0.000000 0.000000 0.000000 0.000000 0.000000 0.091029
#
#
# Mechanical properties :
#
#
# Convention : Reuss Voigt Hill
#
# Bulk Modulus (GPa) = 49.94119 59.78007 54.86063
# Shear Modulus (GPa) = 11.67950 17.03651 14.35801
#
# Velocity S-wave (km/s) = 2.93178 3.54087 3.25062
# Velocity P-wave (km/s) = 6.94362 7.79174 7.37987
#
# Compressibility (1/GPa) = 0.02002355
#
# Stress axis : x y z
#
# Youngs Moduli (GPa) = 25.08495 67.20601 44.13050
#
# Poissons Ratio (x) = 0.23892 0.90455
# Poissons Ratio (y) = 0.08918 0.20468
# Poissons Ratio (z) = 0.51417 0.31171
#
# Static dielectric constant tensor:
#      x y z
#    x 2.822680 0.000000 0.000000 
#    y 0.000000 2.829930 0.000000 
#    z 0.000000 0.000000 2.646460 
# 
# 
# High freq. dielectric constant tensor:
#      x y z
#    x 1.527620 0.000000 0.000000 
#    y 0.000000 1.490210 0.000000 
#    z 0.000000 0.000000 1.499650 
# 
# From -- ./inp_files/31531.got.cif
#   From: 2010.03.12/outbox.cif.g09.slc.cpg/sg51_16_cif.got.tgz:31531.got - 2010.04.16 13:43:02.
