data_PCOD8207269
_publ_section_title
;
Structure prediction by ZEFSAII (Michael W. Deem and Ramdas Pophale) SiO2 
 PCOD8207269
Probable space group: P M M A
;
_chemical_formula_sum "Si O2"
_cell_formula_units_Z 28
_cell_length_a 8.922980
_cell_length_b 9.587304
_cell_length_c 19.608769
_cell_angle_alpha 90.000000
_cell_angle_beta 90.000000
_cell_angle_gamma 90.000000
_cell_volume 1677.477673
_symmetry_space_group_name_H-M "P M M A"
_symmetry_group_IT_number 51
_symmetry_cell_setting 'orthorhombic'
loop_
_space_group_symop_operation_xyz
x,y,z
1/2-x,-y,z
1/2+x,-y,-z
-x,y,-z
-x,-y,-z
1/2+x,y,-z
1/2-x,y,z
x,-y,z
loop_
_atom_site_type_symbol
_atom_site_label
_atom_site_fract_x
_atom_site_fract_y
_atom_site_fract_z
Si Si1 0.428235 0.500000 0.073727
Si Si2 0.919962 0.653112 0.185317
Si Si3 0.918837 0.833900 0.432812
Si Si4 0.422070 0.164722 0.296030
O O1 0.250000 0.500000 0.068988
O O2 0.487187 0.361904 0.114278
O O3 0.500000 0.500000 0.000000
O O4 0.750000 0.700345 0.169240
O O5 0.920701 0.500000 0.221722
O O6 0.996096 0.767468 0.232265
O O7 0.750000 0.776099 0.430817
O O8 0.000000 0.773735 0.500000
O O9 0.004909 0.780152 0.365979
O O10 0.919854 0.000000 0.435028
O O11 0.250000 0.210675 0.296349
O O12 0.440922 0.000000 0.288981
#
# Coordination Sequence:
#
# PCOD8207269 Si02
#       4
#     4   8   8   8
#     4  10  18  32  54  78 101 126 159 198 234 278
#     4   9  19  33  50  74  99 128 163 199 238 285
#     4   9  16  26  41  62  90 124 162 204 245 286
#     4  10  19  30  47  72 100 130 164 202 245 291
#
# _framework density 16.691728000000001
#
# number of rings (size 3 to 8) (size 9 to 14) (size 15 to 20)
#    0.857    1.714    0.000    3.429    0.000    5.143 
#    0.000    0.000    0.000    1.714    0.000    0.000 
#    0.000    0.000    0.000    0.000    0.000    0.000 
#
# Total GULP energy -347032.310843 kJ/mol
# GULP energy per Si atom -12394.011102 kJ/mol
# Density = 1.665374 g / cm^3
# Si number density = 16.691728 Si / 1000 Ang^3
#
#
#
# Elastic Constant Matrix: (Units=GPa)
#
#
# Indices 1 2 3 4 5 6 
#
# 1 185.5014 27.6405 86.1353 0.0000 0.0000 0.0000
# 2 27.6405 16.6922 25.9733 0.0000 0.0000 0.0000
# 3 86.1353 25.9733 149.6304 0.0000 0.0000 0.0000
# 4 0.0000 0.0000 0.0000 11.1889 0.0000 0.0000
# 5 0.0000 0.0000 0.0000 0.0000 38.3634 0.0000
# 6 0.0000 0.0000 0.0000 0.0000 0.0000 22.4023
#
#
#
# Elastic Compliance Matrix: (Units=1/GPa)
#
#
# Indices 1 2 3 4 5 6 
#
# 1 0.008150 -0.008488 -0.003218 0.000000 0.000000 0.000000
# 2 -0.008488 0.090917 -0.010896 0.000000 0.000000 0.000000
# 3 -0.003218 -0.010896 0.010427 0.000000 0.000000 0.000000
# 4 0.000000 0.000000 0.000000 0.089374 0.000000 0.000000
# 5 0.000000 0.000000 0.000000 0.000000 0.026066 0.000000
# 6 0.000000 0.000000 0.000000 0.000000 0.000000 0.044638
#
#
# Mechanical properties :
#
#
# Convention : Reuss Voigt Hill
#
# Bulk Modulus (GPa) = 15.55442 70.14693 42.85068
# Shear Modulus (GPa) = 14.87185 28.52924 21.70055
#
# Velocity S-wave (km/s) = 2.98815 4.13871 3.60957
# Velocity P-wave (km/s) = 4.60915 8.05945 6.56502
#
# Compressibility (1/GPa) = 0.06429042
#
# Stress axis : x y z
#
# Youngs Moduli (GPa) = 122.70221 10.99909 95.90527
#
# Poissons Ratio (x) = 0.09336 0.30864
# Poissons Ratio (y) = 1.04147 1.04494
# Poissons Ratio (z) = 0.39487 0.11984
#
# Static dielectric constant tensor:
#      x y z
#    x 3.552560 0.000000 0.000000 
#    y 0.000000 2.658650 0.000000 
#    z 0.000000 0.000000 3.088590 
# 
# 
# High freq. dielectric constant tensor:
#      x y z
#    x 1.668560 0.000000 0.000000 
#    y 0.000000 1.589290 0.000000 
#    z 0.000000 0.000000 1.640920 
# 
# From -- ./inp_files/26912.got.cif
#   From: 2010.03.12/outbox.cif.g09.slc.cpg/sg51_14_cif.got.tgz:26912.got - 2010.04.16 13:43:02.
