data_PCOD8207886
_publ_section_title
;
Structure prediction by ZEFSAII (Michael W. Deem and Ramdas Pophale) SiO2 
 PCOD8207886
Probable space group: P M M A
;
_chemical_formula_sum "Si O2"
_cell_formula_units_Z 48
_cell_length_a 26.077104
_cell_length_b 8.986290
_cell_length_c 11.832558
_cell_angle_alpha 90.000000
_cell_angle_beta 90.000000
_cell_angle_gamma 90.000000
_cell_volume 2772.799268
_symmetry_space_group_name_H-M "P M M A"
_symmetry_group_IT_number 51
_symmetry_cell_setting 'orthorhombic'
loop_
_space_group_symop_operation_xyz
x,y,z
1/2-x,-y,z
1/2+x,-y,-z
-x,y,-z
-x,-y,-z
1/2+x,y,-z
1/2-x,y,z
x,-y,z
loop_
_atom_site_type_symbol
_atom_site_label
_atom_site_fract_x
_atom_site_fract_y
_atom_site_fract_z
Si Si1 0.624168 0.171552 0.512058
Si Si2 0.307942 0.326312 0.666097
Si Si3 0.931484 0.323613 0.698512
Si Si4 0.552592 0.672714 0.948986
Si Si5 0.396803 0.328695 0.828247
Si Si6 0.466640 0.828586 0.659801
O O1 0.671478 0.241108 0.443652
O O2 0.617075 0.253462 0.632416
O O3 0.571979 0.195461 0.443024
O O4 0.636635 0.000000 0.533325
O O5 0.250000 0.274871 0.690884
O O6 0.311098 0.500000 0.638687
O O7 0.340930 0.286754 0.778595
O O8 0.926822 0.500000 0.692261
O O9 0.931754 0.259888 0.827364
O O10 0.983216 0.269355 0.636835
O O11 0.541782 0.500000 0.927555
O O12 0.500000 0.743388 0.000000
O O13 0.599851 0.697961 0.036656
O O14 0.410210 0.500000 0.799067
O O15 0.440139 0.225171 0.774712
O O16 0.482989 0.000000 0.671529
#
# Coordination Sequence:
#
# PCOD8207886 Si02
#       6
#     8   8   8   8   8   8
#     4  10  21  34  47  68  98 129 161 199 246 295
#     4   9  18  33  55  79  96 115 153 204 251 295
#     4  11  20  30  47  68  96 135 171 200 237 284
#     4   9  16  28  46  69  97 131 168 199 233 283
#     4   9  16  30  50  70  96 128 161 199 242 289
#     4  10  19  30  44  66  98 130 162 202 241 284
#
# _framework density 17.311025999999998
#
# number of rings (size 3 to 8) (size 9 to 14) (size 15 to 20)
#    0.000    2.333    1.667    2.000    0.000    4.333 
#    0.000    2.500    0.000    1.000    0.000    4.667 
#    0.000    0.000    0.000    0.000    0.000    0.000 
#
# Total GULP energy -595042.373790 kJ/mol
# GULP energy per Si atom -12396.716121 kJ/mol
# Density = 1.727163 g / cm^3
# Si number density = 17.311026 Si / 1000 Ang^3
#
#
#
# Elastic Constant Matrix: (Units=GPa)
#
#
# Indices 1 2 3 4 5 6 
#
# 1 91.4100 27.1541 42.0109 0.0000 0.0000 0.0000
# 2 27.1541 53.8968 28.4079 0.0000 0.0000 0.0000
# 3 42.0109 28.4079 97.2338 0.0000 0.0000 0.0000
# 4 0.0000 0.0000 0.0000 13.1887 0.0000 0.0000
# 5 0.0000 0.0000 0.0000 0.0000 16.5610 0.0000
# 6 0.0000 0.0000 0.0000 0.0000 0.0000 16.7109
#
#
#
# Elastic Compliance Matrix: (Units=1/GPa)
#
#
# Indices 1 2 3 4 5 6 
#
# 1 0.014619 -0.004771 -0.004923 0.000000 0.000000 0.000000
# 2 -0.004771 0.023488 -0.004801 0.000000 0.000000 0.000000
# 3 -0.004923 -0.004801 0.013814 0.000000 0.000000 0.000000
# 4 0.000000 0.000000 0.000000 0.075822 0.000000 0.000000
# 5 0.000000 0.000000 0.000000 0.000000 0.060383 0.000000
# 6 0.000000 0.000000 0.000000 0.000000 0.000000 0.059841
#
#
# Mechanical properties :
#
#
# Convention : Reuss Voigt Hill
#
# Bulk Modulus (GPa) = 43.60612 48.63182 46.11897
# Shear Modulus (GPa) = 17.56847 18.95665 18.26256
#
# Velocity S-wave (km/s) = 3.18916 3.31276 3.25155
# Velocity P-wave (km/s) = 6.22940 6.54114 6.38717
#
# Compressibility (1/GPa) = 0.02293256
#
# Stress axis : x y z
#
# Youngs Moduli (GPa) = 68.40280 42.57471 72.39038
#
# Poissons Ratio (x) = 0.20312 0.35635
# Poissons Ratio (y) = 0.32634 0.34755
# Poissons Ratio (z) = 0.33672 0.20440
#
# Static dielectric constant tensor:
#      x y z
#    x 3.072180 0.000000 0.000000 
#    y 0.000000 3.134340 0.000000 
#    z 0.000000 0.000000 3.388610 
# 
# 
# High freq. dielectric constant tensor:
#      x y z
#    x 1.634550 0.000000 0.000000 
#    y 0.000000 1.657520 0.000000 
#    z 0.000000 0.000000 1.670520 
# 
# From -- ./inp_files/18986.got.cif
#   From: 2010.03.12/outbox.cif.g09.slc.cpg/sg51_10_cif.got.tgz:18986.got - 2010.04.16 13:43:02.
