data_PCOD8207402
_publ_section_title
;
Structure prediction by ZEFSAII (Michael W. Deem and Ramdas Pophale) SiO2 
 PCOD8207402
Probable space group: P M M A
;
_chemical_formula_sum "Si O2"
_cell_formula_units_Z 48
_cell_length_a 14.579812
_cell_length_b 8.997416
_cell_length_c 20.405834
_cell_angle_alpha 90.000000
_cell_angle_beta 90.000000
_cell_angle_gamma 90.000000
_cell_volume 2676.850237
_symmetry_space_group_name_H-M "P M M A"
_symmetry_group_IT_number 51
_symmetry_cell_setting 'orthorhombic'
loop_
_space_group_symop_operation_xyz
x,y,z
1/2-x,-y,z
1/2+x,-y,-z
-x,y,-z
-x,-y,-z
1/2+x,y,-z
1/2-x,y,z
x,-y,z
loop_
_atom_site_type_symbol
_atom_site_label
_atom_site_fract_x
_atom_site_fract_y
_atom_site_fract_z
Si Si1 0.250000 0.830257 0.515896
Si Si2 0.571512 0.674334 0.822222
Si Si3 0.555232 0.324370 0.061696
Si Si4 0.052111 0.172198 0.564317
Si Si5 0.750000 0.323896 0.016702
Si Si6 0.250000 0.324438 0.379790
Si Si7 0.058888 0.673482 0.326499
Si Si8 0.750000 0.176608 0.875346
O O1 0.339386 0.798314 0.559494
O O2 0.250000 0.721383 0.454913
O O3 0.250000 0.000000 0.490115
O O4 0.594282 0.500000 0.831907
O O5 0.490762 0.729517 0.870756
O O6 0.536901 0.707837 0.749072
O O7 0.661976 0.767972 0.835880
O O8 0.549832 0.500000 0.057555
O O9 0.661107 0.273075 0.058233
O O10 0.500000 0.255496 0.000000
O O11 0.000000 0.236248 0.500000
O O12 0.018960 0.252054 0.629744
O O13 0.027953 0.000000 0.571395
O O14 0.750000 0.500000 0.003052
O O15 0.750000 0.243411 0.947562
O O16 0.250000 0.500000 0.374541
O O17 0.340672 0.260680 0.344261
O O18 0.056348 0.500000 0.341612
O O19 0.750000 0.000000 0.879376
#
# Coordination Sequence:
#
# PCOD8207402 Si02
#       8
#     4   8   8   8   4   4   8   4
#     4  10  20  35  54  79 104 135 178 220 263 307
#     4  10  20  37  56  77 110 146 180 219 269 326
#     4   9  16  29  55  82 100 135 182 221 263 313
#     4  10  20  35  56  78 105 142 182 222 262 313
#     4  10  18  33  56  81 106 135 182 231 268 316
#     4  10  19  31  49  77 107 135 167 212 272 323
#     4  10  21  35  54  80 110 141 173 218 275 325
#     4  12  23  33  51  83 113 141 177 221 273 322
#
# _framework density 17.931521
#
# number of rings (size 3 to 8) (size 9 to 14) (size 15 to 20)
#    0.000    2.000    3.333    1.250    0.000    3.000 
#    0.000    3.333    0.000    2.000    0.000    0.000 
#    0.000    0.000    0.000    0.000    0.000    0.000 
#
# Total GULP energy -595220.499874 kJ/mol
# GULP energy per Si atom -12400.427081 kJ/mol
# Density = 1.789071 g / cm^3
# Si number density = 17.931521 Si / 1000 Ang^3
#
#
#
# Elastic Constant Matrix: (Units=GPa)
#
#
# Indices 1 2 3 4 5 6 
#
# 1 152.0334 29.3535 74.4287 0.0000 0.0000 0.0000
# 2 29.3535 36.4766 31.8466 0.0000 0.0000 0.0000
# 3 74.4287 31.8466 137.5715 0.0000 0.0000 0.0000
# 4 0.0000 0.0000 0.0000 10.1547 0.0000 0.0000
# 5 0.0000 0.0000 0.0000 0.0000 -51.0187 0.0000
# 6 0.0000 0.0000 0.0000 0.0000 0.0000 17.4492
#
#
#
# Elastic Compliance Matrix: (Units=1/GPa)
#
#
# Indices 1 2 3 4 5 6 
#
# 1 0.009371 -0.003904 -0.004166 0.000000 0.000000 0.000000
# 2 -0.003904 0.035985 -0.006218 0.000000 0.000000 0.000000
# 3 -0.004166 -0.006218 0.010962 0.000000 0.000000 0.000000
# 4 0.000000 0.000000 0.000000 0.098477 0.000000 0.000000
# 5 0.000000 0.000000 0.000000 0.000000 -0.019601 0.000000
# 6 0.000000 0.000000 0.000000 0.000000 0.000000 0.057309
#
#
# Mechanical properties :
#
#
# Convention : Reuss Voigt Hill
#
# Bulk Modulus (GPa) = 36.04604 66.37102 51.20853
# Shear Modulus (GPa) = 21.70823 8.01386 14.86105
#
# Velocity S-wave (km/s) = 3.48317 2.11633 2.88195
# Velocity P-wave (km/s) = 6.02680 6.56245 6.30032
#
# Compressibility (1/GPa) = 0.02774230
#
# Stress axis : x y z
#
# Youngs Moduli (GPa) = 106.71571 27.78919 91.22098
#
# Poissons Ratio (x) = 0.10848 0.38003
# Poissons Ratio (y) = 0.41656 0.56725
# Poissons Ratio (z) = 0.44459 0.17280
#
# Static dielectric constant tensor:
#      x y z
#    x 3.621800 0.000000 0.000000 
#    y 0.000000 3.054980 0.000000 
#    z 0.000000 0.000000 3.311430 
# 
# 
# High freq. dielectric constant tensor:
#      x y z
#    x 1.701600 0.000000 0.000000 
#    y 0.000000 1.664540 0.000000 
#    z 0.000000 0.000000 1.691150 
# 
# From -- ./inp_files/29699.got.cif
#   From: 2010.03.12/outbox.cif.g09.slc.cpg/sg51_15_cif.got.tgz:29699.got - 2010.04.16 13:43:02.
