data_PCOD8207948
_publ_section_title
;
Structure prediction by ZEFSAII (Michael W. Deem and Ramdas Pophale) SiO2 
 PCOD8207948
Probable space group: P M M A
;
_chemical_formula_sum "Si O2"
_cell_formula_units_Z 48
_cell_length_a 18.680761
_cell_length_b 9.267204
_cell_length_c 16.052058
_cell_angle_alpha 90.000000
_cell_angle_beta 90.000000
_cell_angle_gamma 90.000000
_cell_volume 2778.906968
_symmetry_space_group_name_H-M "P M M A"
_symmetry_group_IT_number 51
_symmetry_cell_setting 'orthorhombic'
loop_
_space_group_symop_operation_xyz
x,y,z
1/2-x,-y,z
1/2+x,-y,-z
-x,y,-z
-x,-y,-z
1/2+x,y,-z
1/2-x,y,z
x,-y,z
loop_
_atom_site_type_symbol
_atom_site_label
_atom_site_fract_x
_atom_site_fract_y
_atom_site_fract_z
Si Si1 0.969166 0.331431 0.246247
Si Si2 0.828037 0.329236 0.161296
Si Si3 0.096213 0.169292 0.171929
Si Si4 0.540326 0.668616 0.582032
Si Si5 0.166172 0.337235 0.025123
Si Si6 0.668380 0.831108 0.656199
O O1 0.979547 0.500000 0.226765
O O2 0.887844 0.280222 0.227861
O O3 0.019785 0.242996 0.184882
O O4 0.987283 0.295784 0.341728
O O5 0.750000 0.263759 0.186323
O O6 0.821012 0.500000 0.159718
O O7 0.850102 0.280372 0.068191
O O8 0.128692 0.227490 0.087094
O O9 0.148410 0.208605 0.248838
O O10 0.084815 0.000000 0.163813
O O11 0.500000 0.725712 0.500000
O O12 0.557560 0.500000 0.575205
O O13 0.616211 0.748544 0.592430
O O14 0.250000 0.334936 0.042689
O O15 0.136613 0.500000 0.038436
O O16 0.750000 0.781829 0.639875
O O17 0.658759 0.000000 0.640090
#
# Coordination Sequence:
#
# PCOD8207948 Si02
#       6
#     8   8   8   8   8   8
#     4   9  17  31  50  68  89 120 155 189 228 275
#     4   8  15  29  48  67  86 114 156 198 228 262
#     4  10  19  30  45  67  96 125 153 187 227 272
#     4   9  18  32  49  72  99 122 148 186 233 281
#     4   9  17  29  45  65  89 118 154 193 229 266
#     4   9  18  32  49  69  93 123 158 190 222 268
#
# _framework density 17.272978999999999
#
# number of rings (size 3 to 8) (size 9 to 14) (size 15 to 20)
#    0.000    3.000    0.000    2.000    0.000    3.000 
#    0.000    5.000    0.000    4.500    0.000    0.000 
#    0.000    0.000    0.000    0.000    0.000    0.000 
#
# Total GULP energy -595086.511740 kJ/mol
# GULP energy per Si atom -12397.635661 kJ/mol
# Density = 1.723366 g / cm^3
# Si number density = 17.272979 Si / 1000 Ang^3
#
#
#
# Elastic Constant Matrix: (Units=GPa)
#
#
# Indices 1 2 3 4 5 6 
#
# 1 145.6186 44.9545 75.4382 0.0000 0.0000 0.0000
# 2 44.9545 44.3646 30.3122 0.0000 0.0000 0.0000
# 3 75.4382 30.3122 88.9763 0.0000 0.0000 0.0000
# 4 0.0000 0.0000 0.0000 16.6045 0.0000 0.0000
# 5 0.0000 0.0000 0.0000 0.0000 25.3598 0.0000
# 6 0.0000 0.0000 0.0000 0.0000 0.0000 17.4895
#
#
#
# Elastic Compliance Matrix: (Units=1/GPa)
#
#
# Indices 1 2 3 4 5 6 
#
# 1 0.014131 -0.007993 -0.009258 0.000000 0.000000 0.000000
# 2 -0.007993 0.033901 -0.004772 0.000000 0.000000 0.000000
# 3 -0.009258 -0.004772 0.020714 0.000000 0.000000 0.000000
# 4 0.000000 0.000000 0.000000 0.060225 0.000000 0.000000
# 5 0.000000 0.000000 0.000000 0.000000 0.039433 0.000000
# 6 0.000000 0.000000 0.000000 0.000000 0.000000 0.057177
#
#
# Mechanical properties :
#
#
# Convention : Reuss Voigt Hill
#
# Bulk Modulus (GPa) = 40.48723 64.48546 52.48635
# Shear Modulus (GPa) = 17.99477 20.44107 19.21792
#
# Velocity S-wave (km/s) = 3.23117 3.44381 3.33918
# Velocity P-wave (km/s) = 6.11647 7.29570 6.73196
#
# Compressibility (1/GPa) = 0.02469915
#
# Stress axis : x y z
#
# Youngs Moduli (GPa) = 70.76687 29.49795 48.27727
#
# Poissons Ratio (x) = 0.23579 0.44693
# Poissons Ratio (y) = 0.56567 0.23038
# Poissons Ratio (z) = 0.65513 0.14076
#
# Static dielectric constant tensor:
#      x y z
#    x 3.524430 0.000000 0.000000 
#    y 0.000000 3.031600 0.000000 
#    z 0.000000 0.000000 3.184760 
# 
# 
# High freq. dielectric constant tensor:
#      x y z
#    x 1.669800 0.000000 0.000000 
#    y 0.000000 1.646420 0.000000 
#    z 0.000000 0.000000 1.654520 
# 
# From -- ./inp_files/24726.got.cif
#   From: 2010.03.12/outbox.cif.g09.slc.cpg/sg51_13_cif.got.tgz:24726.got - 2010.04.16 13:43:02.
