data_PCOD8207854
_publ_section_title
;
Structure prediction by ZEFSAII (Michael W. Deem and Ramdas Pophale) SiO2 
 PCOD8207854
Probable space group: P M M A
;
_chemical_formula_sum "Si O2"
_cell_formula_units_Z 64
_cell_length_a 9.111568
_cell_length_b 26.188362
_cell_length_c 18.192341
_cell_angle_alpha 90.000000
_cell_angle_beta 90.000000
_cell_angle_gamma 90.000000
_cell_volume 4341.002581
_symmetry_space_group_name_H-M "P M M A"
_symmetry_group_IT_number 51
_symmetry_cell_setting 'orthorhombic'
loop_
_space_group_symop_operation_xyz
x,y,z
1/2-x,-y,z
1/2+x,-y,-z
-x,y,-z
-x,-y,-z
1/2+x,y,-z
1/2-x,y,z
x,-y,z
loop_
_atom_site_type_symbol
_atom_site_label
_atom_site_fract_x
_atom_site_fract_y
_atom_site_fract_z
Si Si1 0.421134 0.557563 0.926113
Si Si2 0.416486 0.237152 0.425483
Si Si3 0.420050 0.059703 0.574780
Si Si4 0.920104 0.802723 0.214653
Si Si5 0.419986 0.708343 0.283790
Si Si6 0.918459 0.255227 0.075310
Si Si7 0.576199 0.139363 0.669578
Si Si8 0.422423 0.649716 0.826451
O O1 0.250000 0.561234 0.942674
O O2 0.468598 0.500000 0.904521
O O3 0.464547 0.594622 0.859256
O O4 0.500000 0.575983 0.000000
O O5 0.500000 0.247893 0.500000
O O6 0.250000 0.228640 0.448299
O O7 0.434440 0.286765 0.372311
O O8 0.470772 0.186063 0.383685
O O9 0.500000 0.076332 0.500000
O O10 0.250000 0.075469 0.568877
O O11 0.498521 0.088154 0.641826
O O12 0.438848 0.000000 0.589868
O O13 0.750000 0.811438 0.234295
O O14 0.942094 0.794938 0.126993
O O15 0.974836 0.750783 0.250477
O O16 0.015265 0.849349 0.248108
O O17 0.250000 0.716830 0.261054
O O18 0.483964 0.655675 0.249632
O O19 0.750000 0.262779 0.055479
O O20 0.973717 0.306758 0.115772
O O21 0.000000 0.245210 0.000000
O O22 0.750000 0.131717 0.673439
O O23 0.250000 0.654378 0.808728
#
# Coordination Sequence:
#
# PCOD8207854 Si02
#       8
#     8   8   8   8   8   8   8   8
#     4   9  17  28  41  58  81 107 137 173 207 241
#     4   9  18  28  39  58  81 104 132 163 196 237
#     4  10  20  32  45  62  85 113 144 178 213 246
#     4   9  17  29  42  58  81 108 137 169 205 244
#     4   9  17  28  40  57  79 103 134 169 201 237
#     4   9  17  26  38  57  80 106 136 168 200 239
#     4  10  19  30  44  62  83 110 143 174 206 244
#     4   9  17  28  40  56  78 107 140 168 202 244
#
# _framework density 14.743138999999999
#
# number of rings (size 3 to 8) (size 9 to 14) (size 15 to 20)
#    0.000    2.750    0.000    3.750    0.000    7.750 
#    0.000    0.000    0.000    0.000    0.000    0.000 
#    0.000    1.000    0.000    2.750    0.000    3.750 
#
# Total GULP energy -793212.338427 kJ/mol
# GULP energy per Si atom -12393.942788 kJ/mol
# Density = 1.470958 g / cm^3
# Si number density = 14.743139 Si / 1000 Ang^3
#
#
#
# Elastic Constant Matrix: (Units=GPa)
#
#
# Indices 1 2 3 4 5 6 
#
# 1 71.6901 32.7891 44.3682 0.0000 0.0000 0.0000
# 2 32.7891 56.0649 35.7243 0.0000 0.0000 0.0000
# 3 44.3682 35.7243 79.7928 0.0000 0.0000 0.0000
# 4 0.0000 0.0000 0.0000 24.6021 0.0000 0.0000
# 5 0.0000 0.0000 0.0000 0.0000 29.7806 0.0000
# 6 0.0000 0.0000 0.0000 0.0000 0.0000 19.0122
#
#
#
# Elastic Compliance Matrix: (Units=1/GPa)
#
#
# Indices 1 2 3 4 5 6 
#
# 1 0.023337 -0.007527 -0.009606 0.000000 0.000000 0.000000
# 2 -0.007527 0.027384 -0.008075 0.000000 0.000000 0.000000
# 3 -0.009606 -0.008075 0.021489 0.000000 0.000000 0.000000
# 4 0.000000 0.000000 0.000000 0.040647 0.000000 0.000000
# 5 0.000000 0.000000 0.000000 0.000000 0.033579 0.000000
# 6 0.000000 0.000000 0.000000 0.000000 0.000000 0.052598
#
#
# Mechanical properties :
#
#
# Convention : Reuss Voigt Hill
#
# Bulk Modulus (GPa) = 45.88528 48.14566 47.01547
# Shear Modulus (GPa) = 19.47690 20.99007 20.23348
#
# Velocity S-wave (km/s) = 3.63861 3.77731 3.70861
# Velocity P-wave (km/s) = 6.98880 7.19384 7.09206
#
# Compressibility (1/GPa) = 0.02179348
#
# Stress axis : x y z
#
# Youngs Moduli (GPa) = 42.85053 36.51780 46.53540
#
# Poissons Ratio (x) = 0.27488 0.44703
# Poissons Ratio (y) = 0.32255 0.37575
# Poissons Ratio (z) = 0.41163 0.29487
#
# Static dielectric constant tensor:
#      x y z
#    x 3.165010 0.000000 0.000000 
#    y 0.000000 2.811280 0.000000 
#    z 0.000000 0.000000 2.959650 
# 
# 
# High freq. dielectric constant tensor:
#      x y z
#    x 1.576950 0.000000 0.000000 
#    y 0.000000 1.530490 0.000000 
#    z 0.000000 0.000000 1.549350 
# 
# From -- ./inp_files/28667.got.cif
#   From: 2010.03.12/outbox.cif.g09.slc.cpg/sg51_15_cif.got.tgz:28667.got - 2010.04.16 13:43:02.
