data_PCOD8207730
_publ_section_title
;
Structure prediction by ZEFSAII (Michael W. Deem and Ramdas Pophale) SiO2 
 PCOD8207730
Probable space group: P M M A
;
_chemical_formula_sum "Si O2"
_cell_formula_units_Z 64
_cell_length_a 14.969987
_cell_length_b 18.185383
_cell_length_c 14.275710
_cell_angle_alpha 90.000000
_cell_angle_beta 90.000000
_cell_angle_gamma 90.000000
_cell_volume 3886.347157
_symmetry_space_group_name_H-M "P M M A"
_symmetry_group_IT_number 51
_symmetry_cell_setting 'orthorhombic'
loop_
_space_group_symop_operation_xyz
x,y,z
1/2-x,-y,z
1/2+x,-y,-z
-x,y,-z
-x,-y,-z
1/2+x,y,-z
1/2-x,y,z
x,-y,z
loop_
_atom_site_type_symbol
_atom_site_label
_atom_site_fract_x
_atom_site_fract_y
_atom_site_fract_z
Si Si1 0.897947 0.913658 0.401803
Si Si2 0.848666 0.176027 0.232198
Si Si3 0.016257 0.913452 0.891476
Si Si4 0.404011 0.855273 0.402716
Si Si5 0.352690 0.678287 0.654960
Si Si6 0.352461 0.698756 0.434584
Si Si7 0.986789 0.418213 0.610483
Si Si8 0.654022 0.915976 0.780816
O O1 0.840795 0.881092 0.317584
O O2 0.861002 0.883443 0.500274
O O3 0.000166 0.891170 0.385725
O O4 0.888140 0.000000 0.400440
O O5 0.750000 0.185175 0.188776
O O6 0.909695 0.141975 0.149907
O O7 0.880412 0.254432 0.275832
O O8 0.924231 0.886131 0.845748
O O9 0.039712 0.000000 0.872073
O O10 0.000000 0.899580 0.000000
O O11 0.411540 0.767676 0.402513
O O12 0.339725 0.875818 0.318247
O O13 0.250000 0.652196 0.676880
O O14 0.358450 0.700229 0.546592
O O15 0.426740 0.613942 0.666641
O O16 0.250000 0.703317 0.401473
O O17 0.397221 0.630509 0.379365
O O18 0.969934 0.500000 0.651044
O O19 0.000000 0.422168 0.500000
O O20 0.750000 0.904909 0.831652
O O21 0.634479 0.000000 0.758692
#
# Coordination Sequence:
#
# PCOD8207730 Si02
#       8
#     8   8   8   8   8   8   8   8
#     4  11  21  30  45  69  98 133 168 207 252 295
#     4  11  21  34  53  75  98 128 165 207 257 312
#     4  10  22  39  54  69  93 125 166 218 267 305
#     4  11  19  30  46  67  97 134 168 199 242 293
#     4   9  18  32  48  70  97 127 161 200 246 290
#     4  10  19  29  44  65  95 135 171 202 238 278
#     4   9  18  30  46  68  95 133 172 201 232 278
#     4  10  20  33  49  68  91 123 163 204 246 292
#
# _framework density 16.467905999999999
#
# number of rings (size 3 to 8) (size 9 to 14) (size 15 to 20)
#    0.000    1.875    2.500    3.000    3.500    2.500 
#    0.000    3.750    0.000    0.000    0.000    0.000 
#    0.000    0.500    0.000    0.000    0.500    0.000 
#
# Total GULP energy -793084.811656 kJ/mol
# GULP energy per Si atom -12391.950182 kJ/mol
# Density = 1.643042 g / cm^3
# Si number density = 16.467906 Si / 1000 Ang^3
#
#
#
# Elastic Constant Matrix: (Units=GPa)
#
#
# Indices 1 2 3 4 5 6 
#
# 1 61.9043 27.8278 33.8254 0.0000 0.0000 0.0000
# 2 27.8278 96.3514 22.4776 0.0000 0.0000 0.0000
# 3 33.8254 22.4776 65.9009 0.0000 0.0000 0.0000
# 4 0.0000 0.0000 0.0000 11.7978 0.0000 0.0000
# 5 0.0000 0.0000 0.0000 0.0000 5.6176 0.0000
# 6 0.0000 0.0000 0.0000 0.0000 0.0000 12.1433
#
#
#
# Elastic Compliance Matrix: (Units=1/GPa)
#
#
# Indices 1 2 3 4 5 6 
#
# 1 0.024067 -0.004421 -0.010845 0.000000 0.000000 0.000000
# 2 -0.004421 0.012088 -0.001854 0.000000 0.000000 0.000000
# 3 -0.010845 -0.001854 0.021373 0.000000 0.000000 0.000000
# 4 0.000000 0.000000 0.000000 0.084762 0.000000 0.000000
# 5 0.000000 0.000000 0.000000 0.000000 0.178011 0.000000
# 6 0.000000 0.000000 0.000000 0.000000 0.000000 0.082350
#
#
# Mechanical properties :
#
#
# Convention : Reuss Voigt Hill
#
# Bulk Modulus (GPa) = 42.93979 43.60204 43.27091
# Shear Modulus (GPa) = 11.24469 15.24679 13.24574
#
# Velocity S-wave (km/s) = 2.61593 3.04608 2.83916
# Velocity P-wave (km/s) = 5.93764 6.23746 6.08939
#
# Compressibility (1/GPa) = 0.02328842
#
# Stress axis : x y z
#
# Youngs Moduli (GPa) = 41.55011 82.72669 46.78744
#
# Poissons Ratio (x) = 0.36573 0.50742
# Poissons Ratio (y) = 0.18369 0.08674
# Poissons Ratio (z) = 0.45062 0.15336
#
# Static dielectric constant tensor:
#      x y z
#    x 3.316040 0.000000 0.000000 
#    y 0.000000 3.170570 0.000000 
#    z 0.000000 0.000000 2.838390 
# 
# 
# High freq. dielectric constant tensor:
#      x y z
#    x 1.648170 0.000000 0.000000 
#    y 0.000000 1.619040 0.000000 
#    z 0.000000 0.000000 1.584690 
# 
# From -- ./inp_files/24450.got.cif
#   From: 2010.03.12/outbox.cif.g09.slc.cpg/sg51_13_cif.got.tgz:24450.got - 2010.04.16 13:43:02.
