data_PCOD8207418
_publ_section_title
;
Structure prediction by ZEFSAII (Michael W. Deem and Ramdas Pophale) SiO2 
 PCOD8207418
Probable space group: P M M A
;
_chemical_formula_sum "Si O2"
_cell_formula_units_Z 32
_cell_length_a 19.509170
_cell_length_b 9.159346
_cell_length_c 10.107472
_cell_angle_alpha 90.000000
_cell_angle_beta 90.000000
_cell_angle_gamma 90.000000
_cell_volume 1806.116687
_symmetry_space_group_name_H-M "P M M A"
_symmetry_group_IT_number 51
_symmetry_cell_setting 'orthorhombic'
loop_
_space_group_symop_operation_xyz
x,y,z
1/2-x,-y,z
1/2+x,-y,-z
-x,y,-z
-x,-y,-z
1/2+x,y,-z
1/2-x,y,z
x,-y,z
loop_
_atom_site_type_symbol
_atom_site_label
_atom_site_fract_x
_atom_site_fract_y
_atom_site_fract_z
Si Si1 0.404253 0.827115 0.892533
Si Si2 0.078480 0.169422 0.463105
Si Si3 0.829119 0.668926 0.327696
Si Si4 0.554991 0.172187 0.825581
O O1 0.345029 0.746307 0.811870
O O2 0.477285 0.769019 0.837712
O O3 0.395490 0.000000 0.873407
O O4 0.399071 0.781763 0.047891
O O5 0.127480 0.263905 0.553602
O O6 0.089602 0.223607 0.311399
O O7 0.000000 0.196440 0.500000
O O8 0.097951 0.000000 0.481492
O O9 0.750000 0.693737 0.361510
O O10 0.847786 0.500000 0.314462
O O11 0.546958 0.000000 0.824892
#
# Coordination Sequence:
#
# PCOD8207418 Si02
#       4
#     8   8   8   8
#     4   9  16  32  56  79 104 134 169 215 267 315
#     4  10  18  33  58  84 106 134 175 223 271 318
#     4  11  24  38  50  72 110 150 184 218 260 315
#     4   8  15  29  54  85 108 125 161 221 273 310
#
# _framework density 17.717571
#
# number of rings (size 3 to 8) (size 9 to 14) (size 15 to 20)
#    0.000    2.500    2.500    2.250    0.000    2.500 
#    0.000    5.000    0.000    7.500    0.000    0.000 
#    0.000    0.000    0.000    0.000    0.000    0.000 
#
# Total GULP energy -396660.966363 kJ/mol
# GULP energy per Si atom -12395.655199 kJ/mol
# Density = 1.767724 g / cm^3
# Si number density = 17.717571 Si / 1000 Ang^3
#
#
#
# Elastic Constant Matrix: (Units=GPa)
#
#
# Indices 1 2 3 4 5 6 
#
# 1 66.7991 48.0019 53.8147 0.0000 0.0000 0.0000
# 2 48.0019 74.6063 56.4488 0.0000 0.0000 0.0000
# 3 53.8147 56.4488 162.8888 0.0000 0.0000 0.0000
# 4 0.0000 0.0000 0.0000 3.1741 0.0000 0.0000
# 5 0.0000 0.0000 0.0000 0.0000 23.1571 0.0000
# 6 0.0000 0.0000 0.0000 0.0000 0.0000 18.2191
#
#
#
# Elastic Compliance Matrix: (Units=1/GPa)
#
#
# Indices 1 2 3 4 5 6 
#
# 1 0.029969 -0.015981 -0.004363 0.000000 0.000000 0.000000
# 2 -0.015981 0.026689 -0.003969 0.000000 0.000000 0.000000
# 3 -0.004363 -0.003969 0.008956 0.000000 0.000000 0.000000
# 4 0.000000 0.000000 0.000000 0.315050 0.000000 0.000000
# 5 0.000000 0.000000 0.000000 0.000000 0.043183 0.000000
# 6 0.000000 0.000000 0.000000 0.000000 0.000000 0.054887
#
#
# Mechanical properties :
#
#
# Convention : Reuss Voigt Hill
#
# Bulk Modulus (GPa) = 58.86566 68.98055 63.92310
# Shear Modulus (GPa) = 9.38043 18.64533 14.01288
#
# Velocity S-wave (km/s) = 2.30346 3.24753 2.81535
# Velocity P-wave (km/s) = 6.35383 7.28560 6.83561
#
# Compressibility (1/GPa) = 0.01698783
#
# Stress axis : x y z
#
# Youngs Moduli (GPa) = 33.36766 37.46819 111.65574
#
# Poissons Ratio (x) = 0.59879 0.48714
# Poissons Ratio (y) = 0.53325 0.44320
# Poissons Ratio (z) = 0.14558 0.14872
#
# Static dielectric constant tensor:
#      x y z
#    x 3.190130 0.000000 0.000000 
#    y 0.000000 3.008010 0.000000 
#    z 0.000000 0.000000 4.080820 
# 
# 
# High freq. dielectric constant tensor:
#      x y z
#    x 1.656300 0.000000 0.000000 
#    y 0.000000 1.655250 0.000000 
#    z 0.000000 0.000000 1.707990 
# 
# From -- ./inp_files/15826.got.cif
#   From: 2010.03.12/outbox.cif.g09.slc.cpg/sg51_8_cif.got.tgz:15826.got - 2010.04.16 13:43:02.
