data_PCOD8207767
_publ_section_title
;
Structure prediction by ZEFSAII (Michael W. Deem and Ramdas Pophale) SiO2 
 PCOD8207767
Probable space group: P M M A
;
_chemical_formula_sum "Si O2"
_cell_formula_units_Z 48
_cell_length_a 14.693621
_cell_length_b 9.707757
_cell_length_c 20.309239
_cell_angle_alpha 90.000000
_cell_angle_beta 90.000000
_cell_angle_gamma 90.000000
_cell_volume 2896.952543
_symmetry_space_group_name_H-M "P M M A"
_symmetry_group_IT_number 51
_symmetry_cell_setting 'orthorhombic'
loop_
_space_group_symop_operation_xyz
x,y,z
1/2-x,-y,z
1/2+x,-y,-z
-x,y,-z
-x,-y,-z
1/2+x,y,-z
1/2-x,y,z
x,-y,z
loop_
_atom_site_type_symbol
_atom_site_label
_atom_site_fract_x
_atom_site_fract_y
_atom_site_fract_z
Si Si1 0.250000 0.650108 0.696078
Si Si2 0.550995 0.845608 0.164211
Si Si3 0.908943 0.846350 0.304220
Si Si4 0.250000 0.653341 0.541857
Si Si5 0.750000 0.841793 0.114145
Si Si6 0.750000 0.340975 0.985130
Si Si7 0.582210 0.158421 0.452791
Si Si8 0.946427 0.659973 0.934933
O O1 0.250000 0.500000 0.730464
O O2 0.162962 0.733738 0.717716
O O3 0.250000 0.632213 0.618699
O O4 0.522073 0.839180 0.242133
O O5 0.658498 0.807959 0.155665
O O6 0.484768 0.742631 0.126805
O O7 0.533948 0.000000 0.137294
O O8 0.949396 0.813385 0.376799
O O9 0.864990 0.000000 0.306787
O O10 0.250000 0.500000 0.508350
O O11 0.161853 0.741667 0.522293
O O12 0.750000 0.000000 0.091563
O O13 0.750000 0.749299 0.049796
O O14 0.750000 0.500000 0.007638
O O15 0.660694 0.307924 0.941944
O O16 0.500000 0.194905 0.500000
O O17 0.613778 0.000000 0.461028
O O18 0.964751 0.500000 0.921325
O O19 0.000000 0.708451 0.000000
#
# Coordination Sequence:
#
# PCOD8207767 Si02
#       8
#     4   8   8   4   4   4   8   8
#     4   9  16  26  42  67  96 126 158 190 229 290
#     4  10  20  32  48  71  99 128 158 193 239 287
#     4   9  17  30  46  66  97 130 158 197 245 289
#     4   9  17  28  44  69 100 129 157 193 244 294
#     4  10  19  29  45  71  98 123 151 185 227 282
#     4  10  20  35  51  69  94 122 154 194 238 280
#     4   9  17  30  50  73  96 128 169 205 242 289
#     4  10  20  34  52  71  93 123 159 197 237 280
#
# _framework density 16.569136
#
# number of rings (size 3 to 8) (size 9 to 14) (size 15 to 20)
#    0.000    2.500    1.667    1.000    0.000    5.333 
#    0.000    0.833    0.000    1.000    0.000    4.667 
#    0.000    0.000    0.000    0.000    0.000    0.000 
#
# Total GULP energy -594743.297720 kJ/mol
# GULP energy per Si atom -12390.485369 kJ/mol
# Density = 1.653142 g / cm^3
# Si number density = 16.569136 Si / 1000 Ang^3
#
#
#
# Elastic Constant Matrix: (Units=GPa)
#
#
# Indices 1 2 3 4 5 6 
#
# 1 98.8967 50.0152 53.0999 0.0000 0.0000 0.0000
# 2 50.0152 91.1019 52.1209 0.0000 0.0000 0.0000
# 3 53.0999 52.1209 99.8777 0.0000 0.0000 0.0000
# 4 0.0000 0.0000 0.0000 16.9000 0.0000 0.0000
# 5 0.0000 0.0000 0.0000 0.0000 16.0019 0.0000
# 6 0.0000 0.0000 0.0000 0.0000 0.0000 21.9394
#
#
#
# Elastic Compliance Matrix: (Units=1/GPa)
#
#
# Indices 1 2 3 4 5 6 
#
# 1 0.015903 -0.005551 -0.005558 0.000000 0.000000 0.000000
# 2 -0.005551 0.017586 -0.006226 0.000000 0.000000 0.000000
# 3 -0.005558 -0.006226 0.016216 0.000000 0.000000 0.000000
# 4 0.000000 0.000000 0.000000 0.059172 0.000000 0.000000
# 5 0.000000 0.000000 0.000000 0.000000 0.062493 0.000000
# 6 0.000000 0.000000 0.000000 0.000000 0.000000 0.045580
#
#
# Mechanical properties :
#
#
# Convention : Reuss Voigt Hill
#
# Bulk Modulus (GPa) = 66.51058 66.70536 66.60797
# Shear Modulus (GPa) = 19.48311 19.94427 19.71369
#
# Velocity S-wave (km/s) = 3.43281 3.47320 3.45307
# Velocity P-wave (km/s) = 7.47935 7.51202 7.49570
#
# Compressibility (1/GPa) = 0.01503520
#
# Stress axis : x y z
#
# Youngs Moduli (GPa) = 62.88062 56.86231 61.66615
#
# Poissons Ratio (x) = 0.31564 0.34275
# Poissons Ratio (y) = 0.34905 0.38395
# Poissons Ratio (z) = 0.34950 0.35404
#
# Static dielectric constant tensor:
#      x y z
#    x 2.959640 0.000000 0.000000 
#    y 0.000000 3.438740 0.000000 
#    z 0.000000 0.000000 3.036900 
# 
# 
# High freq. dielectric constant tensor:
#      x y z
#    x 1.607100 0.000000 0.000000 
#    y 0.000000 1.648560 0.000000 
#    z 0.000000 0.000000 1.627350 
# 
# From -- ./inp_files/29691.got.cif
#   From: 2010.03.12/outbox.cif.g09.slc.cpg/sg51_15_cif.got.tgz:29691.got - 2010.04.16 13:43:02.
