data_PCOD8207400
_publ_section_title
;
Structure prediction by ZEFSAII (Michael W. Deem and Ramdas Pophale) SiO2 
 PCOD8207400
Probable space group: P M M A
;
_chemical_formula_sum "Si O2"
_cell_formula_units_Z 40
_cell_length_a 8.678770
_cell_length_b 11.930285
_cell_length_c 20.665583
_cell_angle_alpha 90.000000
_cell_angle_beta 90.000000
_cell_angle_gamma 90.000000
_cell_volume 2139.718588
_symmetry_space_group_name_H-M "P M M A"
_symmetry_group_IT_number 51
_symmetry_cell_setting 'orthorhombic'
loop_
_space_group_symop_operation_xyz
x,y,z
1/2-x,-y,z
1/2+x,-y,-z
-x,y,-z
-x,-y,-z
1/2+x,y,-z
1/2-x,y,z
x,-y,z
loop_
_atom_site_type_symbol
_atom_site_label
_atom_site_fract_x
_atom_site_fract_y
_atom_site_fract_z
Si Si1 0.432250 0.127841 0.432582
Si Si2 0.932051 0.500000 0.121778
Si Si3 0.068695 0.500000 0.263295
Si Si4 0.932292 0.739664 0.690380
Si Si5 0.067158 0.725849 0.067888
Si Si6 0.433290 0.874367 0.186893
O O1 0.500000 0.172483 0.500000
O O2 0.250000 0.135949 0.436285
O O3 0.499369 0.206328 0.375400
O O4 0.485188 0.000000 0.419331
O O5 0.750000 0.500000 0.115503
O O6 0.978687 0.500000 0.196431
O O7 0.999414 0.605946 0.085054
O O8 0.250000 0.500000 0.246674
O O9 0.021328 0.608939 0.305021
O O10 0.750000 0.753529 0.690332
O O11 0.000810 0.805900 0.752021
O O12 0.250000 0.717175 0.064683
O O13 0.011543 0.815013 0.121338
O O14 0.000000 0.768310 0.000000
O O15 0.250000 0.876214 0.190332
O O16 0.500424 0.000000 0.188594
#
# Coordination Sequence:
#
# PCOD8207400 Si02
#       6
#     8   4   4   8   8   8
#     4   9  17  30  50  76 105 138 174 213 255 303
#     4  12  23  37  56  79 106 137 175 219 267 318
#     4  10  18  33  56  81 103 133 173 219 268 312
#     4   9  16  29  52  79 104 132 174 219 257 304
#     4  11  22  37  56  79 107 138 175 219 266 315
#     4   9  17  30  52  80 105 133 173 218 261 309
#
# _framework density 18.694046
#
# number of rings (size 3 to 8) (size 9 to 14) (size 15 to 20)
#    0.000    2.200    2.000    2.400    0.000    2.800 
#    0.000    1.500    0.000    1.800    0.000    0.000 
#    0.000    0.000    0.000    0.000    0.000    0.000 
#
# Total GULP energy -496006.352321 kJ/mol
# GULP energy per Si atom -12400.158808 kJ/mol
# Density = 1.865150 g / cm^3
# Si number density = 18.694046 Si / 1000 Ang^3
#
#
#
# Elastic Constant Matrix: (Units=GPa)
#
#
# Indices 1 2 3 4 5 6 
#
# 1 38.3022 20.4893 26.6953 0.0000 0.0000 0.0000
# 2 20.4893 160.5495 95.4417 0.0000 0.0000 0.0000
# 3 26.6953 95.4417 190.4268 0.0000 0.0000 0.0000
# 4 0.0000 0.0000 0.0000 40.2314 0.0000 0.0000
# 5 0.0000 0.0000 0.0000 0.0000 28.6154 0.0000
# 6 0.0000 0.0000 0.0000 0.0000 0.0000 5.1714
#
#
#
# Elastic Compliance Matrix: (Units=1/GPa)
#
#
# Indices 1 2 3 4 5 6 
#
# 1 0.029316 -0.001849 -0.003183 0.000000 0.000000 0.000000
# 2 -0.001849 0.008989 -0.004246 0.000000 0.000000 0.000000
# 3 -0.003183 -0.004246 0.007826 0.000000 0.000000 0.000000
# 4 0.000000 0.000000 0.000000 0.024856 0.000000 0.000000
# 5 0.000000 0.000000 0.000000 0.000000 0.034946 0.000000
# 6 0.000000 0.000000 0.000000 0.000000 0.000000 0.193370
#
#
# Mechanical properties :
#
#
# Convention : Reuss Voigt Hill
#
# Bulk Modulus (GPa) = 36.26590 74.94791 55.60690
# Shear Modulus (GPa) = 15.28820 31.24714 23.26767
#
# Velocity S-wave (km/s) = 2.86284 4.09284 3.53180
# Velocity P-wave (km/s) = 5.51087 7.90658 6.81482
#
# Compressibility (1/GPa) = 0.02757411
#
# Stress axis : x y z
#
# Youngs Moduli (GPa) = 34.11144 111.25168 127.78606
#
# Poissons Ratio (x) = 0.20572 0.40673
# Poissons Ratio (y) = 0.06308 0.54256
# Poissons Ratio (z) = 0.10857 0.47236
#
# Static dielectric constant tensor:
#      x y z
#    x 3.035030 0.000000 0.000000 
#    y 0.000000 3.686030 0.000000 
#    z 0.000000 0.000000 3.712130 
# 
# 
# High freq. dielectric constant tensor:
#      x y z
#    x 1.684270 0.000000 0.000000 
#    y 0.000000 1.730720 0.000000 
#    z 0.000000 0.000000 1.734890 
# 
# From -- ./inp_files/31435.got.cif
#   From: 2010.03.12/outbox.cif.g09.slc.cpg/sg51_16_cif.got.tgz:31435.got - 2010.04.16 13:43:02.
