data_PCOD8207742
_publ_section_title
;
Structure prediction by ZEFSAII (Michael W. Deem and Ramdas Pophale) SiO2 
 PCOD8207742
Probable space group: P M M A
;
_chemical_formula_sum "Si O2"
_cell_formula_units_Z 64
_cell_length_a 23.777774
_cell_length_b 9.320399
_cell_length_c 16.786231
_cell_angle_alpha 90.000000
_cell_angle_beta 90.000000
_cell_angle_gamma 90.000000
_cell_volume 3720.136666
_symmetry_space_group_name_H-M "P M M A"
_symmetry_group_IT_number 51
_symmetry_cell_setting 'orthorhombic'
loop_
_space_group_symop_operation_xyz
x,y,z
1/2-x,-y,z
1/2+x,-y,-z
-x,y,-z
-x,-y,-z
1/2+x,y,-z
1/2-x,y,z
x,-y,z
loop_
_atom_site_type_symbol
_atom_site_label
_atom_site_fract_x
_atom_site_fract_y
_atom_site_fract_z
Si Si1 0.593986 0.835484 0.636612
Si Si2 0.814752 0.330445 0.090486
Si Si3 0.185604 0.168492 0.237851
Si Si4 0.530228 0.836781 0.339709
Si Si5 0.316519 0.657680 0.086940
Si Si6 0.869055 0.168402 0.229904
Si Si7 0.312798 0.338971 0.638031
Si Si8 0.086921 0.333979 0.525396
O O1 0.645183 0.778632 0.691063
O O2 0.535102 0.822303 0.684999
O O3 0.589135 0.738282 0.559735
O O4 0.604758 0.000000 0.611019
O O5 0.750000 0.284002 0.107449
O O6 0.820787 0.500000 0.103401
O O7 0.858419 0.247465 0.146696
O O8 0.833590 0.287093 0.000920
O O9 0.250000 0.215029 0.256881
O O10 0.162532 0.236118 0.155825
O O11 0.180837 0.000000 0.226472
O O12 0.568898 0.791835 0.264262
O O13 0.540875 0.738437 0.417089
O O14 0.545122 0.000000 0.364247
O O15 0.250000 0.646040 0.088790
O O16 0.342537 0.500000 0.102808
O O17 0.823255 0.224856 0.292571
O O18 0.861198 0.000000 0.217129
O O19 0.250000 0.318924 0.606140
O O20 0.322645 0.500000 0.672314
O O21 0.351809 0.310648 0.562589
O O22 0.070605 0.500000 0.515996
#
# Coordination Sequence:
#
# PCOD8207742 Si02
#       8
#     8   8   8   8   8   8   8   8
#     4  10  20  34  51  68  90 122 153 183 229 284
#     4   9  17  29  46  69  97 127 154 180 220 275
#     4   9  18  32  50  73  97 118 146 188 233 273
#     4   9  19  35  50  64  89 125 158 187 226 275
#     4   8  15  29  48  69  94 124 153 180 218 271
#     4  10  19  29  44  68  93 118 155 197 226 255
#     4   9  18  32  46  61  90 129 156 178 223 281
#     4  10  20  32  48  71  93 115 153 201 234 260
#
# _framework density 17.203668
#
# number of rings (size 3 to 8) (size 9 to 14) (size 15 to 20)
#    0.000    2.750    0.000    2.250    0.000    6.500 
#    0.000    1.250    0.000    0.750    0.000    5.250 
#    0.000    0.000    0.000    0.000    0.000    0.000 
#
# Total GULP energy -793408.240729 kJ/mol
# GULP energy per Si atom -12397.003761 kJ/mol
# Density = 1.716451 g / cm^3
# Si number density = 17.203668 Si / 1000 Ang^3
#
#
#
# Elastic Constant Matrix: (Units=GPa)
#
#
# Indices 1 2 3 4 5 6 
#
# 1 87.2565 34.7874 54.2165 0.0000 0.0000 0.0000
# 2 34.7874 67.9635 53.3367 0.0000 0.0000 0.0000
# 3 54.2165 53.3367 114.5707 0.0000 0.0000 0.0000
# 4 0.0000 0.0000 0.0000 32.4118 0.0000 0.0000
# 5 0.0000 0.0000 0.0000 0.0000 16.4979 0.0000
# 6 0.0000 0.0000 0.0000 0.0000 0.0000 18.3366
#
#
#
# Elastic Compliance Matrix: (Units=1/GPa)
#
#
# Indices 1 2 3 4 5 6 
#
# 1 0.016810 -0.003721 -0.006223 0.000000 0.000000 0.000000
# 2 -0.003721 0.024008 -0.009416 0.000000 0.000000 0.000000
# 3 -0.006223 -0.009416 0.016056 0.000000 0.000000 0.000000
# 4 0.000000 0.000000 0.000000 0.030853 0.000000 0.000000
# 5 0.000000 0.000000 0.000000 0.000000 0.060614 0.000000
# 6 0.000000 0.000000 0.000000 0.000000 0.000000 0.054536
#
#
# Mechanical properties :
#
#
# Convention : Reuss Voigt Hill
#
# Bulk Modulus (GPa) = 55.07914 61.60799 58.34356
# Shear Modulus (GPa) = 20.19003 21.94593 21.06798
#
# Velocity S-wave (km/s) = 3.42948 3.57550 3.50326
# Velocity P-wave (km/s) = 6.91139 7.27560 7.09583
#
# Compressibility (1/GPa) = 0.01815569
#
# Stress axis : x y z
#
# Youngs Moduli (GPa) = 59.48704 41.65353 62.28149
#
# Poissons Ratio (x) = 0.15499 0.38756
# Poissons Ratio (y) = 0.22135 0.58641
# Poissons Ratio (z) = 0.37017 0.39219
#
# Static dielectric constant tensor:
#      x y z
#    x 3.236190 0.000000 0.000000 
#    y 0.000000 3.362250 0.000000 
#    z 0.000000 0.000000 3.214290 
# 
# 
# High freq. dielectric constant tensor:
#      x y z
#    x 1.648130 0.000000 0.000000 
#    y 0.000000 1.666170 0.000000 
#    z 0.000000 0.000000 1.654240 
# 
# From -- ./inp_files/30896.got.cif
#   From: 2010.03.12/outbox.cif.g09.slc.cpg/sg51_16_cif.got.tgz:30896.got - 2010.04.16 13:43:02.
