data_PCOD8207393
_publ_section_title
;
Structure prediction by ZEFSAII (Michael W. Deem and Ramdas Pophale) SiO2 
 PCOD8207393
Probable space group: P M M A
;
_chemical_formula_sum "Si O2"
_cell_formula_units_Z 64
_cell_length_a 19.607221
_cell_length_b 8.802349
_cell_length_c 20.264558
_cell_angle_alpha 90.000000
_cell_angle_beta 90.000000
_cell_angle_gamma 90.000000
_cell_volume 3497.452003
_symmetry_space_group_name_H-M "P M M A"
_symmetry_group_IT_number 51
_symmetry_cell_setting 'orthorhombic'
loop_
_space_group_symop_operation_xyz
x,y,z
1/2-x,-y,z
1/2+x,-y,-z
-x,y,-z
-x,-y,-z
1/2+x,y,-z
1/2-x,y,z
x,-y,z
loop_
_atom_site_type_symbol
_atom_site_label
_atom_site_fract_x
_atom_site_fract_y
_atom_site_fract_z
Si Si1 0.548207 0.819290 0.087779
Si Si2 0.327354 0.180050 0.662201
Si Si3 0.587446 0.819168 0.729369
Si Si4 0.830993 0.670678 0.471672
Si Si5 0.061256 0.180245 0.763738
Si Si6 0.090979 0.320768 0.039516
Si Si7 0.828102 0.820174 0.605224
Si Si8 0.671829 0.825291 0.854065
O O1 0.570880 0.766574 0.160747
O O2 0.472056 0.761621 0.074943
O O3 0.550274 0.000000 0.079902
O O4 0.599110 0.741481 0.035154
O O5 0.250000 0.236850 0.675643
O O6 0.357149 0.243569 0.593555
O O7 0.375370 0.242567 0.720946
O O8 0.329653 0.000000 0.657919
O O9 0.509907 0.757794 0.733344
O O10 0.624701 0.755649 0.664071
O O11 0.627579 0.760376 0.793599
O O12 0.590206 0.000000 0.728273
O O13 0.750000 0.675594 0.472249
O O14 0.859314 0.500000 0.470501
O O15 0.858199 0.752931 0.537326
O O16 0.059180 0.000000 0.761279
O O17 0.079404 0.500000 0.038007
O O18 0.157728 0.275506 0.080932
O O19 0.750000 0.767987 0.617751
O O20 0.832179 0.000000 0.600236
O O21 0.750000 0.807853 0.833735
O O22 0.653157 0.000000 0.869513
#
# Coordination Sequence:
#
# PCOD8207393 Si02
#       8
#     8   8   8   8   8   8   8   8
#     4  10  18  33  56  76  97 129 172 215 254 301
#     4   9  17  31  52  76  98 122 158 205 254 302
#     4   9  16  29  49  75 101 127 165 210 252 295
#     4   9  17  30  48  69  95 129 166 201 240 294
#     4   9  17  30  52  78 101 126 161 209 256 297
#     4  11  21  33  50  75 105 135 170 210 255 303
#     4   9  16  27  47  73  97 124 161 206 249 290
#     4  10  19  33  54  77 102 136 176 215 254 300
#
# _framework density 18.299035
#
# number of rings (size 3 to 8) (size 9 to 14) (size 15 to 20)
#    0.000    2.500    1.250    3.000    0.000    3.250 
#    0.000    3.125    0.000    7.500    0.000    0.000 
#    0.000    0.000    0.000    0.000    0.000    0.000 
#
# Total GULP energy -793483.147074 kJ/mol
# GULP energy per Si atom -12398.174173 kJ/mol
# Density = 1.825739 g / cm^3
# Si number density = 18.299035 Si / 1000 Ang^3
#
#
#
# Elastic Constant Matrix: (Units=GPa)
#
#
# Indices 1 2 3 4 5 6 
#
# 1 86.2660 19.5661 71.5919 0.0000 0.0000 0.0000
# 2 19.5661 42.8660 33.1342 0.0000 0.0000 0.0000
# 3 71.5919 33.1342 180.1408 0.0000 0.0000 0.0000
# 4 0.0000 0.0000 0.0000 4.7758 0.0000 0.0000
# 5 0.0000 0.0000 0.0000 0.0000 32.9754 0.0000
# 6 0.0000 0.0000 0.0000 0.0000 0.0000 10.3894
#
#
#
# Elastic Compliance Matrix: (Units=1/GPa)
#
#
# Indices 1 2 3 4 5 6 
#
# 1 0.017636 -0.003069 -0.006445 0.000000 0.000000 0.000000
# 2 -0.003069 0.027729 -0.003881 0.000000 0.000000 0.000000
# 3 -0.006445 -0.003881 0.008826 0.000000 0.000000 0.000000
# 4 0.000000 0.000000 0.000000 0.209387 0.000000 0.000000
# 5 0.000000 0.000000 0.000000 0.000000 0.030326 0.000000
# 6 0.000000 0.000000 0.000000 0.000000 0.000000 0.096252
#
#
# Mechanical properties :
#
#
# Convention : Reuss Voigt Hill
#
# Bulk Modulus (GPa) = 36.49165 61.98414 49.23790
# Shear Modulus (GPa) = 11.73491 21.96018 16.84755
#
# Velocity S-wave (km/s) = 2.53511 3.46797 3.03756
# Velocity P-wave (km/s) = 5.34361 7.06981 6.26643
#
# Compressibility (1/GPa) = 0.02740353
#
# Stress axis : x y z
#
# Youngs Moduli (GPa) = 56.70071 36.06351 113.29783
#
# Poissons Ratio (x) = 0.11066 0.73017
# Poissons Ratio (y) = 0.17399 0.43969
# Poissons Ratio (z) = 0.36542 0.13996
#
# Static dielectric constant tensor:
#      x y z
#    x 3.292810 0.000000 0.000000 
#    y 0.000000 3.095730 0.000000 
#    z 0.000000 0.000000 3.708090 
# 
# 
# High freq. dielectric constant tensor:
#      x y z
#    x 1.682160 0.000000 0.000000 
#    y 0.000000 1.681180 0.000000 
#    z 0.000000 0.000000 1.723310 
# 
# From -- ./inp_files/34096.got.cif
#   From: 2010.03.12/outbox.cif.g09.slc.cpg/sg51_18_cif.got.tgz:34096.got - 2010.04.16 13:43:02.
