data_PCOD8207946
_publ_section_title
;
Structure prediction by ZEFSAII (Michael W. Deem and Ramdas Pophale) SiO2 
 PCOD8207946
Probable space group: P M M A
;
_chemical_formula_sum "Si O2"
_cell_formula_units_Z 48
_cell_length_a 9.149961
_cell_length_b 13.725609
_cell_length_c 23.899094
_cell_angle_alpha 90.000000
_cell_angle_beta 90.000000
_cell_angle_gamma 90.000000
_cell_volume 3001.458227
_symmetry_space_group_name_H-M "P M M A"
_symmetry_group_IT_number 51
_symmetry_cell_setting 'orthorhombic'
loop_
_space_group_symop_operation_xyz
x,y,z
1/2-x,-y,z
1/2+x,-y,-z
-x,y,-z
-x,-y,-z
1/2+x,y,-z
1/2-x,y,z
x,-y,z
loop_
_atom_site_type_symbol
_atom_site_label
_atom_site_fract_x
_atom_site_fract_y
_atom_site_fract_z
Si Si1 0.077612 0.888829 0.719187
Si Si2 0.420489 0.794157 0.832642
Si Si3 0.919707 0.610056 0.233034
Si Si4 0.420848 0.611101 0.444900
Si Si5 0.077014 0.714609 0.331609
Si Si6 0.579423 0.886710 0.055609
O O1 0.250000 0.869430 0.713655
O O2 0.021980 0.860633 0.781404
O O3 0.993463 0.821409 0.674848
O O4 0.036701 0.000000 0.706418
O O5 0.250000 0.813633 0.838576
O O6 0.456656 0.680931 0.819346
O O7 0.489599 0.827487 0.891680
O O8 0.750000 0.622297 0.249705
O O9 0.956760 0.500000 0.214732
O O10 0.015168 0.638820 0.286378
O O11 0.500000 0.652291 0.500000
O O12 0.250000 0.617894 0.455817
O O13 0.469287 0.500000 0.432873
O O14 0.468294 0.676453 0.392518
O O15 0.250000 0.720713 0.324001
O O16 0.750000 0.866316 0.047604
O O17 0.547164 0.000000 0.066362
O O18 0.500000 0.848816 0.000000
#
# Coordination Sequence:
#
# PCOD8207946 Si02
#       6
#     8   8   8   8   8   8
#     4   9  17  30  48  68  89 115 149 185 217 255
#     4   8  14  26  44  64  85 111 143 178 216 255
#     4   9  17  29  46  67  88 113 148 184 215 255
#     4   9  18  31  46  65  89 117 147 178 214 256
#     4  10  19  30  45  67  95 121 143 174 220 269
#     4   9  16  26  41  60  82 109 140 175 216 260
#
# _framework density 15.992227
#
# number of rings (size 3 to 8) (size 9 to 14) (size 15 to 20)
#    0.000    3.000    0.000    2.500    0.000    4.667 
#    0.000    5.000    0.000    5.000    0.000    0.000 
#    0.000    0.000    0.000    0.000    0.000    0.000 
#
# Total GULP energy -595054.778201 kJ/mol
# GULP energy per Si atom -12396.974546 kJ/mol
# Density = 1.595583 g / cm^3
# Si number density = 15.992227 Si / 1000 Ang^3
#
#
#
# Elastic Constant Matrix: (Units=GPa)
#
#
# Indices 1 2 3 4 5 6 
#
# 1 40.7686 37.9567 45.8610 0.0000 0.0000 0.0000
# 2 37.9567 122.1235 73.8407 0.0000 0.0000 0.0000
# 3 45.8610 73.8407 145.2166 0.0000 0.0000 0.0000
# 4 0.0000 0.0000 0.0000 25.9956 0.0000 0.0000
# 5 0.0000 0.0000 0.0000 0.0000 25.5529 0.0000
# 6 0.0000 0.0000 0.0000 0.0000 0.0000 19.9888
#
#
#
# Elastic Compliance Matrix: (Units=1/GPa)
#
#
# Indices 1 2 3 4 5 6 
#
# 1 0.042102 -0.007286 -0.009591 0.000000 0.000000 0.000000
# 2 -0.007286 0.013085 -0.004352 0.000000 0.000000 0.000000
# 3 -0.009591 -0.004352 0.012128 0.000000 0.000000 0.000000
# 4 0.000000 0.000000 0.000000 0.038468 0.000000 0.000000
# 5 0.000000 0.000000 0.000000 0.000000 0.039134 0.000000
# 6 0.000000 0.000000 0.000000 0.000000 0.000000 0.050028
#
#
# Mechanical properties :
#
#
# Convention : Reuss Voigt Hill
#
# Bulk Modulus (GPa) = 40.23311 69.26949 54.75130
# Shear Modulus (GPa) = 20.35090 24.33749 22.34419
#
# Velocity S-wave (km/s) = 3.57115 3.90530 3.74196
# Velocity P-wave (km/s) = 6.49744 7.98396 7.27875
#
# Compressibility (1/GPa) = 0.02485515
#
# Stress axis : x y z
#
# Youngs Moduli (GPa) = 23.75210 76.42590 82.45146
#
# Poissons Ratio (x) = 0.55685 0.79081
# Poissons Ratio (y) = 0.17306 0.35885
# Poissons Ratio (z) = 0.22781 0.33263
#
# Static dielectric constant tensor:
#      x y z
#    x 2.871050 0.000000 0.000000 
#    y 0.000000 3.098660 0.000000 
#    z 0.000000 0.000000 3.099050 
# 
# 
# High freq. dielectric constant tensor:
#      x y z
#    x 1.598300 0.000000 0.000000 
#    y 0.000000 1.607880 0.000000 
#    z 0.000000 0.000000 1.606110 
# 
# From -- ./inp_files/31588.got.cif
#   From: 2010.03.12/outbox.cif.g09.slc.cpg/sg51_16_cif.got.tgz:31588.got - 2010.04.16 13:43:02.
