data_PCOD8207453
_publ_section_title
;
Structure prediction by ZEFSAII (Michael W. Deem and Ramdas Pophale) SiO2 
 PCOD8207453
Probable space group: P M M A
;
_chemical_formula_sum "Si O2"
_cell_formula_units_Z 48
_cell_length_a 15.991071
_cell_length_b 9.379218
_cell_length_c 15.288866
_cell_angle_alpha 90.000000
_cell_angle_beta 90.000000
_cell_angle_gamma 90.000000
_cell_volume 2293.081318
_symmetry_space_group_name_H-M "P M M A"
_symmetry_group_IT_number 51
_symmetry_cell_setting 'orthorhombic'
loop_
_space_group_symop_operation_xyz
x,y,z
1/2-x,-y,z
1/2+x,-y,-z
-x,y,-z
-x,-y,-z
1/2+x,y,-z
1/2-x,y,z
x,-y,z
loop_
_atom_site_type_symbol
_atom_site_label
_atom_site_fract_x
_atom_site_fract_y
_atom_site_fract_z
Si Si1 0.250000 0.332056 0.244405
Si Si2 0.250000 0.173165 0.426365
Si Si3 0.098360 0.338491 0.121583
Si Si4 0.845430 0.163938 0.032505
Si Si5 0.084345 0.333630 0.447790
Si Si6 0.343264 0.166103 0.769906
Si Si7 0.511756 0.339631 0.279357
O O1 0.250000 0.500000 0.272826
O O2 0.250000 0.230040 0.327788
O O3 0.171685 0.290976 0.185609
O O4 0.165226 0.236235 0.472585
O O5 0.250000 0.000000 0.431309
O O6 0.110888 0.500000 0.090599
O O7 0.014850 0.318007 0.178516
O O8 0.093395 0.245813 0.033761
O O9 0.750000 0.186360 0.001586
O O10 0.855132 0.222375 0.130931
O O11 0.871135 0.000000 0.028927
O O12 0.106253 0.500000 0.464684
O O13 0.000000 0.289335 0.500000
O O14 0.064148 0.304422 0.345338
O O15 0.250000 0.200689 0.736856
O O16 0.407508 0.241731 0.704072
O O17 0.361139 0.000000 0.766645
O O18 0.541228 0.500000 0.297634
#
# Coordination Sequence:
#
# PCOD8207453 Si02
#       7
#     4   4   8   8   8   8   8
#     4  10  18  34  56  80 117 158 195 232 279 350
#     4  12  24  38  64  98 129 160 193 242 305 360
#     4  10  19  31  52  81 113 146 185 240 294 333
#     4   9  18  32  50  74 107 148 198 241 278 344
#     4  10  22  44  70  92 122 163 203 243 294 361
#     4   9  20  39  57  74 106 156 199 237 293 352
#     4  10  21  37  58  86 113 142 189 245 289 340
#
# _framework density 20.932534
#
# number of rings (size 3 to 8) (size 9 to 14) (size 15 to 20)
#    0.000    2.167    2.500    1.750    0.000    4.000 
#    1.500    5.000    0.000    0.000    0.000    0.000 
#    0.000    0.000    0.000    0.000    0.000    0.000 
#
# Total GULP energy -594983.912427 kJ/mol
# GULP energy per Si atom -12395.498176 kJ/mol
# Density = 2.088489 g / cm^3
# Si number density = 20.932534 Si / 1000 Ang^3
#
#
#
# Elastic Constant Matrix: (Units=GPa)
#
#
# Indices 1 2 3 4 5 6 
#
# 1 118.2851 62.9217 21.8774 0.0000 0.0000 0.0000
# 2 62.9217 80.8897 21.0503 0.0000 0.0000 0.0000
# 3 21.8774 21.0503 18.5810 0.0000 0.0000 0.0000
# 4 0.0000 0.0000 0.0000 22.9195 0.0000 0.0000
# 5 0.0000 0.0000 0.0000 0.0000 21.1472 0.0000
# 6 0.0000 0.0000 0.0000 0.0000 0.0000 36.9234
#
#
#
# Elastic Compliance Matrix: (Units=1/GPa)
#
#
# Indices 1 2 3 4 5 6 
#
# 1 0.014919 -0.009974 -0.006266 0.000000 0.000000 0.000000
# 2 -0.009974 0.024200 -0.015672 0.000000 0.000000 0.000000
# 3 -0.006266 -0.015672 0.078950 0.000000 0.000000 0.000000
# 4 0.000000 0.000000 0.000000 0.043631 0.000000 0.000000
# 5 0.000000 0.000000 0.000000 0.000000 0.047288 0.000000
# 6 0.000000 0.000000 0.000000 0.000000 0.000000 0.027083
#
#
# Mechanical properties :
#
#
# Convention : Reuss Voigt Hill
#
# Bulk Modulus (GPa) = 18.43486 47.71717 33.07601
# Shear Modulus (GPa) = 15.72450 23.65845 19.69147
#
# Velocity S-wave (km/s) = 2.74377 3.36553 3.07043
# Velocity P-wave (km/s) = 4.34323 6.16016 5.32969
#
# Compressibility (1/GPa) = 0.05424506
#
# Stress axis : x y z
#
# Youngs Moduli (GPa) = 67.02900 41.32291 12.66626
#
# Poissons Ratio (x) = 0.41217 0.07936
# Poissons Ratio (y) = 0.66858 0.19850
# Poissons Ratio (z) = 0.41998 0.64760
#
# Static dielectric constant tensor:
#      x y z
#    x 3.898480 0.000000 0.000000 
#    y 0.000000 3.522310 0.000000 
#    z 0.000000 0.000000 3.704930 
# 
# 
# High freq. dielectric constant tensor:
#      x y z
#    x 1.826820 0.000000 0.000000 
#    y 0.000000 1.797120 0.000000 
#    z 0.000000 0.000000 1.807330 
# 
# From -- ./inp_files/24847.got.cif
#   From: 2010.03.12/outbox.cif.g09.slc.cpg/sg51_13_cif.got.tgz:24847.got - 2010.04.16 13:43:02.
