data_PCOD8207552
_publ_section_title
;
Structure prediction by ZEFSAII (Michael W. Deem and Ramdas Pophale) SiO2 
 PCOD8207552
Probable space group: P M M A
;
_chemical_formula_sum "Si O2"
_cell_formula_units_Z 64
_cell_length_a 26.011727
_cell_length_b 8.949908
_cell_length_c 18.441872
_cell_angle_alpha 90.000000
_cell_angle_beta 90.000000
_cell_angle_gamma 90.000000
_cell_volume 4293.315079
_symmetry_space_group_name_H-M "P M M A"
_symmetry_group_IT_number 51
_symmetry_cell_setting 'orthorhombic'
loop_
_space_group_symop_operation_xyz
x,y,z
1/2-x,-y,z
1/2+x,-y,-z
-x,y,-z
-x,-y,-z
1/2+x,y,-z
1/2-x,y,z
x,-y,z
loop_
_atom_site_type_symbol
_atom_site_label
_atom_site_fract_x
_atom_site_fract_y
_atom_site_fract_z
Si Si1 0.394329 0.824145 0.579256
Si Si2 0.690298 0.325856 0.329386
Si Si3 0.891762 0.322567 0.088750
Si Si4 0.508174 0.677620 0.178226
Si Si5 0.504278 0.175648 0.332825
Si Si6 0.948042 0.331599 0.545202
Si Si7 0.809591 0.172450 0.179820
Si Si8 0.948525 0.336752 0.954366
O O1 0.341649 0.753699 0.607762
O O2 0.440332 0.781461 0.634073
O O3 0.404705 0.756736 0.499682
O O4 0.387774 0.000000 0.571573
O O5 0.750000 0.294980 0.345426
O O6 0.677103 0.500000 0.328236
O O7 0.673960 0.259041 0.252163
O O8 0.883149 0.500000 0.085094
O O9 0.935797 0.283185 0.146937
O O10 0.839934 0.239770 0.111787
O O11 0.907169 0.258008 0.008206
O O12 0.502637 0.500000 0.189325
O O13 0.500408 0.763569 0.252261
O O14 0.464047 0.740406 0.122145
O O15 0.458252 0.249771 0.378695
O O16 0.495627 0.000000 0.333765
O O17 0.928990 0.500000 0.559855
O O18 0.000000 0.330428 0.500000
O O19 0.750000 0.195689 0.162277
O O20 0.823720 0.000000 0.191184
O O21 0.926515 0.500000 0.935242
O O22 0.000000 0.357483 0.000000
#
# Coordination Sequence:
#
# PCOD8207552 Si02
#       8
#     8   8   8   8   8   8   8   8
#     4  10  19  30  44  61  84 112 138 168 208 248
#     4  10  20  32  45  61  81 107 142 179 207 236
#     4   9  16  27  44  61  78 105 140 173 203 239
#     4   9  16  26  41  60  82 108 137 167 201 243
#     4  10  19  28  39  59  86 112 139 170 204 243
#     4   9  17  29  44  60  79 106 140 173 203 239
#     4  10  20  31  41  56  81 110 138 171 210 245
#     4   7  12  24  40  58  79 103 132 166 202 239
#
# _framework density 14.906895
#
# number of rings (size 3 to 8) (size 9 to 14) (size 15 to 20)
#    0.000    2.750    0.000    4.125    0.000    7.000 
#    0.000    0.625    0.000    2.250    0.000    0.000 
#    0.000    1.000    0.000    5.250    0.000    4.875 
#
# Total GULP energy -793229.711664 kJ/mol
# GULP energy per Si atom -12394.214245 kJ/mol
# Density = 1.487297 g / cm^3
# Si number density = 14.906895 Si / 1000 Ang^3
#
#
#
# Elastic Constant Matrix: (Units=GPa)
#
#
# Indices 1 2 3 4 5 6 
#
# 1 58.6171 36.8886 41.3996 0.0000 0.0000 0.0000
# 2 36.8886 73.7239 45.5019 0.0000 0.0000 0.0000
# 3 41.3996 45.5019 98.8771 0.0000 0.0000 0.0000
# 4 0.0000 0.0000 0.0000 9.8706 0.0000 0.0000
# 5 0.0000 0.0000 0.0000 0.0000 28.3299 0.0000
# 6 0.0000 0.0000 0.0000 0.0000 0.0000 20.0939
#
#
#
# Elastic Compliance Matrix: (Units=1/GPa)
#
#
# Indices 1 2 3 4 5 6 
#
# 1 0.028364 -0.009585 -0.007465 0.000000 0.000000 0.000000
# 2 -0.009585 0.022184 -0.006196 0.000000 0.000000 0.000000
# 3 -0.007465 -0.006196 0.016090 0.000000 0.000000 0.000000
# 4 0.000000 0.000000 0.000000 0.101311 0.000000 0.000000
# 5 0.000000 0.000000 0.000000 0.000000 0.035298 0.000000
# 6 0.000000 0.000000 0.000000 0.000000 0.000000 0.049766
#
#
# Mechanical properties :
#
#
# Convention : Reuss Voigt Hill
#
# Bulk Modulus (GPa) = 49.63476 53.19981 51.41728
# Shear Modulus (GPa) = 16.32804 18.82073 17.57438
#
# Velocity S-wave (km/s) = 3.31317 3.55710 3.43730
# Velocity P-wave (km/s) = 6.92856 7.25507 7.09370
#
# Compressibility (1/GPa) = 0.02014717
#
# Stress axis : x y z
#
# Youngs Moduli (GPa) = 35.25567 45.07769 62.14908
#
# Poissons Ratio (x) = 0.43207 0.46395
# Poissons Ratio (y) = 0.33792 0.38505
# Poissons Ratio (z) = 0.26319 0.27928
#
# Static dielectric constant tensor:
#      x y z
#    x 2.727820 0.000000 0.000000 
#    y 0.000000 2.853880 0.000000 
#    z 0.000000 0.000000 2.970830 
# 
# 
# High freq. dielectric constant tensor:
#      x y z
#    x 1.536900 0.000000 0.000000 
#    y 0.000000 1.571310 0.000000 
#    z 0.000000 0.000000 1.563210 
# 
# From -- ./inp_files/30819.got.cif
#   From: 2010.03.12/outbox.cif.g09.slc.cpg/sg51_16_cif.got.tgz:30819.got - 2010.04.16 13:43:02.
