data_PCOD8207810
_publ_section_title
;
Structure prediction by ZEFSAII (Michael W. Deem and Ramdas Pophale) SiO2 
 PCOD8207810
Probable space group: P M M A
;
_chemical_formula_sum "Si O2"
_cell_formula_units_Z 64
_cell_length_a 9.357048
_cell_length_b 19.203918
_cell_length_c 19.245629
_cell_angle_alpha 90.000000
_cell_angle_beta 90.000000
_cell_angle_gamma 90.000000
_cell_volume 3458.285230
_symmetry_space_group_name_H-M "P M M A"
_symmetry_group_IT_number 51
_symmetry_cell_setting 'orthorhombic'
loop_
_space_group_symop_operation_xyz
x,y,z
1/2-x,-y,z
1/2+x,-y,-z
-x,y,-z
-x,-y,-z
1/2+x,y,-z
1/2-x,y,z
x,-y,z
loop_
_atom_site_type_symbol
_atom_site_label
_atom_site_fract_x
_atom_site_fract_y
_atom_site_fract_z
Si Si1 0.593608 0.293973 0.062024
Si Si2 0.086340 0.579616 0.300731
Si Si3 0.080392 0.214116 0.653746
Si Si4 0.081359 0.691187 0.781563
Si Si5 0.904747 0.866533 0.059750
Si Si6 0.907050 0.077976 0.829443
Si Si7 0.586472 0.077847 0.666559
Si Si8 0.417048 0.672117 0.431286
O O1 0.750000 0.330199 0.061450
O O2 0.524622 0.298987 0.139403
O O3 0.613647 0.213923 0.042602
O O4 0.500000 0.329147 0.000000
O O5 0.250000 0.587307 0.276695
O O6 0.035540 0.500000 0.300216
O O7 0.066899 0.608334 0.378309
O O8 0.989780 0.621317 0.246733
O O9 0.250000 0.216457 0.639924
O O10 0.042746 0.242778 0.731585
O O11 0.023676 0.135886 0.639559
O O12 0.996912 0.260195 0.597984
O O13 0.250000 0.680744 0.781419
O O14 0.750000 0.903118 0.060728
O O15 0.975474 0.873626 0.135162
O O16 0.000000 0.902856 0.000000
O O17 0.750000 0.107622 0.847617
O O18 0.931590 0.077453 0.748384
O O19 0.922788 0.000000 0.858870
O O20 0.750000 0.096484 0.645833
O O21 0.547880 0.000000 0.638076
O O22 0.500000 0.648217 0.500000
O O23 0.250000 0.689097 0.445709
#
# Coordination Sequence:
#
# PCOD8207810 Si02
#       8
#     8   8   8   8   8   8   8   8
#     4   9  18  31  46  67  94 122 157 204 255 303
#     4   9  19  35  54  79 110 141 173 207 243 288
#     4  10  19  32  52  77 104 135 173 215 257 304
#     4   9  18  32  50  74 103 133 168 212 258 304
#     4  10  19  30  43  59  81 111 148 193 245 301
#     4   9  18  31  44  59  82 113 150 193 242 297
#     4   9  18  32  49  70  97 128 163 207 258 307
#     4  10  20  35  55  80 111 144 175 207 245 290
#
# _framework density 18.506281999999999
#
# number of rings (size 3 to 8) (size 9 to 14) (size 15 to 20)
#    0.000    2.625    0.000    2.625    0.000    4.750 
#    0.000    1.250    0.000    0.750    0.000    0.000 
#    0.000    0.000    0.000    0.000    0.000    0.000 
#
# Total GULP energy -793214.119622 kJ/mol
# GULP energy per Si atom -12393.970619 kJ/mol
# Density = 1.846416 g / cm^3
# Si number density = 18.506282 Si / 1000 Ang^3
#
#
#
# Elastic Constant Matrix: (Units=GPa)
#
#
# Indices 1 2 3 4 5 6 
#
# 1 83.7246 26.1529 23.3461 0.0000 0.0000 0.0000
# 2 26.1529 80.1766 6.0168 0.0000 0.0000 0.0000
# 3 23.3461 6.0168 62.5745 0.0000 0.0000 0.0000
# 4 0.0000 0.0000 0.0000 15.9280 0.0000 0.0000
# 5 0.0000 0.0000 0.0000 0.0000 31.2075 0.0000
# 6 0.0000 0.0000 0.0000 0.0000 0.0000 27.1903
#
#
#
# Elastic Compliance Matrix: (Units=1/GPa)
#
#
# Indices 1 2 3 4 5 6 
#
# 1 0.014742 -0.004428 -0.005074 0.000000 0.000000 0.000000
# 2 -0.004428 0.013893 0.000316 0.000000 0.000000 0.000000
# 3 -0.005074 0.000316 0.017844 0.000000 0.000000 0.000000
# 4 0.000000 0.000000 0.000000 0.062783 0.000000 0.000000
# 5 0.000000 0.000000 0.000000 0.000000 0.032044 0.000000
# 6 0.000000 0.000000 0.000000 0.000000 0.000000 0.036778
#
#
# Mechanical properties :
#
#
# Convention : Reuss Voigt Hill
#
# Bulk Modulus (GPa) = 35.57884 37.50080 36.53982
# Shear Modulus (GPa) = 24.29260 26.26249 25.27755
#
# Velocity S-wave (km/s) = 3.62701 3.77120 3.69980
# Velocity P-wave (km/s) = 6.06690 6.26661 6.16756
#
# Compressibility (1/GPa) = 0.02810659
#
# Stress axis : x y z
#
# Youngs Moduli (GPa) = 67.83335 71.97820 56.04194
#
# Poissons Ratio (x) = 0.31871 0.28438
# Poissons Ratio (y) = 0.30036 -0.01772
# Poissons Ratio (z) = 0.34421 -0.02276
#
# Static dielectric constant tensor:
#      x y z
#    x 3.650280 0.000000 0.000000 
#    y 0.000000 3.344020 0.000000 
#    z 0.000000 0.000000 3.304960 
# 
# 
# High freq. dielectric constant tensor:
#      x y z
#    x 1.724590 0.000000 0.000000 
#    y 0.000000 1.690920 0.000000 
#    z 0.000000 0.000000 1.704890 
# 
# From -- ./inp_files/32432.got.cif
#   From: 2010.03.12/outbox.cif.g09.slc.cpg/sg51_17_cif.got.tgz:32432.got - 2010.04.16 13:43:02.
