data_PCOD8207858
_publ_section_title
;
Structure prediction by ZEFSAII (Michael W. Deem and Ramdas Pophale) SiO2 
 PCOD8207858
Probable space group: P M M A
;
_chemical_formula_sum "Si O2"
_cell_formula_units_Z 44
_cell_length_a 8.929073
_cell_length_b 12.419801
_cell_length_c 24.881467
_cell_angle_alpha 90.000000
_cell_angle_beta 90.000000
_cell_angle_gamma 90.000000
_cell_volume 2759.287754
_symmetry_space_group_name_H-M "P M M A"
_symmetry_group_IT_number 51
_symmetry_cell_setting 'orthorhombic'
loop_
_space_group_symop_operation_xyz
x,y,z
1/2-x,-y,z
1/2+x,-y,-z
-x,y,-z
-x,-y,-z
1/2+x,y,-z
1/2-x,y,z
x,-y,z
loop_
_atom_site_type_symbol
_atom_site_label
_atom_site_fract_x
_atom_site_fract_y
_atom_site_fract_z
Si Si1 0.573518 0.500000 0.442176
Si Si2 0.419040 0.628424 0.053314
Si Si3 0.575263 0.626019 0.732403
Si Si4 0.918677 0.371956 0.159360
Si Si5 0.076213 0.874292 0.444691
Si Si6 0.927510 0.295676 0.372968
O O1 0.750000 0.500000 0.449726
O O2 0.500000 0.500000 0.500000
O O3 0.519318 0.604543 0.409598
O O4 0.250000 0.672275 0.054119
O O5 0.420391 0.500000 0.053656
O O6 0.504829 0.674097 0.105474
O O7 0.500000 0.672648 0.000000
O O8 0.750000 0.652146 0.728990
O O9 0.542335 0.500000 0.724900
O O10 0.513647 0.667450 0.789491
O O11 0.487721 0.690607 0.686951
O O12 0.750000 0.326899 0.163442
O O13 0.917439 0.500000 0.157028
O O14 0.250000 0.843592 0.447900
O O15 0.000000 0.836958 0.500000
O O16 0.998022 0.813254 0.395839
O O17 0.051089 0.000000 0.434367
O O18 0.750000 0.285847 0.371331
#
# Coordination Sequence:
#
# PCOD8207858 Si02
#       6
#     4   8   8   8   8   8
#     4  10  22  34  46  66  92 118 143 176 217 262
#     4   9  15  22  32  47  68  95 132 177 221 262
#     4  10  19  30  44  62  85 115 148 182 220 265
#     4   9  16  25  37  52  73 103 138 178 220 261
#     4  10  21  37  55  74  94 116 146 183 223 268
#     4  11  21  34  50  69  93 120 150 183 222 268
#
# _framework density 15.946144
#
# number of rings (size 3 to 8) (size 9 to 14) (size 15 to 20)
#    0.000    2.182    0.909    3.273    0.000    9.091 
#    0.000    0.000    0.000    0.000    0.000    0.000 
#    0.000    0.000    0.000    0.000    0.000    0.909 
#
# Total GULP energy -545714.031769 kJ/mol
# GULP energy per Si atom -12402.591631 kJ/mol
# Density = 1.590985 g / cm^3
# Si number density = 15.946144 Si / 1000 Ang^3
#
#
#
# Elastic Constant Matrix: (Units=GPa)
#
#
# Indices 1 2 3 4 5 6 
#
# 1 114.9570 29.5771 63.3697 0.0000 0.0000 0.0000
# 2 29.5771 31.9610 33.1793 0.0000 0.0000 0.0000
# 3 63.3697 33.1793 147.6839 0.0000 0.0000 0.0000
# 4 0.0000 0.0000 0.0000 7.0407 0.0000 0.0000
# 5 0.0000 0.0000 0.0000 0.0000 38.0244 0.0000
# 6 0.0000 0.0000 0.0000 0.0000 0.0000 16.3934
#
#
#
# Elastic Compliance Matrix: (Units=1/GPa)
#
#
# Indices 1 2 3 4 5 6 
#
# 1 0.012794 -0.008008 -0.003690 0.000000 0.000000 0.000000
# 2 -0.008008 0.045818 -0.006857 0.000000 0.000000 0.000000
# 3 -0.003690 -0.006857 0.009895 0.000000 0.000000 0.000000
# 4 0.000000 0.000000 0.000000 0.142032 0.000000 0.000000
# 5 0.000000 0.000000 0.000000 0.000000 0.026299 0.000000
# 6 0.000000 0.000000 0.000000 0.000000 0.000000 0.061000
#
#
# Mechanical properties :
#
#
# Convention : Reuss Voigt Hill
#
# Bulk Modulus (GPa) = 31.85256 60.76157 46.30706
# Shear Modulus (GPa) = 14.47535 23.52342 18.99939
#
# Velocity S-wave (km/s) = 3.01618 3.84497 3.45552
# Velocity P-wave (km/s) = 5.66994 7.60912 6.70995
#
# Compressibility (1/GPa) = 0.03139465
#
# Stress axis : x y z
#
# Youngs Moduli (GPa) = 78.16349 21.82559 101.05741
#
# Poissons Ratio (x) = 0.17479 0.37295
# Poissons Ratio (y) = 0.62595 0.69299
# Poissons Ratio (z) = 0.28846 0.14967
#
# Static dielectric constant tensor:
#      x y z
#    x 3.207010 0.000000 0.000000 
#    y 0.000000 2.551530 0.000000 
#    z 0.000000 0.000000 3.165700 
# 
# 
# High freq. dielectric constant tensor:
#      x y z
#    x 1.634200 0.000000 0.000000 
#    y 0.000000 1.540920 0.000000 
#    z 0.000000 0.000000 1.625380 
# 
# From -- ./inp_files/34527.got.cif
#   From: 2010.03.12/outbox.cif.g09.slc.cpg/sg51_18_cif.got.tgz:34527.got - 2010.04.16 13:43:02.
