data_PCOD8207572
_publ_section_title
;
Structure prediction by ZEFSAII (Michael W. Deem and Ramdas Pophale) SiO2 
 PCOD8207572
Probable space group: P M M A
;
_chemical_formula_sum "Si O2"
_cell_formula_units_Z 56
_cell_length_a 18.349266
_cell_length_b 9.308918
_cell_length_c 18.725562
_cell_angle_alpha 90.000000
_cell_angle_beta 90.000000
_cell_angle_gamma 90.000000
_cell_volume 3198.547186
_symmetry_space_group_name_H-M "P M M A"
_symmetry_group_IT_number 51
_symmetry_cell_setting 'orthorhombic'
loop_
_space_group_symop_operation_xyz
x,y,z
1/2-x,-y,z
1/2+x,-y,-z
-x,y,-z
-x,-y,-z
1/2+x,y,-z
1/2-x,y,z
x,-y,z
loop_
_atom_site_type_symbol
_atom_site_label
_atom_site_fract_x
_atom_site_fract_y
_atom_site_fract_z
Si Si1 0.664627 0.333553 0.589154
Si Si2 0.033211 0.333177 0.077324
Si Si3 0.539638 0.835365 0.201010
Si Si4 0.331015 0.828715 0.702274
Si Si5 0.832746 0.832922 0.871680
Si Si6 0.836448 0.159355 0.454427
Si Si7 0.607905 0.161794 0.720178
O O1 0.750000 0.303245 0.598480
O O2 0.646487 0.500000 0.584452
O O3 0.633605 0.261935 0.516813
O O4 0.623102 0.269966 0.656635
O O5 0.041823 0.500000 0.096139
O O6 0.112957 0.260475 0.079914
O O7 0.977780 0.261866 0.133053
O O8 0.000000 0.308344 0.000000
O O9 0.613346 0.774519 0.237163
O O10 0.476642 0.825502 0.259951
O O11 0.548850 0.000000 0.175268
O O12 0.250000 0.769636 0.720493
O O13 0.357282 0.776309 0.623569
O O14 0.329817 0.000000 0.699806
O O15 0.750000 0.797935 0.894354
O O16 0.843416 0.794199 0.788493
O O17 0.852043 0.000000 0.883620
O O18 0.750000 0.149568 0.458301
O O19 0.869959 0.000000 0.465453
O O20 0.627574 0.000000 0.695774
#
# Coordination Sequence:
#
# PCOD8207572 Si02
#       7
#     8   8   8   8   8   8   8
#     4  10  19  28  40  62  91 123 161 201 237 277
#     4  10  21  36  53  74 103 138 168 193 231 287
#     4   9  18  33  53  75  97 122 156 199 244 290
#     4   8  14  28  52  77  95 115 153 204 250 290
#     4   9  18  33  54  79 102 126 163 208 247 285
#     4   8  14  26  45  66  88 118 155 195 241 289
#     4   9  17  29  45  66  94 126 156 190 236 287
#
# _framework density 17.507947000000001
#
# number of rings (size 3 to 8) (size 9 to 14) (size 15 to 20)
#    0.000    3.000    0.000    3.000    0.000    5.143 
#    0.000    2.143    0.000    8.143    0.000    0.000 
#    0.000    0.000    0.000    0.000    0.000    0.000 
#
# Total GULP energy -694255.826276 kJ/mol
# GULP energy per Si atom -12397.425469 kJ/mol
# Density = 1.746810 g / cm^3
# Si number density = 17.507947 Si / 1000 Ang^3
#
#
#
# Elastic Constant Matrix: (Units=GPa)
#
#
# Indices 1 2 3 4 5 6 
#
# 1 86.1269 47.4461 60.3199 0.0000 0.0000 0.0000
# 2 47.4461 86.3587 65.8309 0.0000 0.0000 0.0000
# 3 60.3199 65.8309 110.3864 0.0000 0.0000 0.0000
# 4 0.0000 0.0000 0.0000 13.1083 0.0000 0.0000
# 5 0.0000 0.0000 0.0000 0.0000 21.3993 0.0000
# 6 0.0000 0.0000 0.0000 0.0000 0.0000 14.0440
#
#
#
# Elastic Compliance Matrix: (Units=1/GPa)
#
#
# Indices 1 2 3 4 5 6 
#
# 1 0.019853 -0.004836 -0.007964 0.000000 0.000000 0.000000
# 2 -0.004836 0.022410 -0.010722 0.000000 0.000000 0.000000
# 3 -0.007964 -0.010722 0.019805 0.000000 0.000000 0.000000
# 4 0.000000 0.000000 0.000000 0.076288 0.000000 0.000000
# 5 0.000000 0.000000 0.000000 0.000000 0.046731 0.000000
# 6 0.000000 0.000000 0.000000 0.000000 0.000000 0.071205
#
#
# Mechanical properties :
#
#
# Convention : Reuss Voigt Hill
#
# Bulk Modulus (GPa) = 66.56291 70.00731 68.28511
# Shear Modulus (GPa) = 16.21571 16.99533 16.60552
#
# Velocity S-wave (km/s) = 3.04664 3.11902 3.08304
# Velocity P-wave (km/s) = 7.10473 7.28312 7.19448
#
# Compressibility (1/GPa) = 0.01502338
#
# Stress axis : x y z
#
# Youngs Moduli (GPa) = 50.37070 44.62330 50.49157
#
# Poissons Ratio (x) = 0.21580 0.40213
# Poissons Ratio (y) = 0.24360 0.54136
# Poissons Ratio (z) = 0.40117 0.47844
#
# Static dielectric constant tensor:
#      x y z
#    x 3.272710 0.000000 0.000000 
#    y 0.000000 3.153990 0.000000 
#    z 0.000000 0.000000 3.220540 
# 
# 
# High freq. dielectric constant tensor:
#      x y z
#    x 1.661730 0.000000 0.000000 
#    y 0.000000 1.659540 0.000000 
#    z 0.000000 0.000000 1.670360 
# 
# From -- ./inp_files/30356.got.cif
#   From: 2010.03.12/outbox.cif.g09.slc.cpg/sg51_16_cif.got.tgz:30356.got - 2010.04.16 13:43:02.
