data_PCOD8207658
_publ_section_title
;
Structure prediction by ZEFSAII (Michael W. Deem and Ramdas Pophale) SiO2 
 PCOD8207658
Probable space group: P M M A
;
_chemical_formula_sum "Si O2"
_cell_formula_units_Z 56
_cell_length_a 9.174271
_cell_length_b 13.716212
_cell_length_c 29.065004
_cell_angle_alpha 90.000000
_cell_angle_beta 90.000000
_cell_angle_gamma 90.000000
_cell_volume 3657.430993
_symmetry_space_group_name_H-M "P M M A"
_symmetry_group_IT_number 51
_symmetry_cell_setting 'orthorhombic'
loop_
_space_group_symop_operation_xyz
x,y,z
1/2-x,-y,z
1/2+x,-y,-z
-x,y,-z
-x,-y,-z
1/2+x,y,-z
1/2-x,y,z
x,-y,z
loop_
_atom_site_type_symbol
_atom_site_label
_atom_site_fract_x
_atom_site_fract_y
_atom_site_fract_z
Si Si1 0.921654 0.714467 0.728014
Si Si2 0.914399 0.616138 0.455940
Si Si3 0.420079 0.205477 0.862379
Si Si4 0.080023 0.113467 0.954405
Si Si5 0.080727 0.610004 0.808581
Si Si6 0.918928 0.611851 0.633673
Si Si7 0.921915 0.111214 0.231037
O O1 0.750000 0.721806 0.736238
O O2 0.960162 0.676268 0.677521
O O3 0.986320 0.638132 0.764447
O O4 0.994076 0.820867 0.732703
O O5 0.750000 0.656032 0.457323
O O6 0.917982 0.500000 0.457232
O O7 0.000000 0.658584 0.500000
O O8 0.990349 0.653336 0.409328
O O9 0.250000 0.186277 0.867327
O O10 0.488980 0.172187 0.910930
O O11 0.456581 0.318717 0.851453
O O12 0.477165 0.138954 0.820218
O O13 0.250000 0.134533 0.961118
O O14 0.048859 0.000000 0.945639
O O15 0.000000 0.151332 0.000000
O O16 0.250000 0.622167 0.794947
O O17 0.043769 0.500000 0.823837
O O18 0.750000 0.620830 0.620748
O O19 0.959979 0.500000 0.644631
O O20 0.750000 0.130696 0.235606
O O21 0.962642 0.000000 0.241707
#
# Coordination Sequence:
#
# PCOD8207658 Si02
#       7
#     8   8   8   8   8   8   8
#     4  10  19  29  42  62  88 115 141 172 212 254
#     4   9  16  25  38  56  78 106 140 176 212 248
#     4   8  14  26  44  63  81 105 137 169 203 244
#     4   9  16  26  41  60  81 104 130 163 205 252
#     4   9  17  29  45  63  82 107 142 179 208 241
#     4   9  17  28  40  55  80 114 146 173 203 242
#     4   9  17  30  47  64  83 109 141 175 208 246
#
# _framework density 15.311294
#
# number of rings (size 3 to 8) (size 9 to 14) (size 15 to 20)
#    0.000    3.000    0.000    2.571    0.000    5.714 
#    0.000    4.286    0.000    3.857    0.000    0.000 
#    0.000    0.571    0.000    1.857    0.000    2.714 
#
# Total GULP energy -694237.244103 kJ/mol
# GULP energy per Si atom -12397.093645 kJ/mol
# Density = 1.527644 g / cm^3
# Si number density = 15.311294 Si / 1000 Ang^3
#
#
#
# Elastic Constant Matrix: (Units=GPa)
#
#
# Indices 1 2 3 4 5 6 
#
# 1 62.3592 37.3148 59.0123 0.0000 0.0000 0.0000
# 2 37.3148 95.0548 59.1567 0.0000 0.0000 0.0000
# 3 59.0123 59.1567 138.6457 0.0000 0.0000 0.0000
# 4 0.0000 0.0000 0.0000 19.9251 0.0000 0.0000
# 5 0.0000 0.0000 0.0000 0.0000 26.7028 0.0000
# 6 0.0000 0.0000 0.0000 0.0000 0.0000 16.6587
#
#
#
# Elastic Compliance Matrix: (Units=1/GPa)
#
#
# Indices 1 2 3 4 5 6 
#
# 1 0.028464 -0.004948 -0.010004 0.000000 0.000000 0.000000
# 2 -0.004948 0.015184 -0.004373 0.000000 0.000000 0.000000
# 3 -0.010004 -0.004373 0.013336 0.000000 0.000000 0.000000
# 4 0.000000 0.000000 0.000000 0.050188 0.000000 0.000000
# 5 0.000000 0.000000 0.000000 0.000000 0.037449 0.000000
# 6 0.000000 0.000000 0.000000 0.000000 0.000000 0.060029
#
#
# Mechanical properties :
#
#
# Convention : Reuss Voigt Hill
#
# Bulk Modulus (GPa) = 54.54012 67.44747 60.99379
# Shear Modulus (GPa) = 20.04721 22.02903 21.03812
#
# Velocity S-wave (km/s) = 3.62236 3.79719 3.71081
# Velocity P-wave (km/s) = 7.29339 7.96061 7.63429
#
# Compressibility (1/GPa) = 0.01833513
#
# Stress axis : x y z
#
# Youngs Moduli (GPa) = 35.13200 65.85951 74.98271
#
# Poissons Ratio (x) = 0.32586 0.75014
# Poissons Ratio (y) = 0.17383 0.32787
# Poissons Ratio (z) = 0.35147 0.28798
#
# Static dielectric constant tensor:
#      x y z
#    x 2.870860 0.000000 0.000000 
#    y 0.000000 2.833780 0.000000 
#    z 0.000000 0.000000 3.009800 
# 
# 
# High freq. dielectric constant tensor:
#      x y z
#    x 1.578990 0.000000 0.000000 
#    y 0.000000 1.558560 0.000000 
#    z 0.000000 0.000000 1.583030 
# 
# From -- ./inp_files/37500.got.cif
#   From: 2010.03.12/outbox.cif.g09.slc.cpg/sg51_19_cif.got.tgz:37500.got - 2010.04.16 13:43:02.
