data_PCOD8207056
_publ_section_title
;
Structure prediction by ZEFSAII (Michael W. Deem and Ramdas Pophale) SiO2 
 PCOD8207056
Probable space group: P M M A
;
_chemical_formula_sum "Si O2"
_cell_formula_units_Z 48
_cell_length_a 21.351137
_cell_length_b 8.934667
_cell_length_c 15.109007
_cell_angle_alpha 90.000000
_cell_angle_beta 90.000000
_cell_angle_gamma 90.000000
_cell_volume 2882.274240
_symmetry_space_group_name_H-M "P M M A"
_symmetry_group_IT_number 51
_symmetry_cell_setting 'orthorhombic'
loop_
_space_group_symop_operation_xyz
x,y,z
1/2-x,-y,z
1/2+x,-y,-z
-x,y,-z
-x,-y,-z
1/2+x,y,-z
1/2-x,y,z
x,-y,z
loop_
_atom_site_type_symbol
_atom_site_label
_atom_site_fract_x
_atom_site_fract_y
_atom_site_fract_z
Si Si1 0.427213 0.169739 0.521728
Si Si2 0.542310 0.676530 0.112629
Si Si3 0.042669 0.327094 0.689347
Si Si4 0.676830 0.325850 0.815524
Si Si5 0.414489 0.821733 0.055491
Si Si6 0.097401 0.674976 0.350654
O O1 0.500000 0.191159 0.500000
O O2 0.414328 0.240647 0.618292
O O3 0.386870 0.247794 0.444532
O O4 0.405725 0.000000 0.525811
O O5 0.538022 0.500000 0.092296
O O6 0.567657 0.705356 0.211772
O O7 0.473426 0.746807 0.104002
O O8 0.589296 0.758479 0.044833
O O9 0.047286 0.500000 0.664775
O O10 0.970518 0.273950 0.684691
O O11 0.750000 0.293828 0.812751
O O12 0.661377 0.500000 0.833143
O O13 0.648258 0.226537 0.894108
O O14 0.648220 0.274149 0.721684
O O15 0.421675 0.000000 0.054167
O O16 0.100325 0.500000 0.367522
#
# Coordination Sequence:
#
# PCOD8207056 Si02
#       6
#     8   8   8   8   8   8
#     4   9  17  26  39  63  93 123 150 181 226 278
#     4  10  18  31  50  69  94 127 164 197 238 291
#     4   9  16  27  45  67  91 122 155 190 230 276
#     4  10  20  35  53  70  91 126 169 205 237 279
#     4  11  21  31  45  69  99 127 157 197 248 293
#     4   9  16  29  45  64  90 121 157 194 231 273
#
# _framework density 16.653516
#
# number of rings (size 3 to 8) (size 9 to 14) (size 15 to 20)
#    0.000    2.333    1.667    3.500    0.000    4.333 
#    0.000    0.000    0.000    0.000    0.000    1.167 
#    0.000    4.000    0.000    0.000    0.000    0.000 
#
# Total GULP energy -595129.621207 kJ/mol
# GULP energy per Si atom -12398.533775 kJ/mol
# Density = 1.661561 g / cm^3
# Si number density = 16.653516 Si / 1000 Ang^3
#
#
#
# Elastic Constant Matrix: (Units=GPa)
#
#
# Indices 1 2 3 4 5 6 
#
# 1 54.4391 31.8062 45.3924 0.0000 0.0000 0.0000
# 2 31.8062 87.1114 63.0102 0.0000 0.0000 0.0000
# 3 45.3924 63.0102 154.0456 0.0000 0.0000 0.0000
# 4 0.0000 0.0000 0.0000 13.8995 0.0000 0.0000
# 5 0.0000 0.0000 0.0000 0.0000 18.7867 0.0000
# 6 0.0000 0.0000 0.0000 0.0000 0.0000 11.7985
#
#
#
# Elastic Compliance Matrix: (Units=1/GPa)
#
#
# Indices 1 2 3 4 5 6 
#
# 1 0.026174 -0.005649 -0.005402 0.000000 0.000000 0.000000
# 2 -0.005649 0.017522 -0.005503 0.000000 0.000000 0.000000
# 3 -0.005402 -0.005503 0.010334 0.000000 0.000000 0.000000
# 4 0.000000 0.000000 0.000000 0.071945 0.000000 0.000000
# 5 0.000000 0.000000 0.000000 0.000000 0.053229 0.000000
# 6 0.000000 0.000000 0.000000 0.000000 0.000000 0.084757
#
#
# Mechanical properties :
#
#
# Convention : Reuss Voigt Hill
#
# Bulk Modulus (GPa) = 47.79459 64.00153 55.89806
# Shear Modulus (GPa) = 16.44503 19.25610 17.85057
#
# Velocity S-wave (km/s) = 3.14583 3.40410 3.27751
# Velocity P-wave (km/s) = 6.47740 7.34610 6.92538
#
# Compressibility (1/GPa) = 0.02092287
#
# Stress axis : x y z
#
# Youngs Moduli (GPa) = 38.20596 57.06963 96.76681
#
# Poissons Ratio (x) = 0.32240 0.52272
# Poissons Ratio (y) = 0.21584 0.53247
# Poissons Ratio (z) = 0.20638 0.31403
#
# Static dielectric constant tensor:
#      x y z
#    x 2.642510 0.000000 0.000000 
#    y 0.000000 3.116170 0.000000 
#    z 0.000000 0.000000 3.407780 
# 
# 
# High freq. dielectric constant tensor:
#      x y z
#    x 1.574940 0.000000 0.000000 
#    y 0.000000 1.646040 0.000000 
#    z 0.000000 0.000000 1.658890 
# 
# From -- ./inp_files/25463.got.cif
#   From: 2010.03.12/outbox.cif.g09.slc.cpg/sg51_13_cif.got.tgz:25463.got - 2010.04.16 13:43:02.
