data_PCOD8207398
_publ_section_title
;
Structure prediction by ZEFSAII (Michael W. Deem and Ramdas Pophale) SiO2 
 PCOD8207398
Probable space group: P M M A
;
_chemical_formula_sum "Si O2"
_cell_formula_units_Z 64
_cell_length_a 9.311533
_cell_length_b 18.549244
_cell_length_c 19.634284
_cell_angle_alpha 90.000000
_cell_angle_beta 90.000000
_cell_angle_gamma 90.000000
_cell_volume 3391.270791
_symmetry_space_group_name_H-M "P M M A"
_symmetry_group_IT_number 51
_symmetry_cell_setting 'orthorhombic'
loop_
_space_group_symop_operation_xyz
x,y,z
1/2-x,-y,z
1/2+x,-y,-z
-x,y,-z
-x,-y,-z
1/2+x,y,-z
1/2-x,y,z
x,-y,z
loop_
_atom_site_type_symbol
_atom_site_label
_atom_site_fract_x
_atom_site_fract_y
_atom_site_fract_z
Si Si1 0.909490 0.415435 0.437688
Si Si2 0.420340 0.919172 0.325849
Si Si3 0.419838 0.854585 0.182746
Si Si4 0.590346 0.084112 0.061945
Si Si5 0.580416 0.308753 0.815661
Si Si6 0.417761 0.334161 0.335821
Si Si7 0.082733 0.197714 0.430026
Si Si8 0.418358 0.417229 0.068883
O O1 0.750000 0.380798 0.438176
O O2 0.896630 0.500000 0.446955
O O3 0.000000 0.381076 0.500000
O O4 0.991938 0.399223 0.367928
O O5 0.250000 0.922710 0.325130
O O6 0.470468 0.877045 0.258203
O O7 0.471421 0.875303 0.392583
O O8 0.485861 0.000000 0.328059
O O9 0.250000 0.866521 0.173244
O O10 0.505402 0.905103 0.131644
O O11 0.465642 0.772518 0.166433
O O12 0.750000 0.119152 0.064746
O O13 0.606701 0.000000 0.048598
O O14 0.500000 0.119810 0.000000
O O15 0.750000 0.314072 0.812865
O O16 0.522158 0.327245 0.740658
O O17 0.520988 0.365353 0.871397
O O18 0.250000 0.353843 0.337429
O O19 0.449963 0.261961 0.377758
O O20 0.250000 0.193369 0.447383
O O21 0.000000 0.209073 0.500000
O O22 0.250000 0.404609 0.056553
O O23 0.449819 0.500000 0.089779
O O24 0.500000 0.396354 0.000000
#
# Coordination Sequence:
#
# PCOD8207398 Si02
#       8
#     8   8   8   8   8   8   8   8
#     4  10  21  36  53  76 106 139 177 220 267 321
#     4   9  17  31  53  77 101 136 179 217 262 323
#     4  10  18  33  56  80 106 138 176 221 270 320
#     4  10  21  36  53  76 107 141 178 220 266 320
#     4   9  18  33  55  81 108 139 177 219 260 312
#     4  10  19  34  55  78 107 140 176 220 268 318
#     4  10  20  34  52  76 104 136 176 220 266 317
#     4   9  18  34  55  78 106 141 179 217 259 308
#
# _framework density 18.871981999999999
#
# number of rings (size 3 to 8) (size 9 to 14) (size 15 to 20)
#    0.000    2.375    1.250    1.500    0.000    4.750 
#    0.000    5.000    0.000    2.250    0.000    0.000 
#    0.000    0.000    0.000    0.000    0.000    0.000 
#
# Total GULP energy -793515.607828 kJ/mol
# GULP energy per Si atom -12398.681372 kJ/mol
# Density = 1.882903 g / cm^3
# Si number density = 18.871982 Si / 1000 Ang^3
#
#
#
# Elastic Constant Matrix: (Units=GPa)
#
#
# Indices 1 2 3 4 5 6 
#
# 1 71.0560 25.8613 50.2989 0.0000 0.0000 0.0000
# 2 25.8613 69.6564 45.9396 0.0000 0.0000 0.0000
# 3 50.2989 45.9396 144.1022 0.0000 0.0000 0.0000
# 4 0.0000 0.0000 0.0000 34.8202 0.0000 0.0000
# 5 0.0000 0.0000 0.0000 0.0000 25.5240 0.0000
# 6 0.0000 0.0000 0.0000 0.0000 0.0000 18.2773
#
#
#
# Elastic Compliance Matrix: (Units=1/GPa)
#
#
# Indices 1 2 3 4 5 6 
#
# 1 0.019326 -0.003452 -0.005645 0.000000 0.000000 0.000000
# 2 -0.003452 0.018795 -0.004787 0.000000 0.000000 0.000000
# 3 -0.005645 -0.004787 0.010436 0.000000 0.000000 0.000000
# 4 0.000000 0.000000 0.000000 0.028719 0.000000 0.000000
# 5 0.000000 0.000000 0.000000 0.000000 0.039179 0.000000
# 6 0.000000 0.000000 0.000000 0.000000 0.000000 0.054713
#
#
# Mechanical properties :
#
#
# Convention : Reuss Voigt Hill
#
# Bulk Modulus (GPa) = 48.10322 58.77934 53.44128
# Shear Modulus (GPa) = 24.28779 26.57197 25.42988
#
# Velocity S-wave (km/s) = 3.59134 3.75642 3.67480
# Velocity P-wave (km/s) = 6.53770 7.07306 6.81064
#
# Compressibility (1/GPa) = 0.02078863
#
# Stress axis : x y z
#
# Youngs Moduli (GPa) = 51.74406 53.20616 95.82189
#
# Poissons Ratio (x) = 0.18367 0.54094
# Poissons Ratio (y) = 0.17862 0.45869
# Poissons Ratio (z) = 0.29211 0.25469
#
# Static dielectric constant tensor:
#      x y z
#    x 3.316330 0.000000 0.000000 
#    y 0.000000 3.531770 0.000000 
#    z 0.000000 0.000000 3.601510 
# 
# 
# High freq. dielectric constant tensor:
#      x y z
#    x 1.704150 0.000000 0.000000 
#    y 0.000000 1.729830 0.000000 
#    z 0.000000 0.000000 1.740060 
# 
# From -- ./inp_files/32397.got.cif
#   From: 2010.03.12/outbox.cif.g09.slc.cpg/sg51_17_cif.got.tgz:32397.got - 2010.04.16 13:43:02.
