data_PCOD8207627
_publ_section_title
;
Structure prediction by ZEFSAII (Michael W. Deem and Ramdas Pophale) SiO2 
 PCOD8207627
Probable space group: P M M A
;
_chemical_formula_sum "Si O2"
_cell_formula_units_Z 56
_cell_length_a 9.188159
_cell_length_b 15.527390
_cell_length_c 30.794916
_cell_angle_alpha 90.000000
_cell_angle_beta 90.000000
_cell_angle_gamma 90.000000
_cell_volume 4393.453023
_symmetry_space_group_name_H-M "P M M A"
_symmetry_group_IT_number 51
_symmetry_cell_setting 'orthorhombic'
loop_
_space_group_symop_operation_xyz
x,y,z
1/2-x,-y,z
1/2+x,-y,-z
-x,y,-z
-x,-y,-z
1/2+x,y,-z
1/2-x,y,z
x,-y,z
loop_
_atom_site_type_symbol
_atom_site_label
_atom_site_fract_x
_atom_site_fract_y
_atom_site_fract_z
Si Si1 0.085122 0.602651 0.957901
Si Si2 0.080974 0.399581 0.388410
Si Si3 0.586658 0.397241 0.209803
Si Si4 0.081938 0.909090 0.544708
Si Si5 0.414539 0.602638 0.126161
Si Si6 0.578516 0.277801 0.453883
Si Si7 0.588653 0.397777 0.708705
O O1 0.250000 0.638167 0.958363
O O2 0.086472 0.500000 0.957912
O O3 0.003041 0.637799 0.915287
O O4 0.000000 0.637672 0.000000
O O5 0.250000 0.378459 0.396768
O O6 0.050491 0.500000 0.395751
O O7 0.036359 0.371497 0.339491
O O8 0.980156 0.348392 0.421127
O O9 0.750000 0.361496 0.205221
O O10 0.586664 0.500000 0.209880
O O11 0.491819 0.362363 0.169598
O O12 0.520106 0.360893 0.254802
O O13 0.250000 0.907141 0.532688
O O14 0.043755 0.817424 0.567331
O O15 0.000000 0.912405 0.500000
O O16 0.046261 0.000000 0.570689
O O17 0.250000 0.638256 0.124471
O O18 0.413647 0.500000 0.125927
O O19 0.500000 0.288755 0.500000
O O20 0.750000 0.292375 0.460621
O O21 0.750000 0.360660 0.717765
O O22 0.595514 0.500000 0.711665
#
# Coordination Sequence:
#
# PCOD8207627 Si02
#       7
#     8   8   8   8   8   8   8
#     4   9  15  21  27  34  45  61  81 104 131 166
#     4   9  18  31  43  53  68  91 116 140 165 193
#     4   9  15  21  30  44  58  69  84 111 145 177
#     4   8  14  25  40  57  75  92 109 130 158 191
#     4   9  15  21  28  37  49  65  84 106 134 169
#     4  10  19  29  42  58  74  92 113 137 163 191
#     4   8  14  25  38  48  58  75  98 122 150 183
#
# _framework density 12.746238999999999
#
# number of rings (size 3 to 8) (size 9 to 14) (size 15 to 20)
#    0.000    3.143    0.000    2.571    0.000    6.857 
#    0.000    1.429    0.000    0.000    0.000    0.000 
#    0.000    0.000    0.000    0.000    0.000    0.000 
#
# Total GULP energy -693731.384921 kJ/mol
# GULP energy per Si atom -12388.060445 kJ/mol
# Density = 1.271723 g / cm^3
# Si number density = 12.746239 Si / 1000 Ang^3
#
#
#
# Elastic Constant Matrix: (Units=GPa)
#
#
# Indices 1 2 3 4 5 6 
#
# 1 97.9607 23.3460 58.2314 0.0000 0.0000 0.0000
# 2 23.3460 31.9190 25.9435 0.0000 0.0000 0.0000
# 3 58.2314 25.9435 98.4474 0.0000 0.0000 0.0000
# 4 0.0000 0.0000 0.0000 -0.4472 0.0000 0.0000
# 5 0.0000 0.0000 0.0000 0.0000 26.0427 0.0000
# 6 0.0000 0.0000 0.0000 0.0000 0.0000 6.7162
#
#
#
# Elastic Compliance Matrix: (Units=1/GPa)
#
#
# Indices 1 2 3 4 5 6 
#
# 1 0.016403 -0.005232 -0.008323 0.000000 0.000000 0.000000
# 2 -0.005232 0.041538 -0.007852 0.000000 0.000000 0.000000
# 3 -0.008323 -0.007852 0.017150 0.000000 0.000000 0.000000
# 4 0.000000 0.000000 0.000000 -2.236269 0.000000 0.000000
# 5 0.000000 0.000000 0.000000 0.000000 0.038399 0.000000
# 6 0.000000 0.000000 0.000000 0.000000 0.000000 0.148895
#
#
# Mechanical properties :
#
#
# Convention : Reuss Voigt Hill
#
# Bulk Modulus (GPa) = 30.98216 49.26319 40.12267
# Shear Modulus (GPa) = -2.60374 14.51607 5.95616
#
# Velocity S-wave (km/s) = -1.43080 3.37835 2.16403
# Velocity P-wave (km/s) = 4.65082 7.34512 6.14739
#
# Compressibility (1/GPa) = 0.03227664
#
# Stress axis : x y z
#
# Youngs Moduli (GPa) = 60.96497 24.07446 58.30857
#
# Poissons Ratio (x) = 0.12596 0.48533
# Poissons Ratio (y) = 0.31897 0.45781
# Poissons Ratio (z) = 0.50744 0.18902
#
# Static dielectric constant tensor:
#      x y z
#    x 2.782700 0.000000 0.000000 
#    y 0.000000 2.325820 0.000000 
#    z 0.000000 0.000000 2.626720 
# 
# 
# High freq. dielectric constant tensor:
#      x y z
#    x 1.502030 0.000000 0.000000 
#    y 0.000000 1.410660 0.000000 
#    z 0.000000 0.000000 1.478170 
# 
# From -- ./inp_files/37456.got.cif
#   From: 2010.03.12/outbox.cif.g09.slc.cpg/sg51_19_cif.got.tgz:37456.got - 2010.04.16 13:43:02.
