data_PCOD8207629
_publ_section_title
;
Structure prediction by ZEFSAII (Michael W. Deem and Ramdas Pophale) SiO2 
 PCOD8207629
Probable space group: P M M A
;
_chemical_formula_sum "Si O2"
_cell_formula_units_Z 40
_cell_length_a 9.008630
_cell_length_b 15.362896
_cell_length_c 20.414952
_cell_angle_alpha 90.000000
_cell_angle_beta 90.000000
_cell_angle_gamma 90.000000
_cell_volume 2825.401711
_symmetry_space_group_name_H-M "P M M A"
_symmetry_group_IT_number 51
_symmetry_cell_setting 'orthorhombic'
loop_
_space_group_symop_operation_xyz
x,y,z
1/2-x,-y,z
1/2+x,-y,-z
-x,y,-z
-x,-y,-z
1/2+x,y,-z
1/2-x,y,z
x,-y,z
loop_
_atom_site_type_symbol
_atom_site_label
_atom_site_fract_x
_atom_site_fract_y
_atom_site_fract_z
Si Si1 0.917030 0.103630 0.692151
Si Si2 0.577126 0.099124 0.177979
Si Si3 0.574609 0.762090 0.070349
Si Si4 0.917275 0.103827 0.435696
Si Si5 0.075944 0.594527 0.070245
O O1 0.750000 0.139262 0.689832
O O2 0.992820 0.136905 0.758747
O O3 0.002981 0.141094 0.629073
O O4 0.921372 0.000000 0.690366
O O5 0.750000 0.105195 0.194265
O O6 0.533814 0.155705 0.115058
O O7 0.529364 0.000000 0.162620
O O8 0.750000 0.750606 0.062009
O O9 0.505495 0.675587 0.105928
O O10 0.500000 0.778109 0.000000
O O11 0.750000 0.139184 0.436699
O O12 0.000000 0.139806 0.500000
O O13 0.920126 0.000000 0.435338
O O14 0.250000 0.614631 0.062750
O O15 0.052155 0.500000 0.105541
O O16 0.000000 0.589767 0.000000
#
# Coordination Sequence:
#
# PCOD8207629 Si02
#       5
#     8   8   8   8   8
#     4   9  16  25  37  52  68  89 120 155 189 224
#     4   9  18  31  42  52  70  98 130 161 193 227
#     4  10  19  29  42  58  75  96 123 157 194 230
#     4   9  15  22  33  49  69  91 115 147 185 222
#     4   9  16  26  41  59  77  95 114 141 181 228
#
# _framework density 14.157278
#
# number of rings (size 3 to 8) (size 9 to 14) (size 15 to 20)
#    0.000    2.800    0.000    3.600    0.000    8.000 
#    0.000    0.000    0.000    0.000    0.000    0.000 
#    0.000    0.000    0.000    0.000    0.000    1.000 
#
# Total GULP energy -495712.471316 kJ/mol
# GULP energy per Si atom -12392.811783 kJ/mol
# Density = 1.412506 g / cm^3
# Si number density = 14.157278 Si / 1000 Ang^3
#
#
#
# Elastic Constant Matrix: (Units=GPa)
#
#
# Indices 1 2 3 4 5 6 
#
# 1 106.5519 36.6610 57.6427 0.0000 0.0000 0.0000
# 2 36.6610 61.3900 40.6094 0.0000 0.0000 0.0000
# 3 57.6427 40.6094 95.5642 0.0000 0.0000 0.0000
# 4 0.0000 0.0000 0.0000 0.6907 0.0000 0.0000
# 5 0.0000 0.0000 0.0000 0.0000 25.8946 0.0000
# 6 0.0000 0.0000 0.0000 0.0000 0.0000 15.5665
#
#
#
# Elastic Compliance Matrix: (Units=1/GPa)
#
#
# Indices 1 2 3 4 5 6 
#
# 1 0.014614 -0.004028 -0.007103 0.000000 0.000000 0.000000
# 2 -0.004028 0.023769 -0.007671 0.000000 0.000000 0.000000
# 3 -0.007103 -0.007671 0.018008 0.000000 0.000000 0.000000
# 4 0.000000 0.000000 0.000000 1.447888 0.000000 0.000000
# 5 0.000000 0.000000 0.000000 0.000000 0.038618 0.000000
# 6 0.000000 0.000000 0.000000 0.000000 0.000000 0.064240
#
#
# Mechanical properties :
#
#
# Convention : Reuss Voigt Hill
#
# Bulk Modulus (GPa) = 53.22841 59.25915 56.24378
# Shear Modulus (GPa) = 3.02846 17.00322 10.01584
#
# Velocity S-wave (km/s) = 1.46417 3.46934 2.66271
# Velocity P-wave (km/s) = 6.36694 7.61558 7.01908
#
# Compressibility (1/GPa) = 0.01878696
#
# Stress axis : x y z
#
# Youngs Moduli (GPa) = 68.42899 42.07132 55.53057
#
# Poissons Ratio (x) = 0.16948 0.39443
# Poissons Ratio (y) = 0.27567 0.42596
# Poissons Ratio (z) = 0.48604 0.32271
#
# Static dielectric constant tensor:
#      x y z
#    x 2.979220 0.000000 0.000000 
#    y 0.000000 2.885240 0.000000 
#    z 0.000000 0.000000 2.690420 
# 
# 
# High freq. dielectric constant tensor:
#      x y z
#    x 1.561110 0.000000 0.000000 
#    y 0.000000 1.491430 0.000000 
#    z 0.000000 0.000000 1.519380 
# 
# From -- ./inp_files/27737.got.cif
#   From: 2010.03.12/outbox.cif.g09.slc.cpg/sg51_14_cif.got.tgz:27737.got - 2010.04.16 13:43:02.
