data_PCOD8207022
_publ_section_title
;
Structure prediction by ZEFSAII (Michael W. Deem and Ramdas Pophale) SiO2 
 PCOD8207022
Probable space group: P M M A
;
_chemical_formula_sum "Si O2"
_cell_formula_units_Z 32
_cell_length_a 16.601001
_cell_length_b 12.051131
_cell_length_c 7.800139
_cell_angle_alpha 90.000000
_cell_angle_beta 90.000000
_cell_angle_gamma 90.000000
_cell_volume 1560.502343
_symmetry_space_group_name_H-M "P M M A"
_symmetry_group_IT_number 51
_symmetry_cell_setting 'orthorhombic'
loop_
_space_group_symop_operation_xyz
x,y,z
1/2-x,-y,z
1/2+x,-y,-z
-x,y,-z
-x,-y,-z
1/2+x,y,-z
1/2-x,y,z
x,-y,z
loop_
_atom_site_type_symbol
_atom_site_label
_atom_site_fract_x
_atom_site_fract_y
_atom_site_fract_z
Si Si1 0.096355 0.373732 0.488446
Si Si2 0.088429 0.767889 0.798307
Si Si3 0.658242 0.000000 0.716476
Si Si4 0.596847 0.234035 0.826820
Si Si5 0.580755 0.000000 0.381212
O O1 0.126359 0.500000 0.489469
O O2 0.130595 0.310072 0.655864
O O3 0.134349 0.314579 0.319183
O O4 0.000000 0.364727 0.500000
O O5 0.996384 0.734962 0.825819
O O6 0.089587 0.895276 0.741601
O O7 0.132991 0.747316 0.981563
O O8 0.610391 0.106175 0.783288
O O9 0.750000 0.000000 0.781430
O O10 0.656297 0.000000 0.510274
O O11 0.500000 0.000000 0.500000
#
# Coordination Sequence:
#
# PCOD8207022 Si02
#       5
#     8   8   4   8   4
#     4   9  17  30  50  81 115 139 171 224 268 304
#     4  10  18  30  56  81 104 138 184 216 258 318
#     4  12  23  35  53  80 112 141 173 222 281 324
#     4  10  19  33  52  79 108 142 173 216 266 320
#     4  12  17  33  56  76 104 142 180 225 268 322
#
# _framework density 20.506215999999998
#
# number of rings (size 3 to 8) (size 9 to 14) (size 15 to 20)
#    0.000    1.750    5.000    1.500    0.000    3.000 
#    0.000    7.500    0.000    0.750    0.000    0.000 
#    0.000    0.000    0.000    0.000    0.000    0.000 
#
# Total GULP energy -396522.798483 kJ/mol
# GULP energy per Si atom -12391.337453 kJ/mol
# Density = 2.045954 g / cm^3
# Si number density = 20.506216 Si / 1000 Ang^3
#
#
#
# Elastic Constant Matrix: (Units=GPa)
#
#
# Indices 1 2 3 4 5 6 
#
# 1 18.6224 -4.7361 3.6431 0.0000 0.0000 0.0000
# 2 -4.7361 175.7799 107.5233 0.0000 0.0000 0.0000
# 3 3.6431 107.5233 234.1287 0.0000 0.0000 0.0000
# 4 0.0000 0.0000 0.0000 12.1094 0.0000 0.0000
# 5 0.0000 0.0000 0.0000 0.0000 5.6996 0.0000
# 6 0.0000 0.0000 0.0000 0.0000 0.0000 -0.3180
#
#
#
# Elastic Compliance Matrix: (Units=1/GPa)
#
#
# Indices 1 2 3 4 5 6 
#
# 1 0.054822 0.002780 -0.002130 0.000000 0.000000 0.000000
# 2 0.002780 0.008052 -0.003741 0.000000 0.000000 0.000000
# 3 -0.002130 -0.003741 0.006022 0.000000 0.000000 0.000000
# 4 0.000000 0.000000 0.000000 0.082580 0.000000 0.000000
# 5 0.000000 0.000000 0.000000 0.000000 0.175450 0.000000
# 6 0.000000 0.000000 0.000000 0.000000 0.000000 -3.144847
#
#
# Mechanical properties :
#
#
# Convention : Reuss Voigt Hill
#
# Bulk Modulus (GPa) = 15.94518 71.26577 43.60547
# Shear Modulus (GPa) = -1.79158 24.97159 11.59000
#
# Velocity S-wave (km/s) = -0.93572 3.49342 2.37996
# Velocity P-wave (km/s) = 2.57395 7.14848 5.37243
#
# Compressibility (1/GPa) = 0.06271487
#
# Stress axis : x y z
#
# Youngs Moduli (GPa) = 18.24072 124.18744 166.04475
#
# Poissons Ratio (x) = -0.34522 0.35362
# Poissons Ratio (y) = -0.05071 0.62122
# Poissons Ratio (z) = 0.03885 0.46462
#
# Static dielectric constant tensor:
#      x y z
#    x 3.050590 0.000000 0.000000 
#    y 0.000000 3.664060 0.000000 
#    z 0.000000 0.000000 4.524020 
# 
# 
# High freq. dielectric constant tensor:
#      x y z
#    x 1.726460 0.000000 0.000000 
#    y 0.000000 1.798230 0.000000 
#    z 0.000000 0.000000 1.826760 
# 
# From -- ./inp_files/9180.got.cif
#   From: 2010.03.12/outbox.cif.g09.slc.cpg/sg51_5_cif.got.tgz:9180.got - 2010.04.16 13:43:02.
