data_PCOD8207830
_publ_section_title
;
Structure prediction by ZEFSAII (Michael W. Deem and Ramdas Pophale) SiO2 
 PCOD8207830
Probable space group: P M M A
;
_chemical_formula_sum "Si O2"
_cell_formula_units_Z 60
_cell_length_a 9.140301
_cell_length_b 24.400515
_cell_length_c 18.554386
_cell_angle_alpha 90.000000
_cell_angle_beta 90.000000
_cell_angle_gamma 90.000000
_cell_volume 4138.148559
_symmetry_space_group_name_H-M "P M M A"
_symmetry_group_IT_number 51
_symmetry_cell_setting 'orthorhombic'
loop_
_space_group_symop_operation_xyz
x,y,z
1/2-x,-y,z
1/2+x,-y,-z
-x,y,-z
-x,-y,-z
1/2+x,y,-z
1/2-x,y,z
x,-y,z
loop_
_atom_site_type_symbol
_atom_site_label
_atom_site_fract_x
_atom_site_fract_y
_atom_site_fract_z
Si Si1 0.915952 0.000000 0.427349
Si Si2 0.922135 0.676743 0.076634
Si Si3 0.419027 0.776702 0.828139
Si Si4 0.421525 0.837289 0.291869
Si Si5 0.919612 0.442178 0.074734
Si Si6 0.582623 0.061272 0.806267
Si Si7 0.922409 0.880531 0.422840
Si Si8 0.418365 0.118514 0.925286
O O1 0.950196 0.941917 0.388252
O O2 0.000000 0.000000 0.500000
O O3 0.750000 0.000000 0.451714
O O4 0.750000 0.684657 0.062876
O O5 0.976237 0.720571 0.135556
O O6 0.960086 0.616323 0.111321
O O7 0.000000 0.685897 0.000000
O O8 0.250000 0.772900 0.804462
O O9 0.515443 0.788189 0.757180
O O10 0.443361 0.823698 0.886728
O O11 0.250000 0.827939 0.303974
O O12 0.457990 0.895511 0.255301
O O13 0.504060 0.837117 0.368558
O O14 0.750000 0.440895 0.056529
O O15 0.956695 0.500000 0.117675
O O16 0.000000 0.444495 0.000000
O O17 0.750000 0.069272 0.830402
O O18 0.482884 0.070101 0.876271
O O19 0.554343 0.000000 0.776105
O O20 0.750000 0.868016 0.430725
O O21 0.000000 0.874457 0.500000
O O22 0.250000 0.105728 0.939490
O O23 0.500000 0.120525 0.000000
#
# Coordination Sequence:
#
# PCOD8207830 Si02
#       8
#     4   8   8   8   8   8   8   8
#     4   8  16  28  42  62  84 104 123 146 177 216
#     4   9  16  25  39  58  79 106 139 175 212 245
#     4   9  18  31  43  57  78 103 133 166 201 241
#     4  10  20  32  47  64  81 103 128 159 198 237
#     4   8  13  21  33  51  76 104 134 168 205 243
#     4   9  19  34  47  59  75  96 122 152 190 238
#     4  10  19  32  48  67  88 108 130 155 186 228
#     4  10  19  30  44  59  74  94 121 158 200 239
#
# _framework density 14.499238
#
# number of rings (size 3 to 8) (size 9 to 14) (size 15 to 20)
#    0.000    2.800    0.000    1.600    0.933    2.667 
#    0.000    0.000    0.000    0.000    0.000    0.000 
#    0.000    0.000    0.000    0.000    0.000    0.667 
#
# Total GULP energy -743297.265565 kJ/mol
# GULP energy per Si atom -12388.287759 kJ/mol
# Density = 1.446624 g / cm^3
# Si number density = 14.499238 Si / 1000 Ang^3
#
#
#
# Elastic Constant Matrix: (Units=GPa)
#
#
# Indices 1 2 3 4 5 6 
#
# 1 59.8887 26.3150 40.7395 0.0000 0.0000 0.0000
# 2 26.3150 97.7023 35.8393 0.0000 0.0000 0.0000
# 3 40.7395 35.8393 72.6293 0.0000 0.0000 0.0000
# 4 0.0000 0.0000 0.0000 16.1210 0.0000 0.0000
# 5 0.0000 0.0000 0.0000 0.0000 22.4723 0.0000
# 6 0.0000 0.0000 0.0000 0.0000 0.0000 13.6438
#
#
#
# Elastic Compliance Matrix: (Units=1/GPa)
#
#
# Indices 1 2 3 4 5 6 
#
# 1 0.027356 -0.002124 -0.014297 0.000000 0.000000 0.000000
# 2 -0.002124 0.012662 -0.005057 0.000000 0.000000 0.000000
# 3 -0.014297 -0.005057 0.024283 0.000000 0.000000 0.000000
# 4 0.000000 0.000000 0.000000 0.062031 0.000000 0.000000
# 5 0.000000 0.000000 0.000000 0.000000 0.044499 0.000000
# 6 0.000000 0.000000 0.000000 0.000000 0.000000 0.073293
#
#
# Mechanical properties :
#
#
# Convention : Reuss Voigt Hill
#
# Bulk Modulus (GPa) = 46.84545 48.44531 47.64538
# Shear Modulus (GPa) = 16.99549 18.93585 17.96567
#
# Velocity S-wave (km/s) = 3.42740 3.61777 3.52387
# Velocity P-wave (km/s) = 6.93122 7.13694 7.03483
#
# Compressibility (1/GPa) = 0.02134679
#
# Stress axis : x y z
#
# Youngs Moduli (GPa) = 36.55471 78.97531 41.18049
#
# Poissons Ratio (x) = 0.16772 0.58875
# Poissons Ratio (y) = 0.07763 0.20825
# Poissons Ratio (z) = 0.52262 0.39938
#
# Static dielectric constant tensor:
#      x y z
#    x 2.685990 0.000000 0.000000 
#    y 0.000000 2.636180 0.000000 
#    z 0.000000 0.000000 2.525420 
# 
# 
# High freq. dielectric constant tensor:
#      x y z
#    x 1.566770 0.000000 0.000000 
#    y 0.000000 1.537870 0.000000 
#    z 0.000000 0.000000 1.517330 
# 
# From -- ./inp_files/28584.got.cif
#   From: 2010.03.12/outbox.cif.g09.slc.cpg/sg51_15_cif.got.tgz:28584.got - 2010.04.16 13:43:02.
