data_PCOD8207288
_publ_section_title
;
Structure prediction by ZEFSAII (Michael W. Deem and Ramdas Pophale) SiO2 
 PCOD8207288
Probable space group: P M M A
;
_chemical_formula_sum "Si O2"
_cell_formula_units_Z 48
_cell_length_a 8.495356
_cell_length_b 19.572557
_cell_length_c 15.765279
_cell_angle_alpha 90.000000
_cell_angle_beta 90.000000
_cell_angle_gamma 90.000000
_cell_volume 2621.385001
_symmetry_space_group_name_H-M "P M M A"
_symmetry_group_IT_number 51
_symmetry_cell_setting 'orthorhombic'
loop_
_space_group_symop_operation_xyz
x,y,z
1/2-x,-y,z
1/2+x,-y,-z
-x,y,-z
-x,-y,-z
1/2+x,y,-z
1/2-x,y,z
x,-y,z
loop_
_atom_site_type_symbol
_atom_site_label
_atom_site_fract_x
_atom_site_fract_y
_atom_site_fract_z
Si Si1 0.936148 0.000000 0.594010
Si Si2 0.435607 0.500000 0.408409
Si Si3 0.426771 0.426943 0.883318
Si Si4 0.427179 0.616736 0.698231
Si Si5 0.567457 0.242368 0.735031
Si Si6 0.064806 0.141162 0.595082
Si Si7 0.562006 0.722773 0.087531
O O1 0.000000 0.000000 0.500000
O O2 0.001049 0.069797 0.634961
O O3 0.750000 0.000000 0.597821
O O4 0.250000 0.500000 0.398886
O O5 0.500000 0.500000 0.500000
O O6 0.505702 0.569469 0.373537
O O7 0.250000 0.427102 0.919105
O O8 0.508107 0.500000 0.912252
O O9 0.426044 0.428227 0.782408
O O10 0.507723 0.355740 0.913024
O O11 0.250000 0.642230 0.677021
O O12 0.543250 0.680434 0.705877
O O13 0.750000 0.222896 0.736387
O O14 0.480510 0.196616 0.665279
O O15 0.499422 0.234488 0.831209
O O16 0.250000 0.137411 0.585434
O O17 0.000000 0.157448 0.500000
O O18 0.750000 0.722159 0.092843
O O19 0.500000 0.757213 0.000000
#
# Coordination Sequence:
#
# PCOD8207288 Si02
#       7
#     4   4   8   8   8   8   8
#     4  10  18  32  54  84 119 154 185 220 264 312
#     4  12  24  36  50  70  93 126 171 220 272 328
#     4   8  14  27  49  71  92 123 160 205 264 325
#     4  10  19  35  54  71  95 129 169 218 272 324
#     4  11  22  37  56  81 110 143 184 230 277 330
#     4  11  21  36  57  85 118 153 188 223 267 321
#     4  10  20  34  52  75 105 141 182 228 280 335
#
# _framework density 18.310929999999999
#
# number of rings (size 3 to 8) (size 9 to 14) (size 15 to 20)
#    0.000    1.833    0.833    7.500    0.000    1.000 
#    0.000    3.333    0.000    0.000    0.000    0.583 
#    0.000    0.000    0.000    0.000    0.000    0.000 
#
# Total GULP energy -594641.308122 kJ/mol
# GULP energy per Si atom -12388.360586 kJ/mol
# Density = 1.826925 g / cm^3
# Si number density = 18.310930 Si / 1000 Ang^3
#
#
#
# Elastic Constant Matrix: (Units=GPa)
#
#
# Indices 1 2 3 4 5 6 
#
# 1 112.3471 20.1386 37.9774 0.0000 0.0000 0.0000
# 2 20.1386 72.5647 41.6140 0.0000 0.0000 0.0000
# 3 37.9774 41.6140 125.4681 0.0000 0.0000 0.0000
# 4 0.0000 0.0000 0.0000 -58.4375 0.0000 0.0000
# 5 0.0000 0.0000 0.0000 0.0000 27.7686 0.0000
# 6 0.0000 0.0000 0.0000 0.0000 0.0000 25.9212
#
#
#
# Elastic Compliance Matrix: (Units=1/GPa)
#
#
# Indices 1 2 3 4 5 6 
#
# 1 0.010012 -0.001285 -0.002604 0.000000 0.000000 0.000000
# 2 -0.001285 0.017183 -0.005310 0.000000 0.000000 0.000000
# 3 -0.002604 -0.005310 0.010520 0.000000 0.000000 0.000000
# 4 0.000000 0.000000 0.000000 -0.017112 0.000000 0.000000
# 5 0.000000 0.000000 0.000000 0.000000 0.036012 0.000000
# 6 0.000000 0.000000 0.000000 0.000000 0.000000 0.038579
#
#
# Mechanical properties :
#
#
# Convention : Reuss Voigt Hill
#
# Bulk Modulus (GPa) = 51.77228 56.64890 54.21059
# Shear Modulus (GPa) = 41.65669 13.09378 27.37523
#
# Velocity S-wave (km/s) = 4.77483 2.67700 3.87075
# Velocity P-wave (km/s) = 7.66381 6.36863 7.04605
#
# Compressibility (1/GPa) = 0.01931536
#
# Stress axis : x y z
#
# Youngs Moduli (GPa) = 99.88373 58.19847 95.06098
#
# Poissons Ratio (x) = 0.07479 0.24755
# Poissons Ratio (y) = 0.12836 0.50477
# Poissons Ratio (z) = 0.26011 0.30903
#
# Static dielectric constant tensor:
#      x y z
#    x 3.449650 0.000000 0.000000 
#    y 0.000000 3.802880 0.000000 
#    z 0.000000 0.000000 3.400340 
# 
# 
# High freq. dielectric constant tensor:
#      x y z
#    x 1.714090 0.000000 0.000000 
#    y 0.000000 1.688160 0.000000 
#    z 0.000000 0.000000 1.704650 
# 
# From -- ./inp_files/21249.got.cif
#   From: 2010.03.12/outbox.cif.g09.slc.cpg/sg51_11_cif.got.tgz:21249.got - 2010.04.16 13:43:02.
