data_PCOD8207500
_publ_section_title
;
Structure prediction by ZEFSAII (Michael W. Deem and Ramdas Pophale) SiO2 
 PCOD8207500
Probable space group: P M M A
;
_chemical_formula_sum "Si O2"
_cell_formula_units_Z 48
_cell_length_a 14.816075
_cell_length_b 15.797420
_cell_length_c 10.057417
_cell_angle_alpha 90.000000
_cell_angle_beta 90.000000
_cell_angle_gamma 90.000000
_cell_volume 2353.996375
_symmetry_space_group_name_H-M "P M M A"
_symmetry_group_IT_number 51
_symmetry_cell_setting 'orthorhombic'
loop_
_space_group_symop_operation_xyz
x,y,z
1/2-x,-y,z
1/2+x,-y,-z
-x,y,-z
-x,-y,-z
1/2+x,y,-z
1/2-x,y,z
x,-y,z
loop_
_atom_site_type_symbol
_atom_site_label
_atom_site_fract_x
_atom_site_fract_y
_atom_site_fract_z
Si Si1 0.850988 0.795590 0.231764
Si Si2 0.905637 0.500000 0.076531
Si Si3 0.857853 0.500000 0.373764
Si Si4 0.143477 0.680181 0.528170
Si Si5 0.146934 0.231674 0.264469
Si Si6 0.509253 0.902172 0.844476
Si Si7 0.892263 0.321749 0.994452
O O1 0.750000 0.827576 0.264341
O O2 0.889264 0.732526 0.343802
O O3 0.915255 0.877304 0.225628
O O4 0.849791 0.746668 0.092723
O O5 0.854253 0.414444 0.033271
O O6 0.913528 0.500000 0.236162
O O7 0.000000 0.500000 0.000000
O O8 0.750000 0.500000 0.343482
O O9 0.888147 0.582646 0.457743
O O10 0.250000 0.681455 0.517932
O O11 0.103863 0.725051 0.396327
O O12 0.250000 0.202387 0.288445
O O13 0.090701 0.149742 0.220622
O O14 0.142848 0.303427 0.152484
O O15 0.529560 0.000000 0.818937
O O16 0.500000 0.880774 0.000000
O O17 0.000000 0.316235 0.000000
#
# Coordination Sequence:
#
# PCOD8207500 Si02
#       7
#     8   4   4   8   8   8   8
#     4  11  20  38  64  90 118 158 203 247 303 366
#     4  10  22  33  56  88 127 162 208 255 296 339
#     4  10  18  35  58  87 126 168 215 256 299 362
#     4   9  21  36  59  89 123 164 206 249 297 361
#     4  11  22  40  62  90 124 161 201 252 312 364
#     4  11  24  42  64  92 122 152 196 256 312 375
#     4  11  20  37  58  86 126 161 206 254 295 354
#
# _framework density 20.390857
#
# number of rings (size 3 to 8) (size 9 to 14) (size 15 to 20)
#    0.000    1.500    5.000    0.500    0.000    2.667 
#    0.000    4.167    0.000    6.000    0.000    0.000 
#    0.000    0.000    0.000    0.000    0.000    0.000 
#
# Total GULP energy -595172.631030 kJ/mol
# GULP energy per Si atom -12399.429813 kJ/mol
# Density = 2.034445 g / cm^3
# Si number density = 20.390857 Si / 1000 Ang^3
#
#
#
# Elastic Constant Matrix: (Units=GPa)
#
#
# Indices 1 2 3 4 5 6 
#
# 1 85.0324 41.4322 24.3249 0.0000 0.0000 0.0000
# 2 41.4322 149.4952 65.7062 0.0000 0.0000 0.0000
# 3 24.3249 65.7062 135.3344 0.0000 0.0000 0.0000
# 4 0.0000 0.0000 0.0000 31.1046 0.0000 0.0000
# 5 0.0000 0.0000 0.0000 0.0000 23.6066 0.0000
# 6 0.0000 0.0000 0.0000 0.0000 0.0000 5.6070
#
#
#
# Elastic Compliance Matrix: (Units=1/GPa)
#
#
# Indices 1 2 3 4 5 6 
#
# 1 0.013662 -0.003441 -0.000785 0.000000 0.000000 0.000000
# 2 -0.003441 0.009371 -0.003931 0.000000 0.000000 0.000000
# 3 -0.000785 -0.003931 0.009439 0.000000 0.000000 0.000000
# 4 0.000000 0.000000 0.000000 0.032150 0.000000 0.000000
# 5 0.000000 0.000000 0.000000 0.000000 0.042361 0.000000
# 6 0.000000 0.000000 0.000000 0.000000 0.000000 0.178348
#
#
# Mechanical properties :
#
#
# Convention : Reuss Voigt Hill
#
# Bulk Modulus (GPa) = 61.89362 70.30984 66.10173
# Shear Modulus (GPa) = 16.28510 27.95688 22.12099
#
# Velocity S-wave (km/s) = 2.82910 3.70679 3.29728
# Velocity P-wave (km/s) = 6.41025 7.27161 6.85447
#
# Compressibility (1/GPa) = 0.01615675
#
# Stress axis : x y z
#
# Youngs Moduli (GPa) = 73.19831 106.71561 105.94687
#
# Poissons Ratio (x) = 0.36725 0.08314
# Poissons Ratio (y) = 0.25190 0.41648
# Poissons Ratio (z) = 0.05744 0.41950
#
# Static dielectric constant tensor:
#      x y z
#    x 3.601700 0.000000 0.000000 
#    y 0.000000 3.796180 0.000000 
#    z 0.000000 0.000000 3.874050 
# 
# 
# High freq. dielectric constant tensor:
#      x y z
#    x 1.791190 0.000000 0.000000 
#    y 0.000000 1.789790 0.000000 
#    z 0.000000 0.000000 1.798390 
# 
# From -- ./inp_files/8313.got.cif
#   From: 2010.03.12/outbox.cif.g09.slc.cpg/sg51_5_cif.got.tgz:8313.got - 2010.04.16 13:43:02.
