data_PCOD8207849
_publ_section_title
;
Structure prediction by ZEFSAII (Michael W. Deem and Ramdas Pophale) SiO2 
 PCOD8207849
Probable space group: P M M A
;
_chemical_formula_sum "Si O2"
_cell_formula_units_Z 64
_cell_length_a 9.407029
_cell_length_b 14.193042
_cell_length_c 31.063519
_cell_angle_alpha 90.000000
_cell_angle_beta 90.000000
_cell_angle_gamma 90.000000
_cell_volume 4147.425787
_symmetry_space_group_name_H-M "P M M A"
_symmetry_group_IT_number 51
_symmetry_cell_setting 'orthorhombic'
loop_
_space_group_symop_operation_xyz
x,y,z
1/2-x,-y,z
1/2+x,-y,-z
-x,y,-z
-x,-y,-z
1/2+x,y,-z
1/2-x,y,z
x,-y,z
loop_
_atom_site_type_symbol
_atom_site_label
_atom_site_fract_x
_atom_site_fract_y
_atom_site_fract_z
Si Si1 0.416984 0.609066 0.365626
Si Si2 0.093864 0.611447 0.461887
Si Si3 0.584597 0.104082 0.834894
Si Si4 0.583435 0.706053 0.873242
Si Si5 0.416410 0.296374 0.708966
Si Si6 0.585201 0.389943 0.958346
Si Si7 0.914025 0.388786 0.786154
Si Si8 0.412421 0.104782 0.749969
O O1 0.250000 0.629757 0.359182
O O2 0.448190 0.500000 0.354877
O O3 0.465805 0.633948 0.414301
O O4 0.510660 0.674837 0.335441
O O5 0.250000 0.655802 0.466712
O O6 0.103009 0.500000 0.467595
O O7 0.000000 0.656767 0.500000
O O8 0.750000 0.108634 0.823667
O O9 0.546462 0.182382 0.870733
O O10 0.506252 0.129920 0.791066
O O11 0.540970 0.000000 0.852010
O O12 0.750000 0.686202 0.875191
O O13 0.518218 0.664090 0.917107
O O14 0.525040 0.653910 0.830714
O O15 0.250000 0.322187 0.707860
O O16 0.488836 0.352014 0.747785
O O17 0.440404 0.183731 0.713808
O O18 0.750000 0.365333 0.965707
O O19 0.562229 0.500000 0.950054
O O20 0.500000 0.354936 0.000000
O O21 0.750000 0.358280 0.778144
O O22 0.927563 0.500000 0.788819
O O23 0.250000 0.108523 0.765545
O O24 0.449903 0.000000 0.731899
#
# Coordination Sequence:
#
# PCOD8207849 Si02
#       8
#     8   8   8   8   8   8   8   8
#     4   9  18  31  44  59  85 123 157 180 211 259
#     4   8  14  25  41  60  81 108 145 185 220 253
#     4   9  16  27  46  69  86 103 136 180 217 250
#     4   9  16  28  46  66  86 109 140 175 211 254
#     4  11  21  30  42  62  87 115 147 182 217 253
#     4   9  17  30  47  65  85 110 140 173 209 250
#     4  10  19  30  44  61  84 117 149 174 206 252
#     4   9  18  32  46  60  83 114 144 177 221 266
#
# _framework density 15.431258
#
# number of rings (size 3 to 8) (size 9 to 14) (size 15 to 20)
#    0.000    2.750    1.250    1.875    0.000    4.500 
#    0.000    2.500    0.000    1.875    0.000    0.000 
#    0.000    0.500    0.000    1.125    0.000    1.750 
#
# Total GULP energy -793289.496724 kJ/mol
# GULP energy per Si atom -12395.148386 kJ/mol
# Density = 1.539614 g / cm^3
# Si number density = 15.431258 Si / 1000 Ang^3
#
#
#
# Elastic Constant Matrix: (Units=GPa)
#
#
# Indices 1 2 3 4 5 6 
#
# 1 54.7609 34.6038 51.0734 0.0000 0.0000 0.0000
# 2 34.6038 78.2109 54.8394 0.0000 0.0000 0.0000
# 3 51.0734 54.8394 129.8511 0.0000 0.0000 0.0000
# 4 0.0000 0.0000 0.0000 12.1946 0.0000 0.0000
# 5 0.0000 0.0000 0.0000 0.0000 24.9544 0.0000
# 6 0.0000 0.0000 0.0000 0.0000 0.0000 17.0079
#
#
#
# Elastic Compliance Matrix: (Units=1/GPa)
#
#
# Indices 1 2 3 4 5 6 
#
# 1 0.031659 -0.007496 -0.009287 0.000000 0.000000 0.000000
# 2 -0.007496 0.019940 -0.005473 0.000000 0.000000 0.000000
# 3 -0.009287 -0.005473 0.013665 0.000000 0.000000 0.000000
# 4 0.000000 0.000000 0.000000 0.082004 0.000000 0.000000
# 5 0.000000 0.000000 0.000000 0.000000 0.040073 0.000000
# 6 0.000000 0.000000 0.000000 0.000000 0.000000 0.058796
#
#
# Mechanical properties :
#
#
# Convention : Reuss Voigt Hill
#
# Bulk Modulus (GPa) = 48.18453 60.42846 54.30649
# Shear Modulus (GPa) = 16.80306 18.98515 17.89411
#
# Velocity S-wave (km/s) = 3.30342 3.51138 3.40899
# Velocity P-wave (km/s) = 6.77076 7.46220 7.12487
#
# Compressibility (1/GPa) = 0.02075355
#
# Stress axis : x y z
#
# Youngs Moduli (GPa) = 31.58658 50.15102 73.17942
#
# Poissons Ratio (x) = 0.37592 0.67958
# Poissons Ratio (y) = 0.23677 0.40050
# Poissons Ratio (z) = 0.29333 0.27447
#
# Static dielectric constant tensor:
#      x y z
#    x 2.826260 0.000000 0.000000 
#    y 0.000000 3.010100 0.000000 
#    z 0.000000 0.000000 2.995180 
# 
# 
# High freq. dielectric constant tensor:
#      x y z
#    x 1.582990 0.000000 0.000000 
#    y 0.000000 1.576430 0.000000 
#    z 0.000000 0.000000 1.579900 
# 
# From -- ./inp_files/37615.got.cif
#   From: 2010.03.12/outbox.cif.g09.slc.cpg/sg51_19_cif.got.tgz:37615.got - 2010.04.16 13:43:02.
