data_PCOD8207291
_publ_section_title
;
Structure prediction by ZEFSAII (Michael W. Deem and Ramdas Pophale) SiO2 
 PCOD8207291
Probable space group: P M M A
;
_chemical_formula_sum "Si O2"
_cell_formula_units_Z 64
_cell_length_a 27.734977
_cell_length_b 8.770057
_cell_length_c 14.361595
_cell_angle_alpha 90.000000
_cell_angle_beta 90.000000
_cell_angle_gamma 90.000000
_cell_volume 3493.276011
_symmetry_space_group_name_H-M "P M M A"
_symmetry_group_IT_number 51
_symmetry_cell_setting 'orthorhombic'
loop_
_space_group_symop_operation_xyz
x,y,z
1/2-x,-y,z
1/2+x,-y,-z
-x,y,-z
-x,-y,-z
1/2+x,y,-z
1/2-x,y,z
x,-y,z
loop_
_atom_site_type_symbol
_atom_site_label
_atom_site_fract_x
_atom_site_fract_y
_atom_site_fract_z
Si Si1 0.103136 0.822068 0.654465
Si Si2 0.069840 0.180928 0.265493
Si Si3 0.123730 0.322035 0.109087
Si Si4 0.470337 0.679538 0.787069
Si Si5 0.196204 0.819124 0.765674
Si Si6 0.552042 0.177547 0.529778
Si Si7 0.054131 0.169459 0.970093
Si Si8 0.193718 0.171233 0.973788
O O1 0.060711 0.721055 0.697098
O O2 0.156042 0.765807 0.689871
O O3 0.095411 0.794693 0.544097
O O4 0.095538 0.000000 0.680011
O O5 0.116737 0.243707 0.210462
O O6 0.070058 0.244863 0.371458
O O7 0.021917 0.239941 0.214949
O O8 0.070722 0.000000 0.260377
O O9 0.124461 0.500000 0.125797
O O10 0.079289 0.273436 0.045810
O O11 0.172188 0.272959 0.056259
O O12 0.477799 0.500000 0.795969
O O13 0.439709 0.745187 0.872649
O O14 0.250000 0.755186 0.739351
O O15 0.181118 0.764028 0.869988
O O16 0.199614 0.000000 0.767711
O O17 0.500000 0.250224 0.500000
O O18 0.542630 0.000000 0.544859
O O19 0.077538 0.000000 0.963254
O O20 0.000000 0.153208 0.000000
O O21 0.250000 0.174124 0.988551
O O22 0.173445 0.000000 0.983643
#
# Coordination Sequence:
#
# PCOD8207291 Si02
#       8
#     8   8   8   8   8   8   8   8
#     4  10  18  32  55  77 103 141 177 216 270 326
#     4  11  21  36  54  71 101 145 188 224 265 319
#     4  12  24  36  53  79 111 141 177 227 278 324
#     4  12  23  33  48  75 108 136 173 222 269 316
#     4   8  15  29  53  84 109 129 164 214 264 316
#     4   9  17  31  52  77 102 135 186 230 261 308
#     4  11  22  35  52  71  99 143 182 210 254 319
#     4   9  18  35  58  82 109 143 183 222 263 326
#
# _framework density 18.320913000000001
#
# number of rings (size 3 to 8) (size 9 to 14) (size 15 to 20)
#    0.000    1.750    2.500    4.500    0.000    1.750 
#    0.000    1.875    0.000    1.875    0.000    3.500 
#    0.000    0.000    0.000    0.000    0.000    0.000 
#
# Total GULP energy -793285.957797 kJ/mol
# GULP energy per Si atom -12395.093091 kJ/mol
# Density = 1.827921 g / cm^3
# Si number density = 18.320913 Si / 1000 Ang^3
#
#
#
# Elastic Constant Matrix: (Units=GPa)
#
#
# Indices 1 2 3 4 5 6 
#
# 1 83.7884 21.5005 44.1808 0.0000 0.0000 0.0000
# 2 21.5005 69.6619 29.9906 0.0000 0.0000 0.0000
# 3 44.1808 29.9906 132.7105 0.0000 0.0000 0.0000
# 4 0.0000 0.0000 0.0000 7.0076 0.0000 0.0000
# 5 0.0000 0.0000 0.0000 0.0000 30.8734 0.0000
# 6 0.0000 0.0000 0.0000 0.0000 0.0000 11.9868
#
#
#
# Elastic Compliance Matrix: (Units=1/GPa)
#
#
# Indices 1 2 3 4 5 6 
#
# 1 0.014932 -0.002735 -0.004353 0.000000 0.000000 0.000000
# 2 -0.002735 0.016403 -0.002796 0.000000 0.000000 0.000000
# 3 -0.004353 -0.002796 0.009616 0.000000 0.000000 0.000000
# 4 0.000000 0.000000 0.000000 0.142702 0.000000 0.000000
# 5 0.000000 0.000000 0.000000 0.000000 0.032390 0.000000
# 6 0.000000 0.000000 0.000000 0.000000 0.000000 0.083425
#
#
# Mechanical properties :
#
#
# Convention : Reuss Voigt Hill
#
# Bulk Modulus (GPa) = 47.20747 53.05606 50.13177
# Shear Modulus (GPa) = 15.32345 22.67283 18.99814
#
# Velocity S-wave (km/s) = 2.89518 3.52168 3.22369
# Velocity P-wave (km/s) = 6.08268 6.74970 6.42485
#
# Compressibility (1/GPa) = 0.02118309
#
# Stress axis : x y z
#
# Youngs Moduli (GPa) = 66.97108 60.96461 103.98985
#
# Poissons Ratio (x) = 0.16671 0.45267
# Poissons Ratio (y) = 0.18313 0.29080
# Poissons Ratio (z) = 0.29153 0.17049
#
# Static dielectric constant tensor:
#      x y z
#    x 3.532620 0.000000 0.000000 
#    y 0.000000 3.135820 0.000000 
#    z 0.000000 0.000000 3.635690 
# 
# 
# High freq. dielectric constant tensor:
#      x y z
#    x 1.695960 0.000000 0.000000 
#    y 0.000000 1.684850 0.000000 
#    z 0.000000 0.000000 1.710310 
# 
# From -- ./inp_files/26731.got.cif
#   From: 2010.03.12/outbox.cif.g09.slc.cpg/sg51_14_cif.got.tgz:26731.got - 2010.04.16 13:43:02.
