data_PCOD8207964
_publ_section_title
;
Structure prediction by ZEFSAII (Michael W. Deem and Ramdas Pophale) SiO2 
 PCOD8207964
Probable space group: P M M A
;
_chemical_formula_sum "Si O2"
_cell_formula_units_Z 48
_cell_length_a 19.339921
_cell_length_b 9.371933
_cell_length_c 15.535564
_cell_angle_alpha 90.000000
_cell_angle_beta 90.000000
_cell_angle_gamma 90.000000
_cell_volume 2815.858941
_symmetry_space_group_name_H-M "P M M A"
_symmetry_group_IT_number 51
_symmetry_cell_setting 'orthorhombic'
loop_
_space_group_symop_operation_xyz
x,y,z
1/2-x,-y,z
1/2+x,-y,-z
-x,y,-z
-x,-y,-z
1/2+x,y,-z
1/2-x,y,z
x,-y,z
loop_
_atom_site_type_symbol
_atom_site_label
_atom_site_fract_x
_atom_site_fract_y
_atom_site_fract_z
Si Si1 0.430566 0.331368 0.681974
Si Si2 0.327022 0.330093 0.827809
Si Si3 0.832268 0.341667 0.983608
Si Si4 0.082043 0.343111 0.494078
Si Si5 0.328945 0.165621 0.176879
Si Si6 0.427573 0.831730 0.333106
O O1 0.446848 0.500000 0.690752
O O2 0.379386 0.273334 0.755548
O O3 0.392820 0.300135 0.590161
O O4 0.501263 0.244636 0.691150
O O5 0.250000 0.268655 0.809645
O O6 0.323584 0.500000 0.826198
O O7 0.354405 0.281202 0.922333
O O8 0.750000 0.346455 0.981939
O O9 0.862789 0.500000 0.969349
O O10 0.860744 0.243318 0.906879
O O11 0.111020 0.500000 0.468330
O O12 0.104338 0.227534 0.422833
O O13 0.000000 0.350314 0.500000
O O14 0.250000 0.212825 0.194355
O O15 0.372674 0.207625 0.260082
O O16 0.333963 0.000000 0.156530
O O17 0.439794 0.000000 0.342445
#
# Coordination Sequence:
#
# PCOD8207964 Si02
#       6
#     8   8   8   8   8   8
#     4   9  17  30  48  68  91 118 145 177 218 261
#     4   8  14  27  48  71  92 115 145 179 215 258
#     4   8  14  26  46  69  88 110 145 183 214 252
#     4   8  15  28  45  65  88 115 147 179 213 258
#     4   9  18  32  47  63  86 117 150 182 220 264
#     4  10  19  30  46  66  87 115 150 185 220 259
#
# _framework density 17.046308
#
# number of rings (size 3 to 8) (size 9 to 14) (size 15 to 20)
#    0.000    3.333    0.000    2.500    0.000    4.333 
#    0.000    2.500    0.000    7.500    0.000    0.000 
#    0.000    0.000    0.000    0.000    0.000    0.000 
#
# Total GULP energy -594845.516143 kJ/mol
# GULP energy per Si atom -12392.614920 kJ/mol
# Density = 1.700751 g / cm^3
# Si number density = 17.046308 Si / 1000 Ang^3
#
#
#
# Elastic Constant Matrix: (Units=GPa)
#
#
# Indices 1 2 3 4 5 6 
#
# 1 53.9667 35.2950 61.5245 0.0000 0.0000 0.0000
# 2 35.2950 61.9476 67.6098 0.0000 0.0000 0.0000
# 3 61.5245 67.6098 179.3806 0.0000 0.0000 0.0000
# 4 0.0000 0.0000 0.0000 12.7977 0.0000 0.0000
# 5 0.0000 0.0000 0.0000 0.0000 29.4263 0.0000
# 6 0.0000 0.0000 0.0000 0.0000 0.0000 14.9135
#
#
#
# Elastic Compliance Matrix: (Units=1/GPa)
#
#
# Indices 1 2 3 4 5 6 
#
# 1 0.034667 -0.011509 -0.007552 0.000000 0.000000 0.000000
# 2 -0.011509 0.031244 -0.007829 0.000000 0.000000 0.000000
# 3 -0.007552 -0.007829 0.011116 0.000000 0.000000 0.000000
# 4 0.000000 0.000000 0.000000 0.078139 0.000000 0.000000
# 5 0.000000 0.000000 0.000000 0.000000 0.033983 0.000000
# 6 0.000000 0.000000 0.000000 0.000000 0.000000 0.067053
#
#
# Mechanical properties :
#
#
# Convention : Reuss Voigt Hill
#
# Bulk Modulus (GPa) = 43.01674 69.35042 56.18358
# Shear Modulus (GPa) = 15.73650 20.15187 17.94419
#
# Velocity S-wave (km/s) = 3.04165 3.44202 3.24801
# Velocity P-wave (km/s) = 6.13397 7.52121 6.86273
#
# Compressibility (1/GPa) = 0.02324677
#
# Stress axis : x y z
#
# Youngs Moduli (GPa) = 28.84581 32.00572 89.96195
#
# Poissons Ratio (x) = 0.36836 0.67943
# Poissons Ratio (y) = 0.33199 0.70430
# Poissons Ratio (z) = 0.21785 0.25057
#
# Static dielectric constant tensor:
#      x y z
#    x 2.933010 0.000000 0.000000 
#    y 0.000000 3.075690 0.000000 
#    z 0.000000 0.000000 3.776260 
# 
# 
# High freq. dielectric constant tensor:
#      x y z
#    x 1.615260 0.000000 0.000000 
#    y 0.000000 1.638040 0.000000 
#    z 0.000000 0.000000 1.676570 
# 
# From -- ./inp_files/25487.got.cif
#   From: 2010.03.12/outbox.cif.g09.slc.cpg/sg51_13_cif.got.tgz:25487.got - 2010.04.16 13:43:02.
