data_PCOD8207379
_publ_section_title
;
Structure prediction by ZEFSAII (Michael W. Deem and Ramdas Pophale) SiO2 
 PCOD8207379
Probable space group: P M M A
;
_chemical_formula_sum "Si O2"
_cell_formula_units_Z 40
_cell_length_a 9.029681
_cell_length_b 11.950213
_cell_length_c 20.412530
_cell_angle_alpha 90.000000
_cell_angle_beta 90.000000
_cell_angle_gamma 90.000000
_cell_volume 2202.646940
_symmetry_space_group_name_H-M "P M M A"
_symmetry_group_IT_number 51
_symmetry_cell_setting 'orthorhombic'
loop_
_space_group_symop_operation_xyz
x,y,z
1/2-x,-y,z
1/2+x,-y,-z
-x,y,-z
-x,-y,-z
1/2+x,y,-z
1/2-x,y,z
x,-y,z
loop_
_atom_site_type_symbol
_atom_site_label
_atom_site_fract_x
_atom_site_fract_y
_atom_site_fract_z
Si Si1 0.087387 0.000000 0.241560
Si Si2 0.425308 0.375576 0.811350
Si Si3 0.076083 0.209383 0.702770
Si Si4 0.572777 0.231662 0.064465
Si Si5 0.422986 0.128158 0.565367
Si Si6 0.583926 0.000000 0.911452
O O1 0.104124 0.000000 0.165010
O O2 0.999047 0.108313 0.261029
O O3 0.250000 0.000000 0.274717
O O4 0.250000 0.383046 0.815466
O O5 0.494980 0.500000 0.815051
O O6 0.472335 0.321990 0.741040
O O7 0.482684 0.301126 0.872052
O O8 0.250000 0.189192 0.708811
O O9 0.029861 0.208439 0.625987
O O10 0.750000 0.230111 0.059550
O O11 0.509766 0.106748 0.066656
O O12 0.500000 0.289484 0.000000
O O13 0.500000 0.174231 0.500000
O O14 0.250000 0.133471 0.552575
O O15 0.472359 0.000000 0.580829
O O16 0.750000 0.000000 0.943235
#
# Coordination Sequence:
#
# PCOD8207379 Si02
#       6
#     4   8   8   8   8   4
#     4  11  21  30  49  80 109 133 165 212 261 310
#     4   9  19  35  56  79  99 129 177 222 258 301
#     4  10  18  33  55  76 103 137 174 213 253 305
#     4  11  22  36  56  78 106 138 170 211 261 310
#     4   9  17  28  45  72 106 138 170 203 246 304
#     4  11  22  36  53  78 111 137 170 208 254 318
#
# _framework density 18.159967999999999
#
# number of rings (size 3 to 8) (size 9 to 14) (size 15 to 20)
#    0.000    2.000    3.000    1.500    0.000    2.000 
#    0.000    0.000    0.000    5.400    0.000    0.000 
#    0.000    0.000    0.000    0.000    0.000    0.000 
#
# Total GULP energy -495800.601644 kJ/mol
# GULP energy per Si atom -12395.015041 kJ/mol
# Density = 1.811863 g / cm^3
# Si number density = 18.159968 Si / 1000 Ang^3
#
#
#
# Elastic Constant Matrix: (Units=GPa)
#
#
# Indices 1 2 3 4 5 6 
#
# 1 45.3332 27.0059 39.7254 0.0000 0.0000 0.0000
# 2 27.0059 112.3957 64.8912 0.0000 0.0000 0.0000
# 3 39.7254 64.8912 160.8606 0.0000 0.0000 0.0000
# 4 0.0000 0.0000 0.0000 11.6819 0.0000 0.0000
# 5 0.0000 0.0000 0.0000 0.0000 29.5271 0.0000
# 6 0.0000 0.0000 0.0000 0.0000 0.0000 7.6947
#
#
#
# Elastic Compliance Matrix: (Units=1/GPa)
#
#
# Indices 1 2 3 4 5 6 
#
# 1 0.029305 -0.003732 -0.005731 0.000000 0.000000 0.000000
# 2 -0.003732 0.012074 -0.003949 0.000000 0.000000 0.000000
# 3 -0.005731 -0.003949 0.009225 0.000000 0.000000 0.000000
# 4 0.000000 0.000000 0.000000 0.085603 0.000000 0.000000
# 5 0.000000 0.000000 0.000000 0.000000 0.033867 0.000000
# 6 0.000000 0.000000 0.000000 0.000000 0.000000 0.129959
#
#
# Mechanical properties :
#
#
# Convention : Reuss Voigt Hill
#
# Bulk Modulus (GPa) = 42.05494 64.64830 53.35162
# Shear Modulus (GPa) = 14.93503 22.24522 18.59013
#
# Velocity S-wave (km/s) = 2.87089 3.50374 3.20298
# Velocity P-wave (km/s) = 5.84788 7.21421 6.56668
#
# Compressibility (1/GPa) = 0.02377842
#
# Stress axis : x y z
#
# Youngs Moduli (GPa) = 34.12433 82.82430 108.40191
#
# Poissons Ratio (x) = 0.30912 0.62129
# Poissons Ratio (y) = 0.12736 0.42806
# Poissons Ratio (z) = 0.19558 0.32706
#
# Static dielectric constant tensor:
#      x y z
#    x 3.307050 0.000000 0.000000 
#    y 0.000000 3.266360 0.000000 
#    z 0.000000 0.000000 3.729860 
# 
# 
# High freq. dielectric constant tensor:
#      x y z
#    x 1.688630 0.000000 0.000000 
#    y 0.000000 1.673590 0.000000 
#    z 0.000000 0.000000 1.720050 
# 
# From -- ./inp_files/31439.got.cif
#   From: 2010.03.12/outbox.cif.g09.slc.cpg/sg51_16_cif.got.tgz:31439.got - 2010.04.16 13:43:02.
