data_PCOD8207589
_publ_section_title
;
Structure prediction by ZEFSAII (Michael W. Deem and Ramdas Pophale) SiO2 
 PCOD8207589
Probable space group: P M M A
;
_chemical_formula_sum "Si O2"
_cell_formula_units_Z 64
_cell_length_a 25.064152
_cell_length_b 9.281870
_cell_length_c 16.490584
_cell_angle_alpha 90.000000
_cell_angle_beta 90.000000
_cell_angle_gamma 90.000000
_cell_volume 3836.405750
_symmetry_space_group_name_H-M "P M M A"
_symmetry_group_IT_number 51
_symmetry_cell_setting 'orthorhombic'
loop_
_space_group_symop_operation_xyz
x,y,z
1/2-x,-y,z
1/2+x,-y,-z
-x,y,-z
-x,-y,-z
1/2+x,y,-z
1/2-x,y,z
x,-y,z
loop_
_atom_site_type_symbol
_atom_site_label
_atom_site_fract_x
_atom_site_fract_y
_atom_site_fract_z
Si Si1 0.523618 0.330471 0.693501
Si Si2 0.551494 0.657663 0.442715
Si Si3 0.087053 0.329463 0.977048
Si Si4 0.013575 0.330128 0.123814
Si Si5 0.312364 0.659361 0.172636
Si Si6 0.811171 0.170836 0.989010
Si Si7 0.690105 0.838137 0.679801
Si Si8 0.403015 0.837871 0.428292
O O1 0.537352 0.500000 0.691232
O O2 0.466390 0.302682 0.648934
O O3 0.521616 0.269011 0.785268
O O4 0.567782 0.246408 0.643388
O O5 0.500000 0.658847 0.500000
O O6 0.578402 0.500000 0.443829
O O7 0.592447 0.771098 0.481565
O O8 0.097810 0.500000 0.970392
O O9 0.142680 0.245773 0.956402
O O10 0.063760 0.288231 0.066579
O O11 0.042757 0.274856 0.912622
O O12 0.008907 0.500000 0.127114
O O13 0.250000 0.641349 0.185088
O O14 0.338373 0.500000 0.158675
O O15 0.323643 0.765018 0.098838
O O16 0.336386 0.731774 0.253507
O O17 0.750000 0.209385 0.016697
O O18 0.818926 0.000000 0.988331
O O19 0.750000 0.790607 0.659707
O O20 0.659037 0.831157 0.594959
O O21 0.688246 0.000000 0.716018
O O22 0.425388 0.000000 0.431303
#
# Coordination Sequence:
#
# PCOD8207589 Si02
#       8
#     8   8   8   8   8   8   8   8
#     4   9  17  30  47  65  88 118 147 174 218 275
#     4   8  15  28  44  62  85 113 142 173 213 262
#     4   9  17  31  50  70  92 117 152 191 225 268
#     4   8  16  31  49  69  92 119 148 186 233 273
#     4   9  17  28  42  60  81 109 149 189 217 249
#     4  10  20  32  45  63  91 124 152 184 229 271
#     4   9  18  31  42  56  85 120 148 177 217 263
#     4  10  19  28  42  65  89 115 148 185 221 254
#
# _framework density 16.682281
#
# number of rings (size 3 to 8) (size 9 to 14) (size 15 to 20)
#    0.000    3.000    0.000    2.625    1.750    5.500 
#    0.000    1.875    0.000    0.000    0.000    0.875 
#    0.000    5.000    0.000    0.000    0.000    0.000 
#
# Total GULP energy -792913.685161 kJ/mol
# GULP energy per Si atom -12389.276331 kJ/mol
# Density = 1.664431 g / cm^3
# Si number density = 16.682281 Si / 1000 Ang^3
#
#
#
# Elastic Constant Matrix: (Units=GPa)
#
#
# Indices 1 2 3 4 5 6 
#
# 1 75.5466 35.2590 17.5553 0.0000 0.0000 0.0000
# 2 35.2590 70.5703 20.6031 0.0000 0.0000 0.0000
# 3 17.5553 20.6031 65.4960 0.0000 0.0000 0.0000
# 4 0.0000 0.0000 0.0000 17.4187 0.0000 0.0000
# 5 0.0000 0.0000 0.0000 0.0000 19.7388 0.0000
# 6 0.0000 0.0000 0.0000 0.0000 0.0000 21.6950
#
#
#
# Elastic Compliance Matrix: (Units=1/GPa)
#
#
# Indices 1 2 3 4 5 6 
#
# 1 0.017530 -0.008134 -0.002140 0.000000 0.000000 0.000000
# 2 -0.008134 0.019377 -0.003915 0.000000 0.000000 0.000000
# 3 -0.002140 -0.003915 0.017073 0.000000 0.000000 0.000000
# 4 0.000000 0.000000 0.000000 0.057409 0.000000 0.000000
# 5 0.000000 0.000000 0.000000 0.000000 0.050662 0.000000
# 6 0.000000 0.000000 0.000000 0.000000 0.000000 0.046094
#
#
# Mechanical properties :
#
#
# Convention : Reuss Voigt Hill
#
# Bulk Modulus (GPa) = 39.05885 39.82753 39.44319
# Shear Modulus (GPa) = 20.40329 20.98354 20.69342
#
# Velocity S-wave (km/s) = 3.50101 3.55044 3.52581
# Velocity P-wave (km/s) = 6.30928 6.38228 6.34588
#
# Compressibility (1/GPa) = 0.02560239
#
# Stress axis : x y z
#
# Youngs Moduli (GPa) = 57.04372 51.60678 58.57065
#
# Poissons Ratio (x) = 0.41976 0.12535
# Poissons Ratio (y) = 0.46399 0.22932
# Poissons Ratio (z) = 0.12208 0.20206
#
# Static dielectric constant tensor:
#      x y z
#    x 3.158080 0.000000 0.000000 
#    y 0.000000 3.185960 0.000000 
#    z 0.000000 0.000000 3.304670 
# 
# 
# High freq. dielectric constant tensor:
#      x y z
#    x 1.627560 0.000000 0.000000 
#    y 0.000000 1.637030 0.000000 
#    z 0.000000 0.000000 1.612840 
# 
# From -- ./inp_files/30969.got.cif
#   From: 2010.03.12/outbox.cif.g09.slc.cpg/sg51_16_cif.got.tgz:30969.got - 2010.04.16 13:43:02.
