data_PCOD8207439
_publ_section_title
;
Structure prediction by ZEFSAII (Michael W. Deem and Ramdas Pophale) SiO2 
 PCOD8207439
Probable space group: P M M A
;
_chemical_formula_sum "Si O2"
_cell_formula_units_Z 48
_cell_length_a 17.839968
_cell_length_b 13.621443
_cell_length_c 9.574636
_cell_angle_alpha 90.000000
_cell_angle_beta 90.000000
_cell_angle_gamma 90.000000
_cell_volume 2326.695023
_symmetry_space_group_name_H-M "P M M A"
_symmetry_group_IT_number 51
_symmetry_cell_setting 'orthorhombic'
loop_
_space_group_symop_operation_xyz
x,y,z
1/2-x,-y,z
1/2+x,-y,-z
-x,y,-z
-x,-y,-z
1/2+x,y,-z
1/2-x,y,z
x,-y,z
loop_
_atom_site_type_symbol
_atom_site_label
_atom_site_fract_x
_atom_site_fract_y
_atom_site_fract_z
Si Si1 0.333283 0.279145 0.452697
Si Si2 0.166626 0.712392 0.051062
Si Si3 0.859225 0.888622 0.754894
Si Si4 0.395626 0.277695 0.753288
Si Si5 0.945031 0.384453 0.742207
Si Si6 0.480475 0.892461 0.851293
O O1 0.250000 0.321896 0.422048
O O2 0.335580 0.169564 0.385482
O O3 0.344261 0.282218 0.617891
O O4 0.398666 0.347248 0.391314
O O5 0.250000 0.671996 0.086188
O O6 0.163901 0.825705 0.106954
O O7 0.101923 0.648526 0.123197
O O8 0.154677 0.696521 0.886781
O O9 0.948411 0.896560 0.750522
O O10 0.824858 0.000000 0.758707
O O11 0.471253 0.341762 0.744226
O O12 0.417126 0.164267 0.768854
O O13 0.952689 0.500000 0.736440
O O14 0.448381 0.000000 0.885962
O O15 0.500000 0.839713 0.000000
#
# Coordination Sequence:
#
# PCOD8207439 Si02
#       6
#     8   8   8   8   8   8
#     4  11  25  41  60  89 126 162 196 244 306 360
#     4  11  23  39  63  93 125 159 195 245 305 355
#     4  10  20  37  62  88 119 164 212 247 284 345
#     4  12  22  40  62  93 125 155 199 252 299 355
#     4  11  24  44  69  89 112 154 206 249 293 361
#     4  10  18  33  60  92 121 156 203 253 295 339
#
# _framework density 20.630122
#
# number of rings (size 3 to 8) (size 9 to 14) (size 15 to 20)
#    0.000    1.167    5.000    3.500    0.000    6.000 
#    0.000    1.667    0.000    6.000    0.000    0.000 
#    0.000    0.000    0.000    0.000    0.000    0.000 
#
# Total GULP energy -594811.890671 kJ/mol
# GULP energy per Si atom -12391.914389 kJ/mol
# Density = 2.058317 g / cm^3
# Si number density = 20.630122 Si / 1000 Ang^3
#
#
#
# Elastic Constant Matrix: (Units=GPa)
#
#
# Indices 1 2 3 4 5 6 
#
# 1 93.1875 26.4559 23.2596 0.0000 0.0000 0.0000
# 2 26.4559 112.7386 32.2626 0.0000 0.0000 0.0000
# 3 23.2596 32.2626 145.3401 0.0000 0.0000 0.0000
# 4 0.0000 0.0000 0.0000 10.7693 0.0000 0.0000
# 5 0.0000 0.0000 0.0000 0.0000 56.7544 0.0000
# 6 0.0000 0.0000 0.0000 0.0000 0.0000 3.8133
#
#
#
# Elastic Compliance Matrix: (Units=1/GPa)
#
#
# Indices 1 2 3 4 5 6 
#
# 1 0.011741 -0.002368 -0.001353 0.000000 0.000000 0.000000
# 2 -0.002368 0.009949 -0.001830 0.000000 0.000000 0.000000
# 3 -0.001353 -0.001830 0.007503 0.000000 0.000000 0.000000
# 4 0.000000 0.000000 0.000000 0.092857 0.000000 0.000000
# 5 0.000000 0.000000 0.000000 0.000000 0.017620 0.000000
# 6 0.000000 0.000000 0.000000 0.000000 0.000000 0.262240
#
#
# Mechanical properties :
#
#
# Convention : Reuss Voigt Hill
#
# Bulk Modulus (GPa) = 55.27373 57.24691 56.26032
# Shear Modulus (GPa) = 11.93196 32.21994 22.07595
#
# Velocity S-wave (km/s) = 2.40755 3.95624 3.27476
# Velocity P-wave (km/s) = 5.88042 6.97700 6.45205
#
# Compressibility (1/GPa) = 0.01809178
#
# Stress axis : x y z
#
# Youngs Moduli (GPa) = 85.17081 100.50928 133.27763
#
# Poissons Ratio (x) = 0.23800 0.18037
# Poissons Ratio (y) = 0.20168 0.24384
# Poissons Ratio (z) = 0.11527 0.18389
#
# Static dielectric constant tensor:
#      x y z
#    x 3.763580 0.000000 0.000000 
#    y 0.000000 3.763510 0.000000 
#    z 0.000000 0.000000 4.087270 
# 
# 
# High freq. dielectric constant tensor:
#      x y z
#    x 1.814990 0.000000 0.000000 
#    y 0.000000 1.789510 0.000000 
#    z 0.000000 0.000000 1.803020 
# 
# From -- ./inp_files/9667.got.cif
#   From: 2010.03.12/outbox.cif.g09.slc.cpg/sg51_5_cif.got.tgz:9667.got - 2010.04.16 13:43:02.
