data_PCOD8207175
_publ_section_title
;
Structure prediction by ZEFSAII (Michael W. Deem and Ramdas Pophale) SiO2 
 PCOD8207175
Probable space group: P M M A
;
_chemical_formula_sum "Si O2"
_cell_formula_units_Z 48
_cell_length_a 28.324612
_cell_length_b 8.856385
_cell_length_c 10.259285
_cell_angle_alpha 90.000000
_cell_angle_beta 90.000000
_cell_angle_gamma 90.000000
_cell_volume 2573.579282
_symmetry_space_group_name_H-M "P M M A"
_symmetry_group_IT_number 51
_symmetry_cell_setting 'orthorhombic'
loop_
_space_group_symop_operation_xyz
x,y,z
1/2-x,-y,z
1/2+x,-y,-z
-x,y,-z
-x,-y,-z
1/2+x,y,-z
1/2-x,y,z
x,-y,z
loop_
_atom_site_type_symbol
_atom_site_label
_atom_site_fract_x
_atom_site_fract_y
_atom_site_fract_z
Si Si1 0.250000 0.678203 0.408357
Si Si2 0.994953 0.178254 0.146558
Si Si3 0.152277 0.821809 0.018570
Si Si4 0.750000 0.822104 0.872998
Si Si5 0.906911 0.178652 0.738264
Si Si6 0.647732 0.321238 0.500797
Si Si7 0.605801 0.820421 0.243209
O O1 0.250000 0.500000 0.396796
O O2 0.250000 0.743267 0.264757
O O3 0.202222 0.733841 0.481091
O O4 0.038484 0.223277 0.239802
O O5 0.947859 0.234936 0.219409
O O6 0.992147 0.000000 0.129303
O O7 0.000000 0.247717 0.000000
O O8 0.205624 0.769538 0.042024
O O9 0.120375 0.758647 0.135419
O O10 0.146492 0.000000 0.017652
O O11 0.135560 0.759706 0.879943
O O12 0.750000 0.000000 0.846579
O O13 0.886354 0.260745 0.613099
O O14 0.900270 0.000000 0.719299
O O15 0.645200 0.500000 0.500751
O O16 0.628149 0.258672 0.366699
O O17 0.608793 0.000000 0.261480
#
# Coordination Sequence:
#
# PCOD8207175 Si02
#       7
#     4   8   8   4   8   8   8
#     4  10  22  39  56  74 104 148 190 223 266 324
#     4   9  16  30  57  87 112 140 180 227 273 323
#     4   9  17  30  54  85 111 134 172 226 275 318
#     4  10  18  31  56  88 112 132 172 233 284 324
#     4  10  18  33  59  86 108 140 183 226 272 324
#     4  11  24  40  55  77 112 150 187 228 272 325
#     4  10  20  36  57  84 115 146 180 223 274 328
#
# _framework density 18.651066
#
# number of rings (size 3 to 8) (size 9 to 14) (size 15 to 20)
#    0.000    2.167    3.333    0.500    0.000    2.000 
#    0.000    6.667    0.000    1.000    0.000    0.000 
#    0.000    0.000    0.000    0.000    0.000    0.000 
#
# Total GULP energy -595070.926095 kJ/mol
# GULP energy per Si atom -12397.310960 kJ/mol
# Density = 1.860862 g / cm^3
# Si number density = 18.651066 Si / 1000 Ang^3
#
#
#
# Elastic Constant Matrix: (Units=GPa)
#
#
# Indices 1 2 3 4 5 6 
#
# 1 218.7961 53.2684 122.0641 0.0000 0.0000 0.0000
# 2 53.2684 46.4542 50.4003 0.0000 0.0000 0.0000
# 3 122.0641 50.4003 192.2097 0.0000 0.0000 0.0000
# 4 0.0000 0.0000 0.0000 -25.2636 0.0000 0.0000
# 5 0.0000 0.0000 0.0000 0.0000 32.3156 0.0000
# 6 0.0000 0.0000 0.0000 0.0000 0.0000 18.2446
#
#
#
# Elastic Compliance Matrix: (Units=1/GPa)
#
#
# Indices 1 2 3 4 5 6 
#
# 1 0.007832 -0.005010 -0.003660 0.000000 0.000000 0.000000
# 2 -0.005010 0.033290 -0.005548 0.000000 0.000000 0.000000
# 3 -0.003660 -0.005548 0.008982 0.000000 0.000000 0.000000
# 4 0.000000 0.000000 0.000000 -0.039583 0.000000 0.000000
# 5 0.000000 0.000000 0.000000 0.000000 0.030945 0.000000
# 6 0.000000 0.000000 0.000000 0.000000 0.000000 0.054811
#
#
# Mechanical properties :
#
#
# Convention : Reuss Voigt Hill
#
# Bulk Modulus (GPa) = 46.14955 100.99176 73.57066
# Shear Modulus (GPa) = 37.89729 20.50780 29.20254
#
# Velocity S-wave (km/s) = 4.51256 3.31955 3.96122
# Velocity P-wave (km/s) = 7.20752 8.30410 7.77516
#
# Compressibility (1/GPa) = 0.02166869
#
# Stress axis : x y z
#
# Youngs Moduli (GPa) = 127.67840 30.03881 111.33678
#
# Poissons Ratio (x) = 0.15049 0.40751
# Poissons Ratio (y) = 0.63966 0.61765
# Poissons Ratio (z) = 0.46733 0.16664
#
# Static dielectric constant tensor:
#      x y z
#    x 3.980850 0.000000 0.000000 
#    y 0.000000 3.014230 0.000000 
#    z 0.000000 0.000000 3.519800 
# 
# 
# High freq. dielectric constant tensor:
#      x y z
#    x 1.745380 0.000000 0.000000 
#    y 0.000000 1.679540 0.000000 
#    z 0.000000 0.000000 1.727860 
# 
# From -- ./inp_files/12986.got.cif
#   From: 2010.03.12/outbox.cif.g09.slc.cpg/sg51_7_cif.got.tgz:12986.got - 2010.04.16 13:43:02.
