data_PCOD8207907
_publ_section_title
;
Structure prediction by ZEFSAII (Michael W. Deem and Ramdas Pophale) SiO2 
 PCOD8207907
Probable space group: P M M A
;
_chemical_formula_sum "Si O2"
_cell_formula_units_Z 56
_cell_length_a 25.000500
_cell_length_b 9.234656
_cell_length_c 15.358629
_cell_angle_alpha 90.000000
_cell_angle_beta 90.000000
_cell_angle_gamma 90.000000
_cell_volume 3545.862302
_symmetry_space_group_name_H-M "P M M A"
_symmetry_group_IT_number 51
_symmetry_cell_setting 'orthorhombic'
loop_
_space_group_symop_operation_xyz
x,y,z
1/2-x,-y,z
1/2+x,-y,-z
-x,y,-z
-x,-y,-z
1/2+x,y,-z
1/2-x,y,z
x,-y,z
loop_
_atom_site_type_symbol
_atom_site_label
_atom_site_fract_x
_atom_site_fract_y
_atom_site_fract_z
Si Si1 0.498279 0.163588 0.603432
Si Si2 0.310722 0.669269 0.258841
Si Si3 0.686454 0.164837 0.907618
Si Si4 0.686564 0.161471 0.094180
Si Si5 0.187493 0.829326 0.717306
Si Si6 0.101651 0.332371 0.396332
Si Si7 0.606294 0.330369 0.401420
O O1 0.500000 0.165238 0.500000
O O2 0.551836 0.239290 0.639214
O O3 0.446941 0.253594 0.635551
O O4 0.494840 0.000000 0.639642
O O5 0.250000 0.721744 0.277388
O O6 0.312233 0.500000 0.241170
O O7 0.336256 0.743107 0.172874
O O8 0.346027 0.712892 0.342021
O O9 0.750000 0.170056 0.903579
O O10 0.666112 0.000000 0.898748
O O11 0.667818 0.233762 0.001982
O O12 0.750000 0.154605 0.096173
O O13 0.668494 0.231003 0.186586
O O14 0.663404 0.000000 0.091907
O O15 0.250000 0.800980 0.702888
O O16 0.157382 0.737395 0.645054
O O17 0.174619 0.000000 0.708452
O O18 0.086781 0.500000 0.383226
O O19 0.114096 0.298881 0.496601
O O20 0.602177 0.500000 0.381593
#
# Coordination Sequence:
#
# PCOD8207907 Si02
#       7
#     8   8   8   8   8   8   8
#     4   9  17  30  48  66  82 103 139 186 225 254
#     4   9  17  28  41  60  88 119 146 171 205 251
#     4   8  13  23  40  60  81 107 141 178 211 245
#     4   7  11  22  40  59  80 109 142 174 210 250
#     4   9  17  29  44  63  89 119 148 177 211 253
#     4   9  18  31  45  61  85 117 148 177 211 252
#     4  10  19  30  45  64  87 115 146 179 214 254
#
# _framework density 15.793054
#
# number of rings (size 3 to 8) (size 9 to 14) (size 15 to 20)
#    0.000    3.286    0.000    2.571    0.000    3.714 
#    0.000    2.143    0.000    4.286    0.000    1.000 
#    0.000    8.000    0.000    0.000    0.000    0.000 
#
# Total GULP energy -693764.412980 kJ/mol
# GULP energy per Si atom -12388.650232 kJ/mol
# Density = 1.575711 g / cm^3
# Si number density = 15.793054 Si / 1000 Ang^3
#
#
#
# Elastic Constant Matrix: (Units=GPa)
#
#
# Indices 1 2 3 4 5 6 
#
# 1 73.2988 45.0287 51.0260 0.0000 0.0000 0.0000
# 2 45.0287 69.6040 47.2095 0.0000 0.0000 0.0000
# 3 51.0260 47.2095 96.6888 0.0000 0.0000 0.0000
# 4 0.0000 0.0000 0.0000 20.8776 0.0000 0.0000
# 5 0.0000 0.0000 0.0000 0.0000 2.1703 0.0000
# 6 0.0000 0.0000 0.0000 0.0000 0.0000 23.9598
#
#
#
# Elastic Compliance Matrix: (Units=1/GPa)
#
#
# Indices 1 2 3 4 5 6 
#
# 1 0.026540 -0.011467 -0.008407 0.000000 0.000000 0.000000
# 2 -0.011467 0.026435 -0.006856 0.000000 0.000000 0.000000
# 3 -0.008407 -0.006856 0.018126 0.000000 0.000000 0.000000
# 4 0.000000 0.000000 0.000000 0.047898 0.000000 0.000000
# 5 0.000000 0.000000 0.000000 0.000000 0.460775 0.000000
# 6 0.000000 0.000000 0.000000 0.000000 0.000000 0.041737
#
#
# Mechanical properties :
#
#
# Convention : Reuss Voigt Hill
#
# Bulk Modulus (GPa) = 56.68349 58.45779 57.57064
# Shear Modulus (GPa) = 7.34375 15.82337 11.58356
#
# Velocity S-wave (km/s) = 2.15872 3.16875 2.71118
# Velocity P-wave (km/s) = 6.49483 7.10515 6.80683
#
# Compressibility (1/GPa) = 0.01764182
#
# Stress axis : x y z
#
# Youngs Moduli (GPa) = 37.67958 37.82808 55.16793
#
# Poissons Ratio (x) = 0.43378 0.46379
# Poissons Ratio (y) = 0.43208 0.37822
# Poissons Ratio (z) = 0.31677 0.25934
#
# Static dielectric constant tensor:
#      x y z
#    x 2.794010 0.000000 0.000000 
#    y 0.000000 2.960580 0.000000 
#    z 0.000000 0.000000 3.276690 
# 
# 
# High freq. dielectric constant tensor:
#      x y z
#    x 1.571670 0.000000 0.000000 
#    y 0.000000 1.594800 0.000000 
#    z 0.000000 0.000000 1.603040 
# 
# From -- ./inp_files/30465.got.cif
#   From: 2010.03.12/outbox.cif.g09.slc.cpg/sg51_16_cif.got.tgz:30465.got - 2010.04.16 13:43:02.
