data_PCOD8207803
_publ_section_title
;
Structure prediction by ZEFSAII (Michael W. Deem and Ramdas Pophale) SiO2 
 PCOD8207803
Probable space group: P M M A
;
_chemical_formula_sum "Si O2"
_cell_formula_units_Z 60
_cell_length_a 9.140619
_cell_length_b 18.379396
_cell_length_c 29.892369
_cell_angle_alpha 90.000000
_cell_angle_beta 90.000000
_cell_angle_gamma 90.000000
_cell_volume 5021.889782
_symmetry_space_group_name_H-M "P M M A"
_symmetry_group_IT_number 51
_symmetry_cell_setting 'orthorhombic'
loop_
_space_group_symop_operation_xyz
x,y,z
1/2-x,-y,z
1/2+x,-y,-z
-x,y,-z
-x,-y,-z
1/2+x,y,-z
1/2-x,y,z
x,-y,z
loop_
_atom_site_type_symbol
_atom_site_label
_atom_site_fract_x
_atom_site_fract_y
_atom_site_fract_z
Si Si1 0.579255 0.500000 0.453104
Si Si2 0.913982 0.413184 0.129686
Si Si3 0.587780 0.413462 0.785881
Si Si4 0.578711 0.584406 0.686107
Si Si5 0.423050 0.641400 0.602785
Si Si6 0.585024 0.586742 0.956674
Si Si7 0.576646 0.764882 0.548064
Si Si8 0.081437 0.076772 0.453852
O O1 0.750000 0.500000 0.462782
O O2 0.500000 0.500000 0.500000
O O3 0.531548 0.570796 0.425599
O O4 0.750000 0.383298 0.124969
O O5 0.915933 0.500000 0.129841
O O6 0.979808 0.382499 0.176152
O O7 0.007247 0.383341 0.087958
O O8 0.750000 0.383287 0.796048
O O9 0.591893 0.500000 0.787400
O O10 0.537596 0.389270 0.736308
O O11 0.750000 0.597324 0.676506
O O12 0.538669 0.500000 0.679796
O O13 0.479385 0.631814 0.653219
O O14 0.250000 0.654423 0.602810
O O15 0.505375 0.710108 0.582680
O O16 0.750000 0.616703 0.957857
O O17 0.584212 0.500000 0.956808
O O18 0.500000 0.616801 0.000000
O O19 0.500000 0.755441 0.500000
O O20 0.750000 0.749559 0.542908
O O21 0.544422 0.845747 0.569391
O O22 0.250000 0.078123 0.466391
O O23 0.000000 0.074196 0.500000
O O24 0.045064 0.000000 0.427091
#
# Coordination Sequence:
#
# PCOD8207803 Si02
#       8
#     4   8   8   8   8   8   8   8
#     4  10  22  34  42  52  64  84 110 136 161 190
#     4   9  15  21  29  42  57  72  91 114 143 178
#     4   8  14  24  36  48  60  73  92 119 152 188
#     4   9  17  29  43  55  65  81 105 133 166 199
#     4  11  21  32  42  54  71  90 113 137 165 195
#     4   9  15  21  28  37  51  71  92 114 140 173
#     4  10  19  30  43  59  76  93 112 132 157 187
#     4   8  14  25  41  59  77  94 110 128 150 179
#
# _framework density 11.947692999999999
#
# number of rings (size 3 to 8) (size 9 to 14) (size 15 to 20)
#    0.000    2.800    0.667    2.800    0.000    6.400 
#    0.000    1.333    0.000    0.000    0.000    0.000 
#    0.000    0.000    0.000    0.000    0.000    0.000 
#
# Total GULP energy -743414.480416 kJ/mol
# GULP energy per Si atom -12390.241340 kJ/mol
# Density = 1.192050 g / cm^3
# Si number density = 11.947693 Si / 1000 Ang^3
#
#
#
# Elastic Constant Matrix: (Units=GPa)
#
#
# Indices 1 2 3 4 5 6 
#
# 1 77.7551 27.9278 50.1112 0.0000 0.0000 0.0000
# 2 27.9278 58.2417 27.0790 0.0000 0.0000 0.0000
# 3 50.1112 27.0790 93.4535 0.0000 0.0000 0.0000
# 4 0.0000 0.0000 0.0000 1.8726 0.0000 0.0000
# 5 0.0000 0.0000 0.0000 0.0000 23.1725 0.0000
# 6 0.0000 0.0000 0.0000 0.0000 0.0000 8.7056
#
#
#
# Elastic Compliance Matrix: (Units=1/GPa)
#
#
# Indices 1 2 3 4 5 6 
#
# 1 0.021134 -0.005623 -0.009703 0.000000 0.000000 0.000000
# 2 -0.005623 0.021339 -0.003168 0.000000 0.000000 0.000000
# 3 -0.009703 -0.003168 0.016821 0.000000 0.000000 0.000000
# 4 0.000000 0.000000 0.000000 0.534031 0.000000 0.000000
# 5 0.000000 0.000000 0.000000 0.000000 0.043155 0.000000
# 6 0.000000 0.000000 0.000000 0.000000 0.000000 0.114868
#
#
# Mechanical properties :
#
#
# Convention : Reuss Voigt Hill
#
# Bulk Modulus (GPa) = 44.83012 48.85402 46.84207
# Shear Modulus (GPa) = 6.28321 15.03897 10.66109
#
# Velocity S-wave (km/s) = 2.29572 3.55171 2.99040
# Velocity P-wave (km/s) = 6.68061 7.60252 7.15642
#
# Compressibility (1/GPa) = 0.02230643
#
# Stress axis : x y z
#
# Youngs Moduli (GPa) = 47.31764 46.86258 59.44789
#
# Poissons Ratio (x) = 0.26349 0.57683
# Poissons Ratio (y) = 0.26605 0.18835
# Poissons Ratio (z) = 0.45913 0.14847
#
# Static dielectric constant tensor:
#      x y z
#    x 2.632100 0.000000 0.000000 
#    y 0.000000 2.386360 0.000000 
#    z 0.000000 0.000000 2.487010 
# 
# 
# High freq. dielectric constant tensor:
#      x y z
#    x 1.468890 0.000000 0.000000 
#    y 0.000000 1.395920 0.000000 
#    z 0.000000 0.000000 1.441330 
# 
# From -- ./inp_files/36452.got.cif
#   From: 2010.03.12/outbox.cif.g09.slc.cpg/sg51_19_cif.got.tgz:36452.got - 2010.04.16 13:43:02.
