data_PCOD8207141
_publ_section_title
;
Structure prediction by ZEFSAII (Michael W. Deem and Ramdas Pophale) SiO2 
 PCOD8207141
Probable space group: P M M A
;
_chemical_formula_sum "Si O2"
_cell_formula_units_Z 48
_cell_length_a 8.809284
_cell_length_b 10.149274
_cell_length_c 27.858317
_cell_angle_alpha 90.000000
_cell_angle_beta 90.000000
_cell_angle_gamma 90.000000
_cell_volume 2490.751867
_symmetry_space_group_name_H-M "P M M A"
_symmetry_group_IT_number 51
_symmetry_cell_setting 'orthorhombic'
loop_
_space_group_symop_operation_xyz
x,y,z
1/2-x,-y,z
1/2+x,-y,-z
-x,y,-z
-x,-y,-z
1/2+x,y,-z
1/2-x,y,z
x,-y,z
loop_
_atom_site_type_symbol
_atom_site_label
_atom_site_fract_x
_atom_site_fract_y
_atom_site_fract_z
Si Si1 0.930406 0.000000 0.723549
Si Si2 0.929624 0.500000 0.698433
Si Si3 0.425447 0.500000 0.595508
Si Si4 0.069328 0.648287 0.130024
Si Si5 0.068852 0.730005 0.234081
Si Si6 0.930539 0.000000 0.613955
Si Si7 0.429357 0.149643 0.050401
Si Si8 0.571363 0.776643 0.449089
O O1 0.994620 0.127096 0.751340
O O2 0.750000 0.000000 0.724639
O O3 0.985949 0.000000 0.668821
O O4 0.750000 0.500000 0.699038
O O5 0.992245 0.627968 0.726173
O O6 0.980893 0.500000 0.644012
O O7 0.250000 0.500000 0.609764
O O8 0.468713 0.626543 0.563934
O O9 0.250000 0.653479 0.131082
O O10 0.013758 0.500000 0.117829
O O11 0.004692 0.690861 0.181891
O O12 0.006063 0.750687 0.090585
O O13 0.250000 0.728461 0.233056
O O14 0.996995 0.868924 0.590602
O O15 0.750000 0.000000 0.609049
O O16 0.250000 0.161694 0.046045
O O17 0.476984 0.000000 0.063983
O O18 0.500000 0.192627 0.000000
O O19 0.500000 0.812891 0.500000
O O20 0.750000 0.802787 0.451178
#
# Coordination Sequence:
#
# PCOD8207141 Si02
#       8
#     4   4   4   8   8   4   8   8
#     4   9  18  28  44  71 104 133 163 205 252 303
#     4  10  18  31  53  76 102 137 173 208 257 310
#     4  10  23  39  57  82 112 145 181 220 268 322
#     4   9  16  27  44  69 100 131 165 208 257 306
#     4   9  16  27  44  72 103 130 163 210 259 302
#     4  11  22  38  57  83 114 145 179 219 268 325
#     4   9  18  31  48  71  98 131 169 210 257 306
#     4  11  23  40  60  83 110 143 181 224 271 320
#
# _framework density 19.271288999999999
#
# number of rings (size 3 to 8) (size 9 to 14) (size 15 to 20)
#    0.000    2.333    0.833    2.250    1.167    3.000 
#    0.000    0.000    0.000    1.000    0.000    0.000 
#    0.000    0.000    0.000    0.000    0.000    0.000 
#
# Total GULP energy -595230.403321 kJ/mol
# GULP energy per Si atom -12400.633403 kJ/mol
# Density = 1.922743 g / cm^3
# Si number density = 19.271289 Si / 1000 Ang^3
#
#
#
# Elastic Constant Matrix: (Units=GPa)
#
#
# Indices 1 2 3 4 5 6 
#
# 1 31.0927 22.3436 21.7682 0.0000 0.0000 0.0000
# 2 22.3436 152.0813 64.9557 0.0000 0.0000 0.0000
# 3 21.7682 64.9557 135.2127 0.0000 0.0000 0.0000
# 4 0.0000 0.0000 0.0000 40.5339 0.0000 0.0000
# 5 0.0000 0.0000 0.0000 0.0000 23.5084 0.0000
# 6 0.0000 0.0000 0.0000 0.0000 0.0000 14.7825
#
#
#
# Elastic Compliance Matrix: (Units=1/GPa)
#
#
# Indices 1 2 3 4 5 6 
#
# 1 0.037851 -0.003722 -0.004306 0.000000 0.000000 0.000000
# 2 -0.003722 0.008639 -0.003551 0.000000 0.000000 0.000000
# 3 -0.004306 -0.003551 0.009795 0.000000 0.000000 0.000000
# 4 0.000000 0.000000 0.000000 0.024671 0.000000 0.000000
# 5 0.000000 0.000000 0.000000 0.000000 0.042538 0.000000
# 6 0.000000 0.000000 0.000000 0.000000 0.000000 0.067647
#
#
# Mechanical properties :
#
#
# Convention : Reuss Voigt Hill
#
# Bulk Modulus (GPa) = 30.18641 59.61353 44.89997
# Shear Modulus (GPa) = 22.18866 29.71958 25.95412
#
# Velocity S-wave (km/s) = 3.39689 3.93131 3.67383
# Velocity P-wave (km/s) = 5.57522 7.18386 6.43004
#
# Compressibility (1/GPa) = 0.03312749
#
# Stress axis : x y z
#
# Youngs Moduli (GPa) = 26.41942 115.75565 102.09537
#
# Poissons Ratio (x) = 0.43084 0.43959
# Poissons Ratio (y) = 0.09833 0.36253
# Poissons Ratio (z) = 0.11375 0.41103
#
# Static dielectric constant tensor:
#      x y z
#    x 3.034000 0.000000 0.000000 
#    y 0.000000 3.856870 0.000000 
#    z 0.000000 0.000000 3.631930 
# 
# 
# High freq. dielectric constant tensor:
#      x y z
#    x 1.699750 0.000000 0.000000 
#    y 0.000000 1.768800 0.000000 
#    z 0.000000 0.000000 1.760400 
# 
# From -- ./inp_files/37248.got.cif
#   From: 2010.03.12/outbox.cif.g09.slc.cpg/sg51_19_cif.got.tgz:37248.got - 2010.04.16 13:43:02.
