data_PCOD8207019
_publ_section_title
;
Structure prediction by ZEFSAII (Michael W. Deem and Ramdas Pophale) SiO2 
 PCOD8207019
Probable space group: P M M A
;
_chemical_formula_sum "Si O2"
_cell_formula_units_Z 64
_cell_length_a 15.701534
_cell_length_b 23.457018
_cell_length_c 7.836550
_cell_angle_alpha 90.000000
_cell_angle_beta 90.000000
_cell_angle_gamma 90.000000
_cell_volume 2886.288865
_symmetry_space_group_name_H-M "P M M A"
_symmetry_group_IT_number 51
_symmetry_cell_setting 'orthorhombic'
loop_
_space_group_symop_operation_xyz
x,y,z
1/2-x,-y,z
1/2+x,-y,-z
-x,y,-z
-x,-y,-z
1/2+x,y,-z
1/2-x,y,z
x,-y,z
loop_
_atom_site_type_symbol
_atom_site_label
_atom_site_fract_x
_atom_site_fract_y
_atom_site_fract_z
Si Si1 0.650051 0.359906 0.090619
Si Si2 0.845220 0.136675 0.273119
Si Si3 0.156044 0.858750 0.323316
Si Si4 0.847857 0.562817 0.789034
Si Si5 0.402307 0.366906 0.525474
Si Si6 0.496846 0.935869 0.296564
Si Si7 0.566798 0.754479 0.126379
Si Si8 0.067197 0.250705 0.379048
O O1 0.750000 0.360883 0.075289
O O2 0.625068 0.379895 0.280999
O O3 0.621915 0.295537 0.042958
O O4 0.609532 0.400782 0.944248
O O5 0.750000 0.122006 0.200875
O O6 0.840257 0.134668 0.475358
O O7 0.917209 0.091301 0.214948
O O8 0.871111 0.199691 0.212608
O O9 0.250000 0.870391 0.244151
O O10 0.130140 0.793125 0.284196
O O11 0.087483 0.901139 0.237424
O O12 0.750000 0.555135 0.835283
O O13 0.891207 0.500000 0.780566
O O14 0.852013 0.593301 0.605456
O O15 0.500000 0.381740 0.500000
O O16 0.381969 0.300308 0.478282
O O17 0.500000 0.935453 0.500000
O O18 0.489168 0.000000 0.226047
O O19 0.501856 0.720445 0.252810
O O20 0.500000 0.786202 0.000000
O O21 0.000000 0.214697 0.500000
#
# Coordination Sequence:
#
# PCOD8207019 Si02
#       8
#     8   8   8   8   8   8   8   8
#     4  11  23  40  65  94 125 170 219 262 323 397
#     4  10  19  33  55  83 116 156 205 252 305 374
#     4  10  18  30  54  85 118 159 203 250 305 368
#     4  10  24  45  64  89 129 169 211 266 320 381
#     4  11  22  38  66  95 124 164 212 267 328 389
#     4   9  17  31  52  82 121 158 198 255 312 358
#     4  12  22  36  60  85 124 160 196 259 324 380
#     4  11  18  36  56  83 123 154 193 251 318 376
#
# _framework density 22.173802999999999
#
# number of rings (size 3 to 8) (size 9 to 14) (size 15 to 20)
#    0.000    1.500    5.000    1.875    0.000    3.250 
#    0.000    5.625    0.000    0.375    0.000    0.000 
#    0.000    0.000    0.000    0.000    0.000    0.000 
#
# Total GULP energy -792951.605124 kJ/mol
# GULP energy per Si atom -12389.868830 kJ/mol
# Density = 2.212333 g / cm^3
# Si number density = 22.173803 Si / 1000 Ang^3
#
#
#
# Elastic Constant Matrix: (Units=GPa)
#
#
# Indices 1 2 3 4 5 6 
#
# 1 137.3021 59.0146 19.7873 0.0000 0.0000 0.0000
# 2 59.0146 153.5055 30.7891 0.0000 0.0000 0.0000
# 3 19.7873 30.7891 63.9277 0.0000 0.0000 0.0000
# 4 0.0000 0.0000 0.0000 7.4122 0.0000 0.0000
# 5 0.0000 0.0000 0.0000 0.0000 20.5212 0.0000
# 6 0.0000 0.0000 0.0000 0.0000 0.0000 25.1081
#
#
#
# Elastic Compliance Matrix: (Units=1/GPa)
#
#
# Indices 1 2 3 4 5 6 
#
# 1 0.008809 -0.003143 -0.001213 0.000000 0.000000 0.000000
# 2 -0.003143 0.008333 -0.003040 0.000000 0.000000 0.000000
# 3 -0.001213 -0.003040 0.017482 0.000000 0.000000 0.000000
# 4 0.000000 0.000000 0.000000 0.134913 0.000000 0.000000
# 5 0.000000 0.000000 0.000000 0.000000 0.048730 0.000000
# 6 0.000000 0.000000 0.000000 0.000000 0.000000 0.039828
#
#
# Mechanical properties :
#
#
# Convention : Reuss Voigt Hill
#
# Bulk Modulus (GPa) = 50.42523 63.76859 57.09691
# Shear Modulus (GPa) = 17.88920 26.95125 22.42023
#
# Velocity S-wave (km/s) = 2.84345 3.49012 3.18325
# Velocity P-wave (km/s) = 5.79401 6.71284 6.27028
#
# Compressibility (1/GPa) = 0.01983134
#
# Stress axis : x y z
#
# Youngs Moduli (GPa) = 113.51963 120.00946 57.20074
#
# Poissons Ratio (x) = 0.37723 0.06937
# Poissons Ratio (y) = 0.35683 0.17391
# Poissons Ratio (z) = 0.13767 0.36486
#
# Static dielectric constant tensor:
#      x y z
#    x 4.194300 0.000000 0.000000 
#    y 0.000000 3.963790 0.000000 
#    z 0.000000 0.000000 4.364840 
# 
# 
# High freq. dielectric constant tensor:
#      x y z
#    x 1.872580 0.000000 0.000000 
#    y 0.000000 1.854450 0.000000 
#    z 0.000000 0.000000 1.860340 
# 
# From -- ./inp_files/8719.got.cif
#   From: 2010.03.12/outbox.cif.g09.slc.cpg/sg51_5_cif.got.tgz:8719.got - 2010.04.16 13:43:02.
