data_PCOD8207435
_publ_section_title
;
Structure prediction by ZEFSAII (Michael W. Deem and Ramdas Pophale) SiO2 
 PCOD8207435
Probable space group: P M M A
;
_chemical_formula_sum "Si O2"
_cell_formula_units_Z 36
_cell_length_a 14.447967
_cell_length_b 13.348311
_cell_length_c 9.490098
_cell_angle_alpha 90.000000
_cell_angle_beta 90.000000
_cell_angle_gamma 90.000000
_cell_volume 1830.221930
_symmetry_space_group_name_H-M "P M M A"
_symmetry_group_IT_number 51
_symmetry_cell_setting 'orthorhombic'
loop_
_space_group_symop_operation_xyz
x,y,z
1/2-x,-y,z
1/2+x,-y,-z
-x,y,-z
-x,-y,-z
1/2+x,y,-z
1/2-x,y,z
x,-y,z
loop_
_atom_site_type_symbol
_atom_site_label
_atom_site_fract_x
_atom_site_fract_y
_atom_site_fract_z
Si Si1 0.500000 0.755529 0.000000
Si Si2 0.898217 0.390541 0.560334
Si Si3 0.353190 0.821318 0.496947
Si Si4 0.643632 0.386441 0.880067
Si Si5 0.498227 0.116113 0.722822
O O1 0.590602 0.685874 0.987531
O O2 0.484838 0.824723 0.865948
O O3 0.853357 0.500000 0.525115
O O4 0.842027 0.299511 0.490363
O O5 0.903690 0.376979 0.727906
O O6 0.000000 0.384107 0.500000
O O7 0.250000 0.867845 0.491598
O O8 0.408774 0.847033 0.354754
O O9 0.407310 0.867109 0.628587
O O10 0.750000 0.351881 0.869171
O O11 0.636443 0.500000 0.936839
O O12 0.508568 0.000000 0.758210
#
# Coordination Sequence:
#
# PCOD8207435 Si02
#       5
#     4   8   8   8   8
#     4  12  22  40  64  88 120 162 204 248 300 364
#     4  10  18  33  59  92 124 154 190 236 295 362
#     4  11  21  40  65  88 117 158 200 246 305 365
#     4  10  21  37  59  89 125 161 196 239 295 363
#     4  11  25  42  60  87 118 155 206 260 306 352
#
# _framework density 19.669744000000001
#
# number of rings (size 3 to 8) (size 9 to 14) (size 15 to 20)
#    0.000    1.333    4.444    2.667    0.000    4.000 
#    0.000    1.111    0.000    4.000    0.000    0.000 
#    0.000    0.000    0.000    0.000    0.000    0.000 
#
# Total GULP energy -446363.138440 kJ/mol
# GULP energy per Si atom -12398.976068 kJ/mol
# Density = 1.962497 g / cm^3
# Si number density = 19.669744 Si / 1000 Ang^3
#
#
#
# Elastic Constant Matrix: (Units=GPa)
#
#
# Indices 1 2 3 4 5 6 
#
# 1 157.0050 50.8221 66.9238 0.0000 0.0000 0.0000
# 2 50.8221 132.6844 41.7738 0.0000 0.0000 0.0000
# 3 66.9238 41.7738 108.1528 0.0000 0.0000 0.0000
# 4 0.0000 0.0000 0.0000 42.2209 0.0000 0.0000
# 5 0.0000 0.0000 0.0000 0.0000 11.2500 0.0000
# 6 0.0000 0.0000 0.0000 0.0000 0.0000 -88.6349
#
#
#
# Elastic Compliance Matrix: (Units=1/GPa)
#
#
# Indices 1 2 3 4 5 6 
#
# 1 0.009071 -0.001944 -0.004862 0.000000 0.000000 0.000000
# 2 -0.001944 0.008997 -0.002272 0.000000 0.000000 0.000000
# 3 -0.004862 -0.002272 0.013133 0.000000 0.000000 0.000000
# 4 0.000000 0.000000 0.000000 0.023685 0.000000 0.000000
# 5 0.000000 0.000000 0.000000 0.000000 0.088889 0.000000
# 6 0.000000 0.000000 0.000000 0.000000 0.000000 -0.011282
#
#
# Mechanical properties :
#
#
# Convention : Reuss Voigt Hill
#
# Bulk Modulus (GPa) = 76.66478 79.65350 78.15914
# Shear Modulus (GPa) = 32.25888 8.85535 20.55712
#
# Velocity S-wave (km/s) = 4.05412 2.12410 3.23633
# Velocity P-wave (km/s) = 7.80865 6.82635 7.33397
#
# Compressibility (1/GPa) = 0.01304380
#
# Stress axis : x y z
#
# Youngs Moduli (GPa) = 110.24232 111.15421 76.14678
#
# Poissons Ratio (x) = 0.21604 0.37025
# Poissons Ratio (y) = 0.21427 0.17302
# Poissons Ratio (z) = 0.53603 0.25256
#
# Static dielectric constant tensor:
#      x y z
#    x 2.505170 0.000000 0.000000 
#    y 0.000000 4.038970 0.000000 
#    z 0.000000 0.000000 3.521410 
# 
# 
# High freq. dielectric constant tensor:
#      x y z
#    x 1.763240 0.000000 0.000000 
#    y 0.000000 1.787650 0.000000 
#    z 0.000000 0.000000 1.746270 
# 
# From -- ./inp_files/7804.got.cif
#   From: 2010.03.12/outbox.cif.g09.slc.cpg/sg51_4_cif.got.tgz:7804.got - 2010.04.16 13:43:02.
