data_PCOD8207282
_publ_section_title
;
Structure prediction by ZEFSAII (Michael W. Deem and Ramdas Pophale) SiO2 
 PCOD8207282
Probable space group: P M M A
;
_chemical_formula_sum "Si O2"
_cell_formula_units_Z 64
_cell_length_a 14.443021
_cell_length_b 21.902185
_cell_length_c 9.453196
_cell_angle_alpha 90.000000
_cell_angle_beta 90.000000
_cell_angle_gamma 90.000000
_cell_volume 2990.364637
_symmetry_space_group_name_H-M "P M M A"
_symmetry_group_IT_number 51
_symmetry_cell_setting 'orthorhombic'
loop_
_space_group_symop_operation_xyz
x,y,z
1/2-x,-y,z
1/2+x,-y,-z
-x,y,-z
-x,-y,-z
1/2+x,y,-z
1/2-x,y,z
x,-y,z
loop_
_atom_site_type_symbol
_atom_site_label
_atom_site_fract_x
_atom_site_fract_y
_atom_site_fract_z
Si Si1 0.644173 0.240102 0.317795
Si Si2 0.139694 0.569677 0.680671
Si Si3 0.354047 0.660945 0.452376
Si Si4 0.855717 0.068214 0.118172
Si Si5 0.140806 0.846464 0.141060
Si Si6 0.981779 0.121741 0.340275
Si Si7 0.149766 0.710288 0.172947
Si Si8 0.407282 0.339507 0.909434
O O1 0.750000 0.220039 0.279799
O O2 0.643884 0.275381 0.465527
O O3 0.575911 0.184107 0.334783
O O4 0.604890 0.283911 0.197124
O O5 0.250000 0.577658 0.686889
O O6 0.107935 0.500000 0.666607
O O7 0.098170 0.607344 0.546399
O O8 0.100436 0.596254 0.828351
O O9 0.250000 0.637569 0.424544
O O10 0.405654 0.674699 0.300946
O O11 0.750000 0.080426 0.164149
O O12 0.920667 0.072474 0.255951
O O13 0.866357 0.000000 0.054256
O O14 0.887287 0.118174 0.002393
O O15 0.250000 0.855102 0.171367
O O16 0.108837 0.775714 0.125394
O O17 0.083303 0.873516 0.271261
O O18 0.000000 0.099926 0.500000
O O19 0.250000 0.724081 0.241437
O O20 0.166182 0.666934 0.036788
O O21 0.500000 0.331900 0.000000
#
# Coordination Sequence:
#
# PCOD8207282 Si02
#       8
#     8   8   8   8   8   8   8   8
#     4  10  20  37  57  80 115 157 197 235 292 370
#     4   9  18  35  55  73 100 144 193 233 281 353
#     4   8  16  31  54  79 104 140 182 230 287 347
#     4  10  23  45  68  87 114 159 209 249 291 354
#     4  10  22  39  60  87 121 161 202 248 302 366
#     4  12  24  36  59  93 126 156 194 247 308 365
#     4  10  18  32  54  81 110 136 177 236 292 340
#     4  11  21  32  51  79 112 147 188 240 295 350
#
# _framework density 21.402073999999999
#
# number of rings (size 3 to 8) (size 9 to 14) (size 15 to 20)
#    0.000    2.000    0.000    4.875    0.000    4.500 
#    0.000    2.500    0.000    4.500    0.000    0.000 
#    0.000    0.000    0.000    0.000    0.000    0.000 
#
# Total GULP energy -793036.863432 kJ/mol
# GULP energy per Si atom -12391.200991 kJ/mol
# Density = 2.135336 g / cm^3
# Si number density = 21.402074 Si / 1000 Ang^3
#
#
#
# Elastic Constant Matrix: (Units=GPa)
#
#
# Indices 1 2 3 4 5 6 
#
# 1 68.7311 25.4000 27.2399 0.0000 0.0000 0.0000
# 2 25.4000 111.5929 76.1017 0.0000 0.0000 0.0000
# 3 27.2399 76.1017 165.6581 0.0000 0.0000 0.0000
# 4 0.0000 0.0000 0.0000 18.1880 0.0000 0.0000
# 5 0.0000 0.0000 0.0000 0.0000 25.1282 0.0000
# 6 0.0000 0.0000 0.0000 0.0000 0.0000 20.5115
#
#
#
# Elastic Compliance Matrix: (Units=1/GPa)
#
#
# Indices 1 2 3 4 5 6 
#
# 1 0.016107 -0.002708 -0.001404 0.000000 0.000000 0.000000
# 2 -0.002708 0.013505 -0.005759 0.000000 0.000000 0.000000
# 3 -0.001404 -0.005759 0.008913 0.000000 0.000000 0.000000
# 4 0.000000 0.000000 0.000000 0.054981 0.000000 0.000000
# 5 0.000000 0.000000 0.000000 0.000000 0.039796 0.000000
# 6 0.000000 0.000000 0.000000 0.000000 0.000000 0.048753
#
#
# Mechanical properties :
#
#
# Convention : Reuss Voigt Hill
#
# Bulk Modulus (GPa) = 53.24287 67.05171 60.14729
# Shear Modulus (GPa) = 24.03174 27.24824 25.63999
#
# Velocity S-wave (km/s) = 3.35456 3.57201 3.46499
# Velocity P-wave (km/s) = 6.31946 6.95772 6.64625
#
# Compressibility (1/GPa) = 0.01878186
#
# Stress axis : x y z
#
# Youngs Moduli (GPa) = 62.08507 74.04805 112.19718
#
# Poissons Ratio (x) = 0.20056 0.15756
# Poissons Ratio (y) = 0.16816 0.64610
# Poissons Ratio (z) = 0.08718 0.42641
#
# Static dielectric constant tensor:
#      x y z
#    x 3.754980 0.000000 0.000000 
#    y 0.000000 3.730760 0.000000 
#    z 0.000000 0.000000 4.302160 
# 
# 
# High freq. dielectric constant tensor:
#      x y z
#    x 1.841010 0.000000 0.000000 
#    y 0.000000 1.815430 0.000000 
#    z 0.000000 0.000000 1.848300 
# 
# From -- ./inp_files/8754.got.cif
#   From: 2010.03.12/outbox.cif.g09.slc.cpg/sg51_5_cif.got.tgz:8754.got - 2010.04.16 13:43:02.
