data_PCOD8207268
_publ_section_title
;
Structure prediction by ZEFSAII (Michael W. Deem and Ramdas Pophale) SiO2 
 PCOD8207268
Probable space group: P M M A
;
_chemical_formula_sum "Si O2"
_cell_formula_units_Z 56
_cell_length_a 14.204589
_cell_length_b 9.222366
_cell_length_c 23.126711
_cell_angle_alpha 90.000000
_cell_angle_beta 90.000000
_cell_angle_gamma 90.000000
_cell_volume 3029.597259
_symmetry_space_group_name_H-M "P M M A"
_symmetry_group_IT_number 51
_symmetry_cell_setting 'orthorhombic'
loop_
_space_group_symop_operation_xyz
x,y,z
1/2-x,-y,z
1/2+x,-y,-z
-x,y,-z
-x,-y,-z
1/2+x,y,-z
1/2-x,y,z
x,-y,z
loop_
_atom_site_type_symbol
_atom_site_label
_atom_site_fract_x
_atom_site_fract_y
_atom_site_fract_z
Si Si1 0.147683 0.828420 0.643677
Si Si2 0.042945 0.328180 0.087808
Si Si3 0.891877 0.162848 0.484672
Si Si4 0.543193 0.170986 0.690453
Si Si5 0.353513 0.338730 0.407544
Si Si6 0.858984 0.828138 0.807248
Si Si7 0.855247 0.328518 0.028473
O O1 0.250000 0.768058 0.663878
O O2 0.124005 0.771225 0.579318
O O3 0.067533 0.783268 0.690323
O O4 0.149753 0.000000 0.640094
O O5 0.049322 0.500000 0.097687
O O6 0.080153 0.245645 0.143278
O O7 0.933988 0.280306 0.075575
O O8 0.109064 0.279048 0.034591
O O9 0.841623 0.269379 0.529260
O O10 0.000000 0.160106 0.500000
O O11 0.849639 0.000000 0.489402
O O12 0.584702 0.238315 0.632895
O O13 0.595606 0.228510 0.747458
O O14 0.557007 0.000000 0.685139
O O15 0.250000 0.348636 0.379900
O O16 0.398036 0.500000 0.411994
O O17 0.750000 0.779293 0.810135
O O18 0.868320 0.000000 0.813373
O O19 0.750000 0.263317 0.041040
O O20 0.849213 0.500000 0.029160
#
# Coordination Sequence:
#
# PCOD8207268 Si02
#       7
#     8   8   8   8   8   8   8
#     4   9  17  31  53  77  96 120 162 210 248 289
#     4   9  17  30  52  79 104 135 175 213 248 292
#     4  10  18  32  54  77  98 126 164 202 244 301
#     4  10  20  37  56  72  95 130 172 210 246 295
#     4  11  23  35  49  74 105 132 159 200 256 306
#     4  10  21  35  51  73 102 135 168 208 260 307
#     4   8  14  27  49  78 109 139 172 209 248 292
#
# _framework density 18.484304999999999
#
# number of rings (size 3 to 8) (size 9 to 14) (size 15 to 20)
#    0.000    2.429    1.429    2.571    0.000    4.000 
#    0.000    2.143    0.000    2.571    0.000    0.000 
#    0.000    0.000    0.000    0.000    0.000    0.000 
#
# Total GULP energy -693981.130929 kJ/mol
# GULP energy per Si atom -12392.520195 kJ/mol
# Density = 1.844223 g / cm^3
# Si number density = 18.484305 Si / 1000 Ang^3
#
#
#
# Elastic Constant Matrix: (Units=GPa)
#
#
# Indices 1 2 3 4 5 6 
#
# 1 157.6265 21.6423 60.5604 0.0000 0.0000 0.0000
# 2 21.6423 29.5920 27.7443 0.0000 0.0000 0.0000
# 3 60.5604 27.7443 99.9487 0.0000 0.0000 0.0000
# 4 0.0000 0.0000 0.0000 -11.0533 0.0000 0.0000
# 5 0.0000 0.0000 0.0000 0.0000 29.2372 0.0000
# 6 0.0000 0.0000 0.0000 0.0000 0.0000 18.0377
#
#
#
# Elastic Compliance Matrix: (Units=1/GPa)
#
#
# Indices 1 2 3 4 5 6 
#
# 1 0.008343 -0.001841 -0.004544 0.000000 0.000000 0.000000
# 2 -0.001841 0.046088 -0.011678 0.000000 0.000000 0.000000
# 3 -0.004544 -0.011678 0.016000 0.000000 0.000000 0.000000
# 4 0.000000 0.000000 0.000000 -0.090471 0.000000 0.000000
# 5 0.000000 0.000000 0.000000 0.000000 0.034203 0.000000
# 6 0.000000 0.000000 0.000000 0.000000 0.000000 0.055439
#
#
# Mechanical properties :
#
#
# Convention : Reuss Voigt Hill
#
# Bulk Modulus (GPa) = 29.15035 56.34014 42.74525
# Shear Modulus (GPa) = 42.67579 19.05903 30.86741
#
# Velocity S-wave (km/s) = 4.81017 3.21455 4.09091
# Velocity P-wave (km/s) = 6.83043 6.65762 6.74458
#
# Compressibility (1/GPa) = 0.03430490
#
# Stress axis : x y z
#
# Youngs Moduli (GPa) = 119.86569 21.69759 62.50066
#
# Poissons Ratio (x) = 0.03995 0.28399
# Poissons Ratio (y) = 0.22072 0.72986
# Poissons Ratio (z) = 0.54465 0.25338
#
# Static dielectric constant tensor:
#      x y z
#    x 4.007830 0.000000 0.000000 
#    y 0.000000 3.083580 0.000000 
#    z 0.000000 0.000000 3.301000 
# 
# 
# High freq. dielectric constant tensor:
#      x y z
#    x 1.737470 0.000000 0.000000 
#    y 0.000000 1.678840 0.000000 
#    z 0.000000 0.000000 1.697620 
# 
# From -- ./inp_files/33447.got.cif
#   From: 2010.03.12/outbox.cif.g09.slc.cpg/sg51_17_cif.got.tgz:33447.got - 2010.04.16 13:43:02.
