data_PCOD8207323
_publ_section_title
;
Structure prediction by ZEFSAII (Michael W. Deem and Ramdas Pophale) SiO2 
 PCOD8207323
Probable space group: P M M A
;
_chemical_formula_sum "Si O2"
_cell_formula_units_Z 64
_cell_length_a 19.645068
_cell_length_b 8.872536
_cell_length_c 19.197066
_cell_angle_alpha 90.000000
_cell_angle_beta 90.000000
_cell_angle_gamma 90.000000
_cell_volume 3346.078802
_symmetry_space_group_name_H-M "P M M A"
_symmetry_group_IT_number 51
_symmetry_cell_setting 'orthorhombic'
loop_
_space_group_symop_operation_xyz
x,y,z
1/2-x,-y,z
1/2+x,-y,-z
-x,y,-z
-x,-y,-z
1/2+x,y,-z
1/2-x,y,z
x,-y,z
loop_
_atom_site_type_symbol
_atom_site_label
_atom_site_fract_x
_atom_site_fract_y
_atom_site_fract_z
Si Si1 0.416174 0.321416 0.062818
Si Si2 0.427420 0.172940 0.772963
Si Si3 0.450231 0.174009 0.439219
Si Si4 0.826509 0.321290 0.807444
Si Si5 0.670021 0.328447 0.329993
Si Si6 0.437618 0.825741 0.927678
Si Si7 0.945156 0.322080 0.709121
Si Si8 0.326478 0.827626 0.530659
O O1 0.427942 0.500000 0.064668
O O2 0.359375 0.270959 0.118877
O O3 0.486115 0.236954 0.079104
O O4 0.393992 0.267572 0.985136
O O5 0.364521 0.223893 0.726664
O O6 0.402965 0.194830 0.852475
O O7 0.494101 0.271727 0.759125
O O8 0.445489 0.000000 0.756759
O O9 0.500000 0.236048 0.500000
O O10 0.459597 0.261268 0.367717
O O11 0.372752 0.199430 0.463318
O O12 0.467505 0.000000 0.425003
O O13 0.750000 0.252878 0.800508
O O14 0.822471 0.500000 0.805308
O O15 0.873966 0.263957 0.743217
O O16 0.750000 0.307588 0.321409
O O17 0.646546 0.500000 0.319633
O O18 0.647035 0.276304 0.406667
O O19 0.440184 0.000000 0.949956
O O20 0.944795 0.500000 0.705317
O O21 0.250000 0.784235 0.508459
O O22 0.331396 0.000000 0.556326
#
# Coordination Sequence:
#
# PCOD8207323 Si02
#       8
#     8   8   8   8   8   8   8   8
#     4  10  18  32  56  81 107 142 184 225 268 326
#     4  11  22  36  56  80 111 150 184 225 276 334
#     4  10  21  36  53  76 108 143 180 226 278 333
#     4   9  19  36  56  81 115 152 188 230 282 334
#     4  10  21  36  56  83 112 140 177 228 278 330
#     4  10  20  33  53  80 111 141 177 227 275 321
#     4  11  22  36  57  83 111 143 187 238 282 333
#     4   9  18  34  55  76 103 143 184 220 268 334
#
# _framework density 19.126866
#
# number of rings (size 3 to 8) (size 9 to 14) (size 15 to 20)
#    0.000    2.000    1.250    3.375    0.000    4.500 
#    0.000    0.625    0.000    7.875    0.000    0.000 
#    0.000    0.000    0.000    0.000    0.000    0.000 
#
# Total GULP energy -793524.684163 kJ/mol
# GULP energy per Si atom -12398.823190 kJ/mol
# Density = 1.908333 g / cm^3
# Si number density = 19.126866 Si / 1000 Ang^3
#
#
#
# Elastic Constant Matrix: (Units=GPa)
#
#
# Indices 1 2 3 4 5 6 
#
# 1 62.6913 21.2436 39.2422 0.0000 0.0000 0.0000
# 2 21.2436 50.8750 34.2860 0.0000 0.0000 0.0000
# 3 39.2422 34.2860 119.3892 0.0000 0.0000 0.0000
# 4 0.0000 0.0000 0.0000 25.7375 0.0000 0.0000
# 5 0.0000 0.0000 0.0000 0.0000 31.7747 0.0000
# 6 0.0000 0.0000 0.0000 0.0000 0.0000 18.1838
#
#
#
# Elastic Compliance Matrix: (Units=1/GPa)
#
#
# Indices 1 2 3 4 5 6 
#
# 1 0.021111 -0.005132 -0.005465 0.000000 0.000000 0.000000
# 2 -0.005132 0.025621 -0.005671 0.000000 0.000000 0.000000
# 3 -0.005465 -0.005671 0.011801 0.000000 0.000000 0.000000
# 4 0.000000 0.000000 0.000000 0.038854 0.000000 0.000000
# 5 0.000000 0.000000 0.000000 0.000000 0.031472 0.000000
# 6 0.000000 0.000000 0.000000 0.000000 0.000000 0.054994
#
#
# Mechanical properties :
#
#
# Convention : Reuss Voigt Hill
#
# Bulk Modulus (GPa) = 38.46679 46.94434 42.70556
# Shear Modulus (GPa) = 22.21685 24.35144 23.28415
#
# Velocity S-wave (km/s) = 3.41185 3.57200 3.49284
# Velocity P-wave (km/s) = 5.97294 6.45052 6.21632
#
# Compressibility (1/GPa) = 0.02599645
#
# Stress axis : x y z
#
# Youngs Moduli (GPa) = 47.36799 39.03086 84.73931
#
# Poissons Ratio (x) = 0.20031 0.46312
# Poissons Ratio (y) = 0.24310 0.48054
# Poissons Ratio (z) = 0.25888 0.22134
#
# Static dielectric constant tensor:
#      x y z
#    x 3.618530 0.000000 0.000000 
#    y 0.000000 3.461270 0.000000 
#    z 0.000000 0.000000 3.727760 
# 
# 
# High freq. dielectric constant tensor:
#      x y z
#    x 1.730760 0.000000 0.000000 
#    y 0.000000 1.737970 0.000000 
#    z 0.000000 0.000000 1.753080 
# 
# From -- ./inp_files/30511.got.cif
#   From: 2010.03.12/outbox.cif.g09.slc.cpg/sg51_16_cif.got.tgz:30511.got - 2010.04.16 13:43:02.
