data_PCOD8207430
_publ_section_title
;
Structure prediction by ZEFSAII (Michael W. Deem and Ramdas Pophale) SiO2 
 PCOD8207430
Probable space group: P M M A
;
_chemical_formula_sum "Si O2"
_cell_formula_units_Z 64
_cell_length_a 15.121641
_cell_length_b 9.320444
_cell_length_c 24.049827
_cell_angle_alpha 90.000000
_cell_angle_beta 90.000000
_cell_angle_gamma 90.000000
_cell_volume 3389.592433
_symmetry_space_group_name_H-M "P M M A"
_symmetry_group_IT_number 51
_symmetry_cell_setting 'orthorhombic'
loop_
_space_group_symop_operation_xyz
x,y,z
1/2-x,-y,z
1/2+x,-y,-z
-x,y,-z
-x,-y,-z
1/2+x,y,-z
1/2-x,y,z
x,-y,z
loop_
_atom_site_type_symbol
_atom_site_label
_atom_site_fract_x
_atom_site_fract_y
_atom_site_fract_z
Si Si1 0.983632 0.168774 0.184543
Si Si2 0.354734 0.658179 0.496268
Si Si3 0.498511 0.167431 0.687506
Si Si4 0.846572 0.170153 0.879784
Si Si5 0.148809 0.330311 0.372995
Si Si6 0.850722 0.831662 0.398598
Si Si7 0.395429 0.162854 0.998978
Si Si8 0.149139 0.336614 0.891564
O O1 0.976695 0.205106 0.249223
O O2 0.905616 0.250543 0.153994
O O3 0.077656 0.227465 0.161523
O O4 0.972614 0.000000 0.172642
O O5 0.250000 0.648749 0.496814
O O6 0.394761 0.500000 0.507275
O O7 0.382899 0.714577 0.435238
O O8 0.388780 0.762488 0.544716
O O9 0.586619 0.251214 0.670715
O O10 0.413412 0.217120 0.651887
O O11 0.517876 0.000000 0.679356
O O12 0.750000 0.223026 0.858703
O O13 0.861338 0.225663 0.942461
O O14 0.851239 0.000000 0.880708
O O15 0.250000 0.281935 0.362226
O O16 0.139928 0.500000 0.365520
O O17 0.750000 0.780906 0.385759
O O18 0.853631 0.000000 0.407720
O O19 0.361799 0.000000 0.988772
O O20 0.500000 0.166251 0.000000
O O21 0.357847 0.264580 0.951654
O O22 0.250000 0.332410 0.871553
O O23 0.114605 0.500000 0.895506
#
# Coordination Sequence:
#
# PCOD8207430 Si02
#       8
#     8   8   8   8   8   8   8   8
#     4  10  21  39  58  78 106 143 188 231 269 315
#     4   8  15  30  52  77 103 135 177 219 262 319
#     4  10  22  36  54  80 107 139 182 229 274 321
#     4   9  17  31  54  82 108 135 173 222 268 312
#     4   9  19  36  56  78 108 144 179 217 264 322
#     4   9  18  33  51  74 106 139 172 218 277 333
#     4  10  18  33  59  86 111 142 180 219 266 327
#     4  11  24  39  56  82 115 148 182 224 275 326
#
# _framework density 18.881326999999999
#
# number of rings (size 3 to 8) (size 9 to 14) (size 15 to 20)
#    0.000    2.500    1.250    1.500    0.000    5.000 
#    0.000    6.250    0.000    1.875    0.000    0.000 
#    0.000    0.000    0.000    0.000    0.000    0.000 
#
# Total GULP energy -793508.717667 kJ/mol
# GULP energy per Si atom -12398.573714 kJ/mol
# Density = 1.883835 g / cm^3
# Si number density = 18.881327 Si / 1000 Ang^3
#
#
#
# Elastic Constant Matrix: (Units=GPa)
#
#
# Indices 1 2 3 4 5 6 
#
# 1 90.2515 32.8912 36.7745 0.0000 0.0000 0.0000
# 2 32.8912 53.2728 42.0761 0.0000 0.0000 0.0000
# 3 36.7745 42.0761 96.0549 0.0000 0.0000 0.0000
# 4 0.0000 0.0000 0.0000 -28.7174 0.0000 0.0000
# 5 0.0000 0.0000 0.0000 0.0000 14.7244 0.0000
# 6 0.0000 0.0000 0.0000 0.0000 0.0000 22.7217
#
#
#
# Elastic Compliance Matrix: (Units=1/GPa)
#
#
# Indices 1 2 3 4 5 6 
#
# 1 0.014687 -0.007074 -0.002524 0.000000 0.000000 0.000000
# 2 -0.007074 0.032109 -0.011357 0.000000 0.000000 0.000000
# 3 -0.002524 -0.011357 0.016352 0.000000 0.000000 0.000000
# 4 0.000000 0.000000 0.000000 -0.034822 0.000000 0.000000
# 5 0.000000 0.000000 0.000000 0.000000 0.067915 0.000000
# 6 0.000000 0.000000 0.000000 0.000000 0.000000 0.044011
#
#
# Mechanical properties :
#
#
# Convention : Reuss Voigt Hill
#
# Bulk Modulus (GPa) = 47.08658 51.45142 49.26900
# Shear Modulus (GPa) = 26.42159 10.26824 18.34492
#
# Velocity S-wave (km/s) = 3.74485 2.33455 3.12042
# Velocity P-wave (km/s) = 6.60990 5.88012 6.25566
#
# Compressibility (1/GPa) = 0.02123747
#
# Stress axis : x y z
#
# Youngs Moduli (GPa) = 68.08881 31.14421 61.15584
#
# Poissons Ratio (x) = 0.22032 0.15436
# Poissons Ratio (y) = 0.48168 0.69452
# Poissons Ratio (z) = 0.17185 0.35369
#
# Static dielectric constant tensor:
#      x y z
#    x 3.543220 0.000000 0.000000 
#    y 0.000000 3.316390 0.000000 
#    z 0.000000 0.000000 3.565240 
# 
# 
# High freq. dielectric constant tensor:
#      x y z
#    x 1.740160 0.000000 0.000000 
#    y 0.000000 1.709410 0.000000 
#    z 0.000000 0.000000 1.732780 
# 
# From -- ./inp_files/35800.got.cif
#   From: 2010.03.12/outbox.cif.g09.slc.cpg/sg51_18_cif.got.tgz:35800.got - 2010.04.16 13:43:02.
