data_PCOD8207939
_publ_section_title
;
Structure prediction by ZEFSAII (Michael W. Deem and Ramdas Pophale) SiO2 
 PCOD8207939
Probable space group: P M M A
;
_chemical_formula_sum "Si O2"
_cell_formula_units_Z 64
_cell_length_a 18.873802
_cell_length_b 9.196390
_cell_length_c 20.724509
_cell_angle_alpha 90.000000
_cell_angle_beta 90.000000
_cell_angle_gamma 90.000000
_cell_volume 3597.170518
_symmetry_space_group_name_H-M "P M M A"
_symmetry_group_IT_number 51
_symmetry_cell_setting 'orthorhombic'
loop_
_space_group_symop_operation_xyz
x,y,z
1/2-x,-y,z
1/2+x,-y,-z
-x,y,-z
-x,-y,-z
1/2+x,y,-z
1/2-x,y,z
x,-y,z
loop_
_atom_site_type_symbol
_atom_site_label
_atom_site_fract_x
_atom_site_fract_y
_atom_site_fract_z
Si Si1 0.168884 0.829392 0.873289
Si Si2 0.084632 0.335397 0.375525
Si Si3 0.834147 0.339282 0.003920
Si Si4 0.084012 0.335732 0.624519
Si Si5 0.418388 0.168997 0.750680
Si Si6 0.832779 0.669212 0.860317
Si Si7 0.416245 0.830720 0.248648
Si Si8 0.584549 0.835191 0.499899
O O1 0.250000 0.780641 0.862411
O O2 0.123313 0.772467 0.813070
O O3 0.161916 0.000000 0.880296
O O4 0.136894 0.764015 0.939454
O O5 0.114195 0.500000 0.376125
O O6 0.111789 0.254218 0.311548
O O7 0.114134 0.249373 0.437599
O O8 0.000330 0.335803 0.377440
O O9 0.750000 0.342676 0.004804
O O10 0.864456 0.500000 0.017135
O O11 0.857585 0.286660 0.932718
O O12 0.113525 0.500000 0.622172
O O13 0.110650 0.258184 0.689544
O O14 0.113801 0.246890 0.563362
O O15 0.500929 0.197508 0.762354
O O16 0.402745 0.000000 0.737465
O O17 0.750000 0.699760 0.850375
O O18 0.849785 0.500000 0.847071
O O19 0.875909 0.772067 0.813231
O O20 0.399771 0.000000 0.258490
O O21 0.500000 0.835847 0.500000
O O22 0.613554 0.000000 0.500431
#
# Coordination Sequence:
#
# PCOD8207939 Si02
#       8
#     8   8   8   8   8   8   8   8
#     4   9  17  30  49  70  90 116 152 190 226 267
#     4   9  16  26  40  59  86 118 151 187 224 265
#     4   8  15  29  48  68  89 113 144 185 229 268
#     4   9  16  25  39  60  85 116 153 188 223 266
#     4   9  18  31  44  63  94 125 150 183 229 273
#     4   9  18  33  51  69  90 117 149 186 227 269
#     4  10  19  30  45  66  93 123 152 184 225 272
#     4   9  15  23  37  58  85 116 149 186 227 268
#
# _framework density 17.791761000000001
#
# number of rings (size 3 to 8) (size 9 to 14) (size 15 to 20)
#    0.000    3.000    0.000    2.250    0.000    6.250 
#    0.000    1.875    0.000    3.750    0.000    0.875 
#    0.000    5.000    0.000    0.000    0.000    0.000 
#
# Total GULP energy -793451.019072 kJ/mol
# GULP energy per Si atom -12397.672173 kJ/mol
# Density = 1.775127 g / cm^3
# Si number density = 17.791761 Si / 1000 Ang^3
#
#
#
# Elastic Constant Matrix: (Units=GPa)
#
#
# Indices 1 2 3 4 5 6 
#
# 1 22.4102 27.0806 35.4106 0.0000 0.0000 0.0000
# 2 27.0806 122.2516 92.4597 0.0000 0.0000 0.0000
# 3 35.4106 92.4597 187.0820 0.0000 0.0000 0.0000
# 4 0.0000 0.0000 0.0000 42.0123 0.0000 0.0000
# 5 0.0000 0.0000 0.0000 0.0000 -4.5823 0.0000
# 6 0.0000 0.0000 0.0000 0.0000 0.0000 14.2587
#
#
#
# Elastic Compliance Matrix: (Units=1/GPa)
#
#
# Indices 1 2 3 4 5 6 
#
# 1 0.068923 -0.008625 -0.008783 0.000000 0.000000 0.000000
# 2 -0.008625 0.014142 -0.005357 0.000000 0.000000 0.000000
# 3 -0.008783 -0.005357 0.009655 0.000000 0.000000 0.000000
# 4 0.000000 0.000000 0.000000 0.023803 0.000000 0.000000
# 5 0.000000 0.000000 0.000000 0.000000 -0.218230 0.000000
# 6 0.000000 0.000000 0.000000 0.000000 0.000000 0.070132
#
#
# Mechanical properties :
#
#
# Convention : Reuss Voigt Hill
#
# Bulk Modulus (GPa) = 21.19058 71.29397 46.24228
# Shear Modulus (GPa) = 168.44246 22.12392 95.28319
#
# Velocity S-wave (km/s) = 9.74063 3.53014 7.32604
# Velocity P-wave (km/s) = 11.76617 7.53487 9.87970
#
# Compressibility (1/GPa) = 0.04719077
#
# Stress axis : x y z
#
# Youngs Moduli (GPa) = 14.50891 70.71338 103.57287
#
# Poissons Ratio (x) = 0.60989 0.90969
# Poissons Ratio (y) = 0.12514 0.55480
# Poissons Ratio (z) = 0.12743 0.37878
#
# Static dielectric constant tensor:
#      x y z
#    x 2.746710 0.000000 0.000000 
#    y 0.000000 3.425200 0.000000 
#    z 0.000000 0.000000 3.582480 
# 
# 
# High freq. dielectric constant tensor:
#      x y z
#    x 1.622070 0.000000 0.000000 
#    y 0.000000 1.695560 0.000000 
#    z 0.000000 0.000000 1.706620 
# 
# From -- ./inp_files/30675.got.cif
#   From: 2010.03.12/outbox.cif.g09.slc.cpg/sg51_16_cif.got.tgz:30675.got - 2010.04.16 13:43:02.
