data_PCOD8207206
_publ_section_title
;
Structure prediction by ZEFSAII (Michael W. Deem and Ramdas Pophale) SiO2 
 PCOD8207206
Probable space group: P M M A
;
_chemical_formula_sum "Si O2"
_cell_formula_units_Z 52
_cell_length_a 8.760794
_cell_length_b 21.844545
_cell_length_c 15.357365
_cell_angle_alpha 90.000000
_cell_angle_beta 90.000000
_cell_angle_gamma 90.000000
_cell_volume 2939.024308
_symmetry_space_group_name_H-M "P M M A"
_symmetry_group_IT_number 51
_symmetry_cell_setting 'orthorhombic'
loop_
_space_group_symop_operation_xyz
x,y,z
1/2-x,-y,z
1/2+x,-y,-z
-x,y,-z
-x,-y,-z
1/2+x,y,-z
1/2-x,y,z
x,-y,z
loop_
_atom_site_type_symbol
_atom_site_label
_atom_site_fract_x
_atom_site_fract_y
_atom_site_fract_z
Si Si1 0.078483 0.851886 0.413487
Si Si2 0.429106 0.930981 0.089406
Si Si3 0.930985 0.623480 0.904627
Si Si4 0.067729 0.500000 0.903856
Si Si5 0.421854 0.706247 0.412619
Si Si6 0.426144 0.291740 0.765626
Si Si7 0.924976 0.147491 0.237243
O O1 0.250000 0.877602 0.406611
O O2 0.079862 0.779019 0.417400
O O3 0.000000 0.878797 0.500000
O O4 0.981865 0.874927 0.331341
O O5 0.250000 0.929343 0.078861
O O6 0.475946 0.886281 0.165911
O O7 0.487332 0.000000 0.108814
O O8 0.500000 0.906046 0.000000
O O9 0.750000 0.616915 0.913034
O O10 0.002652 0.562013 0.860370
O O11 0.973613 0.679409 0.842285
O O12 0.000000 0.635926 0.000000
O O13 0.250000 0.500000 0.903031
O O14 0.000000 0.500000 0.000000
O O15 0.500000 0.679529 0.500000
O O16 0.250000 0.680474 0.406328
O O17 0.515769 0.684313 0.328109
O O18 0.250000 0.310516 0.776148
O O19 0.449645 0.219508 0.773648
O O20 0.750000 0.128643 0.226513
#
# Coordination Sequence:
#
# PCOD8207206 Si02
#       7
#     8   8   8   4   8   8   8
#     4   9  16  27  45  69  98 129 162 197 237 287
#     4  10  21  37  56  75  95 123 162 205 246 291
#     4  11  21  34  51  72  99 132 168 205 245 291
#     4  10  18  32  52  72  95 126 165 206 244 286
#     4   9  16  27  44  67  95 129 164 201 242 286
#     4  10  20  33  48  72 103 133 165 202 246 294
#     4  10  20  33  51  74 101 131 163 201 246 294
#
# _framework density 17.692945999999999
#
# number of rings (size 3 to 8) (size 9 to 14) (size 15 to 20)
#    0.000    2.154    0.000    5.308    0.000    7.077 
#    0.000    0.000    0.000    0.462    0.000    0.538 
#    0.000    0.000    0.000    0.000    0.000    0.000 
#
# Total GULP energy -644814.259782 kJ/mol
# GULP energy per Si atom -12400.274227 kJ/mol
# Density = 1.765268 g / cm^3
# Si number density = 17.692946 Si / 1000 Ang^3
#
#
#
# Elastic Constant Matrix: (Units=GPa)
#
#
# Indices 1 2 3 4 5 6 
#
# 1 124.8989 29.6872 45.7083 0.0000 0.0000 0.0000
# 2 29.6872 33.6678 37.6131 0.0000 0.0000 0.0000
# 3 45.7083 37.6131 125.1404 0.0000 0.0000 0.0000
# 4 0.0000 0.0000 0.0000 -170.6942 0.0000 0.0000
# 5 0.0000 0.0000 0.0000 0.0000 37.4967 0.0000
# 6 0.0000 0.0000 0.0000 0.0000 0.0000 22.2793
#
#
#
# Elastic Compliance Matrix: (Units=1/GPa)
#
#
# Indices 1 2 3 4 5 6 
#
# 1 0.010327 -0.007366 -0.001558 0.000000 0.000000 0.000000
# 2 -0.007366 0.049971 -0.012329 0.000000 0.000000 0.000000
# 3 -0.001558 -0.012329 0.012266 0.000000 0.000000 0.000000
# 4 0.000000 0.000000 0.000000 -0.005858 0.000000 0.000000
# 5 0.000000 0.000000 0.000000 0.000000 0.026669 0.000000
# 6 0.000000 0.000000 0.000000 0.000000 0.000000 0.044885
#
#
# Mechanical properties :
#
#
# Convention : Reuss Voigt Hill
#
# Bulk Modulus (GPa) = 33.26902 56.63603 44.95253
# Shear Modulus (GPa) = 26.20749 -10.80374 7.70188
#
# Velocity S-wave (km/s) = 3.85286 -2.47376 2.08867
# Velocity P-wave (km/s) = 6.21588 4.89088 5.59275
#
# Compressibility (1/GPa) = 0.03005799
#
# Stress axis : x y z
#
# Youngs Moduli (GPa) = 96.82905 20.01169 81.52622
#
# Poissons Ratio (x) = 0.14740 0.12705
# Poissons Ratio (y) = 0.71320 1.00516
# Poissons Ratio (z) = 0.15089 0.24673
#
# Static dielectric constant tensor:
#      x y z
#    x 3.674450 0.000000 0.000000 
#    y 0.000000 3.150530 0.000000 
#    z 0.000000 0.000000 3.491250 
# 
# 
# High freq. dielectric constant tensor:
#      x y z
#    x 1.707130 0.000000 0.000000 
#    y 0.000000 1.641010 0.000000 
#    z 0.000000 0.000000 1.685520 
# 
# From -- ./inp_files/21557.got.cif
#   From: 2010.03.12/outbox.cif.g09.slc.cpg/sg51_11_cif.got.tgz:21557.got - 2010.04.16 13:43:02.
