data_PCOD8207072
_publ_section_title
;
Structure prediction by ZEFSAII (Michael W. Deem and Ramdas Pophale) SiO2 
 PCOD8207072
Probable space group: P M M A
;
_chemical_formula_sum "Si O2"
_cell_formula_units_Z 64
_cell_length_a 19.420786
_cell_length_b 8.931550
_cell_length_c 19.772336
_cell_angle_alpha 90.000000
_cell_angle_beta 90.000000
_cell_angle_gamma 90.000000
_cell_volume 3429.664345
_symmetry_space_group_name_H-M "P M M A"
_symmetry_group_IT_number 51
_symmetry_cell_setting 'orthorhombic'
loop_
_space_group_symop_operation_xyz
x,y,z
1/2-x,-y,z
1/2+x,-y,-z
-x,y,-z
-x,-y,-z
1/2+x,y,-z
1/2-x,y,z
x,-y,z
loop_
_atom_site_type_symbol
_atom_site_label
_atom_site_fract_x
_atom_site_fract_y
_atom_site_fract_z
Si Si1 0.670612 0.175898 0.034746
Si Si2 0.672944 0.669841 0.274572
Si Si3 0.421858 0.669574 0.475886
Si Si4 0.918922 0.321405 0.150737
Si Si5 0.613797 0.825772 0.395369
Si Si6 0.829807 0.673674 0.892406
Si Si7 0.057330 0.178172 0.194389
Si Si8 0.962016 0.825652 0.651717
O O1 0.750000 0.207270 0.054492
O O2 0.620772 0.255875 0.087054
O O3 0.654893 0.000000 0.032566
O O4 0.653057 0.246358 0.962635
O O5 0.750000 0.681002 0.245100
O O6 0.653444 0.500000 0.293275
O O7 0.621436 0.732003 0.217735
O O8 0.669985 0.767127 0.342583
O O9 0.500000 0.686499 0.500000
O O10 0.397314 0.500000 0.470927
O O11 0.374436 0.751285 0.531386
O O12 0.412544 0.742412 0.401860
O O13 0.922004 0.500000 0.144712
O O14 0.995005 0.252973 0.153063
O O15 0.540475 0.781794 0.363452
O O16 0.622905 0.000000 0.405890
O O17 0.750000 0.691216 0.873544
O O18 0.851284 0.500000 0.897133
O O19 0.871629 0.757970 0.834115
O O20 0.055163 0.227143 0.272738
O O21 0.053014 0.000000 0.186252
O O22 0.949138 0.000000 0.641867
#
# Coordination Sequence:
#
# PCOD8207072 Si02
#       8
#     8   8   8   8   8   8   8   8
#     4  10  21  38  60  84 112 148 189 232 277 328
#     4  10  21  35  51  74 108 150 191 230 275 328
#     4   9  17  28  47  74 102 135 176 220 268 319
#     4  11  22  36  56  82 115 150 188 232 279 329
#     4  10  18  31  50  73 104 140 181 226 272 321
#     4  10  22  41  63  86 111 141 181 226 277 339
#     4  11  22  37  58  85 117 148 183 228 280 332
#     4   9  18  32  50  76 109 141 174 220 274 323
#
# _framework density 18.660719
#
# number of rings (size 3 to 8) (size 9 to 14) (size 15 to 20)
#    0.000    2.000    1.250    2.625    0.000    6.250 
#    0.000    2.500    0.000    0.750    0.000    3.500 
#    0.000    0.000    0.000    0.000    0.000    0.000 
#
# Total GULP energy -793769.790039 kJ/mol
# GULP energy per Si atom -12402.652969 kJ/mol
# Density = 1.861825 g / cm^3
# Si number density = 18.660719 Si / 1000 Ang^3
#
#
#
# Elastic Constant Matrix: (Units=GPa)
#
#
# Indices 1 2 3 4 5 6 
#
# 1 63.2801 39.4883 51.3956 0.0000 0.0000 0.0000
# 2 39.4883 96.3650 60.1264 0.0000 0.0000 0.0000
# 3 51.3956 60.1264 120.4161 0.0000 0.0000 0.0000
# 4 0.0000 0.0000 0.0000 37.0573 0.0000 0.0000
# 5 0.0000 0.0000 0.0000 0.0000 37.1761 0.0000
# 6 0.0000 0.0000 0.0000 0.0000 0.0000 26.2794
#
#
#
# Elastic Compliance Matrix: (Units=1/GPa)
#
#
# Indices 1 2 3 4 5 6 
#
# 1 0.025999 -0.005418 -0.008392 0.000000 0.000000 0.000000
# 2 -0.005418 0.016202 -0.005778 0.000000 0.000000 0.000000
# 3 -0.008392 -0.005778 0.014771 0.000000 0.000000 0.000000
# 4 0.000000 0.000000 0.000000 0.026985 0.000000 0.000000
# 5 0.000000 0.000000 0.000000 0.000000 0.026899 0.000000
# 6 0.000000 0.000000 0.000000 0.000000 0.000000 0.038053
#
#
# Mechanical properties :
#
#
# Convention : Reuss Voigt Hill
#
# Bulk Modulus (GPa) = 56.18559 64.67575 60.43067
# Shear Modulus (GPa) = 25.77093 28.70596 27.23844
#
# Velocity S-wave (km/s) = 3.72025 3.92638 3.82470
# Velocity P-wave (km/s) = 6.97338 7.43568 7.20824
#
# Compressibility (1/GPa) = 0.01779816
#
# Stress axis : x y z
#
# Youngs Moduli (GPa) = 38.46253 61.71937 67.69966
#
# Poissons Ratio (x) = 0.33440 0.56811
# Poissons Ratio (y) = 0.20839 0.39115
# Poissons Ratio (z) = 0.32276 0.35659
#
# Static dielectric constant tensor:
#      x y z
#    x 3.192370 0.000000 0.000000 
#    y 0.000000 3.480690 0.000000 
#    z 0.000000 0.000000 3.531040 
# 
# 
# High freq. dielectric constant tensor:
#      x y z
#    x 1.695640 0.000000 0.000000 
#    y 0.000000 1.736450 0.000000 
#    z 0.000000 0.000000 1.731080 
# 
# From -- ./inp_files/30534.got.cif
#   From: 2010.03.12/outbox.cif.g09.slc.cpg/sg51_16_cif.got.tgz:30534.got - 2010.04.16 13:43:02.
