data_PCOD8207977
_publ_section_title
;
Structure prediction by ZEFSAII (Michael W. Deem and Ramdas Pophale) SiO2 
 PCOD8207977
Probable space group: P M M A
;
_chemical_formula_sum "Si O2"
_cell_formula_units_Z 56
_cell_length_a 8.871628
_cell_length_b 21.449144
_cell_length_c 18.187351
_cell_angle_alpha 90.000000
_cell_angle_beta 90.000000
_cell_angle_gamma 90.000000
_cell_volume 3460.849679
_symmetry_space_group_name_H-M "P M M A"
_symmetry_group_IT_number 51
_symmetry_cell_setting 'orthorhombic'
loop_
_space_group_symop_operation_xyz
x,y,z
1/2-x,-y,z
1/2+x,-y,-z
-x,y,-z
-x,-y,-z
1/2+x,y,-z
1/2-x,y,z
x,-y,z
loop_
_atom_site_type_symbol
_atom_site_label
_atom_site_fract_x
_atom_site_fract_y
_atom_site_fract_z
Si Si1 0.581784 0.633666 0.699680
Si Si2 0.929123 0.293170 0.421299
Si Si3 0.075095 0.569928 0.824954
Si Si4 0.926132 0.684342 0.078222
Si Si5 0.416325 0.753896 0.198571
Si Si6 0.928900 0.178089 0.661524
Si Si7 0.574290 0.927728 0.422961
O O1 0.750000 0.614642 0.674169
O O2 0.478725 0.648502 0.629311
O O3 0.510595 0.577991 0.747616
O O4 0.588230 0.694174 0.749848
O O5 0.750000 0.290047 0.426070
O O6 0.000000 0.305757 0.500000
O O7 0.990561 0.228036 0.390532
O O8 0.250000 0.582535 0.809347
O O9 0.045590 0.500000 0.854517
O O10 0.017118 0.618921 0.886378
O O11 0.750000 0.684531 0.066699
O O12 0.970520 0.742380 0.130930
O O13 0.000000 0.693737 0.000000
O O14 0.250000 0.766961 0.165870
O O15 0.468438 0.810408 0.252020
O O16 0.750000 0.182720 0.648804
O O17 0.992141 0.110146 0.641685
O O18 0.500000 0.908541 0.500000
O O19 0.750000 0.910949 0.426306
O O20 0.547036 0.000000 0.405489
#
# Coordination Sequence:
#
# PCOD8207977 Si02
#       7
#     8   8   8   8   8   8   8
#     4   9  17  30  46  65  87 111 143 182 225 269
#     4  11  20  30  45  65  89 115 145 184 229 273
#     4   9  18  32  48  66  88 117 152 183 214 259
#     4  10  19  30  46  67  93 122 148 179 219 263
#     4   8  16  30  46  64  87 114 145 182 222 266
#     4  10  19  31  47  67  91 119 153 192 230 269
#     4  10  20  32  45  63  91 128 166 200 233 269
#
# _framework density 16.180997000000001
#
# number of rings (size 3 to 8) (size 9 to 14) (size 15 to 20)
#    0.000    2.429    0.000    4.286    0.000    6.000 
#    0.000    0.000    0.000    0.429    0.000    0.000 
#    0.000    0.571    0.000    1.857    0.000    2.714 
#
# Total GULP energy -694281.947551 kJ/mol
# GULP energy per Si atom -12397.891921 kJ/mol
# Density = 1.614417 g / cm^3
# Si number density = 16.180997 Si / 1000 Ang^3
#
#
#
# Elastic Constant Matrix: (Units=GPa)
#
#
# Indices 1 2 3 4 5 6 
#
# 1 102.0185 31.5165 56.6573 0.0000 0.0000 0.0000
# 2 31.5165 58.0677 46.0789 0.0000 0.0000 0.0000
# 3 56.6573 46.0789 115.1821 0.0000 0.0000 0.0000
# 4 0.0000 0.0000 0.0000 18.4555 0.0000 0.0000
# 5 0.0000 0.0000 0.0000 0.0000 27.3536 0.0000
# 6 0.0000 0.0000 0.0000 0.0000 0.0000 22.2282
#
#
#
# Elastic Compliance Matrix: (Units=1/GPa)
#
#
# Indices 1 2 3 4 5 6 
#
# 1 0.013856 -0.003094 -0.005578 0.000000 0.000000 0.000000
# 2 -0.003094 0.025922 -0.008848 0.000000 0.000000 0.000000
# 3 -0.005578 -0.008848 0.014965 0.000000 0.000000 0.000000
# 4 0.000000 0.000000 0.000000 0.054184 0.000000 0.000000
# 5 0.000000 0.000000 0.000000 0.000000 0.036558 0.000000
# 6 0.000000 0.000000 0.000000 0.000000 0.000000 0.044988
#
#
# Mechanical properties :
#
#
# Convention : Reuss Voigt Hill
#
# Bulk Modulus (GPa) = 50.75383 60.41930 55.58657
# Shear Modulus (GPa) = 21.54419 23.00851 22.27635
#
# Velocity S-wave (km/s) = 3.65286 3.77496 3.71441
# Velocity P-wave (km/s) = 7.01610 7.51140 7.26797
#
# Compressibility (1/GPa) = 0.01970294
#
# Stress axis : x y z
#
# Youngs Moduli (GPa) = 72.17276 38.57722 66.82123
#
# Poissons Ratio (x) = 0.11936 0.37271
# Poissons Ratio (y) = 0.22331 0.59125
# Poissons Ratio (z) = 0.40256 0.34134
#
# Static dielectric constant tensor:
#      x y z
#    x 3.243770 0.000000 0.000000 
#    y 0.000000 2.960810 0.000000 
#    z 0.000000 0.000000 3.090330 
# 
# 
# High freq. dielectric constant tensor:
#      x y z
#    x 1.637700 0.000000 0.000000 
#    y 0.000000 1.589400 0.000000 
#    z 0.000000 0.000000 1.608560 
# 
# From -- ./inp_files/28195.got.cif
#   From: 2010.03.12/outbox.cif.g09.slc.cpg/sg51_15_cif.got.tgz:28195.got - 2010.04.16 13:43:02.
