data_PCOD8207625
_publ_section_title
;
Structure prediction by ZEFSAII (Michael W. Deem and Ramdas Pophale) SiO2 
 PCOD8207625
Probable space group: P M M A
;
_chemical_formula_sum "Si O2"
_cell_formula_units_Z 64
_cell_length_a 26.727424
_cell_length_b 9.207206
_cell_length_c 16.767310
_cell_angle_alpha 90.000000
_cell_angle_beta 90.000000
_cell_angle_gamma 90.000000
_cell_volume 4126.181781
_symmetry_space_group_name_H-M "P M M A"
_symmetry_group_IT_number 51
_symmetry_cell_setting 'orthorhombic'
loop_
_space_group_symop_operation_xyz
x,y,z
1/2-x,-y,z
1/2+x,-y,-z
-x,y,-z
-x,-y,-z
1/2+x,y,-z
1/2-x,y,z
x,-y,z
loop_
_atom_site_type_symbol
_atom_site_label
_atom_site_fract_x
_atom_site_fract_y
_atom_site_fract_z
Si Si1 0.422813 0.835083 0.875157
Si Si2 0.943370 0.828149 0.647868
Si Si3 0.942207 0.335940 0.977056
Si Si4 0.615058 0.165577 0.288807
Si Si5 0.459901 0.333753 0.608153
Si Si6 0.807119 0.167988 0.419354
Si Si7 0.118604 0.666818 0.470464
Si Si8 0.034832 0.832114 0.172046
O O1 0.380591 0.810313 0.806761
O O2 0.476129 0.795670 0.835239
O O3 0.423221 0.000000 0.905895
O O4 0.410283 0.736389 0.951590
O O5 0.893627 0.754855 0.610551
O O6 0.946140 0.785745 0.740824
O O7 0.990955 0.763730 0.601479
O O8 0.941762 0.000000 0.634763
O O9 0.923986 0.500000 0.967876
O O10 0.933045 0.256136 0.893164
O O11 0.000000 0.322884 0.000000
O O12 0.574073 0.277212 0.320022
O O13 0.667787 0.194337 0.332531
O O14 0.596523 0.000000 0.305394
O O15 0.475214 0.500000 0.625281
O O16 0.429895 0.320083 0.526175
O O17 0.750000 0.218550 0.412031
O O18 0.833346 0.263071 0.487275
O O19 0.811631 0.000000 0.444273
O O20 0.131041 0.500000 0.450323
O O21 0.045193 0.000000 0.155891
#
# Coordination Sequence:
#
# PCOD8207625 Si02
#       8
#     8   8   8   8   8   8   8   8
#     4   9  15  26  41  57  81 113 147 180 212 252
#     4  11  20  30  44  62  85 116 152 186 220 259
#     4   9  17  26  37  56  80 110 146 180 212 246
#     4   9  16  28  45  65  87 114 149 182 218 263
#     4  10  19  29  41  59  87 117 147 182 219 258
#     4   9  18  33  52  70  88 112 144 184 225 264
#     4  10  21  33  44  63  87 115 147 180 222 268
#     4   9  17  28  40  56  80 114 150 180 214 253
#
# _framework density 15.510707999999999
#
# number of rings (size 3 to 8) (size 9 to 14) (size 15 to 20)
#    0.000    2.500    1.250    1.875    0.000    6.250 
#    0.000    0.000    0.000    0.000    0.000    0.000 
#    0.000    1.000    0.000    7.750    0.000    1.875 
#
# Total GULP energy -793481.922938 kJ/mol
# GULP energy per Si atom -12398.155046 kJ/mol
# Density = 1.547540 g / cm^3
# Si number density = 15.510708 Si / 1000 Ang^3
#
#
#
# Elastic Constant Matrix: (Units=GPa)
#
#
# Indices 1 2 3 4 5 6 
#
# 1 63.1173 36.4935 41.3393 0.0000 0.0000 0.0000
# 2 36.4935 90.3575 55.6701 0.0000 0.0000 0.0000
# 3 41.3393 55.6701 98.2835 0.0000 0.0000 0.0000
# 4 0.0000 0.0000 0.0000 20.4521 0.0000 0.0000
# 5 0.0000 0.0000 0.0000 0.0000 12.4003 0.0000
# 6 0.0000 0.0000 0.0000 0.0000 0.0000 13.9324
#
#
#
# Elastic Compliance Matrix: (Units=1/GPa)
#
#
# Indices 1 2 3 4 5 6 
#
# 1 0.023353 -0.005192 -0.006882 0.000000 0.000000 0.000000
# 2 -0.005192 0.018154 -0.008099 0.000000 0.000000 0.000000
# 3 -0.006882 -0.008099 0.017657 0.000000 0.000000 0.000000
# 4 0.000000 0.000000 0.000000 0.048895 0.000000 0.000000
# 5 0.000000 0.000000 0.000000 0.000000 0.080643 0.000000
# 6 0.000000 0.000000 0.000000 0.000000 0.000000 0.071775
#
#
# Mechanical properties :
#
#
# Convention : Reuss Voigt Hill
#
# Bulk Modulus (GPa) = 53.14022 57.64047 55.39035
# Shear Modulus (GPa) = 16.28164 17.24063 16.76114
#
# Velocity S-wave (km/s) = 3.24343 3.33758 3.29084
# Velocity P-wave (km/s) = 6.95422 7.21769 7.08718
#
# Compressibility (1/GPa) = 0.01881814
#
# Stress axis : x y z
#
# Youngs Moduli (GPa) = 42.82193 55.08453 56.63576
#
# Poissons Ratio (x) = 0.28598 0.38975
# Poissons Ratio (y) = 0.22232 0.45870
# Poissons Ratio (z) = 0.29469 0.44614
#
# Static dielectric constant tensor:
#      x y z
#    x 2.578980 0.000000 0.000000 
#    y 0.000000 3.064390 0.000000 
#    z 0.000000 0.000000 3.046440 
# 
# 
# High freq. dielectric constant tensor:
#      x y z
#    x 1.533270 0.000000 0.000000 
#    y 0.000000 1.605510 0.000000 
#    z 0.000000 0.000000 1.596580 
# 
# From -- ./inp_files/30999.got.cif
#   From: 2010.03.12/outbox.cif.g09.slc.cpg/sg51_16_cif.got.tgz:30999.got - 2010.04.16 13:43:02.
