data_PCOD8207780
_publ_section_title
;
Structure prediction by ZEFSAII (Michael W. Deem and Ramdas Pophale) SiO2 
 PCOD8207780
Probable space group: P M M A
;
_chemical_formula_sum "Si O2"
_cell_formula_units_Z 48
_cell_length_a 18.267732
_cell_length_b 15.298378
_cell_length_c 10.295000
_cell_angle_alpha 90.000000
_cell_angle_beta 90.000000
_cell_angle_gamma 90.000000
_cell_volume 2877.109361
_symmetry_space_group_name_H-M "P M M A"
_symmetry_group_IT_number 51
_symmetry_cell_setting 'orthorhombic'
loop_
_space_group_symop_operation_xyz
x,y,z
1/2-x,-y,z
1/2+x,-y,-z
-x,y,-z
-x,-y,-z
1/2+x,y,-z
1/2-x,y,z
x,-y,z
loop_
_atom_site_type_symbol
_atom_site_label
_atom_site_fract_x
_atom_site_fract_y
_atom_site_fract_z
Si Si1 0.462310 0.101599 0.365285
Si Si2 0.332744 0.407005 0.263984
Si Si3 0.832441 0.219424 0.712678
Si Si4 0.584317 0.596208 0.997808
Si Si5 0.945144 0.101297 0.116212
Si Si6 0.165771 0.764438 0.979367
O O1 0.500000 0.126045 0.500000
O O2 0.386424 0.153133 0.357018
O O3 0.516862 0.128943 0.250498
O O4 0.442186 0.000000 0.355760
O O5 0.250000 0.399178 0.204895
O O6 0.339366 0.500000 0.343249
O O7 0.346303 0.317981 0.345814
O O8 0.391182 0.410855 0.150339
O O9 0.750000 0.187890 0.682193
O O10 0.846032 0.222005 0.867129
O O11 0.594993 0.500000 0.064448
O O12 0.631016 0.672092 0.068049
O O13 0.500000 0.624718 0.000000
O O14 0.922408 0.000000 0.116097
O O15 0.871782 0.156905 0.098860
O O16 0.000000 0.123365 0.000000
O O17 0.250000 0.765039 0.939464
#
# Coordination Sequence:
#
# PCOD8207780 Si02
#       6
#     8   8   8   8   8   8
#     4  10  21  36  52  72  98 131 165 200 249 300
#     4   8  14  25  41  65  97 127 157 198 244 285
#     4   9  17  29  49  75  98 126 165 206 244 287
#     4   9  16  24  38  64  98 133 163 195 240 290
#     4  10  19  33  52  72  97 127 159 202 251 293
#     4  10  19  29  46  73 102 132 165 204 247 290
#
# _framework density 16.683411
#
# number of rings (size 3 to 8) (size 9 to 14) (size 15 to 20)
#    0.000    2.667    1.667    2.000    2.333    1.667 
#    0.000    2.500    0.000    3.500    0.000    0.000 
#    0.000    2.667    0.000    0.000    0.000    0.000 
#
# Total GULP energy -594789.564120 kJ/mol
# GULP energy per Si atom -12391.449253 kJ/mol
# Density = 1.664544 g / cm^3
# Si number density = 16.683411 Si / 1000 Ang^3
#
#
#
# Elastic Constant Matrix: (Units=GPa)
#
#
# Indices 1 2 3 4 5 6 
#
# 1 133.5674 83.0647 37.2586 0.0000 0.0000 0.0000
# 2 83.0647 118.4999 34.2803 0.0000 0.0000 0.0000
# 3 37.2586 34.2803 61.0664 0.0000 0.0000 0.0000
# 4 0.0000 0.0000 0.0000 10.3318 0.0000 0.0000
# 5 0.0000 0.0000 0.0000 0.0000 16.5468 0.0000
# 6 0.0000 0.0000 0.0000 0.0000 0.0000 32.7940
#
#
#
# Elastic Compliance Matrix: (Units=1/GPa)
#
#
# Indices 1 2 3 4 5 6 
#
# 1 0.013904 -0.008706 -0.003596 0.000000 0.000000 0.000000
# 2 -0.008706 0.015526 -0.003404 0.000000 0.000000 0.000000
# 3 -0.003596 -0.003404 0.020481 0.000000 0.000000 0.000000
# 4 0.000000 0.000000 0.000000 0.096788 0.000000 0.000000
# 5 0.000000 0.000000 0.000000 0.000000 0.060435 0.000000
# 6 0.000000 0.000000 0.000000 0.000000 0.000000 0.030493
#
#
# Mechanical properties :
#
#
# Convention : Reuss Voigt Hill
#
# Bulk Modulus (GPa) = 54.05799 69.14899 61.60349
# Shear Modulus (GPa) = 18.16817 22.50319 20.33568
#
# Velocity S-wave (km/s) = 3.30357 3.67664 3.49509
# Velocity P-wave (km/s) = 6.85741 7.71759 7.30018
#
# Compressibility (1/GPa) = 0.01849865
#
# Stress axis : x y z
#
# Youngs Moduli (GPa) = 71.92009 64.40688 48.82665
#
# Poissons Ratio (x) = 0.56074 0.17559
# Poissons Ratio (y) = 0.62615 0.16620
# Poissons Ratio (z) = 0.25864 0.21924
#
# Static dielectric constant tensor:
#      x y z
#    x 3.132130 0.000000 0.000000 
#    y 0.000000 3.575210 0.000000 
#    z 0.000000 0.000000 2.650400 
# 
# 
# High freq. dielectric constant tensor:
#      x y z
#    x 1.648780 0.000000 0.000000 
#    y 0.000000 1.667630 0.000000 
#    z 0.000000 0.000000 1.573250 
# 
# From -- ./inp_files/17382.got.cif
#   From: 2010.03.12/outbox.cif.g09.slc.cpg/sg51_9_cif.got.tgz:17382.got - 2010.04.16 13:43:02.
