data_PCOD8207078
_publ_section_title
;
Structure prediction by ZEFSAII (Michael W. Deem and Ramdas Pophale) SiO2 
 PCOD8207078
Probable space group: P M M A
;
_chemical_formula_sum "Si O2"
_cell_formula_units_Z 64
_cell_length_a 29.388734
_cell_length_b 8.611982
_cell_length_c 14.798907
_cell_angle_alpha 90.000000
_cell_angle_beta 90.000000
_cell_angle_gamma 90.000000
_cell_volume 3745.533040
_symmetry_space_group_name_H-M "P M M A"
_symmetry_group_IT_number 51
_symmetry_cell_setting 'orthorhombic'
loop_
_space_group_symop_operation_xyz
x,y,z
1/2-x,-y,z
1/2+x,-y,-z
-x,y,-z
-x,-y,-z
1/2+x,y,-z
1/2-x,y,z
x,-y,z
loop_
_atom_site_type_symbol
_atom_site_label
_atom_site_fract_x
_atom_site_fract_y
_atom_site_fract_z
Si Si1 0.937207 0.319864 0.956238
Si Si2 0.800775 0.176110 0.692744
Si Si3 0.392728 0.181016 0.547052
Si Si4 0.445690 0.181295 0.366505
Si Si5 0.026774 0.181259 0.874872
Si Si6 0.698807 0.319585 0.502797
Si Si7 0.614755 0.180320 0.804149
Si Si8 0.538499 0.680784 0.316953
O O1 0.937421 0.500000 0.979854
O O2 0.893875 0.277578 0.894933
O O3 0.981547 0.276216 0.898404
O O4 0.935113 0.225427 0.050591
O O5 0.750000 0.186461 0.732400
O O6 0.807219 0.290429 0.609166
O O7 0.834503 0.224079 0.772855
O O8 0.812320 0.000000 0.659707
O O9 0.413480 0.228152 0.449876
O O10 0.339144 0.222651 0.551254
O O11 0.417802 0.279592 0.623324
O O12 0.399346 0.000000 0.566928
O O13 0.420396 0.227902 0.274463
O O14 0.493063 0.273119 0.371840
O O15 0.457304 0.000000 0.369386
O O16 0.043592 0.224349 0.775645
O O17 0.015425 0.000000 0.879297
O O18 0.750000 0.267844 0.472918
O O19 0.691235 0.500000 0.483282
O O20 0.609544 0.000000 0.827259
O O21 0.537648 0.500000 0.294481
#
# Coordination Sequence:
#
# PCOD8207078 Si02
#       8
#     8   8   8   8   8   8   8   8
#     4  11  21  33  51  76 101 129 165 209 253 299
#     4   9  17  31  51  73  99 134 174 212 251 300
#     4  11  22  37  54  73  99 138 179 214 252 304
#     4  10  20  34  50  71 102 140 178 212 246 296
#     4  11  21  36  54  72  97 132 168 208 251 299
#     4  10  20  33  50  74 103 132 166 213 263 305
#     4  10  18  31  50  74 103 137 172 209 252 302
#     4  12  24  36  51  74 103 136 173 217 258 302
#
# _framework density 17.087021
#
# number of rings (size 3 to 8) (size 9 to 14) (size 15 to 20)
#    0.000    1.500    2.500    5.250    0.000    3.750 
#    0.000    0.000    0.000    0.000    0.000    0.875 
#    0.000    5.000    0.000    0.000    0.000    0.000 
#
# Total GULP energy -793760.369943 kJ/mol
# GULP energy per Si atom -12402.505780 kJ/mol
# Density = 1.704813 g / cm^3
# Si number density = 17.087021 Si / 1000 Ang^3
#
#
#
# Elastic Constant Matrix: (Units=GPa)
#
#
# Indices 1 2 3 4 5 6 
#
# 1 100.2094 22.0416 29.2518 0.0000 0.0000 0.0000
# 2 22.0416 60.2204 16.9295 0.0000 0.0000 0.0000
# 3 29.2518 16.9295 61.5946 0.0000 0.0000 0.0000
# 4 0.0000 0.0000 0.0000 24.4104 0.0000 0.0000
# 5 0.0000 0.0000 0.0000 0.0000 23.0600 0.0000
# 6 0.0000 0.0000 0.0000 0.0000 0.0000 20.4387
#
#
#
# Elastic Compliance Matrix: (Units=1/GPa)
#
#
# Indices 1 2 3 4 5 6 
#
# 1 0.012079 -0.003044 -0.004900 0.000000 0.000000 0.000000
# 2 -0.003044 0.018763 -0.003712 0.000000 0.000000 0.000000
# 3 -0.004900 -0.003712 0.019582 0.000000 0.000000 0.000000
# 4 0.000000 0.000000 0.000000 0.040966 0.000000 0.000000
# 5 0.000000 0.000000 0.000000 0.000000 0.043365 0.000000
# 6 0.000000 0.000000 0.000000 0.000000 0.000000 0.048927
#
#
# Mechanical properties :
#
#
# Convention : Reuss Voigt Hill
#
# Bulk Modulus (GPa) = 36.88113 39.83001 38.35557
# Shear Modulus (GPa) = 23.14488 23.83526 23.49007
#
# Velocity S-wave (km/s) = 3.68439 3.73893 3.71176
# Velocity P-wave (km/s) = 6.30323 6.48076 6.39261
#
# Compressibility (1/GPa) = 0.02711414
#
# Stress axis : x y z
#
# Youngs Moduli (GPa) = 82.78934 53.29608 51.06649
#
# Poissons Ratio (x) = 0.16221 0.25022
# Poissons Ratio (y) = 0.25198 0.18954
# Poissons Ratio (z) = 0.40565 0.19782
#
# Static dielectric constant tensor:
#      x y z
#    x 3.246280 0.000000 0.000000 
#    y 0.000000 3.204500 0.000000 
#    z 0.000000 0.000000 3.172930 
# 
# 
# High freq. dielectric constant tensor:
#      x y z
#    x 1.646070 0.000000 0.000000 
#    y 0.000000 1.665900 0.000000 
#    z 0.000000 0.000000 1.638640 
# 
# From -- ./inp_files/26703.got.cif
#   From: 2010.03.12/outbox.cif.g09.slc.cpg/sg51_14_cif.got.tgz:26703.got - 2010.04.16 13:43:02.
