data_PCOD8207637
_publ_section_title
;
Structure prediction by ZEFSAII (Michael W. Deem and Ramdas Pophale) SiO2 
 PCOD8207637
Probable space group: P M M A
;
_chemical_formula_sum "Si O2"
_cell_formula_units_Z 56
_cell_length_a 14.413260
_cell_length_b 18.817167
_cell_length_c 15.066172
_cell_angle_alpha 90.000000
_cell_angle_beta 90.000000
_cell_angle_gamma 90.000000
_cell_volume 4086.197759
_symmetry_space_group_name_H-M "P M M A"
_symmetry_group_IT_number 51
_symmetry_cell_setting 'orthorhombic'
loop_
_space_group_symop_operation_xyz
x,y,z
1/2-x,-y,z
1/2+x,-y,-z
-x,y,-z
-x,-y,-z
1/2+x,y,-z
1/2-x,y,z
x,-y,z
loop_
_atom_site_type_symbol
_atom_site_label
_atom_site_fract_x
_atom_site_fract_y
_atom_site_fract_z
Si Si1 0.444101 0.415573 0.083449
Si Si2 0.852957 0.188612 0.396442
Si Si3 0.750000 0.584588 0.981897
Si Si4 0.001285 0.920519 0.394065
Si Si5 0.146569 0.192891 0.393348
Si Si6 0.947260 0.415854 0.254954
Si Si7 0.250000 0.583980 0.817855
Si Si8 0.497424 0.693436 0.603879
O O1 0.450455 0.500000 0.082020
O O2 0.338663 0.388585 0.073650
O O3 0.488927 0.387870 0.174271
O O4 0.500000 0.384195 0.000000
O O5 0.750000 0.190053 0.353984
O O6 0.907397 0.118784 0.361520
O O7 0.846569 0.186425 0.501725
O O8 0.909134 0.258781 0.369264
O O9 0.750000 0.500000 0.988854
O O10 0.750000 0.616050 0.082176
O O11 0.000000 0.922393 0.500000
O O12 0.090526 0.876409 0.358800
O O13 0.004841 0.000000 0.354243
O O14 0.250000 0.194868 0.351174
O O15 0.091326 0.264888 0.368385
O O16 0.954553 0.500000 0.268565
O O17 0.841442 0.391822 0.235654
O O18 0.987326 0.379960 0.343449
O O19 0.250000 0.500000 0.827723
O O20 0.500000 0.674974 0.500000
#
# Coordination Sequence:
#
# PCOD8207637 Si02
#       8
#     8   8   4   8   8   8   4   8
#     4   9  15  25  41  59  79  99 115 144 195 250
#     4   8  14  24  38  52  68  96 129 157 191 231
#     4   9  14  24  42  59  79 101 115 137 186 252
#     4   8  13  20  32  54  77  91 113 152 195 234
#     4   8  14  26  39  49  67  97 131 161 189 225
#     4  10  19  29  42  60  78  96 126 169 212 245
#     4   9  16  26  42  63  79  91 114 155 204 250
#     4   9  18  30  41  53  70 101 139 174 202 231
#
# _framework density 13.704672
#
# number of rings (size 3 to 8) (size 9 to 14) (size 15 to 20)
#    0.000    3.286    1.429    1.714    1.000    0.857 
#    1.286    2.857    0.000    0.000    0.000    0.000 
#    0.000    0.000    0.000    0.000    0.000   11.429 
#
# Total GULP energy -693923.627534 kJ/mol
# GULP energy per Si atom -12391.493349 kJ/mol
# Density = 1.367348 g / cm^3
# Si number density = 13.704672 Si / 1000 Ang^3
#
#
#
# Elastic Constant Matrix: (Units=GPa)
#
#
# Indices 1 2 3 4 5 6 
#
# 1 134.0584 39.7877 32.3737 0.0000 0.0000 0.0000
# 2 39.7877 58.7372 31.8825 0.0000 0.0000 0.0000
# 3 32.3737 31.8825 48.0563 0.0000 0.0000 0.0000
# 4 0.0000 0.0000 0.0000 1.1349 0.0000 0.0000
# 5 0.0000 0.0000 0.0000 0.0000 13.2118 0.0000
# 6 0.0000 0.0000 0.0000 0.0000 0.0000 10.3733
#
#
#
# Elastic Compliance Matrix: (Units=1/GPa)
#
#
# Indices 1 2 3 4 5 6 
#
# 1 0.009678 -0.004715 -0.003392 0.000000 0.000000 0.000000
# 2 -0.004715 0.028903 -0.015999 0.000000 0.000000 0.000000
# 3 -0.003392 -0.015999 0.033708 0.000000 0.000000 0.000000
# 4 0.000000 0.000000 0.000000 0.881116 0.000000 0.000000
# 5 0.000000 0.000000 0.000000 0.000000 0.075690 0.000000
# 6 0.000000 0.000000 0.000000 0.000000 0.000000 0.096401
#
#
# Mechanical properties :
#
#
# Convention : Reuss Voigt Hill
#
# Bulk Modulus (GPa) = 41.53191 49.88219 45.70705
# Shear Modulus (GPa) = 4.23107 14.06454 9.14781
#
# Velocity S-wave (km/s) = 1.75898 3.20700 2.58640
# Velocity P-wave (km/s) = 5.87334 7.08450 6.50716
#
# Compressibility (1/GPa) = 0.02407787
#
# Stress axis : x y z
#
# Youngs Moduli (GPa) = 103.32991 34.59843 29.66614
#
# Poissons Ratio (x) = 0.16312 0.10062
# Poissons Ratio (y) = 0.48715 0.47464
# Poissons Ratio (z) = 0.35046 0.55356
#
# Static dielectric constant tensor:
#      x y z
#    x 3.211840 0.000000 0.000000 
#    y 0.000000 2.490280 0.000000 
#    z 0.000000 0.000000 2.326150 
# 
# 
# High freq. dielectric constant tensor:
#      x y z
#    x 1.541040 0.000000 0.000000 
#    y 0.000000 1.488440 0.000000 
#    z 0.000000 0.000000 1.470610 
# 
# From -- ./inp_files/24421.got.cif
#   From: 2010.03.12/outbox.cif.g09.slc.cpg/sg51_13_cif.got.tgz:24421.got - 2010.04.16 13:43:02.
