data_PCOD8207987
_publ_section_title
;
Structure prediction by ZEFSAII (Michael W. Deem and Ramdas Pophale) SiO2 
 PCOD8207987
Probable space group: P M M A
;
_chemical_formula_sum "Si O2"
_cell_formula_units_Z 64
_cell_length_a 15.215677
_cell_length_b 14.566567
_cell_length_c 16.471696
_cell_angle_alpha 90.000000
_cell_angle_beta 90.000000
_cell_angle_gamma 90.000000
_cell_volume 3650.789641
_symmetry_space_group_name_H-M "P M M A"
_symmetry_group_IT_number 51
_symmetry_cell_setting 'orthorhombic'
loop_
_space_group_symop_operation_xyz
x,y,z
1/2-x,-y,z
1/2+x,-y,-z
-x,y,-z
-x,-y,-z
1/2+x,y,-z
1/2-x,y,z
x,-y,z
loop_
_atom_site_type_symbol
_atom_site_label
_atom_site_fract_x
_atom_site_fract_y
_atom_site_fract_z
Si Si1 0.651077 0.324570 0.139010
Si Si2 0.652963 0.903408 0.477340
Si Si3 0.460533 0.250257 0.587328
Si Si4 0.152737 0.894801 0.173815
Si Si5 0.910106 0.103471 0.651005
Si Si6 0.150260 0.395501 0.037918
Si Si7 0.478364 0.759668 0.089556
Si Si8 0.650459 0.394880 0.316280
O O1 0.750000 0.279215 0.138093
O O2 0.570892 0.251490 0.137741
O O3 0.639787 0.384831 0.219569
O O4 0.639165 0.387202 0.059261
O O5 0.750000 0.915003 0.445680
O O6 0.618067 0.817978 0.429384
O O7 0.652644 0.887836 0.573644
O O8 0.601807 0.000000 0.457863
O O9 0.500000 0.281889 0.500000
O O10 0.523335 0.189427 0.644449
O O11 0.422889 0.336920 0.635735
O O12 0.250000 0.862835 0.145295
O O13 0.148567 0.880623 0.270159
O O14 0.076728 0.838054 0.131890
O O15 0.137524 0.000000 0.149421
O O16 0.953301 0.000000 0.654585
O O17 0.250000 0.368036 0.063053
O O18 0.130473 0.500000 0.062681
O O19 0.079932 0.333400 0.085850
O O20 0.500000 0.795042 0.000000
O O21 0.750000 0.366670 0.342095
O O22 0.632572 0.500000 0.339305
#
# Coordination Sequence:
#
# PCOD8207987 Si02
#       8
#     8   8   8   8   8   8   8   8
#     4   9  18  32  50  71  95 124 158 197 240 283
#     4   9  16  27  45  69  95 121 149 184 229 279
#     4  10  19  30  46  68  94 121 150 188 234 280
#     4  10  20  34  52  72  95 126 163 199 232 272
#     4   9  17  30  48  70  94 119 150 189 233 278
#     4   9  17  30  49  74 102 128 155 192 240 290
#     4  10  20  32  50  73  99 127 157 195 240 287
#     4  10  20  33  48  65  88 121 159 195 228 268
#
# _framework density 17.530453999999999
#
# number of rings (size 3 to 8) (size 9 to 14) (size 15 to 20)
#    0.000    2.500    0.000    2.625    0.000    8.250 
#    0.000    0.000    0.000    0.375    0.000    3.500 
#    0.000    8.000    0.000    0.000    0.000    0.000 
#
# Total GULP energy -792863.650592 kJ/mol
# GULP energy per Si atom -12388.494541 kJ/mol
# Density = 1.749055 g / cm^3
# Si number density = 17.530454 Si / 1000 Ang^3
#
#
#
# Elastic Constant Matrix: (Units=GPa)
#
#
# Indices 1 2 3 4 5 6 
#
# 1 115.2592 54.4029 27.3770 0.0000 0.0000 0.0000
# 2 54.4029 87.8007 29.5144 0.0000 0.0000 0.0000
# 3 27.3770 29.5144 40.8955 0.0000 0.0000 0.0000
# 4 0.0000 0.0000 0.0000 18.1769 0.0000 0.0000
# 5 0.0000 0.0000 0.0000 0.0000 21.0394 0.0000
# 6 0.0000 0.0000 0.0000 0.0000 0.0000 29.3622
#
#
#
# Elastic Compliance Matrix: (Units=1/GPa)
#
#
# Indices 1 2 3 4 5 6 
#
# 1 0.012677 -0.006604 -0.003720 0.000000 0.000000 0.000000
# 2 -0.006604 0.018478 -0.008915 0.000000 0.000000 0.000000
# 3 -0.003720 -0.008915 0.033377 0.000000 0.000000 0.000000
# 4 0.000000 0.000000 0.000000 0.055015 0.000000 0.000000
# 5 0.000000 0.000000 0.000000 0.000000 0.047530 0.000000
# 6 0.000000 0.000000 0.000000 0.000000 0.000000 0.034057
#
#
# Mechanical properties :
#
#
# Convention : Reuss Voigt Hill
#
# Bulk Modulus (GPa) = 38.38215 51.83821 45.11018
# Shear Modulus (GPa) = 20.13721 22.55979 21.34850
#
# Velocity S-wave (km/s) = 3.39292 3.59122 3.49348
# Velocity P-wave (km/s) = 6.10666 6.84327 6.48543
#
# Compressibility (1/GPa) = 0.02605378
#
# Stress axis : x y z
#
# Youngs Moduli (GPa) = 78.88297 54.11757 29.96115
#
# Poissons Ratio (x) = 0.35741 0.11146
# Poissons Ratio (y) = 0.52097 0.26709
# Poissons Ratio (z) = 0.29345 0.48244
#
# Static dielectric constant tensor:
#      x y z
#    x 3.519660 0.000000 0.000000 
#    y 0.000000 3.135170 0.000000 
#    z 0.000000 0.000000 3.109420 
# 
# 
# High freq. dielectric constant tensor:
#      x y z
#    x 1.686600 0.000000 0.000000 
#    y 0.000000 1.660840 0.000000 
#    z 0.000000 0.000000 1.663940 
# 
# From -- ./inp_files/29886.got.cif
#   From: 2010.03.12/outbox.cif.g09.slc.cpg/sg51_15_cif.got.tgz:29886.got - 2010.04.16 13:43:02.
