data_PCOD8207898
_publ_section_title
;
Structure prediction by ZEFSAII (Michael W. Deem and Ramdas Pophale) SiO2 
 PCOD8207898
Probable space group: P M M A
;
_chemical_formula_sum "Si O2"
_cell_formula_units_Z 64
_cell_length_a 9.413710
_cell_length_b 19.045117
_cell_length_c 23.581416
_cell_angle_alpha 90.000000
_cell_angle_beta 90.000000
_cell_angle_gamma 90.000000
_cell_volume 4227.799081
_symmetry_space_group_name_H-M "P M M A"
_symmetry_group_IT_number 51
_symmetry_cell_setting 'orthorhombic'
loop_
_space_group_symop_operation_xyz
x,y,z
1/2-x,-y,z
1/2+x,-y,-z
-x,y,-z
-x,-y,-z
1/2+x,y,-z
1/2-x,y,z
x,-y,z
loop_
_atom_site_type_symbol
_atom_site_label
_atom_site_fract_x
_atom_site_fract_y
_atom_site_fract_z
Si Si1 0.583575 0.149142 0.279717
Si Si2 0.914302 0.921058 0.623302
Si Si3 0.589071 0.916390 0.946902
Si Si4 0.587297 0.919019 0.160511
Si Si5 0.912098 0.727006 0.676025
Si Si6 0.095715 0.419795 0.547629
Si Si7 0.590026 0.576158 0.656738
Si Si8 0.912986 0.213373 0.555373
O O1 0.750000 0.151079 0.293721
O O2 0.509089 0.094212 0.321627
O O3 0.553644 0.126089 0.215808
O O4 0.517707 0.226683 0.286543
O O5 0.750000 0.911557 0.641059
O O6 0.952809 0.866595 0.573381
O O7 0.945697 0.000000 0.601885
O O8 0.750000 0.887199 0.949029
O O9 0.513764 0.890569 0.889341
O O10 0.589167 0.000000 0.949185
O O11 0.500000 0.886198 0.000000
O O12 0.750000 0.909815 0.140746
O O13 0.555229 0.000000 0.174661
O O14 0.750000 0.752298 0.686166
O O15 0.931713 0.645369 0.695671
O O16 0.948427 0.735649 0.608778
O O17 0.250000 0.382565 0.550884
O O18 0.117451 0.500000 0.528597
O O19 0.000000 0.380851 0.500000
O O20 0.023092 0.416594 0.607863
O O21 0.750000 0.578919 0.631336
O O22 0.568053 0.500000 0.688224
O O23 0.750000 0.219151 0.538022
O O24 0.000000 0.235823 0.500000
#
# Coordination Sequence:
#
# PCOD8207898 Si02
#       8
#     8   8   8   8   8   8   8   8
#     4  10  19  30  45  64  84 107 137 171 206 245
#     4   9  18  32  47  61  79 102 128 164 209 251
#     4   9  16  25  38  57  82 113 147 180 213 245
#     4   9  17  28  41  59  84 111 141 179 214 240
#     4   9  19  34  47  60  81 105 127 158 202 250
#     4   9  16  25  37  54  76  98 118 143 177 219
#     4   9  17  30  47  63  77  96 125 159 195 237
#     4   9  18  31  44  58  76  99 126 155 192 241
#
# _framework density 15.1379
#
# number of rings (size 3 to 8) (size 9 to 14) (size 15 to 20)
#    0.000    2.875    0.000    2.250    0.000    8.000 
#    0.000    2.500    0.000    0.000    0.000    0.000 
#    0.000    0.000    0.000    0.000    0.000    0.625 
#
# Total GULP energy -793164.902215 kJ/mol
# GULP energy per Si atom -12393.201597 kJ/mol
# Density = 1.510345 g / cm^3
# Si number density = 15.137900 Si / 1000 Ang^3
#
#
#
# Elastic Constant Matrix: (Units=GPa)
#
#
# Indices 1 2 3 4 5 6 
#
# 1 91.9240 21.5205 44.4379 0.0000 0.0000 0.0000
# 2 21.5205 81.9383 18.2378 0.0000 0.0000 0.0000
# 3 44.4379 18.2378 68.9811 0.0000 0.0000 0.0000
# 4 0.0000 0.0000 0.0000 8.3307 0.0000 0.0000
# 5 0.0000 0.0000 0.0000 0.0000 25.2626 0.0000
# 6 0.0000 0.0000 0.0000 0.0000 0.0000 11.0509
#
#
#
# Elastic Compliance Matrix: (Units=1/GPa)
#
#
# Indices 1 2 3 4 5 6 
#
# 1 0.016114 -0.002042 -0.009841 0.000000 0.000000 0.000000
# 2 -0.002042 0.013226 -0.002181 0.000000 0.000000 0.000000
# 3 -0.009841 -0.002181 0.021413 0.000000 0.000000 0.000000
# 4 0.000000 0.000000 0.000000 0.120037 0.000000 0.000000
# 5 0.000000 0.000000 0.000000 0.000000 0.039584 0.000000
# 6 0.000000 0.000000 0.000000 0.000000 0.000000 0.090490
#
#
# Mechanical properties :
#
#
# Convention : Reuss Voigt Hill
#
# Bulk Modulus (GPa) = 44.19936 45.69286 44.94611
# Shear Modulus (GPa) = 14.85732 19.50533 17.18133
#
# Velocity S-wave (km/s) = 3.13623 3.59348 3.37261
# Velocity P-wave (km/s) = 6.50967 6.88966 6.70236
#
# Compressibility (1/GPa) = 0.02262476
#
# Stress axis : x y z
#
# Youngs Moduli (GPa) = 62.05877 75.60788 46.70084
#
# Poissons Ratio (x) = 0.15438 0.45957
# Poissons Ratio (y) = 0.12671 0.10188
# Poissons Ratio (z) = 0.61070 0.16494
#
# Static dielectric constant tensor:
#      x y z
#    x 3.082690 0.000000 0.000000 
#    y 0.000000 2.971720 0.000000 
#    z 0.000000 0.000000 2.584290 
# 
# 
# High freq. dielectric constant tensor:
#      x y z
#    x 1.594820 0.000000 0.000000 
#    y 0.000000 1.562470 0.000000 
#    z 0.000000 0.000000 1.532580 
# 
# From -- ./inp_files/35177.got.cif
#   From: 2010.03.12/outbox.cif.g09.slc.cpg/sg51_18_cif.got.tgz:35177.got - 2010.04.16 13:43:02.
