data_PCOD8207137
_publ_section_title
;
Structure prediction by ZEFSAII (Michael W. Deem and Ramdas Pophale) SiO2 
 PCOD8207137
Probable space group: P M M A
;
_chemical_formula_sum "Si O2"
_cell_formula_units_Z 40
_cell_length_a 18.634440
_cell_length_b 13.252505
_cell_length_c 9.475880
_cell_angle_alpha 90.000000
_cell_angle_beta 90.000000
_cell_angle_gamma 90.000000
_cell_volume 2340.097082
_symmetry_space_group_name_H-M "P M M A"
_symmetry_group_IT_number 51
_symmetry_cell_setting 'orthorhombic'
loop_
_space_group_symop_operation_xyz
x,y,z
1/2-x,-y,z
1/2+x,-y,-z
-x,y,-z
-x,-y,-z
1/2+x,y,-z
1/2-x,y,z
x,-y,z
loop_
_atom_site_type_symbol
_atom_site_label
_atom_site_fract_x
_atom_site_fract_y
_atom_site_fract_z
Si Si1 0.168597 0.223297 0.007460
Si Si2 0.048677 0.117402 0.865326
Si Si3 0.063913 0.383679 0.110346
Si Si4 0.669186 0.883319 0.700460
Si Si5 0.036740 0.236446 0.354936
O O1 0.250000 0.241183 0.958380
O O2 0.135690 0.330659 0.052768
O O3 0.163092 0.143239 0.134529
O O4 0.124181 0.176043 0.877702
O O5 0.009330 0.150648 0.723270
O O6 0.064472 0.000000 0.856970
O O7 0.000000 0.147059 0.000000
O O8 0.082182 0.500000 0.134747
O O9 0.041234 0.336485 0.260057
O O10 0.000000 0.367981 0.000000
O O11 0.750000 0.862939 0.645575
O O12 0.615027 0.812063 0.613034
O O13 0.647821 0.000000 0.681717
O O14 0.000000 0.268690 0.500000
#
# Coordination Sequence:
#
# PCOD8207137 Si02
#       5
#     8   8   8   8   8
#     4  10  18  31  52  80 107 133 169 219 274 317
#     4  11  19  32  52  76 106 139 179 220 256 303
#     4  10  19  36  59  79 100 130 176 226 268 313
#     4   9  17  30  49  74 103 137 177 218 259 307
#     4  11  21  34  52  77 108 143 178 217 264 314
#
# _framework density 17.093308
#
# number of rings (size 3 to 8) (size 9 to 14) (size 15 to 20)
#    0.000    1.800    6.000    1.200    0.000    3.600 
#    0.000    1.000    0.000    0.000    0.000    0.000 
#    0.000    0.000    0.000    0.000    0.000    0.000 
#
# Total GULP energy -496065.939714 kJ/mol
# GULP energy per Si atom -12401.648493 kJ/mol
# Density = 1.705440 g / cm^3
# Si number density = 17.093308 Si / 1000 Ang^3
#
#
#
# Elastic Constant Matrix: (Units=GPa)
#
#
# Indices 1 2 3 4 5 6 
#
# 1 126.8481 57.2042 38.2149 0.0000 0.0000 0.0000
# 2 57.2042 125.3570 35.5226 0.0000 0.0000 0.0000
# 3 38.2149 35.5226 62.5872 0.0000 0.0000 0.0000
# 4 0.0000 0.0000 0.0000 12.6147 0.0000 0.0000
# 5 0.0000 0.0000 0.0000 0.0000 19.1776 0.0000
# 6 0.0000 0.0000 0.0000 0.0000 0.0000 22.7614
#
#
#
# Elastic Compliance Matrix: (Units=1/GPa)
#
#
# Indices 1 2 3 4 5 6 
#
# 1 0.010926 -0.003689 -0.004578 0.000000 0.000000 0.000000
# 2 -0.003689 0.010751 -0.003850 0.000000 0.000000 0.000000
# 3 -0.004578 -0.003850 0.020958 0.000000 0.000000 0.000000
# 4 0.000000 0.000000 0.000000 0.079272 0.000000 0.000000
# 5 0.000000 0.000000 0.000000 0.000000 0.052144 0.000000
# 6 0.000000 0.000000 0.000000 0.000000 0.000000 0.043934
#
#
# Mechanical properties :
#
#
# Convention : Reuss Voigt Hill
#
# Bulk Modulus (GPa) = 54.33973 64.07505 59.20739
# Shear Modulus (GPa) = 20.13265 23.16746 21.65005
#
# Velocity S-wave (km/s) = 3.43565 3.68551 3.56277
# Velocity P-wave (km/s) = 6.89908 7.46173 7.18591
#
# Compressibility (1/GPa) = 0.01840274
#
# Stress axis : x y z
#
# Youngs Moduli (GPa) = 91.52473 93.01087 47.71471
#
# Poissons Ratio (x) = 0.34309 0.21842
# Poissons Ratio (y) = 0.33761 0.18370
# Poissons Ratio (z) = 0.41897 0.35809
#
# Static dielectric constant tensor:
#      x y z
#    x 3.489650 0.000000 0.000000 
#    y 0.000000 3.144350 0.000000 
#    z 0.000000 0.000000 2.851660 
# 
# 
# High freq. dielectric constant tensor:
#      x y z
#    x 1.667670 0.000000 0.000000 
#    y 0.000000 1.659170 0.000000 
#    z 0.000000 0.000000 1.619480 
# 
# From -- ./inp_files/9401.got.cif
#   From: 2010.03.12/outbox.cif.g09.slc.cpg/sg51_5_cif.got.tgz:9401.got - 2010.04.16 13:43:02.
