data_PCOD8207134
_publ_section_title
;
Structure prediction by ZEFSAII (Michael W. Deem and Ramdas Pophale) SiO2 
 PCOD8207134
Probable space group: P M M A
;
_chemical_formula_sum "Si O2"
_cell_formula_units_Z 56
_cell_length_a 8.714967
_cell_length_b 15.398340
_cell_length_c 20.645230
_cell_angle_alpha 90.000000
_cell_angle_beta 90.000000
_cell_angle_gamma 90.000000
_cell_volume 2770.507800
_symmetry_space_group_name_H-M "P M M A"
_symmetry_group_IT_number 51
_symmetry_cell_setting 'orthorhombic'
loop_
_space_group_symop_operation_xyz
x,y,z
1/2-x,-y,z
1/2+x,-y,-z
-x,y,-z
-x,-y,-z
1/2+x,y,-z
1/2-x,y,z
x,-y,z
loop_
_atom_site_type_symbol
_atom_site_label
_atom_site_fract_x
_atom_site_fract_y
_atom_site_fract_z
Si Si1 0.426468 0.595935 0.104238
Si Si2 0.572839 0.403116 0.627887
Si Si3 0.421731 0.177108 0.798565
Si Si4 0.431217 0.768726 0.934732
Si Si5 0.567001 0.903464 0.327790
Si Si6 0.067662 0.763786 0.568145
Si Si7 0.423415 0.372907 0.763390
O O1 0.250000 0.625180 0.099409
O O2 0.450665 0.500000 0.073440
O O3 0.528452 0.666440 0.066471
O O4 0.474726 0.590028 0.178878
O O5 0.750000 0.376083 0.634145
O O6 0.556348 0.500000 0.597451
O O7 0.488156 0.333576 0.582760
O O8 0.496525 0.406208 0.697820
O O9 0.250000 0.144211 0.811887
O O10 0.501187 0.183816 0.870101
O O11 0.500761 0.114081 0.745235
O O12 0.421525 0.269414 0.763489
O O13 0.250000 0.777674 0.935554
O O14 0.500000 0.811592 0.000000
O O15 0.750000 0.895599 0.324119
O O16 0.504621 0.832685 0.378753
O O17 0.515543 0.000000 0.349453
O O18 0.250000 0.764156 0.565266
O O19 0.000000 0.794826 0.500000
O O20 0.250000 0.408442 0.769777
#
# Coordination Sequence:
#
# PCOD8207134 Si02
#       7
#     8   8   8   8   8   8   8
#     4  10  20  32  46  69 103 141 185 237 289 340
#     4  11  23  37  55  81 113 152 198 244 290 338
#     4   8  15  30  52  80 109 140 181 227 274 330
#     4  10  20  33  51  73 103 142 187 234 284 345
#     4   9  17  33  61  93 119 145 184 233 284 343
#     4  11  23  40  61  86 118 155 192 234 288 344
#     4  10  18  31  52  78 109 146 189 235 285 339
#
# _framework density 20.212900999999999
#
# number of rings (size 3 to 8) (size 9 to 14) (size 15 to 20)
#    0.000    2.143    1.429    3.429    0.000    4.857 
#    0.000    0.000    0.000    1.714    0.000    0.000 
#    0.000    0.000    0.000    0.000    0.000    0.571 
#
# Total GULP energy -694032.472633 kJ/mol
# GULP energy per Si atom -12393.437011 kJ/mol
# Density = 2.016690 g / cm^3
# Si number density = 20.212901 Si / 1000 Ang^3
#
#
#
# Elastic Constant Matrix: (Units=GPa)
#
#
# Indices 1 2 3 4 5 6 
#
# 1 62.5255 19.3655 22.9139 0.0000 0.0000 0.0000
# 2 19.3655 90.9035 52.2012 0.0000 0.0000 0.0000
# 3 22.9139 52.2012 141.2158 0.0000 0.0000 0.0000
# 4 0.0000 0.0000 0.0000 7.7638 0.0000 0.0000
# 5 0.0000 0.0000 0.0000 0.0000 32.6629 0.0000
# 6 0.0000 0.0000 0.0000 0.0000 0.0000 11.6592
#
#
#
# Elastic Compliance Matrix: (Units=1/GPa)
#
#
# Indices 1 2 3 4 5 6 
#
# 1 0.017498 -0.002662 -0.001855 0.000000 0.000000 0.000000
# 2 -0.002662 0.014370 -0.004880 0.000000 0.000000 0.000000
# 3 -0.001855 -0.004880 0.009186 0.000000 0.000000 0.000000
# 4 0.000000 0.000000 0.000000 0.128804 0.000000 0.000000
# 5 0.000000 0.000000 0.000000 0.000000 0.030616 0.000000
# 6 0.000000 0.000000 0.000000 0.000000 0.000000 0.085769
#
#
# Mechanical properties :
#
#
# Convention : Reuss Voigt Hill
#
# Bulk Modulus (GPa) = 44.92469 53.73397 49.32933
# Shear Modulus (GPa) = 16.00219 23.76146 19.88182
#
# Velocity S-wave (km/s) = 2.81674 3.43236 3.13967
# Velocity P-wave (km/s) = 5.73173 6.50768 6.13199
#
# Compressibility (1/GPa) = 0.02225947
#
# Stress axis : x y z
#
# Youngs Moduli (GPa) = 57.14967 69.58844 108.85781
#
# Poissons Ratio (x) = 0.18527 0.20194
# Poissons Ratio (y) = 0.15215 0.53123
# Poissons Ratio (z) = 0.10602 0.33959
#
# Static dielectric constant tensor:
#      x y z
#    x 3.462440 0.000000 0.000000 
#    y 0.000000 3.568690 0.000000 
#    z 0.000000 0.000000 3.728820 
# 
# 
# High freq. dielectric constant tensor:
#      x y z
#    x 1.763640 0.000000 0.000000 
#    y 0.000000 1.769830 0.000000 
#    z 0.000000 0.000000 1.795410 
# 
# From -- ./inp_files/31973.got.cif
#   From: 2010.03.12/outbox.cif.g09.slc.cpg/sg51_16_cif.got.tgz:31973.got - 2010.04.16 13:43:02.
