data_PCOD8207347
_publ_section_title
;
Structure prediction by ZEFSAII (Michael W. Deem and Ramdas Pophale) SiO2 
 PCOD8207347
Probable space group: P M M A
;
_chemical_formula_sum "Si O2"
_cell_formula_units_Z 44
_cell_length_a 9.268743
_cell_length_b 13.615774
_cell_length_c 19.066256
_cell_angle_alpha 90.000000
_cell_angle_beta 90.000000
_cell_angle_gamma 90.000000
_cell_volume 2406.182670
_symmetry_space_group_name_H-M "P M M A"
_symmetry_group_IT_number 51
_symmetry_cell_setting 'orthorhombic'
loop_
_space_group_symop_operation_xyz
x,y,z
1/2-x,-y,z
1/2+x,-y,-z
-x,y,-z
-x,-y,-z
1/2+x,y,-z
1/2-x,y,z
x,-y,z
loop_
_atom_site_type_symbol
_atom_site_label
_atom_site_fract_x
_atom_site_fract_y
_atom_site_fract_z
Si Si1 0.912119 0.887946 0.153658
Si Si2 0.578310 0.500000 0.426504
Si Si3 0.079319 0.893949 0.687905
Si Si4 0.416894 0.265483 0.069469
Si Si5 0.580040 0.683304 0.333696
Si Si6 0.415114 0.611596 0.204130
O O1 0.750000 0.843394 0.149665
O O2 0.975491 0.879080 0.232554
O O3 0.017692 0.834164 0.100203
O O4 0.909180 0.000000 0.129463
O O5 0.750000 0.500000 0.436994
O O6 0.500000 0.500000 0.500000
O O7 0.524192 0.598688 0.386458
O O8 0.250000 0.902873 0.690602
O O9 0.036878 0.795914 0.642428
O O10 0.018811 0.000000 0.658081
O O11 0.250000 0.247304 0.051644
O O12 0.438499 0.351952 0.125414
O O13 0.500000 0.298726 0.000000
O O14 0.750000 0.672539 0.326440
O O15 0.514335 0.671596 0.256970
O O16 0.250000 0.624522 0.227976
O O17 0.465547 0.500000 0.206936
#
# Coordination Sequence:
#
# PCOD8207347 Si02
#       6
#     8   4   8   8   8   8
#     4   9  17  31  52  75  99 130 168 213 269 323
#     4  10  22  36  54  86 117 146 177 210 253 304
#     4   8  14  26  49  80 108 133 166 214 265 309
#     4  11  23  36  50  69  97 135 177 220 269 321
#     4  10  18  32  57  84 108 136 178 218 253 306
#     4  10  21  36  53  75 102 132 169 214 271 325
#
# _framework density 18.286227
#
# number of rings (size 3 to 8) (size 9 to 14) (size 15 to 20)
#    0.000    2.364    2.727    1.636    0.000    2.545 
#    0.000    0.000    0.000    1.091    0.000    0.000 
#    0.000    0.000    0.000    0.000    0.000    0.000 
#
# Total GULP energy -545239.684691 kJ/mol
# GULP energy per Si atom -12391.811016 kJ/mol
# Density = 1.824461 g / cm^3
# Si number density = 18.286227 Si / 1000 Ang^3
#
#
#
# Elastic Constant Matrix: (Units=GPa)
#
#
# Indices 1 2 3 4 5 6 
#
# 1 48.4158 29.9989 24.4426 0.0000 0.0000 0.0000
# 2 29.9989 156.1153 49.6878 0.0000 0.0000 0.0000
# 3 24.4426 49.6878 66.8751 0.0000 0.0000 0.0000
# 4 0.0000 0.0000 0.0000 19.2618 0.0000 0.0000
# 5 0.0000 0.0000 0.0000 0.0000 26.1831 0.0000
# 6 0.0000 0.0000 0.0000 0.0000 0.0000 16.7869
#
#
#
# Elastic Compliance Matrix: (Units=1/GPa)
#
#
# Indices 1 2 3 4 5 6 
#
# 1 0.026105 -0.002593 -0.007615 0.000000 0.000000 0.000000
# 2 -0.002593 0.008647 -0.005477 0.000000 0.000000 0.000000
# 3 -0.007615 -0.005477 0.021806 0.000000 0.000000 0.000000
# 4 0.000000 0.000000 0.000000 0.051916 0.000000 0.000000
# 5 0.000000 0.000000 0.000000 0.000000 0.038193 0.000000
# 6 0.000000 0.000000 0.000000 0.000000 0.000000 0.059570
#
#
# Mechanical properties :
#
#
# Convention : Reuss Voigt Hill
#
# Bulk Modulus (GPa) = 39.70037 53.29610 46.49824
# Shear Modulus (GPa) = 20.32495 23.59814 21.96154
#
# Velocity S-wave (km/s) = 3.33752 3.59623 3.46929
# Velocity P-wave (km/s) = 6.05059 6.81562 6.44447
#
# Compressibility (1/GPa) = 0.02518868
#
# Stress axis : x y z
#
# Youngs Moduli (GPa) = 38.30634 115.64805 45.85909
#
# Poissons Ratio (x) = 0.29984 0.34922
# Poissons Ratio (y) = 0.09932 0.25117
# Poissons Ratio (z) = 0.29171 0.63341
#
# Static dielectric constant tensor:
#      x y z
#    x 3.233860 0.000000 0.000000 
#    y 0.000000 3.912970 0.000000 
#    z 0.000000 0.000000 3.067190 
# 
# 
# High freq. dielectric constant tensor:
#      x y z
#    x 1.687350 0.000000 0.000000 
#    y 0.000000 1.730750 0.000000 
#    z 0.000000 0.000000 1.671530 
# 
# From -- ./inp_files/27379.got.cif
#   From: 2010.03.12/outbox.cif.g09.slc.cpg/sg51_14_cif.got.tgz:27379.got - 2010.04.16 13:43:02.
