data_PCOD8207922
_publ_section_title
;
Structure prediction by ZEFSAII (Michael W. Deem and Ramdas Pophale) SiO2 
 PCOD8207922
Probable space group: P M M A
;
_chemical_formula_sum "Si O2"
_cell_formula_units_Z 64
_cell_length_a 9.276939
_cell_length_b 28.240743
_cell_length_c 14.818181
_cell_angle_alpha 90.000000
_cell_angle_beta 90.000000
_cell_angle_gamma 90.000000
_cell_volume 3882.180419
_symmetry_space_group_name_H-M "P M M A"
_symmetry_group_IT_number 51
_symmetry_cell_setting 'orthorhombic'
loop_
_space_group_symop_operation_xyz
x,y,z
1/2-x,-y,z
1/2+x,-y,-z
-x,y,-z
-x,-y,-z
1/2+x,y,-z
1/2-x,y,z
x,-y,z
loop_
_atom_site_type_symbol
_atom_site_label
_atom_site_fract_x
_atom_site_fract_y
_atom_site_fract_z
Si Si1 0.918431 0.876593 0.411753
Si Si2 0.916220 0.083387 0.911733
Si Si3 0.416441 0.768059 0.587640
Si Si4 0.081262 0.739253 0.782783
Si Si5 0.918503 0.347294 0.094230
Si Si6 0.583194 0.194502 0.910950
Si Si7 0.083272 0.450059 0.907833
Si Si8 0.414136 0.946856 0.742922
O O1 0.750000 0.883029 0.428846
O O2 0.959540 0.822263 0.390257
O O3 0.971578 0.909506 0.330247
O O4 0.000000 0.894608 0.500000
O O5 0.750000 0.069431 0.922282
O O6 0.936942 0.139047 0.896736
O O7 0.982983 0.055578 0.828587
O O8 0.000000 0.066171 0.000000
O O9 0.500000 0.748513 0.500000
O O10 0.250000 0.764282 0.562684
O O11 0.453921 0.736641 0.675875
O O12 0.250000 0.750746 0.797310
O O13 0.034430 0.690167 0.829783
O O14 0.987558 0.781286 0.824393
O O15 0.750000 0.342377 0.072608
O O16 0.956147 0.399430 0.137889
O O17 0.000000 0.338015 0.000000
O O18 0.750000 0.209026 0.920409
O O19 0.500000 0.212458 0.000000
O O20 0.250000 0.449005 0.932636
O O21 0.048863 0.500000 0.853389
O O22 0.000000 0.452264 0.000000
O O23 0.250000 0.934194 0.771118
O O24 0.422380 0.000000 0.702990
#
# Coordination Sequence:
#
# PCOD8207922 Si02
#       8
#     8   8   8   8   8   8   8   8
#     4   9  18  33  52  72  93 116 142 173 212 259
#     4  10  21  36  53  71  91 118 152 187 219 253
#     4   9  18  32  49  67  87 113 144 179 218 261
#     4  10  19  30  45  65  91 121 149 181 224 268
#     4   9  17  27  39  59  88 120 153 186 220 261
#     4  10  20  32  47  68  92 119 151 183 215 256
#     4   8  13  22  36  53  76 110 150 188 222 255
#     4  10  21  36  53  73  96 120 145 175 214 260
#
# _framework density 16.485581
#
# number of rings (size 3 to 8) (size 9 to 14) (size 15 to 20)
#    0.000    2.625    0.000    1.875    0.000    5.750 
#    0.000    2.500    0.000    0.000    0.000    0.000 
#    0.000    0.500    0.000    0.375    0.000    1.000 
#
# Total GULP energy -793223.702866 kJ/mol
# GULP energy per Si atom -12394.120357 kJ/mol
# Density = 1.644806 g / cm^3
# Si number density = 16.485581 Si / 1000 Ang^3
#
#
#
# Elastic Constant Matrix: (Units=GPa)
#
#
# Indices 1 2 3 4 5 6 
#
# 1 54.5568 27.2952 38.9720 0.0000 0.0000 0.0000
# 2 27.2952 74.7767 49.7862 0.0000 0.0000 0.0000
# 3 38.9720 49.7862 106.8424 0.0000 0.0000 0.0000
# 4 0.0000 0.0000 0.0000 10.8654 0.0000 0.0000
# 5 0.0000 0.0000 0.0000 0.0000 28.3862 0.0000
# 6 0.0000 0.0000 0.0000 0.0000 0.0000 16.1525
#
#
#
# Elastic Compliance Matrix: (Units=1/GPa)
#
#
# Indices 1 2 3 4 5 6 
#
# 1 0.025824 -0.004574 -0.007288 0.000000 0.000000 0.000000
# 2 -0.004574 0.020198 -0.007744 0.000000 0.000000 0.000000
# 3 -0.007288 -0.007744 0.015626 0.000000 0.000000 0.000000
# 4 0.000000 0.000000 0.000000 0.092035 0.000000 0.000000
# 5 0.000000 0.000000 0.000000 0.000000 0.035228 0.000000
# 6 0.000000 0.000000 0.000000 0.000000 0.000000 0.061910
#
#
# Mechanical properties :
#
#
# Convention : Reuss Voigt Hill
#
# Bulk Modulus (GPa) = 44.56849 52.03141 48.29995
# Shear Modulus (GPa) = 16.80597 19.08899 17.94748
#
# Velocity S-wave (km/s) = 3.19632 3.40651 3.30309
# Velocity P-wave (km/s) = 6.38087 6.86314 6.62640
#
# Compressibility (1/GPa) = 0.02243737
#
# Stress axis : x y z
#
# Youngs Moduli (GPa) = 38.72334 49.50883 63.99397
#
# Poissons Ratio (x) = 0.22644 0.46641
# Poissons Ratio (y) = 0.17711 0.49555
# Poissons Ratio (z) = 0.28223 0.38338
#
# Static dielectric constant tensor:
#      x y z
#    x 3.104260 0.000000 0.000000 
#    y 0.000000 3.469830 0.000000 
#    z 0.000000 0.000000 2.943770 
# 
# 
# High freq. dielectric constant tensor:
#      x y z
#    x 1.638320 0.000000 0.000000 
#    y 0.000000 1.629990 0.000000 
#    z 0.000000 0.000000 1.606990 
# 
# From -- ./inp_files/22569.got.cif
#   From: 2010.03.12/outbox.cif.g09.slc.cpg/sg51_12_cif.got.tgz:22569.got - 2010.04.16 13:43:02.
