data_PCOD8207182
_publ_section_title
;
Structure prediction by ZEFSAII (Michael W. Deem and Ramdas Pophale) SiO2 
 PCOD8207182
Probable space group: P M M A
;
_chemical_formula_sum "Si O2"
_cell_formula_units_Z 64
_cell_length_a 17.196636
_cell_length_b 17.279149
_cell_length_c 11.984768
_cell_angle_alpha 90.000000
_cell_angle_beta 90.000000
_cell_angle_gamma 90.000000
_cell_volume 3561.192743
_symmetry_space_group_name_H-M "P M M A"
_symmetry_group_IT_number 51
_symmetry_cell_setting 'orthorhombic'
loop_
_space_group_symop_operation_xyz
x,y,z
1/2-x,-y,z
1/2+x,-y,-z
-x,y,-z
-x,-y,-z
1/2+x,y,-z
1/2-x,y,z
x,-y,z
loop_
_atom_site_type_symbol
_atom_site_label
_atom_site_fract_x
_atom_site_fract_y
_atom_site_fract_z
Si Si1 0.436189 0.736020 0.246642
Si Si2 0.837616 0.795997 0.554879
Si Si3 0.393972 0.208020 0.797953
Si Si4 0.835535 0.669697 0.373183
Si Si5 0.080347 0.414216 0.950392
Si Si6 0.839367 0.730292 0.976691
Si Si7 0.975363 0.586069 0.295045
Si Si8 0.657837 0.912624 0.366833
O O1 0.395591 0.786299 0.342329
O O2 0.515344 0.777392 0.215123
O O3 0.453649 0.647491 0.288029
O O4 0.381600 0.739979 0.140194
O O5 0.750000 0.814770 0.596976
O O6 0.837258 0.716375 0.487633
O O7 0.869966 0.864828 0.475776
O O8 0.345338 0.272590 0.731389
O O9 0.372424 0.211582 0.928876
O O10 0.375331 0.123832 0.747538
O O11 0.750000 0.629593 0.360853
O O12 0.907783 0.609892 0.382858
O O13 0.096254 0.500000 0.999751
O O14 0.150482 0.358510 0.983861
O O15 0.072986 0.416160 0.818740
O O16 0.000000 0.380058 0.000000
O O17 0.750000 0.748709 0.956966
O O18 0.008129 0.500000 0.323882
O O19 0.750000 0.909108 0.359646
O O20 0.626746 0.000000 0.377193
#
# Coordination Sequence:
#
# PCOD8207182 Si02
#       8
#     8   8   8   8   8   8   8   8
#     4  11  21  35  52  73 105 147 182 219 262 310
#     4   9  19  36  55  77 104 138 178 215 255 314
#     4  10  19  32  53  80 108 133 171 214 264 312
#     4   9  17  31  50  72 101 131 170 224 270 308
#     4  10  18  32  49  70 103 137 170 218 276 322
#     4  12  21  32  52  77 104 138 180 222 265 318
#     4  10  20  31  50  73  99 136 177 224 277 323
#     4   9  18  35  61  89 114 138 165 208 263 312
#
# _framework density 17.971508
#
# number of rings (size 3 to 8) (size 9 to 14) (size 15 to 20)
#    0.000    2.000    3.750    2.625    0.000    5.000 
#    0.000    3.750    0.000    4.125    0.000    1.750 
#    0.000    0.000    0.000    0.000    0.000    0.000 
#
# Total GULP energy -793370.169995 kJ/mol
# GULP energy per Si atom -12396.408906 kJ/mol
# Density = 1.793060 g / cm^3
# Si number density = 17.971508 Si / 1000 Ang^3
#
#
#
# Elastic Constant Matrix: (Units=GPa)
#
#
# Indices 1 2 3 4 5 6 
#
# 1 102.5698 38.6768 51.4869 0.0000 0.0000 0.0000
# 2 38.6768 110.0984 47.9531 0.0000 0.0000 0.0000
# 3 51.4869 47.9531 80.8577 0.0000 0.0000 0.0000
# 4 0.0000 0.0000 0.0000 16.6529 0.0000 0.0000
# 5 0.0000 0.0000 0.0000 0.0000 29.7545 0.0000
# 6 0.0000 0.0000 0.0000 0.0000 0.0000 18.0812
#
#
#
# Elastic Compliance Matrix: (Units=1/GPa)
#
#
# Indices 1 2 3 4 5 6 
#
# 1 0.014498 -0.001446 -0.008375 0.000000 0.000000 0.000000
# 2 -0.001446 0.012390 -0.006428 0.000000 0.000000 0.000000
# 3 -0.008375 -0.006428 0.021512 0.000000 0.000000 0.000000
# 4 0.000000 0.000000 0.000000 0.060050 0.000000 0.000000
# 5 0.000000 0.000000 0.000000 0.000000 0.033608 0.000000
# 6 0.000000 0.000000 0.000000 0.000000 0.000000 0.055306
#
#
# Mechanical properties :
#
#
# Convention : Reuss Voigt Hill
#
# Bulk Modulus (GPa) = 62.87393 63.30662 63.09028
# Shear Modulus (GPa) = 21.26197 23.25832 22.26015
#
# Velocity S-wave (km/s) = 3.44334 3.60137 3.52324
# Velocity P-wave (km/s) = 7.13233 7.25229 7.19256
#
# Compressibility (1/GPa) = 0.01590484
#
# Stress axis : x y z
#
# Youngs Moduli (GPa) = 68.97318 80.70957 46.48591
#
# Poissons Ratio (x) = 0.11668 0.38930
# Poissons Ratio (y) = 0.09971 0.29879
# Poissons Ratio (z) = 0.57763 0.51876
#
# Static dielectric constant tensor:
#      x y z
#    x 3.331870 0.000000 0.000000 
#    y 0.000000 3.435130 0.000000 
#    z 0.000000 0.000000 3.312640 
# 
# 
# High freq. dielectric constant tensor:
#      x y z
#    x 1.691250 0.000000 0.000000 
#    y 0.000000 1.668040 0.000000 
#    z 0.000000 0.000000 1.690420 
# 
# From -- ./inp_files/16830.got.cif
#   From: 2010.03.12/outbox.cif.g09.slc.cpg/sg51_9_cif.got.tgz:16830.got - 2010.04.16 13:43:02.
