data_PCOD8207344
_publ_section_title
;
Structure prediction by ZEFSAII (Michael W. Deem and Ramdas Pophale) SiO2 
 PCOD8207344
Probable space group: P M M A
;
_chemical_formula_sum "Si O2"
_cell_formula_units_Z 40
_cell_length_a 8.609149
_cell_length_b 10.636555
_cell_length_c 19.412704
_cell_angle_alpha 90.000000
_cell_angle_beta 90.000000
_cell_angle_gamma 90.000000
_cell_volume 1777.654051
_symmetry_space_group_name_H-M "P M M A"
_symmetry_group_IT_number 51
_symmetry_cell_setting 'orthorhombic'
loop_
_space_group_symop_operation_xyz
x,y,z
1/2-x,-y,z
1/2+x,-y,-z
-x,y,-z
-x,-y,-z
1/2+x,y,-z
1/2-x,y,z
x,-y,z
loop_
_atom_site_type_symbol
_atom_site_label
_atom_site_fract_x
_atom_site_fract_y
_atom_site_fract_z
Si Si1 0.565227 0.000000 0.923452
Si Si2 0.931233 0.360372 0.796081
Si Si3 0.933242 0.256266 0.075538
Si Si4 0.065227 0.500000 0.576548
Si Si5 0.931233 0.139628 0.296081
Si Si6 0.566758 0.243734 0.575538
O O1 0.498360 0.126890 0.889838
O O2 0.750000 0.000000 0.921661
O O3 0.500000 0.000000 0.000000
O O4 0.750000 0.335042 0.805415
O O5 0.961492 0.500000 0.764112
O O6 0.012461 0.362570 0.871293
O O7 1.000000 0.250000 0.750000
O O8 0.750000 0.249086 0.069513
O O9 0.000000 0.284460 0.000000
O O10 0.250000 0.500000 0.578339
O O11 0.000000 0.500000 0.500000
O O12 0.998360 0.626890 0.610162
O O13 0.750000 0.164958 0.305414
O O14 0.012461 0.137430 0.371293
O O15 0.961492 0.000000 0.264112
O O16 0.500000 0.215540 0.500000
O O17 0.750000 0.250914 0.569513
#
# Coordination Sequence:
#
# PCOD8207344 Si02
#       6
#     4   8   8   4   8   8
#     4  10  18  32  56  90 130 170 213 264 323 386
#     4  11  26  47  70  98 134 177 225 275 334 402
#     4  11  22  39  65  97 134 174 222 275 334 395
#     4  10  18  32  56  90 130 170 213 264 323 386
#     4  11  26  47  70  98 134 177 225 275 334 402
#     4  11  22  39  65  97 134 174 222 275 334 395
#
# _framework density 22.501566
#
# number of rings (size 3 to 8) (size 9 to 14) (size 15 to 20)
#    0.000    1.200    0.000    9.000    2.800    4.000 
#    0.000    0.000    0.000    0.000    0.000    0.000 
#    0.000    0.000    0.000    0.000    0.000    0.000 
#
# Total GULP energy -495899.719372 kJ/mol
# GULP energy per Si atom -12397.492984 kJ/mol
# Density = 2.245035 g / cm^3
# Si number density = 22.501566 Si / 1000 Ang^3
#
#
#
# Elastic Constant Matrix: (Units=GPa)
#
#
# Indices 1 2 3 4 5 6 
#
# 1 223.5911 66.8706 50.2490 0.0000 0.0000 0.0000
# 2 66.8706 125.3174 59.5275 0.0000 0.0000 0.0000
# 3 50.2490 59.5275 104.9713 0.0000 0.0000 0.0000
# 4 0.0000 0.0000 0.0000 36.2969 0.0000 0.0000
# 5 0.0000 0.0000 0.0000 0.0000 39.7882 0.0000
# 6 0.0000 0.0000 0.0000 0.0000 0.0000 34.3985
#
#
#
# Elastic Compliance Matrix: (Units=1/GPa)
#
#
# Indices 1 2 3 4 5 6 
#
# 1 0.005451 -0.002285 -0.001314 0.000000 0.000000 0.000000
# 2 -0.002285 0.011879 -0.005643 0.000000 0.000000 0.000000
# 3 -0.001314 -0.005643 0.013355 0.000000 0.000000 0.000000
# 4 0.000000 0.000000 0.000000 0.027551 0.000000 0.000000
# 5 0.000000 0.000000 0.000000 0.000000 0.025133 0.000000
# 6 0.000000 0.000000 0.000000 0.000000 0.000000 0.029071
#
#
# Mechanical properties :
#
#
# Convention : Reuss Voigt Hill
#
# Bulk Modulus (GPa) = 81.94738 89.68601 85.81669
# Shear Modulus (GPa) = 37.03962 40.57889 38.80926
#
# Velocity S-wave (km/s) = 4.06161 4.25123 4.15750
# Velocity P-wave (km/s) = 7.64808 8.00259 7.82734
#
# Compressibility (1/GPa) = 0.01220295
#
# Stress axis : x y z
#
# Youngs Moduli (GPa) = 183.45328 84.18000 74.87655
#
# Poissons Ratio (x) = 0.19232 0.09837
# Poissons Ratio (y) = 0.41912 0.42252
# Poissons Ratio (z) = 0.24101 0.47502
#
# Static dielectric constant tensor:
#      x y z
#    x 3.996980 0.000000 0.000000 
#    y 0.000000 4.787190 0.000000 
#    z 0.000000 0.000000 3.971030 
# 
# 
# High freq. dielectric constant tensor:
#      x y z
#    x 1.901570 0.000000 0.000000 
#    y 0.000000 1.894290 0.000000 
#    z 0.000000 0.000000 1.880930 
# 
# From -- ./inp_files/27074.got.cif
#   From: 2010.03.12/outbox.cif.g09.slc.cpg/sg51_14_cif.got.tgz:27074.got - 2010.04.16 13:43:02.
