data_PCOD8207310
_publ_section_title
;
Structure prediction by ZEFSAII (Michael W. Deem and Ramdas Pophale) SiO2 
 PCOD8207310
Probable space group: P M M A
;
_chemical_formula_sum "Si O2"
_cell_formula_units_Z 56
_cell_length_a 19.790628
_cell_length_b 16.329197
_cell_length_c 9.791848
_cell_angle_alpha 90.000000
_cell_angle_beta 90.000000
_cell_angle_gamma 90.000000
_cell_volume 3164.383179
_symmetry_space_group_name_H-M "P M M A"
_symmetry_group_IT_number 51
_symmetry_cell_setting 'orthorhombic'
loop_
_space_group_symop_operation_xyz
x,y,z
1/2-x,-y,z
1/2+x,-y,-z
-x,y,-z
-x,-y,-z
1/2+x,y,-z
1/2-x,y,z
x,-y,z
loop_
_atom_site_type_symbol
_atom_site_label
_atom_site_fract_x
_atom_site_fract_y
_atom_site_fract_z
Si Si1 0.171651 0.832858 0.866487
Si Si2 0.673652 0.409387 0.713636
Si Si3 0.172569 0.752172 0.143161
Si Si4 0.422285 0.590914 0.539493
Si Si5 0.564078 0.826742 0.660934
Si Si6 0.922755 0.237241 0.357093
Si Si7 0.966398 0.000000 0.775298
Si Si8 0.103681 0.000000 0.933919
O O1 0.250000 0.831641 0.830667
O O2 0.133459 0.806014 0.731626
O O3 0.150755 0.922414 0.913085
O O4 0.152827 0.769938 0.987392
O O5 0.750000 0.401562 0.655693
O O6 0.660915 0.500000 0.774506
O O7 0.661321 0.344702 0.834345
O O8 0.622355 0.390638 0.592636
O O9 0.250000 0.778333 0.171816
O O10 0.126722 0.804033 0.244746
O O11 0.500000 0.595122 0.500000
O O12 0.405059 0.500000 0.599963
O O13 0.407597 0.664929 0.643543
O O14 0.581556 0.804685 0.505468
O O15 0.497169 0.776723 0.706594
O O16 0.549232 0.922736 0.679211
O O17 0.044128 0.000000 0.822562
O O18 0.921544 0.000000 0.911040
#
# Coordination Sequence:
#
# PCOD8207310 Si02
#       8
#     8   8   8   8   8   8   4   4
#     4  11  24  39  58  83 117 153 186 234 290 344
#     4   9  17  31  55  83 109 143 191 238 275 324
#     4  10  20  36  57  82 111 149 191 231 278 335
#     4  10  18  32  55  84 115 147 186 232 281 332
#     4  11  21  38  58  85 112 144 191 235 279 333
#     4  11  22  36  57  87 117 150 184 229 292 341
#     4  11  22  36  64  88 109 145 193 244 276 334
#     4  11  21  39  61  87 109 146 195 236 289 334
#
# _framework density 17.696971000000001
#
# number of rings (size 3 to 8) (size 9 to 14) (size 15 to 20)
#    0.000    1.571    5.714    0.214    0.000    3.429 
#    0.000    1.071    0.000    0.857    0.000    5.000 
#    0.000    0.000    0.000    0.000    0.000    0.000 
#
# Total GULP energy -694324.338520 kJ/mol
# GULP energy per Si atom -12398.648902 kJ/mol
# Density = 1.765669 g / cm^3
# Si number density = 17.696971 Si / 1000 Ang^3
#
#
#
# Elastic Constant Matrix: (Units=GPa)
#
#
# Indices 1 2 3 4 5 6 
#
# 1 97.1760 41.9028 58.1652 0.0000 0.0000 0.0000
# 2 41.9028 142.7965 46.0169 0.0000 0.0000 0.0000
# 3 58.1652 46.0169 64.2402 0.0000 0.0000 0.0000
# 4 0.0000 0.0000 0.0000 25.7858 0.0000 0.0000
# 5 0.0000 0.0000 0.0000 0.0000 28.2370 0.0000
# 6 0.0000 0.0000 0.0000 0.0000 0.0000 21.2942
#
#
#
# Elastic Compliance Matrix: (Units=1/GPa)
#
#
# Indices 1 2 3 4 5 6 
#
# 1 0.022466 -0.000049 -0.020307 0.000000 0.000000 0.000000
# 2 -0.000049 0.009105 -0.006478 0.000000 0.000000 0.000000
# 3 -0.020307 -0.006478 0.038594 0.000000 0.000000 0.000000
# 4 0.000000 0.000000 0.000000 0.038781 0.000000 0.000000
# 5 0.000000 0.000000 0.000000 0.000000 0.035415 0.000000
# 6 0.000000 0.000000 0.000000 0.000000 0.000000 0.046961
#
#
# Mechanical properties :
#
#
# Convention : Reuss Voigt Hill
#
# Bulk Modulus (GPa) = 60.61502 66.26471 63.43986
# Shear Modulus (GPa) = 19.96105 25.60527 22.78316
#
# Velocity S-wave (km/s) = 3.36212 3.80790 3.59193
# Velocity P-wave (km/s) = 7.02836 7.54048 7.28892
#
# Compressibility (1/GPa) = 0.01649756
#
# Stress axis : x y z
#
# Youngs Moduli (GPa) = 44.51082 109.83217 25.91104
#
# Poissons Ratio (x) = 0.00534 0.52618
# Poissons Ratio (y) = 0.00216 0.16785
# Poissons Ratio (z) = 0.90388 0.71149
#
# Static dielectric constant tensor:
#      x y z
#    x 3.409980 0.000000 0.000000 
#    y 0.000000 3.643940 0.000000 
#    z 0.000000 0.000000 3.068740 
# 
# 
# High freq. dielectric constant tensor:
#      x y z
#    x 1.695230 0.000000 0.000000 
#    y 0.000000 1.702680 0.000000 
#    z 0.000000 0.000000 1.657870 
# 
# From -- ./inp_files/11063.got.cif
#   From: 2010.03.12/outbox.cif.g09.slc.cpg/sg51_6_cif.got.tgz:11063.got - 2010.04.16 13:43:02.
