data_PCOD8207005
_publ_section_title
;
Structure prediction by ZEFSAII (Michael W. Deem and Ramdas Pophale) SiO2 
 PCOD8207005
Probable space group: P M M A
;
_chemical_formula_sum "Si O2"
_cell_formula_units_Z 40
_cell_length_a 8.773219
_cell_length_b 25.338058
_cell_length_c 9.472351
_cell_angle_alpha 90.000000
_cell_angle_beta 90.000000
_cell_angle_gamma 90.000000
_cell_volume 2105.668881
_symmetry_space_group_name_H-M "P M M A"
_symmetry_group_IT_number 51
_symmetry_cell_setting 'orthorhombic'
loop_
_space_group_symop_operation_xyz
x,y,z
1/2-x,-y,z
1/2+x,-y,-z
-x,y,-z
-x,-y,-z
1/2+x,y,-z
1/2-x,y,z
x,-y,z
loop_
_atom_site_type_symbol
_atom_site_label
_atom_site_fract_x
_atom_site_fract_y
_atom_site_fract_z
Si Si1 0.568542 0.500000 0.155881
Si Si2 0.071039 0.091158 0.854401
Si Si3 0.571108 0.295565 0.652290
Si Si4 0.930071 0.788666 0.148604
Si Si5 0.930138 0.000000 0.347819
Si Si6 0.570881 0.394504 0.847099
O O1 0.750000 0.500000 0.156809
O O2 0.504628 0.446370 0.226687
O O3 0.500000 0.500000 0.000000
O O4 0.250000 0.086722 0.871739
O O5 0.021757 0.151027 0.820043
O O6 0.011566 0.052561 0.731791
O O7 0.000000 0.071437 0.000000
O O8 0.500000 0.304806 0.500000
O O9 0.750000 0.286323 0.637851
O O10 0.497288 0.244436 0.723021
O O11 0.531731 0.346141 0.746313
O O12 0.750000 0.780959 0.140617
O O13 0.000000 0.769362 0.000000
O O14 0.000000 0.000000 0.500000
O O15 0.750000 0.000000 0.360088
O O16 0.750000 0.403748 0.865344
O O17 0.500000 0.382604 0.000000
#
# Coordination Sequence:
#
# PCOD8207005 Si02
#       6
#     4   8   8   8   4   8
#     4  10  18  30  53  82 109 138 174 218 266 312
#     4   9  19  35  56  81 107 138 177 222 268 317
#     4  11  24  39  56  79 109 146 183 223 272 324
#     4  10  20  36  58  83 110 140 179 225 272 323
#     4  10  21  36  52  76 110 144 181 220 264 318
#     4  10  20  35  56  81 108 139 177 220 266 316
#
# _framework density 18.996337
#
# number of rings (size 3 to 8) (size 9 to 14) (size 15 to 20)
#    0.000    2.000    0.000    4.800    0.000    7.200 
#    0.000    2.500    0.000    0.000    0.000    0.000 
#    0.000    0.000    0.000    0.000    0.000    0.000 
#
# Total GULP energy -496059.338424 kJ/mol
# GULP energy per Si atom -12401.483461 kJ/mol
# Density = 1.895310 g / cm^3
# Si number density = 18.996337 Si / 1000 Ang^3
#
#
#
# Elastic Constant Matrix: (Units=GPa)
#
#
# Indices 1 2 3 4 5 6 
#
# 1 87.7544 58.9791 55.2270 0.0000 0.0000 0.0000
# 2 58.9791 133.6332 82.4415 0.0000 0.0000 0.0000
# 3 55.2270 82.4415 137.6687 0.0000 0.0000 0.0000
# 4 0.0000 0.0000 0.0000 9.3255 0.0000 0.0000
# 5 0.0000 0.0000 0.0000 0.0000 34.8020 0.0000
# 6 0.0000 0.0000 0.0000 0.0000 0.0000 28.5555
#
#
#
# Elastic Compliance Matrix: (Units=1/GPa)
#
#
# Indices 1 2 3 4 5 6 
#
# 1 0.017351 -0.005335 -0.003766 0.000000 0.000000 0.000000
# 2 -0.005335 0.013508 -0.005949 0.000000 0.000000 0.000000
# 3 -0.003766 -0.005949 0.012337 0.000000 0.000000 0.000000
# 4 0.000000 0.000000 0.000000 0.107232 0.000000 0.000000
# 5 0.000000 0.000000 0.000000 0.000000 0.028734 0.000000
# 6 0.000000 0.000000 0.000000 0.000000 0.000000 0.035019
#
#
# Mechanical properties :
#
#
# Convention : Reuss Voigt Hill
#
# Bulk Modulus (GPa) = 76.35501 83.59461 79.97481
# Shear Modulus (GPa) = 20.10897 25.36386 22.73642
#
# Velocity S-wave (km/s) = 3.25710 3.65800 3.46335
# Velocity P-wave (km/s) = 7.37745 7.87035 7.62788
#
# Compressibility (1/GPa) = 0.01309672
#
# Stress axis : x y z
#
# Youngs Moduli (GPa) = 57.63447 74.03257 81.05725
#
# Poissons Ratio (x) = 0.39493 0.30525
# Poissons Ratio (y) = 0.30745 0.48220
# Poissons Ratio (z) = 0.21704 0.44041
#
# Static dielectric constant tensor:
#      x y z
#    x 3.521480 0.000000 0.000000 
#    y 0.000000 4.027950 0.000000 
#    z 0.000000 0.000000 3.244150 
# 
# 
# High freq. dielectric constant tensor:
#      x y z
#    x 1.747950 0.000000 0.000000 
#    y 0.000000 1.758140 0.000000 
#    z 0.000000 0.000000 1.719450 
# 
# From -- ./inp_files/5617.got.cif
#   From: 2010.03.12/outbox.cif.g09.slc.cpg/sg51_3_cif.got.tgz:5617.got - 2010.04.16 13:43:02.
