data_PCOD8207012
_publ_section_title
;
Structure prediction by ZEFSAII (Michael W. Deem and Ramdas Pophale) SiO2 
 PCOD8207012
Probable space group: P M M A
;
_chemical_formula_sum "Si O2"
_cell_formula_units_Z 48
_cell_length_a 8.798048
_cell_length_b 31.034457
_cell_length_c 9.097919
_cell_angle_alpha 90.000000
_cell_angle_beta 90.000000
_cell_angle_gamma 90.000000
_cell_volume 2484.119844
_symmetry_space_group_name_H-M "P M M A"
_symmetry_group_IT_number 51
_symmetry_cell_setting 'orthorhombic'
loop_
_space_group_symop_operation_xyz
x,y,z
1/2-x,-y,z
1/2+x,-y,-z
-x,y,-z
-x,-y,-z
1/2+x,y,-z
1/2-x,y,z
x,-y,z
loop_
_atom_site_type_symbol
_atom_site_label
_atom_site_fract_x
_atom_site_fract_y
_atom_site_fract_z
Si Si1 0.072410 0.253172 0.341490
Si Si2 0.074829 0.000000 0.654874
Si Si3 0.071848 0.585788 0.658457
Si Si4 0.570687 0.093486 0.338462
Si Si5 0.569001 0.500000 0.662235
Si Si6 0.072520 0.831230 0.156118
Si Si7 0.427572 0.670492 0.841062
O O1 0.250000 0.262048 0.356755
O O2 0.036521 0.208830 0.260055
O O3 0.000000 0.249844 0.500000
O O4 0.999325 0.292084 0.254283
O O5 0.032366 0.954286 0.731272
O O6 0.000000 0.000000 0.500000
O O7 0.250000 0.000000 0.620615
O O8 0.250000 0.577520 0.637108
O O9 0.036749 0.625275 0.764576
O O10 0.000000 0.595810 0.500000
O O11 0.994844 0.543793 0.735987
O O12 0.500000 0.099620 0.500000
O O13 0.750000 0.101500 0.351762
O O14 0.500341 0.126360 0.224275
O O15 0.750000 0.500000 0.663168
O O16 0.500000 0.500000 0.500000
O O17 0.250000 0.839093 0.135942
O O18 0.000000 0.820875 0.000000
O O19 0.250000 0.679293 0.855772
O O20 0.500000 0.670157 0.000000
#
# Coordination Sequence:
#
# PCOD8207012 Si02
#       7
#     8   4   8   8   4   8   8
#     4  11  24  41  63  88 115 146 185 231 278 331
#     4   8  16  30  51  80 111 144 184 230 280 328
#     4  10  20  35  56  83 113 147 187 233 280 330
#     4  10  19  34  57  84 114 148 188 234 280 332
#     4  10  18  30  53  82 111 146 186 232 280 328
#     4  11  24  40  58  83 114 150 188 230 281 336
#     4  11  24  40  60  85 116 152 189 231 282 337
#
# _framework density 19.322738000000001
#
# number of rings (size 3 to 8) (size 9 to 14) (size 15 to 20)
#    0.000    1.667    0.000    5.750    0.000   10.000 
#    0.000    0.833    0.000    0.000    0.000    0.000 
#    0.000    0.000    0.000    0.000    0.000    0.000 
#
# Total GULP energy -595093.862850 kJ/mol
# GULP energy per Si atom -12397.788809 kJ/mol
# Density = 1.927876 g / cm^3
# Si number density = 19.322738 Si / 1000 Ang^3
#
#
#
# Elastic Constant Matrix: (Units=GPa)
#
#
# Indices 1 2 3 4 5 6 
#
# 1 131.0407 106.3890 75.8938 0.0000 0.0000 0.0000
# 2 106.3890 168.2093 74.4740 0.0000 0.0000 0.0000
# 3 75.8938 74.4740 128.2718 0.0000 0.0000 0.0000
# 4 0.0000 0.0000 0.0000 41.5197 0.0000 0.0000
# 5 0.0000 0.0000 0.0000 0.0000 32.2050 0.0000
# 6 0.0000 0.0000 0.0000 0.0000 0.0000 29.3473
#
#
#
# Elastic Compliance Matrix: (Units=1/GPa)
#
#
# Indices 1 2 3 4 5 6 
#
# 1 0.018164 -0.009059 -0.005487 0.000000 0.000000 0.000000
# 2 -0.009059 0.012520 -0.001909 0.000000 0.000000 0.000000
# 3 -0.005487 -0.001909 0.012151 0.000000 0.000000 0.000000
# 4 0.000000 0.000000 0.000000 0.024085 0.000000 0.000000
# 5 0.000000 0.000000 0.000000 0.000000 0.031051 0.000000
# 6 0.000000 0.000000 0.000000 0.000000 0.000000 0.034075
#
#
# Mechanical properties :
#
#
# Convention : Reuss Voigt Hill
#
# Bulk Modulus (GPa) = 100.76557 104.55946 102.66252
# Shear Modulus (GPa) = 29.71514 31.99875 30.85694
#
# Velocity S-wave (km/s) = 3.92578 4.07383 4.00049
# Velocity P-wave (km/s) = 8.53293 8.73829 8.63622
#
# Compressibility (1/GPa) = 0.00992402
#
# Stress axis : x y z
#
# Youngs Moduli (GPa) = 55.05399 79.87382 82.29685
#
# Poissons Ratio (x) = 0.72356 0.45160
# Poissons Ratio (y) = 0.49872 0.15712
# Poissons Ratio (z) = 0.30211 0.15249
#
# Static dielectric constant tensor:
#      x y z
#    x 3.823430 0.000000 0.000000 
#    y 0.000000 4.088630 0.000000 
#    z 0.000000 0.000000 3.290010 
# 
# 
# High freq. dielectric constant tensor:
#      x y z
#    x 1.771950 0.000000 0.000000 
#    y 0.000000 1.780750 0.000000 
#    z 0.000000 0.000000 1.730680 
# 
# From -- ./inp_files/6129.got.cif
#   From: 2010.03.12/outbox.cif.g09.slc.cpg/sg51_4_cif.got.tgz:6129.got - 2010.04.16 13:43:02.
