data_PCOD8207331
_publ_section_title
;
Structure prediction by ZEFSAII (Michael W. Deem and Ramdas Pophale) SiO2 
 PCOD8207331
Probable space group: P M M A
;
_chemical_formula_sum "Si O2"
_cell_formula_units_Z 48
_cell_length_a 8.940781
_cell_length_b 14.293381
_cell_length_c 20.692101
_cell_angle_alpha 90.000000
_cell_angle_beta 90.000000
_cell_angle_gamma 90.000000
_cell_volume 2644.326133
_symmetry_space_group_name_H-M "P M M A"
_symmetry_group_IT_number 51
_symmetry_cell_setting 'orthorhombic'
loop_
_space_group_symop_operation_xyz
x,y,z
1/2-x,-y,z
1/2+x,-y,-z
-x,y,-z
-x,-y,-z
1/2+x,y,-z
1/2-x,y,z
x,-y,z
loop_
_atom_site_type_symbol
_atom_site_label
_atom_site_fract_x
_atom_site_fract_y
_atom_site_fract_z
Si Si1 0.423438 0.606643 0.878524
Si Si2 0.576711 0.792351 0.682711
Si Si3 0.072887 0.778690 0.065178
Si Si4 0.420058 0.395755 0.254513
Si Si5 0.425601 0.893303 0.566384
Si Si6 0.427564 0.105018 0.187966
O O1 0.250000 0.632076 0.885769
O O2 0.456388 0.500000 0.898869
O O3 0.519714 0.672013 0.925432
O O4 0.469718 0.623365 0.804525
O O5 0.750000 0.816619 0.670097
O O6 0.550472 0.680734 0.689831
O O7 0.480009 0.826321 0.623002
O O8 0.517407 0.842937 0.747504
O O9 0.250000 0.782001 0.058881
O O10 0.012792 0.840649 0.124974
O O11 0.000000 0.819789 0.000000
O O12 0.250000 0.384004 0.228442
O O13 0.445182 0.500000 0.283469
O O14 0.500000 0.859577 0.500000
O O15 0.250000 0.883252 0.558424
O O16 0.472757 0.000000 0.582316
O O17 0.250000 0.103851 0.186304
O O18 0.492903 0.000000 0.187616
#
# Coordination Sequence:
#
# PCOD8207331 Si02
#       6
#     8   8   8   8   8   8
#     4  10  20  34  53  77 104 134 169 214 268 320
#     4  10  18  32  56  83 109 142 177 214 262 311
#     4  11  22  37  54  74 101 137 177 219 268 320
#     4   9  17  31  53  81 110 140 175 213 257 312
#     4  10  21  36  54  80 113 147 181 219 263 311
#     4   9  18  33  53  77 104 135 174 216 261 315
#
# _framework density 18.152073000000001
#
# number of rings (size 3 to 8) (size 9 to 14) (size 15 to 20)
#    0.000    2.167    1.667    2.000    0.000    4.000 
#    0.000    0.000    0.000    3.000    0.000    0.000 
#    0.000    0.000    0.000    0.000    0.000    0.000 
#
# Total GULP energy -595271.177861 kJ/mol
# GULP energy per Si atom -12401.482872 kJ/mol
# Density = 1.811076 g / cm^3
# Si number density = 18.152073 Si / 1000 Ang^3
#
#
#
# Elastic Constant Matrix: (Units=GPa)
#
#
# Indices 1 2 3 4 5 6 
#
# 1 57.6918 30.4344 38.4756 0.0000 0.0000 0.0000
# 2 30.4344 112.0805 61.1636 0.0000 0.0000 0.0000
# 3 38.4756 61.1636 129.5147 0.0000 0.0000 0.0000
# 4 0.0000 0.0000 0.0000 27.1640 0.0000 0.0000
# 5 0.0000 0.0000 0.0000 0.0000 33.3598 0.0000
# 6 0.0000 0.0000 0.0000 0.0000 0.0000 20.2706
#
#
#
# Elastic Compliance Matrix: (Units=1/GPa)
#
#
# Indices 1 2 3 4 5 6 
#
# 1 0.022495 -0.003316 -0.005117 0.000000 0.000000 0.000000
# 2 -0.003316 0.012509 -0.004922 0.000000 0.000000 0.000000
# 3 -0.005117 -0.004922 0.011566 0.000000 0.000000 0.000000
# 4 0.000000 0.000000 0.000000 0.036813 0.000000 0.000000
# 5 0.000000 0.000000 0.000000 0.000000 0.029976 0.000000
# 6 0.000000 0.000000 0.000000 0.000000 0.000000 0.049333
#
#
# Mechanical properties :
#
#
# Convention : Reuss Voigt Hill
#
# Bulk Modulus (GPa) = 50.35328 62.15936 56.25632
# Shear Modulus (GPa) = 25.50737 27.43976 26.47356
#
# Velocity S-wave (km/s) = 3.75267 3.89222 3.82309
# Velocity P-wave (km/s) = 6.82471 7.38358 7.10964
#
# Compressibility (1/GPa) = 0.01985968
#
# Stress axis : x y z
#
# Youngs Moduli (GPa) = 44.45368 79.94457 86.46275
#
# Poissons Ratio (x) = 0.26511 0.44241
# Poissons Ratio (y) = 0.14741 0.42558
# Poissons Ratio (z) = 0.22746 0.39350
#
# Static dielectric constant tensor:
#      x y z
#    x 3.215910 0.000000 0.000000 
#    y 0.000000 3.581230 0.000000 
#    z 0.000000 0.000000 3.212200 
# 
# 
# High freq. dielectric constant tensor:
#      x y z
#    x 1.691300 0.000000 0.000000 
#    y 0.000000 1.707570 0.000000 
#    z 0.000000 0.000000 1.687070 
# 
# From -- ./inp_files/27539.got.cif
#   From: 2010.03.12/outbox.cif.g09.slc.cpg/sg51_14_cif.got.tgz:27539.got - 2010.04.16 13:43:02.
