data_PCOD8207427
_publ_section_title
;
Structure prediction by ZEFSAII (Michael W. Deem and Ramdas Pophale) SiO2 
 PCOD8207427
Probable space group: P M M A
;
_chemical_formula_sum "Si O2"
_cell_formula_units_Z 56
_cell_length_a 15.157648
_cell_length_b 9.110575
_cell_length_c 21.505814
_cell_angle_alpha 90.000000
_cell_angle_beta 90.000000
_cell_angle_gamma 90.000000
_cell_volume 2969.842996
_symmetry_space_group_name_H-M "P M M A"
_symmetry_group_IT_number 51
_symmetry_cell_setting 'orthorhombic'
loop_
_space_group_symop_operation_xyz
x,y,z
1/2-x,-y,z
1/2+x,-y,-z
-x,y,-z
-x,-y,-z
1/2+x,y,-z
1/2-x,y,z
x,-y,z
loop_
_atom_site_type_symbol
_atom_site_label
_atom_site_fract_x
_atom_site_fract_y
_atom_site_fract_z
Si Si1 0.503286 0.671926 0.851392
Si Si2 0.895732 0.333421 0.497424
Si Si3 0.653345 0.674066 0.632316
Si Si4 0.851602 0.172052 0.928706
Si Si5 0.011244 0.673809 0.709393
Si Si6 0.350400 0.329838 0.944831
Si Si7 0.850762 0.166839 0.374563
O O1 0.523741 0.500000 0.856312
O O2 0.588505 0.757270 0.875714
O O3 0.487273 0.721558 0.780936
O O4 0.415190 0.714955 0.889054
O O5 0.862575 0.500000 0.486527
O O6 0.859899 0.267589 0.562248
O O7 0.859033 0.233307 0.442983
O O8 0.000000 0.328761 0.500000
O O9 0.750000 0.723720 0.656556
O O10 0.645128 0.500000 0.630635
O O11 0.578743 0.736235 0.678474
O O12 0.750000 0.209626 0.913304
O O13 0.868752 0.000000 0.931031
O O14 0.878761 0.237659 0.995210
O O15 0.018432 0.500000 0.701545
O O16 0.094489 0.743250 0.675715
O O17 0.250000 0.293793 0.924290
O O18 0.360803 0.500000 0.962398
O O19 0.750000 0.174946 0.352732
O O20 0.884907 0.000000 0.376554
#
# Coordination Sequence:
#
# PCOD8207427 Si02
#       7
#     8   8   8   8   8   8   8
#     4  10  21  35  56  83 110 143 183 226 276 325
#     4  10  18  33  59  84 106 136 179 229 280 329
#     4   9  17  31  53  80 107 135 173 223 274 324
#     4  10  21  36  55  81 112 146 183 221 266 323
#     4  10  21  38  57  80 109 144 186 228 269 322
#     4   9  18  34  55  80 110 140 176 226 279 327
#     4  11  24  39  55  79 112 148 185 226 276 329
#
# _framework density 18.856216
#
# number of rings (size 3 to 8) (size 9 to 14) (size 15 to 20)
#    0.000    2.143    1.429    1.714    0.000    6.857 
#    0.000    2.857    0.000    2.143    0.000    0.000 
#    0.000    0.000    0.000    0.000    0.000    0.000 
#
# Total GULP energy -694510.748687 kJ/mol
# GULP energy per Si atom -12401.977655 kJ/mol
# Density = 1.881330 g / cm^3
# Si number density = 18.856216 Si / 1000 Ang^3
#
#
#
# Elastic Constant Matrix: (Units=GPa)
#
#
# Indices 1 2 3 4 5 6 
#
# 1 111.4935 37.8053 69.0820 0.0000 0.0000 0.0000
# 2 37.8053 52.6638 49.9686 0.0000 0.0000 0.0000
# 3 69.0820 49.9686 144.6436 0.0000 0.0000 0.0000
# 4 0.0000 0.0000 0.0000 -17.4033 0.0000 0.0000
# 5 0.0000 0.0000 0.0000 0.0000 13.6216 0.0000
# 6 0.0000 0.0000 0.0000 0.0000 0.0000 25.0563
#
#
#
# Elastic Compliance Matrix: (Units=1/GPa)
#
#
# Indices 1 2 3 4 5 6 
#
# 1 0.013697 -0.005393 -0.004678 0.000000 0.000000 0.000000
# 2 -0.005393 0.030371 -0.007916 0.000000 0.000000 0.000000
# 3 -0.004678 -0.007916 0.011883 0.000000 0.000000 0.000000
# 4 0.000000 0.000000 0.000000 -0.057460 0.000000 0.000000
# 5 0.000000 0.000000 0.000000 0.000000 0.073413 0.000000
# 6 0.000000 0.000000 0.000000 0.000000 0.000000 0.039910
#
#
# Mechanical properties :
#
#
# Convention : Reuss Voigt Hill
#
# Bulk Modulus (GPa) = 50.06338 69.16808 59.61573
# Shear Modulus (GPa) = 32.37359 14.38459 23.37909
#
# Velocity S-wave (km/s) = 4.14800 2.76498 3.52499
# Velocity P-wave (km/s) = 7.03910 6.85237 6.94636
#
# Compressibility (1/GPa) = 0.01997468
#
# Stress axis : x y z
#
# Youngs Moduli (GPa) = 73.01057 32.92606 84.15646
#
# Poissons Ratio (x) = 0.17758 0.39371
# Poissons Ratio (y) = 0.39377 0.66619
# Poissons Ratio (z) = 0.34157 0.26065
#
# Static dielectric constant tensor:
#      x y z
#    x 3.624250 0.000000 0.000000 
#    y 0.000000 3.283570 0.000000 
#    z 0.000000 0.000000 3.504940 
# 
# 
# High freq. dielectric constant tensor:
#      x y z
#    x 1.747860 0.000000 0.000000 
#    y 0.000000 1.709760 0.000000 
#    z 0.000000 0.000000 1.729740 
# 
# From -- ./inp_files/33356.got.cif
#   From: 2010.03.12/outbox.cif.g09.slc.cpg/sg51_17_cif.got.tgz:33356.got - 2010.04.16 13:43:02.
