data_PCOD8207313
_publ_section_title
;
Structure prediction by ZEFSAII (Michael W. Deem and Ramdas Pophale) SiO2 
 PCOD8207313
Probable space group: P M M A
;
_chemical_formula_sum "Si O2"
_cell_formula_units_Z 36
_cell_length_a 8.660082
_cell_length_b 22.784822
_cell_length_c 9.221715
_cell_angle_alpha 90.000000
_cell_angle_beta 90.000000
_cell_angle_gamma 90.000000
_cell_volume 1819.614297
_symmetry_space_group_name_H-M "P M M A"
_symmetry_group_IT_number 51
_symmetry_cell_setting 'orthorhombic'
loop_
_space_group_symop_operation_xyz
x,y,z
1/2-x,-y,z
1/2+x,-y,-z
-x,y,-z
-x,-y,-z
1/2+x,y,-z
1/2-x,y,z
x,-y,z
loop_
_atom_site_type_symbol
_atom_site_label
_atom_site_fract_x
_atom_site_fract_y
_atom_site_fract_z
Si Si1 0.067424 0.618925 0.659585
Si Si2 0.070889 0.836867 0.346069
Si Si3 0.433604 0.500000 0.339203
Si Si4 0.569307 0.277012 0.842122
Si Si5 0.431445 0.067106 0.848783
O O1 0.250000 0.613147 0.646988
O O2 0.000000 0.630086 0.500000
O O3 0.998205 0.559574 0.733635
O O4 0.022484 0.672059 0.761869
O O5 0.250000 0.849117 0.365955
O O6 0.037091 0.783480 0.239123
O O7 0.000000 0.820300 0.500000
O O8 0.994343 0.895665 0.284856
O O9 0.250000 0.500000 0.337142
O O10 0.500000 0.500000 0.500000
O O11 0.750000 0.292504 0.847578
O O12 0.500000 0.269727 0.000000
O O13 0.250000 0.074081 0.857624
O O14 0.482441 0.000000 0.822517
O O15 0.500000 0.090806 0.000000
#
# Coordination Sequence:
#
# PCOD8207313 Si02
#       5
#     8   8   4   8   8
#     4  11  21  36  59  87 118 153 193 238 286 339
#     4  11  24  40  61  87 117 152 193 240 289 342
#     4  10  18  32  55  84 117 152 191 236 284 338
#     4  11  24  41  60  85 115 151 192 236 289 346
#     4  10  21  38  61  88 119 155 194 236 285 342
#
# _framework density 19.784412
#
# number of rings (size 3 to 8) (size 9 to 14) (size 15 to 20)
#    0.000    1.333    0.000    7.667    0.000    8.889 
#    0.000    0.556    0.000    0.000    0.000    0.000 
#    0.000    0.000    0.000    0.000    0.000    0.000 
#
# Total GULP energy -446553.869976 kJ/mol
# GULP energy per Si atom -12404.274166 kJ/mol
# Density = 1.973938 g / cm^3
# Si number density = 19.784412 Si / 1000 Ang^3
#
#
#
# Elastic Constant Matrix: (Units=GPa)
#
#
# Indices 1 2 3 4 5 6 
#
# 1 150.0066 65.3997 55.7534 0.0000 0.0000 0.0000
# 2 65.3997 106.5615 46.6665 0.0000 0.0000 0.0000
# 3 55.7534 46.6665 111.5397 0.0000 0.0000 0.0000
# 4 0.0000 0.0000 0.0000 -63.0389 0.0000 0.0000
# 5 0.0000 0.0000 0.0000 0.0000 35.4066 0.0000
# 6 0.0000 0.0000 0.0000 0.0000 0.0000 -2.6410
#
#
#
# Elastic Compliance Matrix: (Units=1/GPa)
#
#
# Indices 1 2 3 4 5 6 
#
# 1 0.009823 -0.004748 -0.002923 0.000000 0.000000 0.000000
# 2 -0.004748 0.013785 -0.003394 0.000000 0.000000 0.000000
# 3 -0.002923 -0.003394 0.011847 0.000000 0.000000 0.000000
# 4 0.000000 0.000000 0.000000 -0.015863 0.000000 0.000000
# 5 0.000000 0.000000 0.000000 0.000000 0.028243 0.000000
# 6 0.000000 0.000000 0.000000 0.000000 0.000000 -0.378641
#
#
# Mechanical properties :
#
#
# Convention : Reuss Voigt Hill
#
# Bulk Modulus (GPa) = 75.05751 78.19411 76.62581
# Shear Modulus (GPa) = -16.43473 7.29788 -4.56842
#
# Velocity S-wave (km/s) = -2.88530 1.92268 -1.52122
# Velocity P-wave (km/s) = 5.18846 6.67367 5.97737
#
# Compressibility (1/GPa) = 0.01332312
#
# Stress axis : x y z
#
# Youngs Moduli (GPa) = 101.80009 72.54385 84.41226
#
# Poissons Ratio (x) = 0.34447 0.24677
# Poissons Ratio (y) = 0.48340 0.28648
# Poissons Ratio (z) = 0.29761 0.24620
#
# Static dielectric constant tensor:
#      x y z
#    x 3.768370 0.000000 0.000000 
#    y 0.000000 4.109890 0.000000 
#    z 0.000000 0.000000 3.457240 
# 
# 
# High freq. dielectric constant tensor:
#      x y z
#    x 1.792390 0.000000 0.000000 
#    y 0.000000 1.789790 0.000000 
#    z 0.000000 0.000000 1.757640 
# 
# From -- ./inp_files/5200.got.cif
#   From: 2010.03.12/outbox.cif.g09.slc.cpg/sg51_3_cif.got.tgz:5200.got - 2010.04.16 13:43:02.
