data_PCOD8207016
_publ_section_title
;
Structure prediction by ZEFSAII (Michael W. Deem and Ramdas Pophale) SiO2 
 PCOD8207016
Probable space group: P M M A
;
_chemical_formula_sum "Si O2"
_cell_formula_units_Z 48
_cell_length_a 31.061813
_cell_length_b 8.291725
_cell_length_c 9.149073
_cell_angle_alpha 90.000000
_cell_angle_beta 90.000000
_cell_angle_gamma 90.000000
_cell_volume 2356.398750
_symmetry_space_group_name_H-M "P M M A"
_symmetry_group_IT_number 51
_symmetry_cell_setting 'orthorhombic'
loop_
_space_group_symop_operation_xyz
x,y,z
1/2-x,-y,z
1/2+x,-y,-z
-x,y,-z
-x,-y,-z
1/2+x,y,-z
1/2-x,y,z
x,-y,z
loop_
_atom_site_type_symbol
_atom_site_label
_atom_site_fract_x
_atom_site_fract_y
_atom_site_fract_z
Si Si1 0.750000 0.809802 0.860166
Si Si2 0.158813 0.311220 0.841623
Si Si3 0.500997 0.686146 0.166572
Si Si4 0.750000 0.316286 0.177554
Si Si5 0.078851 0.188029 0.331319
Si Si6 0.839401 0.308408 0.827328
Si Si7 0.919867 0.185389 0.337170
O O1 0.706953 0.758358 0.772555
O O2 0.750000 0.000000 0.895802
O O3 0.750000 0.696603 0.002389
O O4 0.166534 0.500000 0.855450
O O5 0.203922 0.236487 0.773537
O O6 0.118644 0.279489 0.739425
O O7 0.150914 0.247502 0.006576
O O8 0.514848 0.500000 0.174722
O O9 0.454121 0.709253 0.234873
O O10 0.535594 0.790913 0.253252
O O11 0.500000 0.746494 0.000000
O O12 0.750000 0.500000 0.230002
O O13 0.126629 0.222970 0.277566
O O14 0.074567 0.248038 0.498115
O O15 0.067445 0.000000 0.317557
O O16 0.842573 0.500000 0.809882
O O17 0.906733 0.000000 0.335767
#
# Coordination Sequence:
#
# PCOD8207016 Si02
#       7
#     4   8   8   4   8   8   8
#     4  10  18  30  53  84 115 148 186 232 284 330
#     4   9  18  34  57  83 111 145 188 234 277 327
#     4  11  24  41  62  87 111 140 183 231 277 331
#     4   8  16  32  53  80 113 146 186 236 280 324
#     4  11  24  40  57  82 115 149 186 229 278 332
#     4  10  20  36  58  84 113 148 191 235 278 329
#     4  11  24  39  56  82 116 150 184 226 277 333
#
# _framework density 20.370069000000001
#
# number of rings (size 3 to 8) (size 9 to 14) (size 15 to 20)
#    0.000    1.833    0.000    5.250    0.000   13.333 
#    0.000    0.833    0.000    4.000    0.000    0.000 
#    0.000    0.000    0.000    0.000    0.000    0.000 
#
# Total GULP energy -595075.240982 kJ/mol
# GULP energy per Si atom -12397.400854 kJ/mol
# Density = 2.032371 g / cm^3
# Si number density = 20.370069 Si / 1000 Ang^3
#
#
#
# Elastic Constant Matrix: (Units=GPa)
#
#
# Indices 1 2 3 4 5 6 
#
# 1 146.9446 0.8267 57.7976 0.0000 0.0000 0.0000
# 2 0.8267 33.1296 19.2524 0.0000 0.0000 0.0000
# 3 57.7976 19.2524 122.9545 0.0000 0.0000 0.0000
# 4 0.0000 0.0000 0.0000 23.5178 0.0000 0.0000
# 5 0.0000 0.0000 0.0000 0.0000 -5.3378 0.0000
# 6 0.0000 0.0000 0.0000 0.0000 0.0000 26.3904
#
#
#
# Elastic Compliance Matrix: (Units=1/GPa)
#
#
# Indices 1 2 3 4 5 6 
#
# 1 0.008508 0.002323 -0.004363 0.000000 0.000000 0.000000
# 2 0.002323 0.033840 -0.006391 0.000000 0.000000 0.000000
# 3 -0.004363 -0.006391 0.011185 0.000000 0.000000 0.000000
# 4 0.000000 0.000000 0.000000 0.042521 0.000000 0.000000
# 5 0.000000 0.000000 0.000000 0.000000 -0.187345 0.000000
# 6 0.000000 0.000000 0.000000 0.000000 0.000000 0.037893
#
#
# Mechanical properties :
#
#
# Convention : Reuss Voigt Hill
#
# Bulk Modulus (GPa) = 27.26884 50.97578 39.12231
# Shear Modulus (GPa) = -205.66505 23.92424 -90.87041
#
# Velocity S-wave (km/s) = -10.05900 3.43079 -6.68630
# Velocity P-wave (km/s) = 11.02250 6.38537 6.35306
#
# Compressibility (1/GPa) = 0.03667189
#
# Stress axis : x y z
#
# Youngs Moduli (GPa) = 117.53007 29.55042 89.40621
#
# Poissons Ratio (x) = -0.06866 0.39011
# Poissons Ratio (y) = -0.27307 0.57139
# Poissons Ratio (z) = 0.51283 0.18886
#
# Static dielectric constant tensor:
#      x y z
#    x 4.000600 0.000000 0.000000 
#    y 0.000000 3.501880 0.000000 
#    z 0.000000 0.000000 3.565950 
# 
# 
# High freq. dielectric constant tensor:
#      x y z
#    x 1.822000 0.000000 0.000000 
#    y 0.000000 1.788770 0.000000 
#    z 0.000000 0.000000 1.770070 
# 
# From -- ./inp_files/12961.got.cif
#   From: 2010.03.12/outbox.cif.g09.slc.cpg/sg51_7_cif.got.tgz:12961.got - 2010.04.16 13:43:02.
