data_PCOD8207036
_publ_section_title
;
Structure prediction by ZEFSAII (Michael W. Deem and Ramdas Pophale) SiO2 
 PCOD8207036
Probable space group: P M M A
;
_chemical_formula_sum "Si O2"
_cell_formula_units_Z 64
_cell_length_a 9.366708
_cell_length_b 22.596629
_cell_length_c 18.188604
_cell_angle_alpha 90.000000
_cell_angle_beta 90.000000
_cell_angle_gamma 90.000000
_cell_volume 3849.727634
_symmetry_space_group_name_H-M "P M M A"
_symmetry_group_IT_number 51
_symmetry_cell_setting 'orthorhombic'
loop_
_space_group_symop_operation_xyz
x,y,z
1/2-x,-y,z
1/2+x,-y,-z
-x,y,-z
-x,-y,-z
1/2+x,y,-z
1/2-x,y,z
x,-y,z
loop_
_atom_site_type_symbol
_atom_site_label
_atom_site_fract_x
_atom_site_fract_y
_atom_site_fract_z
Si Si1 0.414167 0.163068 0.150835
Si Si2 0.915624 0.809590 0.570753
Si Si3 0.092482 0.660651 0.808933
Si Si4 0.083002 0.431505 0.926282
Si Si5 0.908198 0.247075 0.062903
Si Si6 0.413131 0.744549 0.281939
Si Si7 0.088233 0.065687 0.367185
Si Si8 0.089464 0.066937 0.777732
O O1 0.250000 0.153645 0.129422
O O2 0.499006 0.189234 0.081685
O O3 0.430653 0.204617 0.221761
O O4 0.487585 0.100766 0.166393
O O5 0.750000 0.796622 0.558342
O O6 0.970748 0.772678 0.641804
O O7 0.943122 0.880392 0.577477
O O8 0.000000 0.786032 0.500000
O O9 0.250000 0.644781 0.777845
O O10 0.027943 0.604444 0.854086
O O11 0.105905 0.712984 0.866482
O O12 0.996560 0.684196 0.741130
O O13 0.250000 0.417271 0.939497
O O14 0.055219 0.500000 0.909096
O O15 0.000000 0.412023 0.000000
O O16 0.750000 0.230129 0.034360
O O17 0.000000 0.280817 0.000000
O O18 0.250000 0.724977 0.290058
O O19 0.250000 0.073292 0.335573
O O20 0.973797 0.071250 0.303396
O O21 0.073528 0.000000 0.404599
O O22 0.250000 0.093809 0.776574
O O23 0.093382 0.000000 0.805563
#
# Coordination Sequence:
#
# PCOD8207036 Si02
#       8
#     8   8   8   8   8   8   8   8
#     4  10  18  31  49  65  84 113 145 182 226 271
#     4  10  20  33  46  66  91 120 153 188 233 284
#     4   9  18  30  46  68  93 124 161 195 227 261
#     4   9  17  29  45  68 101 137 169 198 226 263
#     4  10  19  30  44  66  92 117 148 186 224 266
#     4   9  18  32  47  65  89 116 153 193 230 272
#     4   9  17  31  48  63  85 117 150 184 223 275
#     4  10  19  29  44  67  89 108 138 181 224 269
#
# _framework density 16.624552000000001
#
# number of rings (size 3 to 8) (size 9 to 14) (size 15 to 20)
#    0.000    2.500    1.250    1.500    0.000    3.500 
#    0.000    0.000    0.000    0.375    0.000    0.000 
#    0.000    0.500    0.000    1.125    0.000    1.750 
#
# Total GULP energy -793165.593350 kJ/mol
# GULP energy per Si atom -12393.212396 kJ/mol
# Density = 1.658671 g / cm^3
# Si number density = 16.624552 Si / 1000 Ang^3
#
#
#
# Elastic Constant Matrix: (Units=GPa)
#
#
# Indices 1 2 3 4 5 6 
#
# 1 95.3073 36.5965 34.8015 0.0000 0.0000 0.0000
# 2 36.5965 70.2421 34.1791 0.0000 0.0000 0.0000
# 3 34.8015 34.1791 61.7061 0.0000 0.0000 0.0000
# 4 0.0000 0.0000 0.0000 20.4489 0.0000 0.0000
# 5 0.0000 0.0000 0.0000 0.0000 27.7596 0.0000
# 6 0.0000 0.0000 0.0000 0.0000 0.0000 21.2037
#
#
#
# Elastic Compliance Matrix: (Units=1/GPa)
#
#
# Indices 1 2 3 4 5 6 
#
# 1 0.014320 -0.004834 -0.005399 0.000000 0.000000 0.000000
# 2 -0.004834 0.021121 -0.008973 0.000000 0.000000 0.000000
# 3 -0.005399 -0.008973 0.024221 0.000000 0.000000 0.000000
# 4 0.000000 0.000000 0.000000 0.048902 0.000000 0.000000
# 5 0.000000 0.000000 0.000000 0.000000 0.036024 0.000000
# 6 0.000000 0.000000 0.000000 0.000000 0.000000 0.047162
#
#
# Mechanical properties :
#
#
# Convention : Reuss Voigt Hill
#
# Bulk Modulus (GPa) = 47.05672 48.71217 47.88445
# Shear Modulus (GPa) = 21.07542 21.99433 21.53487
#
# Velocity S-wave (km/s) = 3.56438 3.64126 3.60302
# Velocity P-wave (km/s) = 6.73103 6.85881 6.79522
#
# Compressibility (1/GPa) = 0.02125095
#
# Stress axis : x y z
#
# Youngs Moduli (GPa) = 69.83325 47.34651 41.28690
#
# Poissons Ratio (x) = 0.22886 0.22290
# Poissons Ratio (y) = 0.33755 0.37046
# Poissons Ratio (z) = 0.37702 0.42483
#
# Static dielectric constant tensor:
#      x y z
#    x 3.360910 0.000000 0.000000 
#    y 0.000000 3.108030 0.000000 
#    z 0.000000 0.000000 2.924360 
# 
# 
# High freq. dielectric constant tensor:
#      x y z
#    x 1.650510 0.000000 0.000000 
#    y 0.000000 1.617780 0.000000 
#    z 0.000000 0.000000 1.607700 
# 
# From -- ./inp_files/32694.got.cif
#   From: 2010.03.12/outbox.cif.g09.slc.cpg/sg51_17_cif.got.tgz:32694.got - 2010.04.16 13:43:02.
