data_PCOD8207963
_publ_section_title
;
Structure prediction by ZEFSAII (Michael W. Deem and Ramdas Pophale) SiO2 
 PCOD8207963
Probable space group: P M M A
;
_chemical_formula_sum "Si O2"
_cell_formula_units_Z 64
_cell_length_a 24.985132
_cell_length_b 9.261377
_cell_length_c 17.616489
_cell_angle_alpha 90.000000
_cell_angle_beta 90.000000
_cell_angle_gamma 90.000000
_cell_volume 4076.397893
_symmetry_space_group_name_H-M "P M M A"
_symmetry_group_IT_number 51
_symmetry_cell_setting 'orthorhombic'
loop_
_space_group_symop_operation_xyz
x,y,z
1/2-x,-y,z
1/2+x,-y,-z
-x,y,-z
-x,-y,-z
1/2+x,y,-z
1/2-x,y,z
x,-y,z
loop_
_atom_site_type_symbol
_atom_site_label
_atom_site_fract_x
_atom_site_fract_y
_atom_site_fract_z
Si Si1 0.187509 0.167364 0.813123
Si Si2 0.688876 0.667340 0.789370
Si Si3 0.313686 0.162799 0.357634
Si Si4 0.813597 0.160118 0.356718
Si Si5 0.605742 0.669143 0.086397
Si Si6 0.313908 0.337750 0.501859
Si Si7 0.501508 0.163160 0.090209
Si Si8 0.898731 0.666571 0.910717
O O1 0.250000 0.197750 0.823917
O O2 0.168922 0.208611 0.727650
O O3 0.157315 0.270285 0.871205
O O4 0.174360 0.000000 0.829831
O O5 0.750000 0.709077 0.808891
O O6 0.684386 0.500000 0.766890
O O7 0.666520 0.758222 0.718481
O O8 0.653958 0.705506 0.862932
O O9 0.250000 0.163792 0.360269
O O10 0.336436 0.246576 0.430921
O O11 0.336092 0.000000 0.358481
O O12 0.750000 0.155267 0.360151
O O13 0.836301 0.269447 0.419903
O O14 0.835912 0.000000 0.374509
O O15 0.599569 0.500000 0.102018
O O16 0.553095 0.748674 0.118751
O O17 0.614245 0.702997 0.997752
O O18 0.250000 0.336638 0.501599
O O19 0.336042 0.500000 0.495630
O O20 0.447879 0.238959 0.121194
O O21 0.504487 0.000000 0.121592
O O22 0.500000 0.165977 0.000000
O O23 0.915224 0.500000 0.901637
#
# Coordination Sequence:
#
# PCOD8207963 Si02
#       8
#     8   8   8   8   8   8   8   8
#     4   9  18  31  44  60  87 121 151 179 214 256
#     4   9  17  29  43  59  84 117 147 175 211 255
#     4   9  16  25  37  54  78 108 141 175 209 247
#     4   8  14  25  39  54  76 108 142 174 209 248
#     4  10  19  30  46  66  87 112 144 182 221 261
#     4   9  15  22  35  55  77 103 137 174 210 249
#     4   9  17  30  48  66  83 105 137 179 224 265
#     4   9  18  31  46  64  86 112 143 181 222 260
#
# _framework density 15.700137
#
# number of rings (size 3 to 8) (size 9 to 14) (size 15 to 20)
#    0.000    3.000    0.000    2.250    0.000    6.750 
#    0.000    2.500    0.000    1.500    0.000    0.000 
#    0.000    1.000    0.000   10.500    0.000    7.500 
#
# Total GULP energy -793463.427670 kJ/mol
# GULP energy per Si atom -12397.866057 kJ/mol
# Density = 1.566440 g / cm^3
# Si number density = 15.700137 Si / 1000 Ang^3
#
#
#
# Elastic Constant Matrix: (Units=GPa)
#
#
# Indices 1 2 3 4 5 6 
#
# 1 56.9010 44.0119 40.1854 0.0000 0.0000 0.0000
# 2 44.0119 114.4849 62.6490 0.0000 0.0000 0.0000
# 3 40.1854 62.6490 92.9193 0.0000 0.0000 0.0000
# 4 0.0000 0.0000 0.0000 28.4494 0.0000 0.0000
# 5 0.0000 0.0000 0.0000 0.0000 1.2836 0.0000
# 6 0.0000 0.0000 0.0000 0.0000 0.0000 21.7825
#
#
#
# Elastic Compliance Matrix: (Units=1/GPa)
#
#
# Indices 1 2 3 4 5 6 
#
# 1 0.028121 -0.006585 -0.007722 0.000000 0.000000 0.000000
# 2 -0.006585 0.015384 -0.007524 0.000000 0.000000 0.000000
# 3 -0.007722 -0.007524 0.019175 0.000000 0.000000 0.000000
# 4 0.000000 0.000000 0.000000 0.035150 0.000000 0.000000
# 5 0.000000 0.000000 0.000000 0.000000 0.779043 0.000000
# 6 0.000000 0.000000 0.000000 0.000000 0.000000 0.045908
#
#
# Mechanical properties :
#
#
# Convention : Reuss Voigt Hill
#
# Bulk Modulus (GPa) = 52.58422 61.99974 57.29198
# Shear Modulus (GPa) = 5.13989 18.13371 11.63680
#
# Velocity S-wave (km/s) = 1.81132 3.40222 2.72544
# Velocity P-wave (km/s) = 6.15955 7.41681 6.81723
#
# Compressibility (1/GPa) = 0.01901711
#
# Stress axis : x y z
#
# Youngs Moduli (GPa) = 35.56013 65.00330 52.15216
#
# Poissons Ratio (x) = 0.42806 0.40271
# Poissons Ratio (y) = 0.23417 0.39241
# Poissons Ratio (z) = 0.27459 0.48910
#
# Static dielectric constant tensor:
#      x y z
#    x 2.630390 0.000000 0.000000 
#    y 0.000000 3.172350 0.000000 
#    z 0.000000 0.000000 3.001660 
# 
# 
# High freq. dielectric constant tensor:
#      x y z
#    x 1.551220 0.000000 0.000000 
#    y 0.000000 1.614490 0.000000 
#    z 0.000000 0.000000 1.594460 
# 
# From -- ./inp_files/30911.got.cif
#   From: 2010.03.12/outbox.cif.g09.slc.cpg/sg51_16_cif.got.tgz:30911.got - 2010.04.16 13:43:02.
