data_PCOD8207436
_publ_section_title
;
Structure prediction by ZEFSAII (Michael W. Deem and Ramdas Pophale) SiO2 
 PCOD8207436
Probable space group: P M M A
;
_chemical_formula_sum "Si O2"
_cell_formula_units_Z 40
_cell_length_a 22.853016
_cell_length_b 9.057509
_cell_length_c 10.264774
_cell_angle_alpha 90.000000
_cell_angle_beta 90.000000
_cell_angle_gamma 90.000000
_cell_volume 2124.719921
_symmetry_space_group_name_H-M "P M M A"
_symmetry_group_IT_number 51
_symmetry_cell_setting 'orthorhombic'
loop_
_space_group_symop_operation_xyz
x,y,z
1/2-x,-y,z
1/2+x,-y,-z
-x,y,-z
-x,-y,-z
1/2+x,y,-z
1/2-x,y,z
x,-y,z
loop_
_atom_site_type_symbol
_atom_site_label
_atom_site_fract_x
_atom_site_fract_y
_atom_site_fract_z
Si Si1 0.250000 0.830430 0.884043
Si Si2 0.125363 0.675145 0.525719
Si Si3 0.250000 0.674697 0.611551
Si Si4 0.078018 0.326387 0.251378
Si Si5 0.873391 0.827317 0.994295
Si Si6 0.557525 0.326486 0.221135
O O1 0.250000 0.730127 0.757957
O O2 0.193355 0.792321 0.969150
O O3 0.250000 0.000000 0.838853
O O4 0.121540 0.500000 0.526977
O O5 0.192401 0.731233 0.535777
O O6 0.097226 0.734900 0.392757
O O7 0.089186 0.735552 0.649446
O O8 0.250000 0.500000 0.619911
O O9 0.090075 0.500000 0.238430
O O10 0.010428 0.288664 0.231452
O O11 0.116939 0.241940 0.146806
O O12 0.917718 0.755178 0.095946
O O13 0.886462 0.000000 0.989814
O O14 0.568554 0.500000 0.203342
#
# Coordination Sequence:
#
# PCOD8207436 Si02
#       6
#     4   8   4   8   8   8
#     4  10  22  39  56  76 106 144 184 225 274 326
#     4   9  18  33  56  85 112 139 176 225 273 318
#     4  10  18  33  60  86 106 134 182 231 270 320
#     4  10  21  36  55  83 117 147 178 220 274 330
#     4  11  23  38  56  79 110 146 186 230 272 320
#     4  10  19  35  59  83 110 147 185 221 269 327
#
# _framework density 18.826011999999999
#
# number of rings (size 3 to 8) (size 9 to 14) (size 15 to 20)
#    0.000    2.000    2.000    1.800    0.000    7.200 
#    0.000    3.000    0.000    2.400    0.000    0.000 
#    0.000    0.000    0.000    0.000    0.000    0.000 
#
# Total GULP energy -496108.461949 kJ/mol
# GULP energy per Si atom -12402.711549 kJ/mol
# Density = 1.878316 g / cm^3
# Si number density = 18.826012 Si / 1000 Ang^3
#
#
#
# Elastic Constant Matrix: (Units=GPa)
#
#
# Indices 1 2 3 4 5 6 
#
# 1 115.4826 34.5333 37.2897 0.0000 0.0000 0.0000
# 2 34.5333 34.5934 24.0710 0.0000 0.0000 0.0000
# 3 37.2897 24.0710 115.3267 0.0000 0.0000 0.0000
# 4 0.0000 0.0000 0.0000 -5.2436 0.0000 0.0000
# 5 0.0000 0.0000 0.0000 0.0000 -58.3688 0.0000
# 6 0.0000 0.0000 0.0000 0.0000 0.0000 20.6688
#
#
#
# Elastic Compliance Matrix: (Units=1/GPa)
#
#
# Indices 1 2 3 4 5 6 
#
# 1 0.012622 -0.011419 -0.001698 0.000000 0.000000 0.000000
# 2 -0.011419 0.044149 -0.005523 0.000000 0.000000 0.000000
# 3 -0.001698 -0.005523 0.010373 0.000000 0.000000 0.000000
# 4 0.000000 0.000000 0.000000 -0.190709 0.000000 0.000000
# 5 0.000000 0.000000 0.000000 0.000000 -0.017132 0.000000
# 6 0.000000 0.000000 0.000000 0.000000 0.000000 0.048382
#
#
# Mechanical properties :
#
#
# Convention : Reuss Voigt Hill
#
# Bulk Modulus (GPa) = 33.48382 50.79897 42.14140
# Shear Modulus (GPa) = -110.90896 2.71187 -54.09854
#
# Velocity S-wave (km/s) = -7.68378 1.20151 -5.36642
# Velocity P-wave (km/s) = 7.80360 5.38208 3.99558
#
# Compressibility (1/GPa) = 0.02986517
#
# Stress axis : x y z
#
# Youngs Moduli (GPa) = 79.22551 22.65060 96.40690
#
# Poissons Ratio (x) = 0.25864 0.16369
# Poissons Ratio (y) = 0.90466 0.53242
# Poissons Ratio (z) = 0.13452 0.12509
#
# Static dielectric constant tensor:
#      x y z
#    x 3.723820 0.000000 0.000000 
#    y 0.000000 3.206030 0.000000 
#    z 0.000000 0.000000 3.606960 
# 
# 
# High freq. dielectric constant tensor:
#      x y z
#    x 1.748650 0.000000 0.000000 
#    y 0.000000 1.702230 0.000000 
#    z 0.000000 0.000000 1.740030 
# 
# From -- ./inp_files/17930.got.cif
#   From: 2010.03.12/outbox.cif.g09.slc.cpg/sg51_9_cif.got.tgz:17930.got - 2010.04.16 13:43:02.
