data_PCOD8207195
_publ_section_title
;
Structure prediction by ZEFSAII (Michael W. Deem and Ramdas Pophale) SiO2 
 PCOD8207195
Probable space group: P M M A
;
_chemical_formula_sum "Si O2"
_cell_formula_units_Z 52
_cell_length_a 8.951054
_cell_length_b 22.196891
_cell_length_c 15.403915
_cell_angle_alpha 90.000000
_cell_angle_beta 90.000000
_cell_angle_gamma 90.000000
_cell_volume 3060.535632
_symmetry_space_group_name_H-M "P M M A"
_symmetry_group_IT_number 51
_symmetry_cell_setting 'orthorhombic'
loop_
_space_group_symop_operation_xyz
x,y,z
1/2-x,-y,z
1/2+x,-y,-z
-x,y,-z
-x,-y,-z
1/2+x,y,-z
1/2-x,y,z
x,-y,z
loop_
_atom_site_type_symbol
_atom_site_label
_atom_site_fract_x
_atom_site_fract_y
_atom_site_fract_z
Si Si1 0.930200 0.500000 0.595288
Si Si2 0.575493 0.150642 0.728012
Si Si3 0.414005 0.706322 0.082187
Si Si4 0.586163 0.848999 0.918917
Si Si5 0.925079 0.068674 0.411821
Si Si6 0.425208 0.290759 0.275372
Si Si7 0.071197 0.379783 0.594454
O O1 0.750000 0.500000 0.595404
O O2 0.000000 0.500000 0.500000
O O3 0.996611 0.439417 0.638798
O O4 0.750000 0.134656 0.719375
O O5 0.515491 0.135734 0.825204
O O6 0.478022 0.110234 0.665683
O O7 0.549592 0.220434 0.706399
O O8 0.250000 0.677900 0.078232
O O9 0.405384 0.777566 0.070723
O O10 0.481454 0.691889 0.177713
O O11 0.500000 0.677329 0.000000
O O12 0.750000 0.877254 0.922609
O O13 0.500000 0.878350 0.000000
O O14 0.750000 0.075109 0.423431
O O15 0.000000 0.091940 0.500000
O O16 0.972924 0.000000 0.392121
O O17 0.250000 0.307044 0.286676
O O18 0.529293 0.324683 0.343666
O O19 0.250000 0.386459 0.586190
O O20 0.000000 0.367900 0.500000
#
# Coordination Sequence:
#
# PCOD8207195 Si02
#       7
#     4   8   8   8   8   8   8
#     4  10  18  32  52  70  91 122 159 198 236 276
#     4   9  18  32  50  71  97 126 156 192 235 281
#     4   8  14  25  42  63  91 123 155 190 227 270
#     4   8  14  25  42  66  93 122 152 184 225 272
#     4  10  21  36  53  71  90 116 154 197 238 282
#     4   9  18  32  47  69 100 130 158 191 234 281
#     4  11  21  33  49  70  96 127 162 198 234 277
#
# _framework density 16.990489
#
# number of rings (size 3 to 8) (size 9 to 14) (size 15 to 20)
#    0.000    2.769    0.000    5.308    0.000    3.385 
#    0.000    3.077    0.000    0.462    0.000    0.538 
#    0.000    0.000    0.000    0.000    0.000    0.000 
#
# Total GULP energy -644357.884755 kJ/mol
# GULP energy per Si atom -12391.497784 kJ/mol
# Density = 1.695182 g / cm^3
# Si number density = 16.990489 Si / 1000 Ang^3
#
#
#
# Elastic Constant Matrix: (Units=GPa)
#
#
# Indices 1 2 3 4 5 6 
#
# 1 96.5189 35.8036 57.1350 0.0000 0.0000 0.0000
# 2 35.8036 50.8777 47.9717 0.0000 0.0000 0.0000
# 3 57.1350 47.9717 127.1026 0.0000 0.0000 0.0000
# 4 0.0000 0.0000 0.0000 -5.4812 0.0000 0.0000
# 5 0.0000 0.0000 0.0000 0.0000 33.6685 0.0000
# 6 0.0000 0.0000 0.0000 0.0000 0.0000 24.5972
#
#
#
# Elastic Compliance Matrix: (Units=1/GPa)
#
#
# Indices 1 2 3 4 5 6 
#
# 1 0.015468 -0.006721 -0.004417 0.000000 0.000000 0.000000
# 2 -0.006721 0.033434 -0.009598 0.000000 0.000000 0.000000
# 3 -0.004417 -0.009598 0.013475 0.000000 0.000000 0.000000
# 4 0.000000 0.000000 0.000000 -0.182442 0.000000 0.000000
# 5 0.000000 0.000000 0.000000 0.000000 0.029701 0.000000
# 6 0.000000 0.000000 0.000000 0.000000 0.000000 0.040655
#
#
# Mechanical properties :
#
#
# Convention : Reuss Voigt Hill
#
# Bulk Modulus (GPa) = 47.83022 61.81332 54.82177
# Shear Modulus (GPa) = -3942.41940 19.46284 -1961.47828
#
# Velocity S-wave (km/s) = -48.22246 3.38822 -34.01416
# Velocity P-wave (km/s) = 55.42859 7.19491 38.86233
#
# Compressibility (1/GPa) = 0.02090728
#
# Stress axis : x y z
#
# Youngs Moduli (GPa) = 64.64864 29.90963 74.20934
#
# Poissons Ratio (x) = 0.20102 0.32775
# Poissons Ratio (y) = 0.43450 0.71223
# Poissons Ratio (z) = 0.28553 0.28706
#
# Static dielectric constant tensor:
#      x y z
#    x 4.393980 0.000000 0.000000 
#    y 0.000000 3.066350 0.000000 
#    z 0.000000 0.000000 3.321430 
# 
# 
# High freq. dielectric constant tensor:
#      x y z
#    x 1.656850 0.000000 0.000000 
#    y 0.000000 1.617610 0.000000 
#    z 0.000000 0.000000 1.658110 
# 
# From -- ./inp_files/21581.got.cif
#   From: 2010.03.12/outbox.cif.g09.slc.cpg/sg51_11_cif.got.tgz:21581.got - 2010.04.16 13:43:02.
