data_PCOD8207457
_publ_section_title
;
Structure prediction by ZEFSAII (Michael W. Deem and Ramdas Pophale) SiO2 
 PCOD8207457
Probable space group: P M M A
;
_chemical_formula_sum "Si O2"
_cell_formula_units_Z 64
_cell_length_a 30.839785
_cell_length_b 8.860630
_cell_length_c 12.178269
_cell_angle_alpha 90.000000
_cell_angle_beta 90.000000
_cell_angle_gamma 90.000000
_cell_volume 3327.832863
_symmetry_space_group_name_H-M "P M M A"
_symmetry_group_IT_number 51
_symmetry_cell_setting 'orthorhombic'
loop_
_space_group_symop_operation_xyz
x,y,z
1/2-x,-y,z
1/2+x,-y,-z
-x,y,-z
-x,-y,-z
1/2+x,y,-z
1/2-x,y,z
x,-y,z
loop_
_atom_site_type_symbol
_atom_site_label
_atom_site_fract_x
_atom_site_fract_y
_atom_site_fract_z
Si Si1 0.451181 0.320391 0.514831
Si Si2 0.888492 0.177074 0.867819
Si Si3 0.200335 0.324349 0.527869
Si Si4 0.438570 0.321429 0.755946
Si Si5 0.137191 0.678622 0.910884
Si Si6 0.698994 0.829375 0.247656
Si Si7 0.373935 0.322080 0.359932
Si Si8 0.478523 0.329334 0.118040
O O1 0.500000 0.255229 0.500000
O O2 0.453207 0.500000 0.514778
O O3 0.432090 0.263285 0.631655
O O4 0.418084 0.265118 0.420410
O O5 0.868644 0.238887 0.755167
O O6 0.939000 0.215645 0.876014
O O7 0.881789 0.000000 0.872583
O O8 0.862797 0.250693 0.968558
O O9 0.250000 0.284278 0.495370
O O10 0.195454 0.500000 0.556270
O O11 0.184459 0.234502 0.634622
O O12 0.168675 0.278022 0.429128
O O13 0.434429 0.500000 0.762597
O O14 0.402470 0.253910 0.837775
O O15 0.486554 0.272863 0.793466
O O16 0.134313 0.500000 0.923484
O O17 0.180951 0.726395 0.850126
O O18 0.750000 0.820973 0.236595
O O19 0.681766 0.000000 0.236593
O O20 0.376407 0.500000 0.340026
O O21 0.462402 0.500000 0.144485
O O22 0.500000 0.325335 0.000000
#
# Coordination Sequence:
#
# PCOD8207457 Si02
#       8
#     8   8   8   8   8   8   8   8
#     4   9  16  27  48  78 107 136 176 226 275 328
#     4  12  25  38  53  78 114 152 191 235 293 352
#     4   9  18  35  61  90 114 141 186 239 284 335
#     4   9  17  30  53  83 109 136 179 233 282 325
#     4  11  21  37  59  82 108 143 193 239 277 327
#     4  10  21  37  58  87 122 153 179 218 281 348
#     4  10  20  36  57  79 108 149 195 241 290 340
#     4  10  18  34  57  80 107 145 191 234 278 333
#
# _framework density 19.231736000000001
#
# number of rings (size 3 to 8) (size 9 to 14) (size 15 to 20)
#    0.000    2.000    1.250    3.375    0.000    5.500 
#    0.000    0.625    0.000    5.625    0.000    0.000 
#    0.000    0.000    0.000    0.000    0.000    0.000 
#
# Total GULP energy -793642.440987 kJ/mol
# GULP energy per Si atom -12400.663140 kJ/mol
# Density = 1.918796 g / cm^3
# Si number density = 19.231736 Si / 1000 Ang^3
#
#
#
# Elastic Constant Matrix: (Units=GPa)
#
#
# Indices 1 2 3 4 5 6 
#
# 1 81.1332 36.0003 59.4307 0.0000 0.0000 0.0000
# 2 36.0003 72.9075 53.7649 0.0000 0.0000 0.0000
# 3 59.4307 53.7649 159.7628 0.0000 0.0000 0.0000
# 4 0.0000 0.0000 0.0000 17.6987 0.0000 0.0000
# 5 0.0000 0.0000 0.0000 0.0000 31.1222 0.0000
# 6 0.0000 0.0000 0.0000 0.0000 0.0000 19.7547
#
#
#
# Elastic Compliance Matrix: (Units=1/GPa)
#
#
# Indices 1 2 3 4 5 6 
#
# 1 0.018398 -0.005370 -0.005037 0.000000 0.000000 0.000000
# 2 -0.005370 0.019811 -0.004669 0.000000 0.000000 0.000000
# 3 -0.005037 -0.004669 0.009704 0.000000 0.000000 0.000000
# 4 0.000000 0.000000 0.000000 0.056501 0.000000 0.000000
# 5 0.000000 0.000000 0.000000 0.000000 0.032131 0.000000
# 6 0.000000 0.000000 0.000000 0.000000 0.000000 0.050621
#
#
# Mechanical properties :
#
#
# Convention : Reuss Voigt Hill
#
# Bulk Modulus (GPa) = 56.30415 68.02173 62.16294
# Shear Modulus (GPa) = 22.39753 24.68895 23.54324
#
# Velocity S-wave (km/s) = 3.41634 3.58685 3.50263
# Velocity P-wave (km/s) = 6.70090 7.25260 6.98221
#
# Compressibility (1/GPa) = 0.01776068
#
# Stress axis : x y z
#
# Youngs Moduli (GPa) = 54.35495 50.47685 103.04809
#
# Poissons Ratio (x) = 0.27107 0.51901
# Poissons Ratio (y) = 0.29190 0.48116
# Poissons Ratio (z) = 0.27376 0.23569
#
# Static dielectric constant tensor:
#      x y z
#    x 3.475140 0.000000 0.000000 
#    y 0.000000 3.258740 0.000000 
#    z 0.000000 0.000000 3.700560 
# 
# 
# High freq. dielectric constant tensor:
#      x y z
#    x 1.745720 0.000000 0.000000 
#    y 0.000000 1.714120 0.000000 
#    z 0.000000 0.000000 1.759170 
# 
# From -- ./inp_files/19535.got.cif
#   From: 2010.03.12/outbox.cif.g09.slc.cpg/sg51_10_cif.got.tgz:19535.got - 2010.04.16 13:43:02.
