data_PCOD8207304
_publ_section_title
;
Structure prediction by ZEFSAII (Michael W. Deem and Ramdas Pophale) SiO2 
 PCOD8207304
Probable space group: P M M A
;
_chemical_formula_sum "Si O2"
_cell_formula_units_Z 48
_cell_length_a 20.478198
_cell_length_b 9.280444
_cell_length_c 14.282973
_cell_angle_alpha 90.000000
_cell_angle_beta 90.000000
_cell_angle_gamma 90.000000
_cell_volume 2714.432881
_symmetry_space_group_name_H-M "P M M A"
_symmetry_group_IT_number 51
_symmetry_cell_setting 'orthorhombic'
loop_
_space_group_symop_operation_xyz
x,y,z
1/2-x,-y,z
1/2+x,-y,-z
-x,y,-z
-x,-y,-z
1/2+x,y,-z
1/2-x,y,z
x,-y,z
loop_
_atom_site_type_symbol
_atom_site_label
_atom_site_fract_x
_atom_site_fract_y
_atom_site_fract_z
Si Si1 0.322269 0.170901 0.061357
Si Si2 0.176352 0.166553 0.451170
Si Si3 0.482846 0.334008 0.754405
Si Si4 0.064560 0.664977 0.550274
Si Si5 0.384179 0.167419 0.253573
Si Si6 0.560615 0.169051 0.067022
O O1 0.250000 0.233823 0.039822
O O2 0.345511 0.224611 0.163012
O O3 0.319952 0.000000 0.062397
O O4 0.373113 0.223271 0.982738
O O5 0.250000 0.218714 0.470594
O O6 0.128706 0.252550 0.518520
O O7 0.161580 0.193751 0.342303
O O8 0.167757 0.000000 0.476052
O O9 0.494770 0.500000 0.780983
O O10 0.439282 0.319386 0.661757
O O11 0.551314 0.259848 0.733764
O O12 0.444417 0.256190 0.837381
O O13 0.071847 0.500000 0.518396
O O14 0.000000 0.730538 0.500000
O O15 0.404074 0.000000 0.241870
O O16 0.562315 0.000000 0.090140
O O17 0.500000 0.205524 0.000000
#
# Coordination Sequence:
#
# PCOD8207304 Si02
#       6
#     8   8   8   8   8   8
#     4   9  17  31  53  79 107 139 173 210 258 318
#     4  10  21  35  55  86 116 141 176 226 280 327
#     4  11  22  35  54  80 108 139 181 226 267 310
#     4  10  21  38  56  76 107 148 189 224 264 323
#     4  10  18  32  55  82 112 139 170 217 273 327
#     4  10  19  34  55  80 107 139 178 216 261 320
#
# _framework density 17.683252
#
# number of rings (size 3 to 8) (size 9 to 14) (size 15 to 20)
#    0.000    2.000    3.333    1.000    0.000    4.333 
#    0.000    0.833    0.000    6.000    0.000    0.000 
#    0.000    0.000    0.000    0.000    0.000    0.000 
#
# Total GULP energy -595286.461326 kJ/mol
# GULP energy per Si atom -12401.801278 kJ/mol
# Density = 1.764300 g / cm^3
# Si number density = 17.683252 Si / 1000 Ang^3
#
#
#
# Elastic Constant Matrix: (Units=GPa)
#
#
# Indices 1 2 3 4 5 6 
#
# 1 157.7263 55.3131 61.6521 0.0000 0.0000 0.0000
# 2 55.3131 62.4934 49.2361 0.0000 0.0000 0.0000
# 3 61.6521 49.2361 102.8223 0.0000 0.0000 0.0000
# 4 0.0000 0.0000 0.0000 26.4096 0.0000 0.0000
# 5 0.0000 0.0000 0.0000 0.0000 29.3115 0.0000
# 6 0.0000 0.0000 0.0000 0.0000 0.0000 13.3119
#
#
#
# Elastic Compliance Matrix: (Units=1/GPa)
#
#
# Indices 1 2 3 4 5 6 
#
# 1 0.009646 -0.006393 -0.002723 0.000000 0.000000 0.000000
# 2 -0.006393 0.029932 -0.010500 0.000000 0.000000 0.000000
# 3 -0.002723 -0.010500 0.016386 0.000000 0.000000 0.000000
# 4 0.000000 0.000000 0.000000 0.037865 0.000000 0.000000
# 5 0.000000 0.000000 0.000000 0.000000 0.034116 0.000000
# 6 0.000000 0.000000 0.000000 0.000000 0.000000 0.075121
#
#
# Mechanical properties :
#
#
# Convention : Reuss Voigt Hill
#
# Bulk Modulus (GPa) = 59.75953 72.82716 66.29334
# Shear Modulus (GPa) = 20.17143 24.26265 22.21704
#
# Velocity S-wave (km/s) = 3.38110 3.70816 3.54840
# Velocity P-wave (km/s) = 7.00787 7.72060 7.37285
#
# Compressibility (1/GPa) = 0.01673373
#
# Stress axis : x y z
#
# Youngs Moduli (GPa) = 103.66725 33.40852 61.02809
#
# Poissons Ratio (x) = 0.21357 0.16616
# Poissons Ratio (y) = 0.66273 0.64079
# Poissons Ratio (z) = 0.28225 0.35079
#
# Static dielectric constant tensor:
#      x y z
#    x 3.478900 0.000000 0.000000 
#    y 0.000000 3.112870 0.000000 
#    z 0.000000 0.000000 3.334340 
# 
# 
# High freq. dielectric constant tensor:
#      x y z
#    x 1.684710 0.000000 0.000000 
#    y 0.000000 1.662670 0.000000 
#    z 0.000000 0.000000 1.688160 
# 
# From -- ./inp_files/24691.got.cif
#   From: 2010.03.12/outbox.cif.g09.slc.cpg/sg51_13_cif.got.tgz:24691.got - 2010.04.16 13:43:02.
