data_PCOD8207104
_publ_section_title
;
Structure prediction by ZEFSAII (Michael W. Deem and Ramdas Pophale) SiO2 
 PCOD8207104
Probable space group: P M M A
;
_chemical_formula_sum "Si O2"
_cell_formula_units_Z 56
_cell_length_a 8.893444
_cell_length_b 14.206231
_cell_length_c 25.708652
_cell_angle_alpha 90.000000
_cell_angle_beta 90.000000
_cell_angle_gamma 90.000000
_cell_volume 3248.090734
_symmetry_space_group_name_H-M "P M M A"
_symmetry_group_IT_number 51
_symmetry_cell_setting 'orthorhombic'
loop_
_space_group_symop_operation_xyz
x,y,z
1/2-x,-y,z
1/2+x,-y,-z
-x,y,-z
-x,-y,-z
1/2+x,y,-z
1/2-x,y,z
x,-y,z
loop_
_atom_site_type_symbol
_atom_site_label
_atom_site_fract_x
_atom_site_fract_y
_atom_site_fract_z
Si Si1 0.928539 0.894508 0.251624
Si Si2 0.424521 0.791715 0.852251
Si Si3 0.573600 0.108188 0.554397
Si Si4 0.424759 0.607375 0.308913
Si Si5 0.571923 0.218308 0.352094
Si Si6 0.926619 0.107100 0.946356
Si Si7 0.421364 0.394888 0.798792
O O1 0.750000 0.895715 0.252636
O O2 0.984808 0.845390 0.198897
O O3 0.988142 0.837395 0.301383
O O4 0.994503 0.000000 0.253814
O O5 0.250000 0.814669 0.862379
O O6 0.519735 0.824185 0.901182
O O7 0.452800 0.680034 0.844478
O O8 0.500000 0.136860 0.500000
O O9 0.750000 0.126436 0.550797
O O10 0.502594 0.173868 0.597681
O O11 0.536642 0.000000 0.568176
O O12 0.250000 0.630856 0.314754
O O13 0.460694 0.500000 0.324683
O O14 0.519426 0.673646 0.347401
O O15 0.470817 0.625819 0.249411
O O16 0.750000 0.212857 0.357713
O O17 0.750000 0.115588 0.952570
O O18 0.976008 0.000000 0.933373
O O19 0.000000 0.141100 0.000000
O O20 0.250000 0.382304 0.778581
O O21 0.448013 0.500000 0.821256
#
# Coordination Sequence:
#
# PCOD8207104 Si02
#       7
#     8   8   8   8   8   8   8
#     4   9  17  28  44  71 105 137 167 200 247 305
#     4  10  18  31  51  75 103 136 169 207 255 305
#     4  10  21  37  56  79 107 141 181 222 262 307
#     4  10  20  33  50  74 105 139 175 218 265 312
#     4  11  20  33  53  77 106 141 178 217 261 312
#     4  10  21  36  53  74  99 131 171 213 255 301
#     4   9  17  31  51  75 103 135 173 212 253 308
#
# _framework density 17.240898999999999
#
# number of rings (size 3 to 8) (size 9 to 14) (size 15 to 20)
#    0.000    2.143    1.429    2.571    0.000    4.286 
#    0.000    0.000    0.000    3.429    0.000    0.000 
#    0.000    0.000    0.000    0.000    0.000    0.000 
#
# Total GULP energy -694509.797407 kJ/mol
# GULP energy per Si atom -12401.960668 kJ/mol
# Density = 1.720166 g / cm^3
# Si number density = 17.240899 Si / 1000 Ang^3
#
#
#
# Elastic Constant Matrix: (Units=GPa)
#
#
# Indices 1 2 3 4 5 6 
#
# 1 63.1536 40.9196 46.9280 0.0000 0.0000 0.0000
# 2 40.9196 118.7718 69.0804 0.0000 0.0000 0.0000
# 3 46.9280 69.0804 124.7424 0.0000 0.0000 0.0000
# 4 0.0000 0.0000 0.0000 18.2236 0.0000 0.0000
# 5 0.0000 0.0000 0.0000 0.0000 30.9005 0.0000
# 6 0.0000 0.0000 0.0000 0.0000 0.0000 24.7709
#
#
#
# Elastic Compliance Matrix: (Units=1/GPa)
#
#
# Indices 1 2 3 4 5 6 
#
# 1 0.023403 -0.004340 -0.006401 0.000000 0.000000 0.000000
# 2 -0.004340 0.013225 -0.005691 0.000000 0.000000 0.000000
# 3 -0.006401 -0.005691 0.013576 0.000000 0.000000 0.000000
# 4 0.000000 0.000000 0.000000 0.054874 0.000000 0.000000
# 5 0.000000 0.000000 0.000000 0.000000 0.032362 0.000000
# 6 0.000000 0.000000 0.000000 0.000000 0.000000 0.040370
#
#
# Mechanical properties :
#
#
# Convention : Reuss Voigt Hill
#
# Bulk Modulus (GPa) = 57.66947 68.94709 63.30828
# Shear Modulus (GPa) = 23.09978 24.76164 23.93071
#
# Velocity S-wave (km/s) = 3.66433 3.79385 3.72966
# Velocity P-wave (km/s) = 7.17112 7.69859 7.43953
#
# Compressibility (1/GPa) = 0.01734020
#
# Stress axis : x y z
#
# Youngs Moduli (GPa) = 42.73032 75.61593 73.65943
#
# Poissons Ratio (x) = 0.32817 0.47147
# Poissons Ratio (y) = 0.18545 0.41919
# Poissons Ratio (z) = 0.27350 0.43033
#
# Static dielectric constant tensor:
#      x y z
#    x 3.145650 0.000000 0.000000 
#    y 0.000000 3.431900 0.000000 
#    z 0.000000 0.000000 3.078400 
# 
# 
# High freq. dielectric constant tensor:
#      x y z
#    x 1.661410 0.000000 0.000000 
#    y 0.000000 1.669900 0.000000 
#    z 0.000000 0.000000 1.647290 
# 
# From -- ./inp_files/31979.got.cif
#   From: 2010.03.12/outbox.cif.g09.slc.cpg/sg51_16_cif.got.tgz:31979.got - 2010.04.16 13:43:02.
