data_PCOD8207029
_publ_section_title
;
Structure prediction by ZEFSAII (Michael W. Deem and Ramdas Pophale) SiO2 
 PCOD8207029
Probable space group: P M M A
;
_chemical_formula_sum "Si O2"
_cell_formula_units_Z 64
_cell_length_a 8.649880
_cell_length_b 23.677206
_cell_length_c 19.108329
_cell_angle_alpha 90.000000
_cell_angle_beta 90.000000
_cell_angle_gamma 90.000000
_cell_volume 3913.481142
_symmetry_space_group_name_H-M "P M M A"
_symmetry_group_IT_number 51
_symmetry_cell_setting 'orthorhombic'
loop_
_space_group_symop_operation_xyz
x,y,z
1/2-x,-y,z
1/2+x,-y,-z
-x,y,-z
-x,-y,-z
1/2+x,y,-z
1/2-x,y,z
x,-y,z
loop_
_atom_site_type_symbol
_atom_site_label
_atom_site_fract_x
_atom_site_fract_y
_atom_site_fract_z
Si Si1 0.067084 0.670160 0.346095
Si Si2 0.429476 0.935267 0.215294
Si Si3 0.568949 0.879304 0.929029
Si Si4 0.566755 0.437244 0.575212
Si Si5 0.932787 0.267721 0.788280
Si Si6 0.931478 0.835270 0.292775
Si Si7 0.933688 0.781286 0.575936
Si Si8 0.931896 0.756237 0.072087
O O1 0.250000 0.668779 0.347240
O O2 0.001339 0.609179 0.370024
O O3 0.011252 0.684693 0.267408
O O4 0.011016 0.718993 0.399320
O O5 0.250000 0.923260 0.230670
O O6 0.468234 0.920933 0.134699
O O7 0.532354 0.898762 0.268351
O O8 0.473268 0.000000 0.228531
O O9 0.750000 0.868336 0.938646
O O10 0.488198 0.819667 0.914905
O O11 0.500000 0.906715 0.000000
O O12 0.500000 0.421868 0.500000
O O13 0.750000 0.434156 0.570004
O O14 0.513018 0.500000 0.599069
O O15 0.750000 0.267389 0.797339
O O16 0.983152 0.206447 0.760874
O O17 0.010691 0.281675 0.862693
O O18 0.750000 0.823342 0.290969
O O19 0.996136 0.827297 0.371059
O O20 0.750000 0.786728 0.575888
O O21 0.000000 0.794201 0.500000
O O22 0.750000 0.754398 0.067598
O O23 0.000000 0.731181 0.000000
#
# Coordination Sequence:
#
# PCOD8207029 Si02
#       8
#     8   8   8   8   8   8   8   8
#     4   8  16  28  44  67  95 127 159 194 233 269
#     4  10  21  36  52  68  90 122 155 188 229 275
#     4  10  19  31  48  67  92 122 153 187 224 266
#     4   9  16  27  43  64  93 130 168 200 229 266
#     4  10  18  31  48  66  92 123 155 194 236 277
#     4  11  21  33  50  71  93 118 151 188 231 281
#     4  10  19  32  50  71  96 122 151 189 233 279
#     4  11  20  30  46  68  93 122 154 187 228 280
#
# _framework density 16.353726000000002
#
# number of rings (size 3 to 8) (size 9 to 14) (size 15 to 20)
#    0.000    2.125    1.250    5.250    0.000    1.000 
#    0.000    3.125    0.000    0.375    0.000    0.000 
#    0.000    0.500    0.000    0.875    0.000    1.250 
#
# Total GULP energy -793528.943251 kJ/mol
# GULP energy per Si atom -12398.889738 kJ/mol
# Density = 1.631650 g / cm^3
# Si number density = 16.353726 Si / 1000 Ang^3
#
#
#
# Elastic Constant Matrix: (Units=GPa)
#
#
# Indices 1 2 3 4 5 6 
#
# 1 80.0982 25.9603 41.9462 0.0000 0.0000 0.0000
# 2 25.9603 90.5163 59.3577 0.0000 0.0000 0.0000
# 3 41.9462 59.3577 140.1234 0.0000 0.0000 0.0000
# 4 0.0000 0.0000 0.0000 26.0106 0.0000 0.0000
# 5 0.0000 0.0000 0.0000 0.0000 29.9166 0.0000
# 6 0.0000 0.0000 0.0000 0.0000 0.0000 12.3001
#
#
#
# Elastic Compliance Matrix: (Units=1/GPa)
#
#
# Indices 1 2 3 4 5 6 
#
# 1 0.015034 -0.001884 -0.003702 0.000000 0.000000 0.000000
# 2 -0.001884 0.015533 -0.006016 0.000000 0.000000 0.000000
# 3 -0.003702 -0.006016 0.010793 0.000000 0.000000 0.000000
# 4 0.000000 0.000000 0.000000 0.038446 0.000000 0.000000
# 5 0.000000 0.000000 0.000000 0.000000 0.033426 0.000000
# 6 0.000000 0.000000 0.000000 0.000000 0.000000 0.081300
#
#
# Mechanical properties :
#
#
# Convention : Reuss Voigt Hill
#
# Bulk Modulus (GPa) = 55.07855 62.80737 58.94296
# Shear Modulus (GPa) = 22.34237 25.87703 24.10970
#
# Velocity S-wave (km/s) = 3.70022 3.98217 3.84378
# Velocity P-wave (km/s) = 7.21166 7.72221 7.47130
#
# Compressibility (1/GPa) = 0.01815589
#
# Stress axis : x y z
#
# Youngs Moduli (GPa) = 66.51513 64.37836 92.64935
#
# Poissons Ratio (x) = 0.12128 0.34303
# Poissons Ratio (y) = 0.12531 0.55739
# Poissons Ratio (z) = 0.24627 0.38730
#
# Static dielectric constant tensor:
#      x y z
#    x 3.064790 0.000000 0.000000 
#    y 0.000000 3.062220 0.000000 
#    z 0.000000 0.000000 3.186370 
# 
# 
# High freq. dielectric constant tensor:
#      x y z
#    x 1.632210 0.000000 0.000000 
#    y 0.000000 1.592190 0.000000 
#    z 0.000000 0.000000 1.632750 
# 
# From -- ./inp_files/28650.got.cif
#   From: 2010.03.12/outbox.cif.g09.slc.cpg/sg51_15_cif.got.tgz:28650.got - 2010.04.16 13:43:02.
