data_PCOD8207579
_publ_section_title
;
Structure prediction by ZEFSAII (Michael W. Deem and Ramdas Pophale) SiO2 
 PCOD8207579
Probable space group: P M M A
;
_chemical_formula_sum "Si O2"
_cell_formula_units_Z 56
_cell_length_a 8.911881
_cell_length_b 21.241651
_cell_length_c 18.167653
_cell_angle_alpha 90.000000
_cell_angle_beta 90.000000
_cell_angle_gamma 90.000000
_cell_volume 3439.192414
_symmetry_space_group_name_H-M "P M M A"
_symmetry_group_IT_number 51
_symmetry_cell_setting 'orthorhombic'
loop_
_space_group_symop_operation_xyz
x,y,z
1/2-x,-y,z
1/2+x,-y,-z
-x,y,-z
-x,-y,-z
1/2+x,y,-z
1/2-x,y,z
x,-y,z
loop_
_atom_site_type_symbol
_atom_site_label
_atom_site_fract_x
_atom_site_fract_y
_atom_site_fract_z
Si Si1 0.084670 0.636826 0.802336
Si Si2 0.075806 0.294293 0.078336
Si Si3 0.081659 0.240910 0.702151
Si Si4 0.423800 0.073547 0.923953
Si Si5 0.428428 0.315352 0.421255
Si Si6 0.926848 0.826882 0.826470
Si Si7 0.574042 0.571606 0.339348
O O1 0.250000 0.621422 0.833746
O O2 0.089586 0.699211 0.754055
O O3 0.029446 0.581808 0.746834
O O4 0.974667 0.646441 0.871371
O O5 0.250000 0.300059 0.065602
O O6 0.030894 0.229132 0.117419
O O7 0.000000 0.297745 0.000000
O O8 0.250000 0.219296 0.680131
O O9 0.986670 0.258674 0.630092
O O10 0.997904 0.185244 0.746158
O O11 0.250000 0.092380 0.928186
O O12 0.502971 0.108969 0.856913
O O13 0.446860 0.000000 0.909477
O O14 0.500000 0.094620 0.000000
O O15 0.500000 0.303665 0.500000
O O16 0.250000 0.313170 0.425716
O O17 0.477813 0.383844 0.392014
O O18 0.750000 0.834201 0.817434
O O19 0.750000 0.588124 0.349510
O O20 0.538568 0.500000 0.361347
#
# Coordination Sequence:
#
# PCOD8207579 Si02
#       7
#     8   8   8   8   8   8   8
#     4   8  15  28  45  63  84 110 139 176 223 270
#     4  10  19  28  41  62  86 111 142 183 228 273
#     4   9  17  31  49  68  91 119 150 185 227 272
#     4  10  20  32  45  63  91 129 169 206 243 280
#     4  11  21  33  49  70  97 125 152 183 223 269
#     4  10  19  30  46  68  92 120 155 193 233 277
#     4   9  18  33  51  69  89 116 150 184 221 269
#
# _framework density 16.282893000000001
#
# number of rings (size 3 to 8) (size 9 to 14) (size 15 to 20)
#    0.000    2.429    0.000    4.286    0.000    7.714 
#    0.000    0.000    0.000    0.429    0.000    0.000 
#    0.000    0.571    0.000    2.143    0.000    3.286 
#
# Total GULP energy -694333.912862 kJ/mol
# GULP energy per Si atom -12398.819873 kJ/mol
# Density = 1.624583 g / cm^3
# Si number density = 16.282893 Si / 1000 Ang^3
#
#
#
# Elastic Constant Matrix: (Units=GPa)
#
#
# Indices 1 2 3 4 5 6 
#
# 1 107.2152 36.9321 69.3636 0.0000 0.0000 0.0000
# 2 36.9321 53.6166 43.8788 0.0000 0.0000 0.0000
# 3 69.3636 43.8788 115.5448 0.0000 0.0000 0.0000
# 4 0.0000 0.0000 0.0000 19.3935 0.0000 0.0000
# 5 0.0000 0.0000 0.0000 0.0000 31.1934 0.0000
# 6 0.0000 0.0000 0.0000 0.0000 0.0000 20.9237
#
#
#
# Elastic Compliance Matrix: (Units=1/GPa)
#
#
# Indices 1 2 3 4 5 6 
#
# 1 0.015990 -0.004583 -0.007859 0.000000 0.000000 0.000000
# 2 -0.004583 0.028375 -0.008024 0.000000 0.000000 0.000000
# 3 -0.007859 -0.008024 0.016420 0.000000 0.000000 0.000000
# 4 0.000000 0.000000 0.000000 0.051564 0.000000 0.000000
# 5 0.000000 0.000000 0.000000 0.000000 0.032058 0.000000
# 6 0.000000 0.000000 0.000000 0.000000 0.000000 0.047793
#
#
# Mechanical properties :
#
#
# Convention : Reuss Voigt Hill
#
# Bulk Modulus (GPa) = 50.37120 64.08062 57.22591
# Shear Modulus (GPa) = 20.85529 22.71560 21.78544
#
# Velocity S-wave (km/s) = 3.58272 3.73910 3.66175
# Velocity P-wave (km/s) = 6.93662 7.62110 7.28690
#
# Compressibility (1/GPa) = 0.01985262
#
# Stress axis : x y z
#
# Youngs Moduli (GPa) = 62.53958 35.24290 60.90266
#
# Poissons Ratio (x) = 0.16151 0.47862
# Poissons Ratio (y) = 0.28660 0.48870
# Poissons Ratio (z) = 0.49148 0.28280
#
# Static dielectric constant tensor:
#      x y z
#    x 3.252800 0.000000 0.000000 
#    y 0.000000 2.967510 0.000000 
#    z 0.000000 0.000000 3.098880 
# 
# 
# High freq. dielectric constant tensor:
#      x y z
#    x 1.640610 0.000000 0.000000 
#    y 0.000000 1.591130 0.000000 
#    z 0.000000 0.000000 1.616550 
# 
# From -- ./inp_files/28191.got.cif
#   From: 2010.03.12/outbox.cif.g09.slc.cpg/sg51_15_cif.got.tgz:28191.got - 2010.04.16 13:43:02.
