data_PCOD8207554
_publ_section_title
;
Structure prediction by ZEFSAII (Michael W. Deem and Ramdas Pophale) SiO2 
 PCOD8207554
Probable space group: P M M A
;
_chemical_formula_sum "Si O2"
_cell_formula_units_Z 64
_cell_length_a 8.959531
_cell_length_b 26.617062
_cell_length_c 18.345958
_cell_angle_alpha 90.000000
_cell_angle_beta 90.000000
_cell_angle_gamma 90.000000
_cell_volume 4375.077874
_symmetry_space_group_name_H-M "P M M A"
_symmetry_group_IT_number 51
_symmetry_cell_setting 'orthorhombic'
loop_
_space_group_symop_operation_xyz
x,y,z
1/2-x,-y,z
1/2+x,-y,-z
-x,y,-z
-x,-y,-z
1/2+x,y,-z
1/2-x,y,z
x,-y,z
loop_
_atom_site_type_symbol
_atom_site_label
_atom_site_fract_x
_atom_site_fract_y
_atom_site_fract_z
Si Si1 0.073141 0.848421 0.576078
Si Si2 0.914888 0.107180 0.198872
Si Si3 0.079474 0.843072 0.076593
Si Si4 0.421494 0.259463 0.162833
Si Si5 0.575194 0.554535 0.921823
Si Si6 0.572523 0.347757 0.079564
Si Si7 0.928018 0.944445 0.339497
Si Si8 0.915029 0.210100 0.285641
O O1 0.250000 0.850367 0.567543
O O2 0.011848 0.902958 0.603278
O O3 0.027017 0.804874 0.633621
O O4 0.000000 0.834111 0.500000
O O5 0.750000 0.090225 0.173050
O O6 0.984011 0.067605 0.257031
O O7 0.902904 0.159791 0.239553
O O8 0.018008 0.112325 0.127910
O O9 0.250000 0.854874 0.062384
O O10 0.054516 0.789193 0.113194
O O11 0.000000 0.843381 0.000000
O O12 0.250000 0.277032 0.162984
O O13 0.527190 0.302387 0.131442
O O14 0.471344 0.248310 0.246158
O O15 0.750000 0.567129 0.929893
O O16 0.553575 0.500000 0.882048
O O17 0.491028 0.600925 0.882373
O O18 0.500000 0.550595 0.000000
O O19 0.750000 0.349979 0.072039
O O20 0.500000 0.340103 0.000000
O O21 0.750000 0.941503 0.337980
O O22 0.984863 0.000000 0.362456
O O23 0.750000 0.234864 0.290126
#
# Coordination Sequence:
#
# PCOD8207554 Si02
#       8
#     8   8   8   8   8   8   8   8
#     4   9  17  28  43  63  86 109 132 158 185 219
#     4   8  14  26  43  58  73  96 125 155 186 225
#     4  10  19  28  40  57  76  97 121 154 194 235
#     4  10  19  29  41  58  78 100 128 162 201 242
#     4   9  16  26  39  53  71  98 134 175 214 249
#     4  11  20  28  39  55  78 106 136 173 212 247
#     4   8  14  26  44  63  81 103 129 154 185 226
#     4   8  15  28  42  56  76 103 131 156 187 228
#
# _framework density 14.628311
#
# number of rings (size 3 to 8) (size 9 to 14) (size 15 to 20)
#    0.000    2.875    0.000    4.875    0.000    4.000 
#    0.000    1.875    0.000    1.500    0.000    0.000 
#    0.000    0.000    0.000    0.000    0.000    0.625 
#
# Total GULP energy -793033.949761 kJ/mol
# GULP energy per Si atom -12391.155465 kJ/mol
# Density = 1.459502 g / cm^3
# Si number density = 14.628311 Si / 1000 Ang^3
#
#
#
# Elastic Constant Matrix: (Units=GPa)
#
#
# Indices 1 2 3 4 5 6 
#
# 1 70.6816 26.4060 46.0372 0.0000 0.0000 0.0000
# 2 26.4060 51.4255 32.4203 0.0000 0.0000 0.0000
# 3 46.0372 32.4203 91.0438 0.0000 0.0000 0.0000
# 4 0.0000 0.0000 0.0000 5.8361 0.0000 0.0000
# 5 0.0000 0.0000 0.0000 0.0000 21.3850 0.0000
# 6 0.0000 0.0000 0.0000 0.0000 0.0000 14.5394
#
#
#
# Elastic Compliance Matrix: (Units=1/GPa)
#
#
# Indices 1 2 3 4 5 6 
#
# 1 0.022277 -0.005593 -0.009273 0.000000 0.000000 0.000000
# 2 -0.005593 0.026479 -0.006601 0.000000 0.000000 0.000000
# 3 -0.009273 -0.006601 0.018023 0.000000 0.000000 0.000000
# 4 0.000000 0.000000 0.000000 0.171348 0.000000 0.000000
# 5 0.000000 0.000000 0.000000 0.000000 0.046762 0.000000
# 6 0.000000 0.000000 0.000000 0.000000 0.000000 0.068779
#
#
# Mechanical properties :
#
#
# Convention : Reuss Voigt Hill
#
# Bulk Modulus (GPa) = 41.93638 46.98643 44.46140
# Shear Modulus (GPa) = 12.35941 15.57125 13.96533
#
# Velocity S-wave (km/s) = 2.90986 3.26615 3.09314
# Velocity P-wave (km/s) = 6.32613 6.81275 6.57394
#
# Compressibility (1/GPa) = 0.02384565
#
# Stress axis : x y z
#
# Youngs Moduli (GPa) = 44.88871 37.76600 55.48352
#
# Poissons Ratio (x) = 0.21122 0.51451
# Poissons Ratio (y) = 0.25106 0.36624
# Poissons Ratio (z) = 0.41626 0.24929
#
# Static dielectric constant tensor:
#      x y z
#    x 2.972860 0.000000 0.000000 
#    y 0.000000 3.102930 0.000000 
#    z 0.000000 0.000000 2.767260 
# 
# 
# High freq. dielectric constant tensor:
#      x y z
#    x 1.560370 0.000000 0.000000 
#    y 0.000000 1.537240 0.000000 
#    z 0.000000 0.000000 1.528200 
# 
# From -- ./inp_files/28666.got.cif
#   From: 2010.03.12/outbox.cif.g09.slc.cpg/sg51_15_cif.got.tgz:28666.got - 2010.04.16 13:43:02.
