data_PCOD8207982
_publ_section_title
;
Structure prediction by ZEFSAII (Michael W. Deem and Ramdas Pophale) SiO2 
 PCOD8207982
Probable space group: P M M A
;
_chemical_formula_sum "Si O2"
_cell_formula_units_Z 64
_cell_length_a 9.369109
_cell_length_b 15.903306
_cell_length_c 23.260887
_cell_angle_alpha 90.000000
_cell_angle_beta 90.000000
_cell_angle_gamma 90.000000
_cell_volume 3465.867682
_symmetry_space_group_name_H-M "P M M A"
_symmetry_group_IT_number 51
_symmetry_cell_setting 'orthorhombic'
loop_
_space_group_symop_operation_xyz
x,y,z
1/2-x,-y,z
1/2+x,-y,-z
-x,y,-z
-x,-y,-z
1/2+x,y,-z
1/2-x,y,z
x,-y,z
loop_
_atom_site_type_symbol
_atom_site_label
_atom_site_fract_x
_atom_site_fract_y
_atom_site_fract_z
Si Si1 0.089084 0.317771 0.150135
Si Si2 0.081331 0.238895 0.628349
Si Si3 0.088380 0.906559 0.845030
Si Si4 0.081928 0.904183 0.440481
Si Si5 0.416143 0.168803 0.059760
Si Si6 0.096711 0.595063 0.047124
Si Si7 0.584113 0.404843 0.441948
Si Si8 0.916330 0.236773 0.240406
O O1 0.250000 0.315523 0.173687
O O2 0.061870 0.250538 0.099239
O O3 0.047406 0.401830 0.114121
O O4 0.988830 0.312704 0.205416
O O5 0.250000 0.219576 0.621202
O O6 0.043057 0.331618 0.603399
O O7 0.031296 0.237869 0.694331
O O8 0.989389 0.164141 0.600968
O O9 0.250000 0.880972 0.862537
O O10 0.035240 0.848298 0.792115
O O11 0.988572 0.903771 0.901349
O O12 0.082879 0.000000 0.819717
O O13 0.250000 0.883956 0.448611
O O14 0.000000 0.894852 0.500000
O O15 0.062307 0.000000 0.416808
O O16 0.250000 0.147483 0.048442
O O17 0.500000 0.177058 0.000000
O O18 0.250000 0.641930 0.043782
O O19 0.113558 0.500000 0.027332
O O20 0.000000 0.642481 0.000000
O O21 0.500000 0.385581 0.500000
O O22 0.750000 0.399086 0.457126
O O23 0.547640 0.500000 0.418824
O O24 0.750000 0.252415 0.238386
#
# Coordination Sequence:
#
# PCOD8207982 Si02
#       8
#     8   8   8   8   8   8   8   8
#     4   9  18  32  48  66  91 124 158 194 238 285
#     4  10  20  34  54  79 106 139 177 218 262 304
#     4   9  18  33  50  66  88 120 156 195 238 284
#     4  10  21  36  54  79 111 144 176 212 257 308
#     4  10  19  30  46  68  91 116 149 190 238 291
#     4   9  17  29  46  69  95 121 152 193 242 296
#     4   9  18  33  53  78 108 139 171 209 254 303
#     4   9  19  34  51  72  96 125 164 203 240 287
#
# _framework density 18.465793999999999
#
# number of rings (size 3 to 8) (size 9 to 14) (size 15 to 20)
#    0.000    2.625    0.000    1.500    0.000    4.750 
#    0.000    1.875    0.000    0.750    0.000    0.000 
#    0.000    0.000    0.000    0.000    0.000    0.000 
#
# Total GULP energy -792858.396029 kJ/mol
# GULP energy per Si atom -12388.412438 kJ/mol
# Density = 1.842377 g / cm^3
# Si number density = 18.465794 Si / 1000 Ang^3
#
#
#
# Elastic Constant Matrix: (Units=GPa)
#
#
# Indices 1 2 3 4 5 6 
#
# 1 81.5276 42.4232 67.4492 0.0000 0.0000 0.0000
# 2 42.4232 79.0017 56.9842 0.0000 0.0000 0.0000
# 3 67.4492 56.9842 145.1509 0.0000 0.0000 0.0000
# 4 0.0000 0.0000 0.0000 21.8008 0.0000 0.0000
# 5 0.0000 0.0000 0.0000 0.0000 31.6661 0.0000
# 6 0.0000 0.0000 0.0000 0.0000 0.0000 12.8136
#
#
#
# Elastic Compliance Matrix: (Units=1/GPa)
#
#
# Indices 1 2 3 4 5 6 
#
# 1 0.021884 -0.006161 -0.007750 0.000000 0.000000 0.000000
# 2 -0.006161 0.019393 -0.004750 0.000000 0.000000 0.000000
# 3 -0.007750 -0.004750 0.012356 0.000000 0.000000 0.000000
# 4 0.000000 0.000000 0.000000 0.045870 0.000000 0.000000
# 5 0.000000 0.000000 0.000000 0.000000 0.031580 0.000000
# 6 0.000000 0.000000 0.000000 0.000000 0.000000 0.078042
#
#
# Mechanical properties :
#
#
# Convention : Reuss Voigt Hill
#
# Bulk Modulus (GPa) = 61.31645 71.04369 66.18007
# Shear Modulus (GPa) = 19.85046 22.51101 21.18074
#
# Velocity S-wave (km/s) = 3.28225 3.49530 3.39045
# Velocity P-wave (km/s) = 6.90230 7.40582 7.15849
#
# Compressibility (1/GPa) = 0.01630884
#
# Stress axis : x y z
#
# Youngs Moduli (GPa) = 45.69634 51.56531 80.93412
#
# Poissons Ratio (x) = 0.31770 0.62726
# Poissons Ratio (y) = 0.28154 0.38447
# Poissons Ratio (z) = 0.35416 0.24496
#
# Static dielectric constant tensor:
#      x y z
#    x 3.530550 0.000000 0.000000 
#    y 0.000000 3.557280 0.000000 
#    z 0.000000 0.000000 3.451410 
# 
# 
# High freq. dielectric constant tensor:
#      x y z
#    x 1.718140 0.000000 0.000000 
#    y 0.000000 1.713360 0.000000 
#    z 0.000000 0.000000 1.705000 
# 
# From -- ./inp_files/32422.got.cif
#   From: 2010.03.12/outbox.cif.g09.slc.cpg/sg51_17_cif.got.tgz:32422.got - 2010.04.16 13:43:02.
