data_PCOD8207318
_publ_section_title
;
Structure prediction by ZEFSAII (Michael W. Deem and Ramdas Pophale) SiO2 
 PCOD8207318
Probable space group: P M M A
;
_chemical_formula_sum "Si O2"
_cell_formula_units_Z 32
_cell_length_a 20.707105
_cell_length_b 8.846068
_cell_length_c 9.369128
_cell_angle_alpha 90.000000
_cell_angle_beta 90.000000
_cell_angle_gamma 90.000000
_cell_volume 1716.203690
_symmetry_space_group_name_H-M "P M M A"
_symmetry_group_IT_number 51
_symmetry_cell_setting 'orthorhombic'
loop_
_space_group_symop_operation_xyz
x,y,z
1/2-x,-y,z
1/2+x,-y,-z
-x,y,-z
-x,-y,-z
1/2+x,y,-z
1/2-x,y,z
x,-y,z
loop_
_atom_site_type_symbol
_atom_site_label
_atom_site_fract_x
_atom_site_fract_y
_atom_site_fract_z
Si Si1 0.250000 0.321266 0.662221
Si Si2 0.494390 0.166357 0.831198
Si Si3 0.132744 0.677707 0.855534
Si Si4 0.750000 0.679749 0.659491
Si Si5 0.136389 0.820935 0.162868
O O1 0.250000 0.500000 0.656690
O O2 0.313762 0.264665 0.744105
O O3 0.250000 0.257272 0.501941
O O4 0.437483 0.281723 0.788850
O O5 0.564822 0.220819 0.776539
O O6 0.477733 0.000000 0.769242
O O7 0.500000 0.155217 0.000000
O O8 0.136712 0.500000 0.883677
O O9 0.146306 0.762457 0.002785
O O10 0.750000 0.500000 0.666932
O O11 0.813711 0.740701 0.734263
O O12 0.147339 0.000000 0.162105
#
# Coordination Sequence:
#
# PCOD8207318 Si02
#       5
#     4   8   8   4   8
#     4   9  21  37  50  72 106 137 168 213 260 300
#     4   8  16  31  50  75 107 135 163 208 258 301
#     4  10  18  32  56  81 104 134 173 212 253 304
#     4  11  22  37  54  72 100 137 176 215 254 300
#     4  10  20  35  54  78 107 135 167 210 259 308
#
# _framework density 18.645806
#
# number of rings (size 3 to 8) (size 9 to 14) (size 15 to 20)
#    0.000    2.500    0.000    4.125    0.000    6.500 
#    0.000    8.125    0.000    7.500    0.000    0.000 
#    0.000    0.000    0.000    0.000    0.000    0.000 
#
# Total GULP energy -396680.889775 kJ/mol
# GULP energy per Si atom -12396.277805 kJ/mol
# Density = 1.860337 g / cm^3
# Si number density = 18.645806 Si / 1000 Ang^3
#
#
#
# Elastic Constant Matrix: (Units=GPa)
#
#
# Indices 1 2 3 4 5 6 
#
# 1 178.0687 56.9705 75.3728 0.0000 0.0000 0.0000
# 2 56.9705 81.5159 39.8972 0.0000 0.0000 0.0000
# 3 75.3728 39.8972 97.7369 0.0000 0.0000 0.0000
# 4 0.0000 0.0000 0.0000 -1.5715 0.0000 0.0000
# 5 0.0000 0.0000 0.0000 0.0000 -4.7339 0.0000
# 6 0.0000 0.0000 0.0000 0.0000 0.0000 33.0361
#
#
#
# Elastic Compliance Matrix: (Units=1/GPa)
#
#
# Indices 1 2 3 4 5 6 
#
# 1 0.009139 -0.003671 -0.005549 0.000000 0.000000 0.000000
# 2 -0.003671 0.016805 -0.004029 0.000000 0.000000 0.000000
# 3 -0.005549 -0.004029 0.016156 0.000000 0.000000 0.000000
# 4 0.000000 0.000000 0.000000 -0.636322 0.000000 0.000000
# 5 0.000000 0.000000 0.000000 0.000000 -0.211242 0.000000
# 6 0.000000 0.000000 0.000000 0.000000 0.000000 0.030270
#
#
# Mechanical properties :
#
#
# Convention : Reuss Voigt Hill
#
# Bulk Modulus (GPa) = 64.09742 77.97806 71.03774
# Shear Modulus (GPa) = -6.72501 17.68488 5.47994
#
# Velocity S-wave (km/s) = -1.90119 3.08306 1.71620
# Velocity P-wave (km/s) = 5.44349 7.38817 6.48909
#
# Compressibility (1/GPa) = 0.01560125
#
# Stress axis : x y z
#
# Youngs Moduli (GPa) = 109.41713 59.50531 61.89731
#
# Poissons Ratio (x) = 0.21846 0.34350
# Poissons Ratio (y) = 0.40170 0.24938
# Poissons Ratio (z) = 0.60720 0.23974
#
# Static dielectric constant tensor:
#      x y z
#    x 4.075760 0.000000 0.000000 
#    y 0.000000 3.387550 0.000000 
#    z 0.000000 0.000000 3.228680 
# 
# 
# High freq. dielectric constant tensor:
#      x y z
#    x 1.746810 0.000000 0.000000 
#    y 0.000000 1.721080 0.000000 
#    z 0.000000 0.000000 1.686650 
# 
# From -- ./inp_files/10318.got.cif
#   From: 2010.03.12/outbox.cif.g09.slc.cpg/sg51_6_cif.got.tgz:10318.got - 2010.04.16 13:43:02.
