data_PCOD8207465
_publ_section_title
;
Structure prediction by ZEFSAII (Michael W. Deem and Ramdas Pophale) SiO2 
 PCOD8207465
Probable space group: P M M A
;
_chemical_formula_sum "Si O2"
_cell_formula_units_Z 48
_cell_length_a 14.824995
_cell_length_b 8.919242
_cell_length_c 19.070139
_cell_angle_alpha 90.000000
_cell_angle_beta 90.000000
_cell_angle_gamma 90.000000
_cell_volume 2521.600963
_symmetry_space_group_name_H-M "P M M A"
_symmetry_group_IT_number 51
_symmetry_cell_setting 'orthorhombic'
loop_
_space_group_symop_operation_xyz
x,y,z
1/2-x,-y,z
1/2+x,-y,-z
-x,y,-z
-x,-y,-z
1/2+x,y,-z
1/2-x,y,z
x,-y,z
loop_
_atom_site_type_symbol
_atom_site_label
_atom_site_fract_x
_atom_site_fract_y
_atom_site_fract_z
Si Si1 0.349098 0.323283 0.651936
Si Si2 0.987029 0.677169 0.741642
Si Si3 0.489222 0.177569 0.108582
Si Si4 0.852270 0.177619 0.009779
Si Si5 0.852361 0.831305 0.640502
Si Si6 0.606459 0.669143 0.500373
O O1 0.250000 0.281347 0.680524
O O2 0.364533 0.500000 0.646455
O O3 0.421649 0.257405 0.706310
O O4 0.361121 0.259505 0.573373
O O5 0.989982 0.500000 0.749841
O O6 0.974853 0.747999 0.817107
O O7 0.904908 0.720957 0.691872
O O8 0.585484 0.229735 0.075446
O O9 0.488327 0.000000 0.116823
O O10 0.404761 0.229652 0.060419
O O11 0.750000 0.246174 0.013580
O O12 0.845251 0.000000 0.010110
O O13 0.750000 0.831033 0.666526
O O14 0.856162 0.774115 0.561072
O O15 0.892161 0.000000 0.644142
O O16 0.500000 0.666886 0.500000
O O17 0.644028 0.500000 0.510989
#
# Coordination Sequence:
#
# PCOD8207465 Si02
#       6
#     8   8   8   8   8   8
#     4   9  18  33  53  76 104 141 182 221 266 325
#     4  11  22  37  55  78 111 147 183 222 270 325
#     4   9  18  33  54  81 108 137 177 219 261 312
#     4   8  15  31  56  81 106 139 176 213 258 317
#     4  11  24  39  55  78 108 143 184 231 280 325
#     4  10  18  34  59  82 103 136 183 229 276 328
#
# _framework density 19.035526000000001
#
# number of rings (size 3 to 8) (size 9 to 14) (size 15 to 20)
#    0.000    2.333    1.667    2.500    0.000    3.667 
#    0.000    3.333    0.000    3.500    0.000    0.000 
#    0.000    0.000    0.000    0.000    0.000    0.000 
#
# Total GULP energy -595047.330569 kJ/mol
# GULP energy per Si atom -12396.819387 kJ/mol
# Density = 1.899220 g / cm^3
# Si number density = 19.035526 Si / 1000 Ang^3
#
#
#
# Elastic Constant Matrix: (Units=GPa)
#
#
# Indices 1 2 3 4 5 6 
#
# 1 105.1024 8.6908 12.6932 0.0000 0.0000 0.0000
# 2 8.6908 29.4261 9.4927 0.0000 0.0000 0.0000
# 3 12.6932 9.4927 78.4538 0.0000 0.0000 0.0000
# 4 0.0000 0.0000 0.0000 28.0269 0.0000 0.0000
# 5 0.0000 0.0000 0.0000 0.0000 -0.0680 0.0000
# 6 0.0000 0.0000 0.0000 0.0000 0.0000 2.8100
#
#
#
# Elastic Compliance Matrix: (Units=1/GPa)
#
#
# Indices 1 2 3 4 5 6 
#
# 1 0.009878 -0.002499 -0.001296 0.000000 0.000000 0.000000
# 2 -0.002499 0.035996 -0.003951 0.000000 0.000000 0.000000
# 3 -0.001296 -0.003951 0.013434 0.000000 0.000000 0.000000
# 4 0.000000 0.000000 0.000000 0.035680 0.000000 0.000000
# 5 0.000000 0.000000 0.000000 0.000000-14.707256 0.000000
# 6 0.000000 0.000000 0.000000 0.000000 0.000000 0.355873
#
#
# Mechanical properties :
#
#
# Convention : Reuss Voigt Hill
#
# Bulk Modulus (GPa) = 22.82286 30.52619 26.67452
# Shear Modulus (GPa) = -0.35146 18.29414 8.97134
#
# Velocity S-wave (km/s) = -0.43016 3.10345 2.17329
# Velocity P-wave (km/s) = 3.43059 5.37709 4.51010
#
# Compressibility (1/GPa) = 0.04381572
#
# Stress axis : x y z
#
# Youngs Moduli (GPa) = 101.23832 27.78070 74.43759
#
# Poissons Ratio (x) = 0.06943 0.09645
# Poissons Ratio (y) = 0.25303 0.29411
# Poissons Ratio (z) = 0.13118 0.10976
#
# Static dielectric constant tensor:
#      x y z
#    x 3.802480 0.000000 0.000000 
#    y 0.000000 3.164400 0.000000 
#    z 0.000000 0.000000 3.535210 
# 
# 
# High freq. dielectric constant tensor:
#      x y z
#    x 1.753480 0.000000 0.000000 
#    y 0.000000 1.702660 0.000000 
#    z 0.000000 0.000000 1.739330 
# 
# From -- ./inp_files/29431.got.cif
#   From: 2010.03.12/outbox.cif.g09.slc.cpg/sg51_15_cif.got.tgz:29431.got - 2010.04.16 13:43:02.
