data_PCOD8207740
_publ_section_title
;
Structure prediction by ZEFSAII (Michael W. Deem and Ramdas Pophale) SiO2 
 PCOD8207740
Probable space group: P M M A
;
_chemical_formula_sum "Si O2"
_cell_formula_units_Z 56
_cell_length_a 9.019837
_cell_length_b 20.088143
_cell_length_c 15.211743
_cell_angle_alpha 90.000000
_cell_angle_beta 90.000000
_cell_angle_gamma 90.000000
_cell_volume 2756.242723
_symmetry_space_group_name_H-M "P M M A"
_symmetry_group_IT_number 51
_symmetry_cell_setting 'orthorhombic'
loop_
_space_group_symop_operation_xyz
x,y,z
1/2-x,-y,z
1/2+x,-y,-z
-x,y,-z
-x,-y,-z
1/2+x,y,-z
1/2-x,y,z
x,-y,z
loop_
_atom_site_type_symbol
_atom_site_label
_atom_site_fract_x
_atom_site_fract_y
_atom_site_fract_z
Si Si1 0.922942 0.614992 0.912148
Si Si2 0.420397 0.202635 0.329546
Si Si3 0.918974 0.425234 0.260652
Si Si4 0.422353 0.892753 0.916199
Si Si5 0.917952 0.234683 0.870928
Si Si6 0.422611 0.925756 0.722540
Si Si7 0.573876 0.323882 0.410953
O O1 0.750000 0.600137 0.918303
O O2 0.959051 0.692849 0.904854
O O3 0.984432 0.577922 0.827095
O O4 0.000000 0.586720 0.000000
O O5 0.250000 0.200756 0.360332
O O6 0.438548 0.233536 0.233476
O O7 0.484052 0.127331 0.333526
O O8 0.513766 0.249410 0.394149
O O9 0.750000 0.407325 0.236078
O O10 0.931156 0.500000 0.299005
O O11 0.977970 0.373901 0.333914
O O12 0.250000 0.901449 0.929812
O O13 0.466719 0.815058 0.916053
O O14 0.474446 0.925508 0.824637
O O15 0.500000 0.928068 0.000000
O O16 0.750000 0.213903 0.895872
O O17 0.250000 0.906058 0.717031
O O18 0.451189 0.000000 0.684930
O O19 0.500000 0.351032 0.500000
O O20 0.750000 0.322201 0.420869
#
# Coordination Sequence:
#
# PCOD8207740 Si02
#       7
#     8   8   8   8   8   8   8
#     4  11  22  36  56  84 117 158 205 251 300 352
#     4  10  19  35  59  87 118 149 191 243 293 348
#     4  10  23  43  64  88 121 160 201 246 297 353
#     4  10  19  29  44  68 101 143 191 242 295 346
#     4   9  18  32  51  76 107 144 189 242 295 346
#     4   9  19  35  53  76 109 152 198 240 291 355
#     4  11  23  40  66  96 125 156 193 239 295 357
#
# _framework density 20.317513999999999
#
# number of rings (size 3 to 8) (size 9 to 14) (size 15 to 20)
#    0.000    2.000    1.429    2.143    0.000    5.429 
#    0.000    0.000    0.000    0.429    0.000    0.000 
#    0.000    0.000    0.000    0.000    0.000    0.000 
#
# Total GULP energy -694496.653360 kJ/mol
# GULP energy per Si atom -12401.725953 kJ/mol
# Density = 2.027127 g / cm^3
# Si number density = 20.317514 Si / 1000 Ang^3
#
#
#
# Elastic Constant Matrix: (Units=GPa)
#
#
# Indices 1 2 3 4 5 6 
#
# 1 86.3746 42.4241 39.6591 0.0000 0.0000 0.0000
# 2 42.4241 96.8766 38.4855 0.0000 0.0000 0.0000
# 3 39.6591 38.4855 90.5870 0.0000 0.0000 0.0000
# 4 0.0000 0.0000 0.0000 4.3022 0.0000 0.0000
# 5 0.0000 0.0000 0.0000 0.0000 34.0928 0.0000
# 6 0.0000 0.0000 0.0000 0.0000 0.0000 24.7088
#
#
#
# Elastic Compliance Matrix: (Units=1/GPa)
#
#
# Indices 1 2 3 4 5 6 
#
# 1 0.016423 -0.005216 -0.004974 0.000000 0.000000 0.000000
# 2 -0.005216 0.014075 -0.003696 0.000000 0.000000 0.000000
# 3 -0.004974 -0.003696 0.014787 0.000000 0.000000 0.000000
# 4 0.000000 0.000000 0.000000 0.232442 0.000000 0.000000
# 5 0.000000 0.000000 0.000000 0.000000 0.029332 0.000000
# 6 0.000000 0.000000 0.000000 0.000000 0.000000 0.040471
#
#
# Mechanical properties :
#
#
# Convention : Reuss Voigt Hill
#
# Bulk Modulus (GPa) = 57.10117 57.21952 57.16035
# Shear Modulus (GPa) = 13.11853 22.83872 17.97863
#
# Velocity S-wave (km/s) = 2.54377 3.35638 2.97793
# Velocity P-wave (km/s) = 6.06573 6.57603 6.32603
#
# Compressibility (1/GPa) = 0.01751278
#
# Stress axis : x y z
#
# Youngs Moduli (GPa) = 60.88917 71.04829 67.62667
#
# Poissons Ratio (x) = 0.37059 0.33638
# Poissons Ratio (y) = 0.31760 0.24995
# Poissons Ratio (z) = 0.30287 0.26260
#
# Static dielectric constant tensor:
#      x y z
#    x 3.631220 0.000000 0.000000 
#    y 0.000000 3.605140 0.000000 
#    z 0.000000 0.000000 3.556030 
# 
# 
# High freq. dielectric constant tensor:
#      x y z
#    x 1.793970 0.000000 0.000000 
#    y 0.000000 1.790370 0.000000 
#    z 0.000000 0.000000 1.777990 
# 
# From -- ./inp_files/21747.got.cif
#   From: 2010.03.12/outbox.cif.g09.slc.cpg/sg51_11_cif.got.tgz:21747.got - 2010.04.16 13:43:02.
