data_PCOD8207968
_publ_section_title
;
Structure prediction by ZEFSAII (Michael W. Deem and Ramdas Pophale) SiO2 
 PCOD8207968
Probable space group: P M M A
;
_chemical_formula_sum "Si O2"
_cell_formula_units_Z 60
_cell_length_a 9.048824
_cell_length_b 17.252588
_cell_length_c 23.019534
_cell_angle_alpha 90.000000
_cell_angle_beta 90.000000
_cell_angle_gamma 90.000000
_cell_volume 3593.709107
_symmetry_space_group_name_H-M "P M M A"
_symmetry_group_IT_number 51
_symmetry_cell_setting 'orthorhombic'
loop_
_space_group_symop_operation_xyz
x,y,z
1/2-x,-y,z
1/2+x,-y,-z
-x,y,-z
-x,-y,-z
1/2+x,y,-z
1/2-x,y,z
x,-y,z
loop_
_atom_site_type_symbol
_atom_site_label
_atom_site_fract_x
_atom_site_fract_y
_atom_site_fract_z
Si Si1 0.923972 0.668195 0.937408
Si Si2 0.416190 0.178671 0.260833
Si Si3 0.920074 0.912263 0.351291
Si Si4 0.921304 0.412026 0.257254
Si Si5 0.924058 0.724425 0.171256
Si Si6 0.575943 0.777290 0.438394
Si Si7 0.583507 0.679375 0.651281
Si Si8 0.082371 0.500000 0.058995
O O1 0.750000 0.685880 0.943297
O O2 0.953872 0.581620 0.909644
O O3 0.998844 0.725911 0.891708
O O4 0.000000 0.678479 0.000000
O O5 0.250000 0.158855 0.240778
O O6 0.485744 0.104828 0.293372
O O7 0.514387 0.200716 0.205103
O O8 0.418172 0.249474 0.304950
O O9 0.750000 0.898970 0.334534
O O10 0.964619 0.855901 0.403967
O O11 0.951496 0.000000 0.371553
O O12 0.750000 0.400457 0.272327
O O13 0.956439 0.500000 0.237547
O O14 0.967408 0.354444 0.205314
O O15 0.011151 0.393883 0.316147
O O16 0.750000 0.732750 0.163213
O O17 0.500000 0.784929 0.500000
O O18 0.750000 0.766134 0.445862
O O19 0.511153 0.702171 0.405330
O O20 0.750000 0.658065 0.632285
O O21 0.250000 0.500000 0.039847
O O22 0.000000 0.500000 0.000000
#
# Coordination Sequence:
#
# PCOD8207968 Si02
#       8
#     8   8   8   8   8   8   8   4
#     4  10  19  31  44  61  86 119 157 196 237 281
#     4   9  17  30  47  67  91 119 153 191 229 270
#     4   9  18  32  49  70  98 129 156 184 222 267
#     4   9  18  31  46  66  90 116 148 189 237 284
#     4  10  19  30  46  66  90 121 155 193 234 278
#     4  10  19  31  48  69  94 125 158 189 221 263
#     4   9  17  30  47  66  88 116 151 190 231 274
#     4   8  16  28  40  54  76 110 148 186 227 270
#
# _framework density 16.695841999999999
#
# number of rings (size 3 to 8) (size 9 to 14) (size 15 to 20)
#    0.000    2.667    0.000    2.000    0.933    5.600 
#    0.000    0.000    0.000    0.400    0.000    0.000 
#    0.000    0.533    0.000    2.000    0.000    3.067 
#
# Total GULP energy -743728.771473 kJ/mol
# GULP energy per Si atom -12395.479525 kJ/mol
# Density = 1.665784 g / cm^3
# Si number density = 16.695842 Si / 1000 Ang^3
#
#
#
# Elastic Constant Matrix: (Units=GPa)
#
#
# Indices 1 2 3 4 5 6 
#
# 1 95.5648 19.6269 57.2006 0.0000 0.0000 0.0000
# 2 19.6269 27.7566 27.9766 0.0000 0.0000 0.0000
# 3 57.2006 27.9766 104.5668 0.0000 0.0000 0.0000
# 4 0.0000 0.0000 0.0000 18.5537 0.0000 0.0000
# 5 0.0000 0.0000 0.0000 0.0000 32.3829 0.0000
# 6 0.0000 0.0000 0.0000 0.0000 0.0000 19.8941
#
#
#
# Elastic Compliance Matrix: (Units=1/GPa)
#
#
# Indices 1 2 3 4 5 6 
#
# 1 0.015785 -0.003366 -0.007734 0.000000 0.000000 0.000000
# 2 -0.003366 0.050048 -0.011549 0.000000 0.000000 0.000000
# 3 -0.007734 -0.011549 0.016884 0.000000 0.000000 0.000000
# 4 0.000000 0.000000 0.000000 0.053898 0.000000 0.000000
# 5 0.000000 0.000000 0.000000 0.000000 0.030881 0.000000
# 6 0.000000 0.000000 0.000000 0.000000 0.000000 0.050266
#
#
# Mechanical properties :
#
#
# Convention : Reuss Voigt Hill
#
# Bulk Modulus (GPa) = 26.72470 48.61072 37.66771
# Shear Modulus (GPa) = 18.14672 22.37174 20.25923
#
# Velocity S-wave (km/s) = 3.30039 3.66452 3.48721
# Velocity P-wave (km/s) = 5.52856 6.86175 6.23091
#
# Compressibility (1/GPa) = 0.03741857
#
# Stress axis : x y z
#
# Youngs Moduli (GPa) = 63.35285 19.98072 59.22837
#
# Poissons Ratio (x) = 0.06726 0.45807
# Poissons Ratio (y) = 0.21326 0.68402
# Poissons Ratio (z) = 0.48997 0.23076
#
# Static dielectric constant tensor:
#      x y z
#    x 3.275210 0.000000 0.000000 
#    y 0.000000 2.965780 0.000000 
#    z 0.000000 0.000000 2.971400 
# 
# 
# High freq. dielectric constant tensor:
#      x y z
#    x 1.658880 0.000000 0.000000 
#    y 0.000000 1.606810 0.000000 
#    z 0.000000 0.000000 1.626110 
# 
# From -- ./inp_files/32427.got.cif
#   From: 2010.03.12/outbox.cif.g09.slc.cpg/sg51_17_cif.got.tgz:32427.got - 2010.04.16 13:43:02.
