data_PCOD8207180
_publ_section_title
;
Structure prediction by ZEFSAII (Michael W. Deem and Ramdas Pophale) SiO2 
 PCOD8207180
Probable space group: P M M A
;
_chemical_formula_sum "Si O2"
_cell_formula_units_Z 64
_cell_length_a 34.341171
_cell_length_b 21.055349
_cell_length_c 4.953341
_cell_angle_alpha 90.000000
_cell_angle_beta 90.000000
_cell_angle_gamma 90.000000
_cell_volume 3581.589197
_symmetry_space_group_name_H-M "P M M A"
_symmetry_group_IT_number 51
_symmetry_cell_setting 'orthorhombic'
loop_
_space_group_symop_operation_xyz
x,y,z
1/2-x,-y,z
1/2+x,-y,-z
-x,y,-z
-x,-y,-z
1/2+x,y,-z
1/2-x,y,z
x,-y,z
loop_
_atom_site_type_symbol
_atom_site_label
_atom_site_fract_x
_atom_site_fract_y
_atom_site_fract_z
Si Si1 0.974903 0.372749 0.248272
Si Si2 0.026288 0.070761 0.742066
Si Si3 0.369328 0.218319 0.303015
Si Si4 0.180025 0.073960 0.808542
Si Si5 0.095866 0.571439 0.985461
Si Si6 0.600619 0.347844 0.485451
Si Si7 0.793402 0.146282 0.700883
Si Si8 0.103868 0.146148 0.806727
O O1 0.949417 0.429825 0.116874
O O2 0.000000 0.398237 0.500000
O O3 0.057338 0.324094 0.618252
O O4 0.000000 0.341806 0.000000
O O5 0.061097 0.117541 0.819374
O O6 0.000000 0.099091 0.500000
O O7 0.041805 0.000000 0.661186
O O8 0.000000 0.064897 0.000000
O O9 0.374294 0.290096 0.401907
O O10 0.322859 0.206093 0.294207
O O11 0.389956 0.170253 0.505600
O O12 0.389820 0.205152 0.014097
O O13 0.192044 0.093503 0.508793
O O14 0.135177 0.091374 0.874986
O O15 0.186423 0.000000 0.847720
O O16 0.207823 0.112159 0.010433
O O17 0.112451 0.500000 0.989102
O O18 0.120383 0.616009 0.773070
O O19 0.097192 0.599608 0.283136
O O20 0.750000 0.171346 0.633750
#
# Coordination Sequence:
#
# PCOD8207180 Si02
#       8
#     8   8   8   8   8   8   8   8
#     4  10  18  32  46  69  97 131 166 204 245 287
#     4  10  20  34  53  73  94 122 165 224 271 294
#     4  10  21  37  55  71  97 139 164 203 249 295
#     4  10  20  33  52  78 106 138 163 196 253 309
#     4  10  20  32  51  74  99 129 167 210 246 291
#     4  10  20  34  50  67  99 131 170 203 244 293
#     4  10  21  35  53  79 105 131 167 205 240 299
#     4  10  20  35  54  71  98 129 177 207 250 306
#
# _framework density 17.869161999999999
#
# number of rings (size 3 to 8) (size 9 to 14) (size 15 to 20)
#    0.750    1.250    1.250    3.000    0.000    2.000 
#    0.000    6.250    2.750    0.000    0.000    0.000 
#    0.000    3.000    0.000    0.000    0.000    0.000 
#
# Total GULP energy -792965.375571 kJ/mol
# GULP energy per Si atom -12390.083993 kJ/mol
# Density = 1.782849 g / cm^3
# Si number density = 17.869162 Si / 1000 Ang^3
#
#
#
# Elastic Constant Matrix: (Units=GPa)
#
#
# Indices 1 2 3 4 5 6 
#
# 1 88.0946 43.4522 22.7496 0.0000 0.0000 0.0000
# 2 43.4522 79.8981 15.0901 0.0000 0.0000 0.0000
# 3 22.7496 15.0901 92.3347 0.0000 0.0000 0.0000
# 4 0.0000 0.0000 0.0000 22.6723 0.0000 0.0000
# 5 0.0000 0.0000 0.0000 0.0000 19.6257 0.0000
# 6 0.0000 0.0000 0.0000 0.0000 0.0000 9.8611
#
#
#
# Elastic Compliance Matrix: (Units=1/GPa)
#
#
# Indices 1 2 3 4 5 6 
#
# 1 0.016103 -0.008263 -0.002617 0.000000 0.000000 0.000000
# 2 -0.008263 0.017155 -0.000768 0.000000 0.000000 0.000000
# 3 -0.002617 -0.000768 0.011600 0.000000 0.000000 0.000000
# 4 0.000000 0.000000 0.000000 0.044107 0.000000 0.000000
# 5 0.000000 0.000000 0.000000 0.000000 0.050954 0.000000
# 6 0.000000 0.000000 0.000000 0.000000 0.000000 0.101408
#
#
# Mechanical properties :
#
#
# Convention : Reuss Voigt Hill
#
# Bulk Modulus (GPa) = 46.37716 46.99014 46.68365
# Shear Modulus (GPa) = 18.39516 22.36752 20.38134
#
# Velocity S-wave (km/s) = 3.21196 3.54183 3.38092
# Velocity P-wave (km/s) = 6.30600 6.56353 6.43606
#
# Compressibility (1/GPa) = 0.02156234
#
# Stress axis : x y z
#
# Youngs Moduli (GPa) = 62.09979 58.29237 86.20379
#
# Poissons Ratio (x) = 0.48169 0.22560
# Poissons Ratio (y) = 0.51315 0.06617
# Poissons Ratio (z) = 0.16252 0.04475
#
# Static dielectric constant tensor:
#      x y z
#    x 3.133720 0.000000 0.000000 
#    y 0.000000 2.926900 0.000000 
#    z 0.000000 0.000000 3.588690 
# 
# 
# High freq. dielectric constant tensor:
#      x y z
#    x 1.659900 0.000000 0.000000 
#    y 0.000000 1.655020 0.000000 
#    z 0.000000 0.000000 1.721790 
# 
# From -- ./inp_files/4095.got.cif
#   From: 2010.03.12/outbox.cif.g09.slc.cpg/sg51_3_cif.got.tgz:4095.got - 2010.04.16 13:43:02.
