data_PCOD8207944
_publ_section_title
;
Structure prediction by ZEFSAII (Michael W. Deem and Ramdas Pophale) SiO2 
 PCOD8207944
Probable space group: P M M A
;
_chemical_formula_sum "Si O2"
_cell_formula_units_Z 52
_cell_length_a 9.032786
_cell_length_b 18.145595
_cell_length_c 18.319355
_cell_angle_alpha 90.000000
_cell_angle_beta 90.000000
_cell_angle_gamma 90.000000
_cell_volume 3002.638946
_symmetry_space_group_name_H-M "P M M A"
_symmetry_group_IT_number 51
_symmetry_cell_setting 'orthorhombic'
loop_
_space_group_symop_operation_xyz
x,y,z
1/2-x,-y,z
1/2+x,-y,-z
-x,y,-z
-x,-y,-z
1/2+x,y,-z
1/2-x,y,z
x,-y,z
loop_
_atom_site_type_symbol
_atom_site_label
_atom_site_fract_x
_atom_site_fract_y
_atom_site_fract_z
Si Si1 0.074718 0.713529 0.424692
Si Si2 0.580571 0.583595 0.153635
Si Si3 0.076170 0.849001 0.652891
Si Si4 0.912211 0.365143 0.715325
Si Si5 0.425398 0.285066 0.075420
Si Si6 0.077725 0.000000 0.577240
Si Si7 0.412805 0.205018 0.215693
O O1 0.250000 0.724436 0.433880
O O2 0.038179 0.646347 0.368774
O O3 0.000000 0.690199 0.500000
O O4 0.007834 0.790434 0.397199
O O5 0.750000 0.609763 0.150074
O O6 0.563011 0.500000 0.125792
O O7 0.528380 0.587296 0.238300
O O8 0.484099 0.635420 0.101593
O O9 0.250000 0.833554 0.648281
O O10 0.031260 0.929051 0.623929
O O11 0.026195 0.844746 0.737968
O O12 0.750000 0.403155 0.719474
O O13 0.900109 0.284183 0.747933
O O14 0.250000 0.292335 0.066349
O O15 0.467398 0.219912 0.132679
O O16 0.500000 0.262017 0.000000
O O17 0.000000 0.000000 0.500000
O O18 0.250000 0.000000 0.560716
O O19 0.250000 0.167451 0.215937
#
# Coordination Sequence:
#
# PCOD8207944 Si02
#       7
#     8   8   8   8   8   4   8
#     4  10  19  30  45  67  91 115 149 192 236 278
#     4  10  20  32  47  68  93 122 155 187 222 271
#     4  10  19  31  47  67  93 126 160 192 227 271
#     4   8  16  30  46  64  87 115 149 190 231 273
#     4  10  20  33  50  72  98 124 151 187 229 273
#     4  10  22  34  44  66  99 132 165 196 229 270
#     4   8  16  31  48  68  92 118 152 191 229 271
#
# _framework density 17.318099
#
# number of rings (size 3 to 8) (size 9 to 14) (size 15 to 20)
#    0.000    2.615    0.000    4.154    0.000   10.769 
#    0.000    0.000    0.000    0.462    0.000    0.538 
#    0.000    0.000    0.000    0.000    0.000    0.000 
#
# Total GULP energy -644560.611271 kJ/mol
# GULP energy per Si atom -12395.396371 kJ/mol
# Density = 1.727868 g / cm^3
# Si number density = 17.318099 Si / 1000 Ang^3
#
#
#
# Elastic Constant Matrix: (Units=GPa)
#
#
# Indices 1 2 3 4 5 6 
#
# 1 88.0437 24.3422 53.6440 0.0000 0.0000 0.0000
# 2 24.3422 38.2948 27.6278 0.0000 0.0000 0.0000
# 3 53.6440 27.6278 140.3750 0.0000 0.0000 0.0000
# 4 0.0000 0.0000 0.0000 19.3108 0.0000 0.0000
# 5 0.0000 0.0000 0.0000 0.0000 33.5993 0.0000
# 6 0.0000 0.0000 0.0000 0.0000 0.0000 21.0525
#
#
#
# Elastic Compliance Matrix: (Units=1/GPa)
#
#
# Indices 1 2 3 4 5 6 
#
# 1 0.016191 -0.006793 -0.004851 0.000000 0.000000 0.000000
# 2 -0.006793 0.033284 -0.003955 0.000000 0.000000 0.000000
# 3 -0.004851 -0.003955 0.009756 0.000000 0.000000 0.000000
# 4 0.000000 0.000000 0.000000 0.051784 0.000000 0.000000
# 5 0.000000 0.000000 0.000000 0.000000 0.029763 0.000000
# 6 0.000000 0.000000 0.000000 0.000000 0.000000 0.047500
#
#
# Mechanical properties :
#
#
# Convention : Reuss Voigt Hill
#
# Bulk Modulus (GPa) = 35.66972 53.10461 44.38717
# Shear Modulus (GPa) = 21.85119 25.53250 23.69185
#
# Velocity S-wave (km/s) = 3.55597 3.84386 3.70271
# Velocity P-wave (km/s) = 6.12384 7.10149 6.63071
#
# Compressibility (1/GPa) = 0.02803498
#
# Stress axis : x y z
#
# Youngs Moduli (GPa) = 61.76091 30.04419 102.50270
#
# Poissons Ratio (x) = 0.20408 0.49720
# Poissons Ratio (y) = 0.41952 0.40540
# Poissons Ratio (z) = 0.29958 0.11883
#
# Static dielectric constant tensor:
#      x y z
#    x 3.393860 0.000000 0.000000 
#    y 0.000000 2.957000 0.000000 
#    z 0.000000 0.000000 3.835210 
# 
# 
# High freq. dielectric constant tensor:
#      x y z
#    x 1.679720 0.000000 0.000000 
#    y 0.000000 1.624750 0.000000 
#    z 0.000000 0.000000 1.672980 
# 
# From -- ./inp_files/27903.got.cif
#   From: 2010.03.12/outbox.cif.g09.slc.cpg/sg51_14_cif.got.tgz:27903.got - 2010.04.16 13:43:02.
