data_PCOD8207689
_publ_section_title
;
Structure prediction by ZEFSAII (Michael W. Deem and Ramdas Pophale) SiO2 
 PCOD8207689
Probable space group: P M M A
;
_chemical_formula_sum "Si O2"
_cell_formula_units_Z 64
_cell_length_a 9.195259
_cell_length_b 19.788585
_cell_length_c 20.030767
_cell_angle_alpha 90.000000
_cell_angle_beta 90.000000
_cell_angle_gamma 90.000000
_cell_volume 3644.821686
_symmetry_space_group_name_H-M "P M M A"
_symmetry_group_IT_number 51
_symmetry_cell_setting 'orthorhombic'
loop_
_space_group_symop_operation_xyz
x,y,z
1/2-x,-y,z
1/2+x,-y,-z
-x,y,-z
-x,-y,-z
1/2+x,y,-z
1/2-x,y,z
x,-y,z
loop_
_atom_site_type_symbol
_atom_site_label
_atom_site_fract_x
_atom_site_fract_y
_atom_site_fract_z
Si Si1 0.080767 0.109631 0.433989
Si Si2 0.079310 0.610661 0.563217
Si Si3 0.420537 0.839349 0.195072
Si Si4 0.584378 0.075429 0.303985
Si Si5 0.080307 0.076961 0.066856
Si Si6 0.086164 0.736651 0.400984
Si Si7 0.585626 0.299061 0.749324
Si Si8 0.579905 0.574797 0.289677
O O1 0.250000 0.089410 0.436510
O O2 0.058862 0.189473 0.428426
O O3 0.000000 0.083250 0.500000
O O4 0.005814 0.073576 0.372001
O O5 0.250000 0.602965 0.553214
O O6 0.026927 0.578046 0.633129
O O7 0.000000 0.574826 0.500000
O O8 0.031931 0.689032 0.563761
O O9 0.250000 0.852162 0.209758
O O10 0.512770 0.874017 0.252283
O O11 0.467842 0.871360 0.124685
O O12 0.454537 0.758503 0.195773
O O13 0.750000 0.098844 0.317864
O O14 0.581003 0.000000 0.273597
O O15 0.250000 0.082428 0.052742
O O16 0.037522 0.000000 0.086833
O O17 0.000000 0.100075 0.000000
O O18 0.250000 0.711254 0.417489
O O19 0.060901 0.736834 0.321634
O O20 0.750000 0.323228 0.758981
O O21 0.491653 0.367462 0.756341
O O22 0.750000 0.588368 0.287324
O O23 0.540441 0.500000 0.262094
#
# Coordination Sequence:
#
# PCOD8207689 Si02
#       8
#     8   8   8   8   8   8   8   8
#     4  11  22  36  52  69  90 121 160 208 264 319
#     4  10  19  29  43  63  86 116 152 193 242 298
#     4  10  19  35  57  80 105 137 174 213 254 298
#     4  11  24  38  52  73  98 126 165 212 260 310
#     4   9  18  32  52  79 113 151 183 209 244 291
#     4   9  17  31  48  67  89 114 149 196 248 301
#     4   9  17  31  51  75  98 121 160 207 248 294
#     4   9  19  34  48  65  93 127 160 197 248 307
#
# _framework density 17.559159000000001
#
# number of rings (size 3 to 8) (size 9 to 14) (size 15 to 20)
#    0.000    2.250    1.250    1.875    0.000    5.750 
#    0.000    1.250    0.000    0.000    0.000    0.000 
#    0.000    0.500    0.000    1.125    0.000    2.000 
#
# Total GULP energy -793480.362539 kJ/mol
# GULP energy per Si atom -12398.130665 kJ/mol
# Density = 1.751919 g / cm^3
# Si number density = 17.559159 Si / 1000 Ang^3
#
#
#
# Elastic Constant Matrix: (Units=GPa)
#
#
# Indices 1 2 3 4 5 6 
#
# 1 75.7000 44.5448 36.7681 0.0000 0.0000 0.0000
# 2 44.5448 105.1564 46.7872 0.0000 0.0000 0.0000
# 3 36.7681 46.7872 82.2257 0.0000 0.0000 0.0000
# 4 0.0000 0.0000 0.0000 10.1113 0.0000 0.0000
# 5 0.0000 0.0000 0.0000 0.0000 25.0274 0.0000
# 6 0.0000 0.0000 0.0000 0.0000 0.0000 33.6660
#
#
#
# Elastic Compliance Matrix: (Units=1/GPa)
#
#
# Indices 1 2 3 4 5 6 
#
# 1 0.019174 -0.005768 -0.005292 0.000000 0.000000 0.000000
# 2 -0.005768 0.014468 -0.005653 0.000000 0.000000 0.000000
# 3 -0.005292 -0.005653 0.017745 0.000000 0.000000 0.000000
# 4 0.000000 0.000000 0.000000 0.098900 0.000000 0.000000
# 5 0.000000 0.000000 0.000000 0.000000 0.039956 0.000000
# 6 0.000000 0.000000 0.000000 0.000000 0.000000 0.029704
#
#
# Mechanical properties :
#
#
# Convention : Reuss Voigt Hill
#
# Bulk Modulus (GPa) = 55.67640 57.69805 56.68723
# Shear Modulus (GPa) = 19.27815 22.75972 21.01893
#
# Velocity S-wave (km/s) = 3.31705 3.60415 3.46357
# Velocity P-wave (km/s) = 6.81521 7.08875 6.95333
#
# Compressibility (1/GPa) = 0.01796093
#
# Stress axis : x y z
#
# Youngs Moduli (GPa) = 52.15266 69.11658 56.35396
#
# Poissons Ratio (x) = 0.39865 0.29823
# Poissons Ratio (y) = 0.30080 0.31860
# Poissons Ratio (z) = 0.27600 0.39075
#
# Static dielectric constant tensor:
#      x y z
#    x 3.281860 0.000000 0.000000 
#    y 0.000000 3.271110 0.000000 
#    z 0.000000 0.000000 3.072520 
# 
# 
# High freq. dielectric constant tensor:
#      x y z
#    x 1.682240 0.000000 0.000000 
#    y 0.000000 1.675670 0.000000 
#    z 0.000000 0.000000 1.637810 
# 
# From -- ./inp_files/32552.got.cif
#   From: 2010.03.12/outbox.cif.g09.slc.cpg/sg51_17_cif.got.tgz:32552.got - 2010.04.16 13:43:02.
