data_PCOD8207123
_publ_section_title
;
Structure prediction by ZEFSAII (Michael W. Deem and Ramdas Pophale) SiO2 
 PCOD8207123
Probable space group: P M M A
;
_chemical_formula_sum "Si O2"
_cell_formula_units_Z 48
_cell_length_a 9.617194
_cell_length_b 9.130186
_cell_length_c 29.340885
_cell_angle_alpha 90.000000
_cell_angle_beta 90.000000
_cell_angle_gamma 90.000000
_cell_volume 2576.328341
_symmetry_space_group_name_H-M "P M M A"
_symmetry_group_IT_number 51
_symmetry_cell_setting 'orthorhombic'
loop_
_space_group_symop_operation_xyz
x,y,z
1/2-x,-y,z
1/2+x,-y,-z
-x,y,-z
-x,-y,-z
1/2+x,y,-z
1/2-x,y,z
x,-y,z
loop_
_atom_site_type_symbol
_atom_site_label
_atom_site_fract_x
_atom_site_fract_y
_atom_site_fract_z
Si Si1 0.908725 0.830567 0.709128
Si Si2 0.750000 0.173584 0.051760
Si Si3 0.911243 0.329667 0.800927
Si Si4 0.250000 0.826131 0.049807
Si Si5 0.087957 0.672635 0.455668
Si Si6 0.002180 0.173322 0.111438
Si Si7 0.911680 0.171616 0.378256
O O1 0.750000 0.792420 0.693585
O O2 0.954408 0.735645 0.752340
O O3 0.019747 0.791370 0.670261
O O4 0.918316 0.000000 0.722842
O O5 0.875857 0.229047 0.081663
O O6 0.750000 0.000000 0.046405
O O7 0.750000 0.243182 0.000997
O O8 0.750000 0.297315 0.810668
O O9 0.946145 0.500000 0.800513
O O10 0.000606 0.251575 0.839854
O O11 0.376584 0.769368 0.079335
O O12 0.250000 0.000000 0.045152
O O13 0.250000 0.725624 0.459422
O O14 0.084280 0.500000 0.448007
O O15 0.000000 0.718361 0.500000
O O16 0.007913 0.746842 0.414306
O O17 0.005577 0.000000 0.120263
O O18 0.750000 0.224990 0.379417
O O19 0.919246 0.000000 0.388737
#
# Coordination Sequence:
#
# PCOD8207123 Si02
#       7
#     8   4   8   4   8   8   8
#     4   9  18  34  56  78 102 135 177 223 270 320
#     4   9  18  30  47  77 107 129 161 211 258 301
#     4  10  20  34  53  76 102 133 173 218 261 311
#     4   9  16  28  51  77 101 129 167 209 252 305
#     4  10  21  37  58  84 115 154 197 237 277 323
#     4  10  18  31  52  76 101 132 168 208 257 308
#     4  10  21  37  57  84 116 148 183 227 280 334
#
# _framework density 18.631166
#
# number of rings (size 3 to 8) (size 9 to 14) (size 15 to 20)
#    0.000    2.333    0.833    2.000    0.000    5.667 
#    1.500    2.083    0.000    3.000    0.000    0.000 
#    0.000    0.000    0.000    0.000    0.000    0.000 
#
# Total GULP energy -594990.339081 kJ/mol
# GULP energy per Si atom -12395.632064 kJ/mol
# Density = 1.858876 g / cm^3
# Si number density = 18.631166 Si / 1000 Ang^3
#
#
#
# Elastic Constant Matrix: (Units=GPa)
#
#
# Indices 1 2 3 4 5 6 
#
# 1 147.3795 30.7272 75.9782 0.0000 0.0000 0.0000
# 2 30.7272 46.1562 51.4955 0.0000 0.0000 0.0000
# 3 75.9782 51.4955 146.4327 0.0000 0.0000 0.0000
# 4 0.0000 0.0000 0.0000 -10.7731 0.0000 0.0000
# 5 0.0000 0.0000 0.0000 0.0000 14.2149 0.0000
# 6 0.0000 0.0000 0.0000 0.0000 0.0000 21.5289
#
#
#
# Elastic Compliance Matrix: (Units=1/GPa)
#
#
# Indices 1 2 3 4 5 6 
#
# 1 0.009312 -0.001331 -0.004364 0.000000 0.000000 0.000000
# 2 -0.001331 0.035845 -0.011915 0.000000 0.000000 0.000000
# 3 -0.004364 -0.011915 0.013283 0.000000 0.000000 0.000000
# 4 0.000000 0.000000 0.000000 -0.092824 0.000000 0.000000
# 5 0.000000 0.000000 0.000000 0.000000 0.070349 0.000000
# 6 0.000000 0.000000 0.000000 0.000000 0.000000 0.046449
#
#
# Mechanical properties :
#
#
# Convention : Reuss Voigt Hill
#
# Bulk Modulus (GPa) = 43.06372 72.93003 57.99688
# Shear Modulus (GPa) = 39.88067 17.11197 28.49632
#
# Velocity S-wave (km/s) = 4.63161 3.03390 3.91512
# Velocity P-wave (km/s) = 7.19489 7.17648 7.18569
#
# Compressibility (1/GPa) = 0.02322140
#
# Stress axis : x y z
#
# Youngs Moduli (GPa) = 107.38461 27.89808 75.28217
#
# Poissons Ratio (x) = 0.03713 0.32852
# Poissons Ratio (y) = 0.14291 0.89698
# Poissons Ratio (z) = 0.46860 0.33240
#
# Static dielectric constant tensor:
#      x y z
#    x 3.634480 0.000000 0.000000 
#    y 0.000000 3.139060 0.000000 
#    z 0.000000 0.000000 3.507130 
# 
# 
# High freq. dielectric constant tensor:
#      x y z
#    x 1.726670 0.000000 0.000000 
#    y 0.000000 1.695070 0.000000 
#    z 0.000000 0.000000 1.737340 
# 
# From -- ./inp_files/37128.got.cif
#   From: 2010.03.12/outbox.cif.g09.slc.cpg/sg51_19_cif.got.tgz:37128.got - 2010.04.16 13:43:02.
