data_PCOD8207026
_publ_section_title
;
Structure prediction by ZEFSAII (Michael W. Deem and Ramdas Pophale) SiO2 
 PCOD8207026
Probable space group: P M M A
;
_chemical_formula_sum "Si O2"
_cell_formula_units_Z 64
_cell_length_a 18.324684
_cell_length_b 12.664184
_cell_length_c 17.424388
_cell_angle_alpha 90.000000
_cell_angle_beta 90.000000
_cell_angle_gamma 90.000000
_cell_volume 4043.628411
_symmetry_space_group_name_H-M "P M M A"
_symmetry_group_IT_number 51
_symmetry_cell_setting 'orthorhombic'
loop_
_space_group_symop_operation_xyz
x,y,z
1/2-x,-y,z
1/2+x,-y,-z
-x,y,-z
-x,-y,-z
1/2+x,y,-z
1/2-x,y,z
x,-y,z
loop_
_atom_site_type_symbol
_atom_site_label
_atom_site_fract_x
_atom_site_fract_y
_atom_site_fract_z
Si Si1 0.424812 0.377594 0.661488
Si Si2 0.168338 0.764130 0.084565
Si Si3 0.890208 0.620643 0.792844
Si Si4 0.086117 0.621357 0.375655
Si Si5 0.046327 0.695255 0.823635
Si Si6 0.833024 0.620455 0.060281
Si Si7 0.022494 0.878505 0.086010
Si Si8 0.832034 0.374199 0.478493
O O1 0.413031 0.500000 0.686940
O O2 0.499770 0.366569 0.614438
O O3 0.424362 0.302545 0.736183
O O4 0.363665 0.335260 0.602965
O O5 0.250000 0.812423 0.078163
O O6 0.166538 0.687625 0.157945
O O7 0.108999 0.856411 0.094859
O O8 0.147915 0.695826 0.010293
O O9 0.864671 0.500000 0.794088
O O10 0.889050 0.669087 0.706492
O O11 0.972300 0.626431 0.827621
O O12 0.109495 0.500000 0.374070
O O13 0.125407 0.676023 0.448473
O O14 0.110329 0.642641 0.872355
O O15 0.026781 0.812211 0.854315
O O16 0.750000 0.640592 0.089441
O O17 0.841933 0.500000 0.032413
O O18 0.007116 0.000000 0.104779
O O19 0.000000 0.848387 0.000000
O O20 0.750000 0.333540 0.484051
O O21 0.838788 0.500000 0.480107
#
# Coordination Sequence:
#
# PCOD8207026 Si02
#       8
#     8   8   8   8   8   8   8   8
#     4   9  16  26  41  60  87 119 151 183 220 263
#     4  10  20  32  45  67  94 119 149 183 225 275
#     4   9  17  27  43  65  91 125 158 187 220 260
#     4   8  14  25  38  55  82 119 157 186 213 249
#     4  10  18  31  47  66  88 117 155 195 227 273
#     4  10  19  29  42  63  94 128 154 179 215 264
#     4  10  20  36  54  69  84 109 149 196 240 274
#     4   9  16  24  36  57  85 120 157 185 213 253
#
# _framework density 15.82737
#
# number of rings (size 3 to 8) (size 9 to 14) (size 15 to 20)
#    0.000    2.625    1.250    2.625    0.000    3.500 
#    0.000    4.375    0.000    0.375    0.000    0.000 
#    0.000   18.000    0.000    2.625    0.000    0.000 
#
# Total GULP energy -793302.562296 kJ/mol
# GULP energy per Si atom -12395.352536 kJ/mol
# Density = 1.579135 g / cm^3
# Si number density = 15.827370 Si / 1000 Ang^3
#
#
#
# Elastic Constant Matrix: (Units=GPa)
#
#
# Indices 1 2 3 4 5 6 
#
# 1 67.6728 17.4035 42.8434 0.0000 0.0000 0.0000
# 2 17.4035 46.1282 28.5833 0.0000 0.0000 0.0000
# 3 42.8434 28.5833 107.8959 0.0000 0.0000 0.0000
# 4 0.0000 0.0000 0.0000 9.8032 0.0000 0.0000
# 5 0.0000 0.0000 0.0000 0.0000 24.5892 0.0000
# 6 0.0000 0.0000 0.0000 0.0000 0.0000 13.4204
#
#
#
# Elastic Compliance Matrix: (Units=1/GPa)
#
#
# Indices 1 2 3 4 5 6 
#
# 1 0.020117 -0.003159 -0.007151 0.000000 0.000000 0.000000
# 2 -0.003159 0.026432 -0.005748 0.000000 0.000000 0.000000
# 3 -0.007151 -0.005748 0.013631 0.000000 0.000000 0.000000
# 4 0.000000 0.000000 0.000000 0.102007 0.000000 0.000000
# 5 0.000000 0.000000 0.000000 0.000000 0.040668 0.000000
# 6 0.000000 0.000000 0.000000 0.000000 0.000000 0.074513
#
#
# Mechanical properties :
#
#
# Convention : Reuss Voigt Hill
#
# Bulk Modulus (GPa) = 35.63313 44.37302 40.00308
# Shear Modulus (GPa) = 15.68191 18.42034 17.05112
#
# Velocity S-wave (km/s) = 3.15113 3.41519 3.28581
# Velocity P-wave (km/s) = 5.98347 6.60665 6.30277
#
# Compressibility (1/GPa) = 0.02806377
#
# Stress axis : x y z
#
# Youngs Moduli (GPa) = 49.71003 37.83267 73.36452
#
# Poissons Ratio (x) = 0.11949 0.52464
# Poissons Ratio (y) = 0.15701 0.42171
# Poissons Ratio (z) = 0.35549 0.21747
#
# Static dielectric constant tensor:
#      x y z
#    x 3.047950 0.000000 0.000000 
#    y 0.000000 2.531070 0.000000 
#    z 0.000000 0.000000 3.180010 
# 
# 
# High freq. dielectric constant tensor:
#      x y z
#    x 1.614650 0.000000 0.000000 
#    y 0.000000 1.542890 0.000000 
#    z 0.000000 0.000000 1.616450 
# 
# From -- ./inp_files/30274.got.cif
#   From: 2010.03.12/outbox.cif.g09.slc.cpg/sg51_16_cif.got.tgz:30274.got - 2010.04.16 13:43:02.
