data_PCOD8207551
_publ_section_title
;
Structure prediction by ZEFSAII (Michael W. Deem and Ramdas Pophale) SiO2 
 PCOD8207551
Probable space group: P M M A
;
_chemical_formula_sum "Si O2"
_cell_formula_units_Z 64
_cell_length_a 25.092706
_cell_length_b 8.970967
_cell_length_c 18.768463
_cell_angle_alpha 90.000000
_cell_angle_beta 90.000000
_cell_angle_gamma 90.000000
_cell_volume 4224.890582
_symmetry_space_group_name_H-M "P M M A"
_symmetry_group_IT_number 51
_symmetry_cell_setting 'orthorhombic'
loop_
_space_group_symop_operation_xyz
x,y,z
1/2-x,-y,z
1/2+x,-y,-z
-x,y,-z
-x,-y,-z
1/2+x,y,-z
1/2-x,y,z
x,-y,z
loop_
_atom_site_type_symbol
_atom_site_label
_atom_site_fract_x
_atom_site_fract_y
_atom_site_fract_z
Si Si1 0.929791 0.327705 0.967952
Si Si2 0.511235 0.323436 0.386447
Si Si3 0.498212 0.172453 0.240237
Si Si4 0.690282 0.325754 0.578745
Si Si5 0.688560 0.168108 0.726965
Si Si6 0.393747 0.326748 0.181253
Si Si7 0.966186 0.172438 0.090617
Si Si8 0.917799 0.675611 0.513424
O O1 0.932209 0.500000 0.989319
O O2 0.887814 0.299195 0.904086
O O3 0.985405 0.275585 0.934172
O O4 0.917134 0.232029 0.040570
O O5 0.512855 0.500000 0.376590
O O6 0.521164 0.250688 0.310023
O O7 0.558673 0.264886 0.438561
O O8 0.454578 0.270344 0.420190
O O9 0.441634 0.237973 0.217658
O O10 0.541218 0.195240 0.175636
O O11 0.489743 0.000000 0.257108
O O12 0.750000 0.290917 0.548612
O O13 0.684964 0.500000 0.597224
O O14 0.678646 0.233496 0.649124
O O15 0.644230 0.276496 0.522727
O O16 0.750000 0.171110 0.747129
O O17 0.660827 0.270483 0.785408
O O18 0.666033 0.000000 0.728665
O O19 0.403033 0.500000 0.197916
O O20 0.977820 0.000000 0.073771
O O21 0.923350 0.500000 0.511187
#
# Coordination Sequence:
#
# PCOD8207551 Si02
#       8
#     8   8   8   8   8   8   8   8
#     4   9  16  25  38  56  76  99 131 165 190 220
#     4   9  16  27  42  56  76 108 139 168 202 243
#     4  10  19  28  39  59  84 107 135 168 201 240
#     4   9  16  27  44  62  80 105 136 169 204 243
#     4  10  20  31  42  59  83 108 135 169 205 238
#     4  10  19  29  42  59  79 107 140 169 200 239
#     4   9  16  25  37  53  77 106 129 154 191 231
#     4   8  15  27  41  58  78 102 136 171 203 242
#
# _framework density 15.148320999999999
#
# number of rings (size 3 to 8) (size 9 to 14) (size 15 to 20)
#    0.000    2.750    0.000    4.125    0.000    4.750 
#    0.000    1.875    0.000    0.000    0.000    0.000 
#    0.000    1.000    0.000    9.000    0.000    4.250 
#
# Total GULP energy -792916.143407 kJ/mol
# GULP energy per Si atom -12389.314741 kJ/mol
# Density = 1.511384 g / cm^3
# Si number density = 15.148321 Si / 1000 Ang^3
#
#
#
# Elastic Constant Matrix: (Units=GPa)
#
#
# Indices 1 2 3 4 5 6 
#
# 1 69.2637 23.4315 47.2374 0.0000 0.0000 0.0000
# 2 23.4315 53.0521 44.5825 0.0000 0.0000 0.0000
# 3 47.2374 44.5825 123.4525 0.0000 0.0000 0.0000
# 4 0.0000 0.0000 0.0000 17.9495 0.0000 0.0000
# 5 0.0000 0.0000 0.0000 0.0000 20.7858 0.0000
# 6 0.0000 0.0000 0.0000 0.0000 0.0000 14.2325
#
#
#
# Elastic Compliance Matrix: (Units=1/GPa)
#
#
# Indices 1 2 3 4 5 6 
#
# 1 0.019964 -0.003443 -0.006396 0.000000 0.000000 0.000000
# 2 -0.003443 0.027656 -0.008670 0.000000 0.000000 0.000000
# 3 -0.006396 -0.008670 0.013678 0.000000 0.000000 0.000000
# 4 0.000000 0.000000 0.000000 0.055712 0.000000 0.000000
# 5 0.000000 0.000000 0.000000 0.000000 0.048110 0.000000
# 6 0.000000 0.000000 0.000000 0.000000 0.000000 0.070262
#
#
# Mechanical properties :
#
#
# Convention : Reuss Voigt Hill
#
# Bulk Modulus (GPa) = 41.18388 52.91901 47.05145
# Shear Modulus (GPa) = 17.82576 19.29467 18.56022
#
# Velocity S-wave (km/s) = 3.43410 3.57279 3.50413
# Velocity P-wave (km/s) = 6.55516 7.21315 6.89201
#
# Compressibility (1/GPa) = 0.02428134
#
# Stress axis : x y z
#
# Youngs Moduli (GPa) = 50.08997 36.15861 73.10745
#
# Poissons Ratio (x) = 0.12449 0.46757
# Poissons Ratio (y) = 0.17246 0.63384
# Poissons Ratio (z) = 0.32036 0.31350
#
# Static dielectric constant tensor:
#      x y z
#    x 2.828950 0.000000 0.000000 
#    y 0.000000 2.938050 0.000000 
#    z 0.000000 0.000000 3.359570 
# 
# 
# High freq. dielectric constant tensor:
#      x y z
#    x 1.534840 0.000000 0.000000 
#    y 0.000000 1.584770 0.000000 
#    z 0.000000 0.000000 1.580260 
# 
# From -- ./inp_files/30965.got.cif
#   From: 2010.03.12/outbox.cif.g09.slc.cpg/sg51_16_cif.got.tgz:30965.got - 2010.04.16 13:43:02.
