data_PCOD8207406
_publ_section_title
;
Structure prediction by ZEFSAII (Michael W. Deem and Ramdas Pophale) SiO2 
 PCOD8207406
Probable space group: P M M A
;
_chemical_formula_sum "Si O2"
_cell_formula_units_Z 64
_cell_length_a 14.470163
_cell_length_b 9.004342
_cell_length_c 24.952651
_cell_angle_alpha 90.000000
_cell_angle_beta 90.000000
_cell_angle_gamma 90.000000
_cell_volume 3251.188107
_symmetry_space_group_name_H-M "P M M A"
_symmetry_group_IT_number 51
_symmetry_cell_setting 'orthorhombic'
loop_
_space_group_symop_operation_xyz
x,y,z
1/2-x,-y,z
1/2+x,-y,-z
-x,y,-z
-x,-y,-z
1/2+x,y,-z
1/2-x,y,z
x,-y,z
loop_
_atom_site_type_symbol
_atom_site_label
_atom_site_fract_x
_atom_site_fract_y
_atom_site_fract_z
Si Si1 0.355464 0.323932 0.775639
Si Si2 0.355585 0.829409 0.968365
Si Si3 0.353459 0.826247 0.092374
Si Si4 0.462064 0.174920 0.679080
Si Si5 0.532349 0.325199 0.121038
Si Si6 0.148361 0.824120 0.369194
Si Si7 0.607047 0.831950 0.512351
Si Si8 0.852391 0.667130 0.409745
O O1 0.250000 0.264153 0.774202
O O2 0.356394 0.500000 0.770995
O O3 0.414895 0.260187 0.727388
O O4 0.403162 0.269497 0.830461
O O5 0.250000 0.800582 0.951190
O O6 0.422638 0.726359 0.934379
O O7 0.383033 0.000000 0.958140
O O8 0.369687 0.787950 0.030200
O O9 0.250000 0.775644 0.109450
O O10 0.429407 0.741225 0.127783
O O11 0.364898 0.000000 0.102505
O O12 0.569818 0.225094 0.673557
O O13 0.414202 0.218606 0.623498
O O14 0.451431 0.000000 0.688274
O O15 0.523484 0.500000 0.120765
O O16 0.250000 0.768098 0.350179
O O17 0.126724 0.763903 0.428817
O O18 0.145295 0.000000 0.372914
O O19 0.500000 0.829536 0.500000
O O20 0.657006 0.724968 0.470312
O O21 0.646047 0.000000 0.507548
O O22 0.750000 0.664222 0.384260
O O23 0.894176 0.500000 0.408338
#
# Coordination Sequence:
#
# PCOD8207406 Si02
#       8
#     8   8   8   8   8   8   8   8
#     4  10  23  43  61  79 109 145 178 220 281 341
#     4   9  18  33  54  81 115 154 193 232 276 331
#     4   9  19  36  56  80 114 155 194 232 275 324
#     4  11  22  38  60  84 106 134 183 235 274 320
#     4  11  22  35  55  83 114 148 186 233 287 341
#     4   9  18  34  56  81 111 143 173 216 274 324
#     4  10  18  33  56  82 110 142 181 223 264 312
#     4  11  23  36  52  78 113 149 180 215 267 327
#
# _framework density 19.685110999999999
#
# number of rings (size 3 to 8) (size 9 to 14) (size 15 to 20)
#    0.000    2.000    1.250    3.375    0.000    7.500 
#    0.000    1.875    0.000    4.500    0.000    0.000 
#    0.000    0.000    0.000    0.000    0.000    0.000 
#
# Total GULP energy -793534.892944 kJ/mol
# GULP energy per Si atom -12398.982702 kJ/mol
# Density = 1.964031 g / cm^3
# Si number density = 19.685111 Si / 1000 Ang^3
#
#
#
# Elastic Constant Matrix: (Units=GPa)
#
#
# Indices 1 2 3 4 5 6 
#
# 1 162.3644 31.4682 61.7909 0.0000 0.0000 0.0000
# 2 31.4682 29.0571 25.4919 0.0000 0.0000 0.0000
# 3 61.7909 25.4919 75.7327 0.0000 0.0000 0.0000
# 4 0.0000 0.0000 0.0000 25.2751 0.0000 0.0000
# 5 0.0000 0.0000 0.0000 0.0000 33.1478 0.0000
# 6 0.0000 0.0000 0.0000 0.0000 0.0000 25.7562
#
#
#
# Elastic Compliance Matrix: (Units=1/GPa)
#
#
# Indices 1 2 3 4 5 6 
#
# 1 0.009399 -0.004898 -0.006021 0.000000 0.000000 0.000000
# 2 -0.004898 0.051388 -0.013302 0.000000 0.000000 0.000000
# 3 -0.006021 -0.013302 0.022594 0.000000 0.000000 0.000000
# 4 0.000000 0.000000 0.000000 0.039565 0.000000 0.000000
# 5 0.000000 0.000000 0.000000 0.000000 0.030168 0.000000
# 6 0.000000 0.000000 0.000000 0.000000 0.000000 0.038826
#
#
# Mechanical properties :
#
#
# Convention : Reuss Voigt Hill
#
# Bulk Modulus (GPa) = 28.61849 56.07291 42.34570
# Shear Modulus (GPa) = 19.83917 26.72935 23.28426
#
# Velocity S-wave (km/s) = 3.17807 3.68889 3.44297
# Velocity P-wave (km/s) = 5.29496 6.83306 6.11258
#
# Compressibility (1/GPa) = 0.03494244
#
# Stress axis : x y z
#
# Youngs Moduli (GPa) = 106.38951 19.45965 44.25973
#
# Poissons Ratio (x) = 0.09530 0.26647
# Poissons Ratio (y) = 0.52105 0.58872
# Poissons Ratio (z) = 0.64052 0.25884
#
# Static dielectric constant tensor:
#      x y z
#    x 3.952270 0.000000 0.000000 
#    y 0.000000 3.371700 0.000000 
#    z 0.000000 0.000000 3.482180 
# 
# 
# High freq. dielectric constant tensor:
#      x y z
#    x 1.786600 0.000000 0.000000 
#    y 0.000000 1.746960 0.000000 
#    z 0.000000 0.000000 1.747460 
# 
# From -- ./inp_files/35596.got.cif
#   From: 2010.03.12/outbox.cif.g09.slc.cpg/sg51_18_cif.got.tgz:35596.got - 2010.04.16 13:43:02.
