data_PCOD8207248
_publ_section_title
;
Structure prediction by ZEFSAII (Michael W. Deem and Ramdas Pophale) SiO2 
 PCOD8207248
Probable space group: P M M A
;
_chemical_formula_sum "Si O2"
_cell_formula_units_Z 56
_cell_length_a 18.452316
_cell_length_b 9.085651
_cell_length_c 17.290256
_cell_angle_alpha 90.000000
_cell_angle_beta 90.000000
_cell_angle_gamma 90.000000
_cell_volume 2898.733953
_symmetry_space_group_name_H-M "P M M A"
_symmetry_group_IT_number 51
_symmetry_cell_setting 'orthorhombic'
loop_
_space_group_symop_operation_xyz
x,y,z
1/2-x,-y,z
1/2+x,-y,-z
-x,y,-z
-x,-y,-z
1/2+x,y,-z
1/2-x,y,z
x,-y,z
loop_
_atom_site_type_symbol
_atom_site_label
_atom_site_fract_x
_atom_site_fract_y
_atom_site_fract_z
Si Si1 0.332361 0.832566 0.750013
Si Si2 0.333574 0.171379 0.454758
Si Si3 0.075336 0.173305 0.603965
Si Si4 0.446237 0.674873 0.170156
Si Si5 0.899545 0.674568 0.111835
Si Si6 0.668161 0.324657 0.952401
Si Si7 0.435112 0.674804 0.345892
O O1 0.250000 0.818930 0.721936
O O2 0.381859 0.776144 0.680151
O O3 0.343981 0.731317 0.824128
O O4 0.351695 0.000000 0.771926
O O5 0.250000 0.208022 0.469864
O O6 0.377867 0.220765 0.530261
O O7 0.360198 0.265818 0.381388
O O8 0.345365 0.000000 0.436692
O O9 0.999644 0.258849 0.602358
O O10 0.059846 0.000000 0.603339
O O11 0.447286 0.500000 0.169606
O O12 0.519755 0.734610 0.130103
O O13 0.377174 0.732931 0.121548
O O14 0.440839 0.733215 0.257778
O O15 0.898467 0.500000 0.113359
O O16 0.872407 0.733986 0.029092
O O17 0.750000 0.261323 0.948030
O O18 0.670409 0.500000 0.953678
O O19 0.437465 0.500000 0.349538
#
# Coordination Sequence:
#
# PCOD8207248 Si02
#       7
#     8   8   8   8   8   8   8
#     4  10  20  33  52  79 110 142 174 215 270 327
#     4  10  22  40  60  81 107 143 187 230 270 319
#     4  10  20  37  59  80 106 143 185 224 265 322
#     4   9  18  32  50  75 109 144 177 218 269 323
#     4  10  18  32  53  78 106 137 178 223 269 320
#     4   9  17  29  49  77 105 138 182 227 267 313
#     4  11  22  36  56  84 114 145 180 223 277 330
#
# _framework density 19.318777999999998
#
# number of rings (size 3 to 8) (size 9 to 14) (size 15 to 20)
#    0.000    2.143    1.429    2.143    0.000    7.429 
#    0.000    1.429    0.000    6.000    0.000    2.000 
#    0.000    0.000    0.000    0.000    0.000    0.000 
#
# Total GULP energy -694514.723204 kJ/mol
# GULP energy per Si atom -12402.048629 kJ/mol
# Density = 1.927481 g / cm^3
# Si number density = 19.318778 Si / 1000 Ang^3
#
#
#
# Elastic Constant Matrix: (Units=GPa)
#
#
# Indices 1 2 3 4 5 6 
#
# 1 124.1304 27.0385 72.3956 0.0000 0.0000 0.0000
# 2 27.0385 26.5480 29.0085 0.0000 0.0000 0.0000
# 3 72.3956 29.0085 122.5414 0.0000 0.0000 0.0000
# 4 0.0000 0.0000 0.0000 21.1716 0.0000 0.0000
# 5 0.0000 0.0000 0.0000 0.0000 35.8017 0.0000
# 6 0.0000 0.0000 0.0000 0.0000 0.0000 24.7495
#
#
#
# Elastic Compliance Matrix: (Units=1/GPa)
#
#
# Indices 1 2 3 4 5 6 
#
# 1 0.013093 -0.006586 -0.006176 0.000000 0.000000 0.000000
# 2 -0.006586 0.054124 -0.008921 0.000000 0.000000 0.000000
# 3 -0.006176 -0.008921 0.013921 0.000000 0.000000 0.000000
# 4 0.000000 0.000000 0.000000 0.047233 0.000000 0.000000
# 5 0.000000 0.000000 0.000000 0.000000 0.027932 0.000000
# 6 0.000000 0.000000 0.000000 0.000000 0.000000 0.040405
#
#
# Mechanical properties :
#
#
# Convention : Reuss Voigt Hill
#
# Bulk Modulus (GPa) = 26.47572 58.90056 42.68814
# Shear Modulus (GPa) = 19.78916 25.99637 22.89276
#
# Velocity S-wave (km/s) = 3.20402 3.67229 3.44612
# Velocity P-wave (km/s) = 5.23661 6.96677 6.16271
#
# Compressibility (1/GPa) = 0.03777046
#
# Stress axis : x y z
#
# Youngs Moduli (GPa) = 76.37956 18.47619 71.83437
#
# Poissons Ratio (x) = 0.12169 0.44363
# Poissons Ratio (y) = 0.50306 0.64086
# Poissons Ratio (z) = 0.47170 0.16483
#
# Static dielectric constant tensor:
#      x y z
#    x 3.693670 0.000000 0.000000 
#    y 0.000000 3.110770 0.000000 
#    z 0.000000 0.000000 3.695170 
# 
# 
# High freq. dielectric constant tensor:
#      x y z
#    x 1.763740 0.000000 0.000000 
#    y 0.000000 1.708850 0.000000 
#    z 0.000000 0.000000 1.761520 
# 
# From -- ./inp_files/25716.got.cif
#   From: 2010.03.12/outbox.cif.g09.slc.cpg/sg51_13_cif.got.tgz:25716.got - 2010.04.16 13:43:02.
