data_PCOD8207264
_publ_section_title
;
Structure prediction by ZEFSAII (Michael W. Deem and Ramdas Pophale) SiO2 
 PCOD8207264
Probable space group: P M M A
;
_chemical_formula_sum "Si O2"
_cell_formula_units_Z 64
_cell_length_a 8.925912
_cell_length_b 19.875505
_cell_length_c 20.194471
_cell_angle_alpha 90.000000
_cell_angle_beta 90.000000
_cell_angle_gamma 90.000000
_cell_volume 3582.640690
_symmetry_space_group_name_H-M "P M M A"
_symmetry_group_IT_number 51
_symmetry_cell_setting 'orthorhombic'
loop_
_space_group_symop_operation_xyz
x,y,z
1/2-x,-y,z
1/2+x,-y,-z
-x,y,-z
-x,-y,-z
1/2+x,y,-z
1/2-x,y,z
x,-y,z
loop_
_atom_site_type_symbol
_atom_site_label
_atom_site_fract_x
_atom_site_fract_y
_atom_site_fract_z
Si Si1 0.427625 0.427410 0.618206
Si Si2 0.080155 0.244244 0.795148
Si Si3 0.921193 0.603781 0.236866
Si Si4 0.576510 0.424924 0.894348
Si Si5 0.574739 0.710332 0.434772
Si Si6 0.576223 0.078645 0.567908
Si Si7 0.928645 0.290967 0.065931
Si Si8 0.572920 0.824235 0.332723
O O1 0.250000 0.419901 0.618140
O O2 0.478232 0.500000 0.588081
O O3 0.480929 0.424773 0.694029
O O4 0.494433 0.364571 0.577512
O O5 0.250000 0.222632 0.806663
O O6 0.069803 0.315783 0.759458
O O7 0.007903 0.250328 0.869223
O O8 0.012286 0.189217 0.743061
O O9 0.750000 0.581647 0.221481
O O10 0.030732 0.573387 0.182340
O O11 0.750000 0.404345 0.901014
O O12 0.548893 0.500000 0.923934
O O13 0.476552 0.369400 0.931785
O O14 0.500000 0.741191 0.500000
O O15 0.750000 0.707412 0.446714
O O16 0.533413 0.757449 0.373601
O O17 0.500000 0.104899 0.500000
O O18 0.750000 0.096286 0.562513
O O19 0.508780 0.112866 0.633588
O O20 0.546092 0.000000 0.576821
O O21 0.750000 0.288192 0.063133
O O22 0.000000 0.257760 0.000000
O O23 0.750000 0.838179 0.332636
#
# Coordination Sequence:
#
# PCOD8207264 Si02
#       8
#     8   8   8   8   8   8   8   8
#     4   9  16  27  45  64  82 112 156 202 248 300
#     4   8  15  29  50  73  95 122 156 198 243 289
#     4   9  15  28  48  67  85 111 152 198 246 297
#     4  10  20  31  43  63  91 119 151 195 248 305
#     4  10  20  32  46  65  91 121 158 204 248 292
#     4  10  21  36  53  77 110 144 176 207 243 290
#     4  10  20  34  52  70  94 125 159 198 245 299
#     4  10  18  32  54  76 101 130 166 208 245 287
#
# _framework density 17.863918000000002
#
# number of rings (size 3 to 8) (size 9 to 14) (size 15 to 20)
#    0.000    2.500    1.250    2.625    0.000    4.250 
#    0.000    3.750    0.000    0.750    0.000    0.000 
#    0.000    0.500    0.000    1.125    0.000    2.000 
#
# Total GULP energy -793025.882586 kJ/mol
# GULP energy per Si atom -12391.029415 kJ/mol
# Density = 1.782326 g / cm^3
# Si number density = 17.863918 Si / 1000 Ang^3
#
#
#
# Elastic Constant Matrix: (Units=GPa)
#
#
# Indices 1 2 3 4 5 6 
#
# 1 46.0997 25.9601 36.7206 0.0000 0.0000 0.0000
# 2 25.9601 57.5490 41.9629 0.0000 0.0000 0.0000
# 3 36.7206 41.9629 123.9236 0.0000 0.0000 0.0000
# 4 0.0000 0.0000 0.0000 20.4670 0.0000 0.0000
# 5 0.0000 0.0000 0.0000 0.0000 24.3119 0.0000
# 6 0.0000 0.0000 0.0000 0.0000 0.0000 18.5348
#
#
#
# Elastic Compliance Matrix: (Units=1/GPa)
#
#
# Indices 1 2 3 4 5 6 
#
# 1 0.032261 -0.010068 -0.006150 0.000000 0.000000 0.000000
# 2 -0.010068 0.026216 -0.005894 0.000000 0.000000 0.000000
# 3 -0.006150 -0.005894 0.011888 0.000000 0.000000 0.000000
# 4 0.000000 0.000000 0.000000 0.048859 0.000000 0.000000
# 5 0.000000 0.000000 0.000000 0.000000 0.041132 0.000000
# 6 0.000000 0.000000 0.000000 0.000000 0.000000 0.053953
#
#
# Mechanical properties :
#
#
# Convention : Reuss Voigt Hill
#
# Bulk Modulus (GPa) = 38.25572 48.53996 43.39784
# Shear Modulus (GPa) = 18.70939 20.85796 19.78367
#
# Velocity S-wave (km/s) = 3.23976 3.42073 3.33147
# Velocity P-wave (km/s) = 5.95452 6.54468 6.25656
#
# Compressibility (1/GPa) = 0.02613988
#
# Stress axis : x y z
#
# Youngs Moduli (GPa) = 30.99754 38.14492 84.12114
#
# Poissons Ratio (x) = 0.38405 0.51735
# Poissons Ratio (y) = 0.31209 0.49579
# Poissons Ratio (z) = 0.19064 0.22482
#
# Static dielectric constant tensor:
#      x y z
#    x 3.056100 0.000000 0.000000 
#    y 0.000000 3.147760 0.000000 
#    z 0.000000 0.000000 3.532940 
# 
# 
# High freq. dielectric constant tensor:
#      x y z
#    x 1.664320 0.000000 0.000000 
#    y 0.000000 1.656810 0.000000 
#    z 0.000000 0.000000 1.694450 
# 
# From -- ./inp_files/32677.got.cif
#   From: 2010.03.12/outbox.cif.g09.slc.cpg/sg51_17_cif.got.tgz:32677.got - 2010.04.16 13:43:02.
