data_PCOD8207761
_publ_section_title
;
Structure prediction by ZEFSAII (Michael W. Deem and Ramdas Pophale) SiO2 
 PCOD8207761
Probable space group: P M M A
;
_chemical_formula_sum "Si O2"
_cell_formula_units_Z 48
_cell_length_a 18.046200
_cell_length_b 9.280390
_cell_length_c 17.359565
_cell_angle_alpha 90.000000
_cell_angle_beta 90.000000
_cell_angle_gamma 90.000000
_cell_volume 2907.306585
_symmetry_space_group_name_H-M "P M M A"
_symmetry_group_IT_number 51
_symmetry_cell_setting 'orthorhombic'
loop_
_space_group_symop_operation_xyz
x,y,z
1/2-x,-y,z
1/2+x,-y,-z
-x,y,-z
-x,-y,-z
1/2+x,y,-z
1/2-x,y,z
x,-y,z
loop_
_atom_site_type_symbol
_atom_site_label
_atom_site_fract_x
_atom_site_fract_y
_atom_site_fract_z
Si Si1 0.442489 0.167654 0.339882
Si Si2 0.665436 0.330380 0.548992
Si Si3 0.059779 0.662768 0.932748
Si Si4 0.548531 0.165859 0.837471
Si Si5 0.945894 0.658820 0.427626
Si Si6 0.665051 0.832049 0.966053
O O1 0.375987 0.245721 0.383581
O O2 0.429880 0.197221 0.250125
O O3 0.523035 0.229447 0.364854
O O4 0.440988 0.000000 0.360425
O O5 0.750000 0.280802 0.549866
O O6 0.655646 0.500000 0.565152
O O7 0.632988 0.292161 0.463838
O O8 0.080951 0.500000 0.910032
O O9 0.023878 0.741240 0.859099
O O10 0.133578 0.744667 0.960770
O O11 0.000000 0.667766 0.000000
O O12 0.619749 0.208247 0.888887
O O13 0.526986 0.000000 0.850667
O O14 0.940037 0.500000 0.389377
O O15 0.000000 0.652428 0.500000
O O16 0.750000 0.787184 0.952154
O O17 0.657395 0.000000 0.985502
#
# Coordination Sequence:
#
# PCOD8207761 Si02
#       6
#     8   8   8   8   8   8
#     4  10  19  29  45  70  96 120 149 188 228 264
#     4   9  18  32  48  66  90 121 154 186 224 272
#     4   9  17  29  46  67  89 115 151 192 226 258
#     4   9  18  31  46  66  93 123 153 183 219 269
#     4   8  15  29  47  64  85 117 155 189 221 265
#     4   9  17  30  48  67  89 120 152 181 220 271
#
# _framework density 16.510127000000001
#
# number of rings (size 3 to 8) (size 9 to 14) (size 15 to 20)
#    0.000    3.000    0.000    2.000    0.000    7.667 
#    0.000    1.667    0.000    1.000    0.000    4.667 
#    0.000    0.000    0.000    0.000    0.000    0.000 
#
# Total GULP energy -595047.256792 kJ/mol
# GULP energy per Si atom -12396.817850 kJ/mol
# Density = 1.647255 g / cm^3
# Si number density = 16.510127 Si / 1000 Ang^3
#
#
#
# Elastic Constant Matrix: (Units=GPa)
#
#
# Indices 1 2 3 4 5 6 
#
# 1 112.0761 63.1942 68.8444 0.0000 0.0000 0.0000
# 2 63.1942 84.4929 43.4797 0.0000 0.0000 0.0000
# 3 68.8444 43.4797 51.7615 0.0000 0.0000 0.0000
# 4 0.0000 0.0000 0.0000 21.3485 0.0000 0.0000
# 5 0.0000 0.0000 0.0000 0.0000 18.8281 0.0000
# 6 0.0000 0.0000 0.0000 0.0000 0.0000 20.9433
#
#
#
# Elastic Compliance Matrix: (Units=1/GPa)
#
#
# Indices 1 2 3 4 5 6 
#
# 1 0.050224 -0.005617 -0.062081 0.000000 0.000000 0.000000
# 2 -0.005617 0.021475 -0.010568 0.000000 0.000000 0.000000
# 3 -0.062081 -0.010568 0.110766 0.000000 0.000000 0.000000
# 4 0.000000 0.000000 0.000000 0.046842 0.000000 0.000000
# 5 0.000000 0.000000 0.000000 0.000000 0.053112 0.000000
# 6 0.000000 0.000000 0.000000 0.000000 0.000000 0.047748
#
#
# Mechanical properties :
#
#
# Convention : Reuss Voigt Hill
#
# Bulk Modulus (GPa) = 38.56132 66.59634 52.57883
# Shear Modulus (GPa) = 10.09404 17.07811 13.58608
#
# Velocity S-wave (km/s) = 2.47530 3.21970 2.87172
# Velocity P-wave (km/s) = 5.61928 7.36520 6.55067
#
# Compressibility (1/GPa) = 0.02593272
#
# Stress axis : x y z
#
# Youngs Moduli (GPa) = 19.91089 46.56668 9.02806
#
# Poissons Ratio (x) = 0.26157 0.56047
# Poissons Ratio (y) = 0.11184 0.09541
# Poissons Ratio (z) = 1.23609 0.49211
#
# Static dielectric constant tensor:
#      x y z
#    x 3.327880 0.000000 0.000000 
#    y 0.000000 3.195440 0.000000 
#    z 0.000000 0.000000 2.978970 
# 
# 
# High freq. dielectric constant tensor:
#      x y z
#    x 1.624160 0.000000 0.000000 
#    y 0.000000 1.639410 0.000000 
#    z 0.000000 0.000000 1.612970 
# 
# From -- ./inp_files/24768.got.cif
#   From: 2010.03.12/outbox.cif.g09.slc.cpg/sg51_13_cif.got.tgz:24768.got - 2010.04.16 13:43:02.
