data_PCOD8207508
_publ_section_title
;
Structure prediction by ZEFSAII (Michael W. Deem and Ramdas Pophale) SiO2 
 PCOD8207508
Probable space group: P M M A
;
_chemical_formula_sum "Si O2"
_cell_formula_units_Z 44
_cell_length_a 8.918225
_cell_length_b 13.575929
_cell_length_c 18.806931
_cell_angle_alpha 90.000000
_cell_angle_beta 90.000000
_cell_angle_gamma 90.000000
_cell_volume 2277.015119
_symmetry_space_group_name_H-M "P M M A"
_symmetry_group_IT_number 51
_symmetry_cell_setting 'orthorhombic'
loop_
_space_group_symop_operation_xyz
x,y,z
1/2-x,-y,z
1/2+x,-y,-z
-x,y,-z
-x,-y,-z
1/2+x,y,-z
1/2-x,y,z
x,-y,z
loop_
_atom_site_type_symbol
_atom_site_label
_atom_site_fract_x
_atom_site_fract_y
_atom_site_fract_z
Si Si1 0.571799 0.392734 0.683874
Si Si2 0.418708 0.889725 0.192590
Si Si3 0.080842 0.388780 0.156195
Si Si4 0.425222 0.776289 0.926064
Si Si5 0.077811 0.182385 0.346912
Si Si6 0.572412 0.000000 0.423285
O O1 0.750000 0.394704 0.688283
O O2 0.516206 0.500000 0.652429
O O3 0.511365 0.382419 0.764459
O O4 0.524336 0.296246 0.636548
O O5 0.250000 0.881039 0.162551
O O6 0.533623 0.858344 0.132010
O O7 0.437640 0.823079 0.262062
O O8 0.456575 0.000000 0.216587
O O9 0.250000 0.345121 0.155341
O O10 0.081371 0.500000 0.128744
O O11 0.980071 0.329395 0.101098
O O12 0.250000 0.773536 0.937938
O O13 0.500000 0.805596 0.000000
O O14 0.250000 0.164253 0.370887
O O15 0.975911 0.100645 0.384211
O O16 0.500000 0.000000 0.500000
O O17 0.750000 0.000000 0.429446
#
# Coordination Sequence:
#
# PCOD8207508 Si02
#       6
#     8   8   8   8   8   4
#     4   8  14  27  54  89 119 150 189 232 279 339
#     4  10  20  37  60  83 109 144 187 233 286 349
#     4   9  17  33  56  79 106 142 186 235 288 345
#     4  12  25  38  53  73 105 145 191 243 298 353
#     4  10  18  35  63  91 122 157 193 232 284 343
#     4  12  26  42  62  92 129 160 197 236 282 336
#
# _framework density 19.323543000000001
#
# number of rings (size 3 to 8) (size 9 to 14) (size 15 to 20)
#    0.000    2.000    2.727    3.545    0.000    2.182 
#    0.000    0.000    0.000    1.091    0.000    0.000 
#    0.000    0.000    0.000    0.000    0.000    0.000 
#
# Total GULP energy -545287.872197 kJ/mol
# GULP energy per Si atom -12392.906186 kJ/mol
# Density = 1.927956 g / cm^3
# Si number density = 19.323543 Si / 1000 Ang^3
#
#
#
# Elastic Constant Matrix: (Units=GPa)
#
#
# Indices 1 2 3 4 5 6 
#
# 1 104.6712 40.2179 34.8527 0.0000 0.0000 0.0000
# 2 40.2179 155.9273 33.9084 0.0000 0.0000 0.0000
# 3 34.8527 33.9084 61.4142 0.0000 0.0000 0.0000
# 4 0.0000 0.0000 0.0000 14.2878 0.0000 0.0000
# 5 0.0000 0.0000 0.0000 0.0000 26.2307 0.0000
# 6 0.0000 0.0000 0.0000 0.0000 0.0000 24.4957
#
#
#
# Elastic Compliance Matrix: (Units=1/GPa)
#
#
# Indices 1 2 3 4 5 6 
#
# 1 0.012242 -0.001871 -0.005914 0.000000 0.000000 0.000000
# 2 -0.001871 0.007574 -0.003120 0.000000 0.000000 0.000000
# 3 -0.005914 -0.003120 0.021362 0.000000 0.000000 0.000000
# 4 0.000000 0.000000 0.000000 0.069990 0.000000 0.000000
# 5 0.000000 0.000000 0.000000 0.000000 0.038123 0.000000
# 6 0.000000 0.000000 0.000000 0.000000 0.000000 0.040824
#
#
# Mechanical properties :
#
#
# Convention : Reuss Voigt Hill
#
# Bulk Modulus (GPa) = 51.63383 59.99673 55.81528
# Shear Modulus (GPa) = 22.89572 27.20510 25.05041
#
# Velocity S-wave (km/s) = 3.44592 3.75623 3.60442
# Velocity P-wave (km/s) = 6.52772 7.06600 6.80219
#
# Compressibility (1/GPa) = 0.01936715
#
# Stress axis : x y z
#
# Youngs Moduli (GPa) = 81.68583 132.02323 46.81265
#
# Poissons Ratio (x) = 0.24708 0.27685
# Poissons Ratio (y) = 0.15287 0.14605
# Poissons Ratio (z) = 0.48310 0.41191
#
# Static dielectric constant tensor:
#      x y z
#    x 3.223860 0.000000 0.000000 
#    y 0.000000 4.065430 0.000000 
#    z 0.000000 0.000000 3.206220 
# 
# 
# High freq. dielectric constant tensor:
#      x y z
#    x 1.719230 0.000000 0.000000 
#    y 0.000000 1.780000 0.000000 
#    z 0.000000 0.000000 1.715370 
# 
# From -- ./inp_files/27354.got.cif
#   From: 2010.03.12/outbox.cif.g09.slc.cpg/sg51_14_cif.got.tgz:27354.got - 2010.04.16 13:43:02.
