data_PCOD8207805
_publ_section_title
;
Structure prediction by ZEFSAII (Michael W. Deem and Ramdas Pophale) SiO2 
 PCOD8207805
Probable space group: P M M A
;
_chemical_formula_sum "Si O2"
_cell_formula_units_Z 56
_cell_length_a 9.728674
_cell_length_b 13.617884
_cell_length_c 28.869322
_cell_angle_alpha 90.000000
_cell_angle_beta 90.000000
_cell_angle_gamma 90.000000
_cell_volume 3824.721928
_symmetry_space_group_name_H-M "P M M A"
_symmetry_group_IT_number 51
_symmetry_cell_setting 'orthorhombic'
loop_
_space_group_symop_operation_xyz
x,y,z
1/2-x,-y,z
1/2+x,-y,-z
-x,y,-z
-x,-y,-z
1/2+x,y,-z
1/2-x,y,z
x,-y,z
loop_
_atom_site_type_symbol
_atom_site_label
_atom_site_fract_x
_atom_site_fract_y
_atom_site_fract_z
Si Si1 0.407005 0.117005 0.957432
Si Si2 0.595304 0.883095 0.875050
Si Si3 0.250000 0.883655 0.427066
Si Si4 0.404093 0.116407 0.227711
Si Si5 0.470242 0.794512 0.598053
Si Si6 0.903641 0.888475 0.307867
Si Si7 0.409636 0.612667 0.544791
Si Si8 0.250000 0.114877 0.533532
O O1 0.250000 0.157744 0.960311
O O2 0.481849 0.157224 0.911026
O O3 0.402475 0.000000 0.957641
O O4 0.500000 0.155305 0.000000
O O5 0.750000 0.847163 0.888263
O O6 0.555457 0.844704 0.823566
O O7 0.595086 0.000000 0.875861
O O8 0.377562 0.836200 0.401071
O O9 0.250000 0.852647 0.480445
O O10 0.250000 0.000000 0.420275
O O11 0.250000 0.149905 0.239888
O O12 0.503124 0.158915 0.267431
O O13 0.416737 0.000000 0.227566
O O14 0.405597 0.818371 0.647608
O O15 0.462706 0.677764 0.588101
O O16 0.387555 0.845512 0.556649
O O17 0.750000 0.890448 0.288110
O O18 0.950112 0.000000 0.321185
O O19 0.500000 0.638802 0.500000
O O20 0.250000 0.636162 0.533543
O O21 0.429960 0.500000 0.559515
O O22 0.250000 0.000000 0.539583
#
# Coordination Sequence:
#
# PCOD8207805 Si02
#       8
#     8   8   4   8   8   8   8   4
#     4   9  15  20  27  40  58  81 110 147 191 237
#     4   8  13  22  33  44  60  83 112 148 189 230
#     4  11  24  34  47  69  91 117 144 166 194 242
#     4   8  15  26  39  53  70  94 124 157 191 232
#     4  12  22  34  49  68  89 114 139 170 206 243
#     4  10  19  30  43  59  81 107 132 160 197 242
#     4  10  21  37  56  74  90 110 138 172 208 247
#     4  11  20  34  49  63  89 115 138 162 196 244
#
# _framework density 14.641586999999999
#
# number of rings (size 3 to 8) (size 9 to 14) (size 15 to 20)
#    0.000    2.286    1.429    3.857    2.000    3.429 
#    0.000    2.857    0.000    0.000    0.000    0.000 
#    0.000    0.000    0.000    0.000    0.000    0.000 
#
# Total GULP energy -694195.259966 kJ/mol
# GULP energy per Si atom -12396.343928 kJ/mol
# Density = 1.460826 g / cm^3
# Si number density = 14.641587 Si / 1000 Ang^3
#
#
#
# Elastic Constant Matrix: (Units=GPa)
#
#
# Indices 1 2 3 4 5 6 
#
# 1 105.5904 19.5420 49.5803 0.0000 0.0000 0.0000
# 2 19.5420 31.8178 28.0887 0.0000 0.0000 0.0000
# 3 49.5803 28.0887 93.0880 0.0000 0.0000 0.0000
# 4 0.0000 0.0000 0.0000 3.9839 0.0000 0.0000
# 5 0.0000 0.0000 0.0000 0.0000 29.5105 0.0000
# 6 0.0000 0.0000 0.0000 0.0000 0.0000 12.2406
#
#
#
# Elastic Compliance Matrix: (Units=1/GPa)
#
#
# Indices 1 2 3 4 5 6 
#
# 1 0.012774 -0.002507 -0.006047 0.000000 0.000000 0.000000
# 2 -0.002507 0.043333 -0.011740 0.000000 0.000000 0.000000
# 3 -0.006047 -0.011740 0.017506 0.000000 0.000000 0.000000
# 4 0.000000 0.000000 0.000000 0.251011 0.000000 0.000000
# 5 0.000000 0.000000 0.000000 0.000000 0.033886 0.000000
# 6 0.000000 0.000000 0.000000 0.000000 0.000000 0.081695
#
#
# Mechanical properties :
#
#
# Convention : Reuss Voigt Hill
#
# Bulk Modulus (GPa) = 30.28098 47.21312 38.74705
# Shear Modulus (GPa) = 10.16669 18.03268 14.09969
#
# Velocity S-wave (km/s) = 2.63795 3.51323 3.10657
# Velocity P-wave (km/s) = 5.47766 6.98377 6.27606
#
# Compressibility (1/GPa) = 0.03302403
#
# Stress axis : x y z
#
# Youngs Moduli (GPa) = 78.28384 23.07709 57.12383
#
# Poissons Ratio (x) = 0.05786 0.34544
# Poissons Ratio (y) = 0.19627 0.67064
# Poissons Ratio (z) = 0.47339 0.27093
#
# Static dielectric constant tensor:
#      x y z
#    x 3.074510 0.000000 0.000000 
#    y 0.000000 2.421140 0.000000 
#    z 0.000000 0.000000 3.011490 
# 
# 
# High freq. dielectric constant tensor:
#      x y z
#    x 1.578980 0.000000 0.000000 
#    y 0.000000 1.487020 0.000000 
#    z 0.000000 0.000000 1.555570 
# 
# From -- ./inp_files/37509.got.cif
#   From: 2010.03.12/outbox.cif.g09.slc.cpg/sg51_19_cif.got.tgz:37509.got - 2010.04.16 13:43:02.
