data_PCOD8207755
_publ_section_title
;
Structure prediction by ZEFSAII (Michael W. Deem and Ramdas Pophale) SiO2 
 PCOD8207755
Probable space group: P M M A
;
_chemical_formula_sum "Si O2"
_cell_formula_units_Z 48
_cell_length_a 17.300045
_cell_length_b 17.380071
_cell_length_c 10.035556
_cell_angle_alpha 90.000000
_cell_angle_beta 90.000000
_cell_angle_gamma 90.000000
_cell_volume 3017.450940
_symmetry_space_group_name_H-M "P M M A"
_symmetry_group_IT_number 51
_symmetry_cell_setting 'orthorhombic'
loop_
_space_group_symop_operation_xyz
x,y,z
1/2-x,-y,z
1/2+x,-y,-z
-x,y,-z
-x,-y,-z
1/2+x,y,-z
1/2-x,y,z
x,-y,z
loop_
_atom_site_type_symbol
_atom_site_label
_atom_site_fract_x
_atom_site_fract_y
_atom_site_fract_z
Si Si1 0.462515 0.653130 0.791846
Si Si2 0.620091 0.653214 0.949089
Si Si3 0.484613 0.796060 0.349063
Si Si4 0.664611 0.500000 0.811222
Si Si5 0.044178 0.088555 0.137494
Si Si6 0.336012 0.795778 0.202068
Si Si7 0.508061 0.500000 0.656638
O O1 0.537150 0.662253 0.882575
O O2 0.460459 0.723923 0.687910
O O3 0.463352 0.573657 0.712270
O O4 0.388424 0.654659 0.890061
O O5 0.658746 0.573597 0.906453
O O6 0.671161 0.725135 0.901412
O O7 0.500000 0.820192 0.500000
O O8 0.505219 0.868858 0.253954
O O9 0.393329 0.774405 0.325994
O O10 0.750000 0.500000 0.743363
O O11 0.598695 0.500000 0.697627
O O12 0.128306 0.129511 0.126280
O O13 0.055326 0.000000 0.175903
O O14 0.000000 0.099356 0.000000
O O15 0.250000 0.814754 0.255388
O O16 0.500000 0.500000 0.500000
#
# Coordination Sequence:
#
# PCOD8207755 Si02
#       7
#     8   8   8   4   8   8   4
#     4   9  16  28  47  69  94 122 161 202 243 281
#     4   9  16  28  47  69  94 122 156 203 245 285
#     4   9  18  30  49  73  99 130 163 201 242 296
#     4  10  19  29  45  67  92 124 163 206 247 285
#     4   9  18  32  52  75  98 126 163 205 247 295
#     4   9  18  30  49  73  98 127 160 202 247 293
#     4  10  19  29  45  69  95 128 171 206 239 295
#
# _framework density 15.907467
#
# number of rings (size 3 to 8) (size 9 to 14) (size 15 to 20)
#    1.000    1.833    0.000    2.500    0.000    2.667 
#    0.000    0.000    0.000    8.000    0.000    0.000 
#    0.000    0.000    0.000    0.000    0.000    0.000 
#
# Total GULP energy -594757.420532 kJ/mol
# GULP energy per Si atom -12390.779594 kJ/mol
# Density = 1.587126 g / cm^3
# Si number density = 15.907467 Si / 1000 Ang^3
#
#
#
# Elastic Constant Matrix: (Units=GPa)
#
#
# Indices 1 2 3 4 5 6 
#
# 1 66.6154 24.6418 34.8806 0.0000 0.0000 0.0000
# 2 24.6418 136.6986 51.4206 0.0000 0.0000 0.0000
# 3 34.8806 51.4206 111.4509 0.0000 0.0000 0.0000
# 4 0.0000 0.0000 0.0000 11.2410 0.0000 0.0000
# 5 0.0000 0.0000 0.0000 0.0000 13.3465 0.0000
# 6 0.0000 0.0000 0.0000 0.0000 0.0000 -17.4313
#
#
#
# Elastic Compliance Matrix: (Units=1/GPa)
#
#
# Indices 1 2 3 4 5 6 
#
# 1 0.018165 -0.001375 -0.005051 0.000000 0.000000 0.000000
# 2 -0.001375 0.008956 -0.003702 0.000000 0.000000 0.000000
# 3 -0.005051 -0.003702 0.012261 0.000000 0.000000 0.000000
# 4 0.000000 0.000000 0.000000 0.088960 0.000000 0.000000
# 5 0.000000 0.000000 0.000000 0.000000 0.074926 0.000000
# 6 0.000000 0.000000 0.000000 0.000000 0.000000 -0.057368
#
#
# Mechanical properties :
#
#
# Convention : Reuss Voigt Hill
#
# Bulk Modulus (GPa) = 52.28108 59.62786 55.95447
# Shear Modulus (GPa) = 28.98070 15.01938 22.00004
#
# Velocity S-wave (km/s) = 4.27292 3.07607 3.72291
# Velocity P-wave (km/s) = 7.56841 7.08392 7.33017
#
# Compressibility (1/GPa) = 0.01912738
#
# Stress axis : x y z
#
# Youngs Moduli (GPa) = 55.05204 111.66229 81.55832
#
# Poissons Ratio (x) = 0.15348 0.41193
# Poissons Ratio (y) = 0.07567 0.30190
# Poissons Ratio (z) = 0.27806 0.41334
#
# Static dielectric constant tensor:
#      x y z
#    x 2.786070 0.000000 0.000000 
#    y 0.000000 3.199810 0.000000 
#    z 0.000000 0.000000 2.825400 
# 
# 
# High freq. dielectric constant tensor:
#      x y z
#    x 1.578780 0.000000 0.000000 
#    y 0.000000 1.622140 0.000000 
#    z 0.000000 0.000000 1.591350 
# 
# From -- ./inp_files/11090.got.cif
#   From: 2010.03.12/outbox.cif.g09.slc.cpg/sg51_6_cif.got.tgz:11090.got - 2010.04.16 13:43:02.
