data_PCOD8207639
_publ_section_title
;
Structure prediction by ZEFSAII (Michael W. Deem and Ramdas Pophale) SiO2 
 PCOD8207639
Probable space group: P M M A
;
_chemical_formula_sum "Si O2"
_cell_formula_units_Z 56
_cell_length_a 9.117774
_cell_length_b 13.628841
_cell_length_c 29.135030
_cell_angle_alpha 90.000000
_cell_angle_beta 90.000000
_cell_angle_gamma 90.000000
_cell_volume 3620.455533
_symmetry_space_group_name_H-M "P M M A"
_symmetry_group_IT_number 51
_symmetry_cell_setting 'orthorhombic'
loop_
_space_group_symop_operation_xyz
x,y,z
1/2-x,-y,z
1/2+x,-y,-z
-x,y,-z
-x,-y,-z
1/2+x,y,-z
1/2-x,y,z
x,-y,z
loop_
_atom_site_type_symbol
_atom_site_label
_atom_site_fract_x
_atom_site_fract_y
_atom_site_fract_z
Si Si1 0.575503 0.289535 0.316620
Si Si2 0.913534 0.616575 0.143143
Si Si3 0.419524 0.389517 0.398581
Si Si4 0.080184 0.615414 0.232355
Si Si5 0.421280 0.387849 0.956811
Si Si6 0.918654 0.795426 0.545824
Si Si7 0.421475 0.112011 0.359600
O O1 0.750000 0.288257 0.316775
O O2 0.518757 0.365249 0.354884
O O3 0.517849 0.324709 0.267770
O O4 0.515256 0.180210 0.325890
O O5 0.750000 0.654663 0.155969
O O6 0.908026 0.500000 0.139111
O O7 0.961816 0.659257 0.093057
O O8 0.029200 0.649479 0.181738
O O9 0.250000 0.375497 0.383636
O O10 0.451820 0.500000 0.415032
O O11 0.457382 0.316985 0.440556
O O12 0.250000 0.642489 0.238720
O O13 0.052810 0.500000 0.239742
O O14 0.250000 0.379610 0.965214
O O15 0.475106 0.500000 0.955886
O O16 0.500000 0.333681 0.000000
O O17 0.750000 0.807854 0.534307
O O18 0.965459 0.866045 0.587667
O O19 0.000000 0.827784 0.500000
O O20 0.250000 0.135742 0.352537
O O21 0.459010 0.000000 0.347880
#
# Coordination Sequence:
#
# PCOD8207639 Si02
#       7
#     8   8   8   8   8   8   8
#     4  11  21  31  46  68  90 109 134 172 213 252
#     4   8  14  24  35  49  72 101 135 177 220 254
#     4   9  18  33  49  63  85 118 150 176 202 238
#     4  10  19  29  42  60  83 113 146 177 210 252
#     4   8  13  20  30  44  64  93 130 173 217 255
#     4   9  18  31  47  69  93 115 139 167 202 242
#     4   9  19  37  56  69  85 111 139 167 202 246
#
# _framework density 15.467665999999999
#
# number of rings (size 3 to 8) (size 9 to 14) (size 15 to 20)
#    0.000    2.857    0.000    3.857    0.000    6.571 
#    0.000    2.857    0.000    0.000    0.000    0.000 
#    0.000    0.000    0.000    0.000    0.000    0.714 
#
# Total GULP energy -694114.385144 kJ/mol
# GULP energy per Si atom -12394.899735 kJ/mol
# Density = 1.543246 g / cm^3
# Si number density = 15.467666 Si / 1000 Ang^3
#
#
#
# Elastic Constant Matrix: (Units=GPa)
#
#
# Indices 1 2 3 4 5 6 
#
# 1 78.7017 25.8082 51.8074 0.0000 0.0000 0.0000
# 2 25.8082 51.7503 18.9463 0.0000 0.0000 0.0000
# 3 51.8074 18.9463 105.0474 0.0000 0.0000 0.0000
# 4 0.0000 0.0000 0.0000 7.8381 0.0000 0.0000
# 5 0.0000 0.0000 0.0000 0.0000 31.4608 0.0000
# 6 0.0000 0.0000 0.0000 0.0000 0.0000 13.3865
#
#
#
# Elastic Compliance Matrix: (Units=1/GPa)
#
#
# Indices 1 2 3 4 5 6 
#
# 1 0.021034 -0.007165 -0.009081 0.000000 0.000000 0.000000
# 2 -0.007165 0.023130 -0.000638 0.000000 0.000000 0.000000
# 3 -0.009081 -0.000638 0.014113 0.000000 0.000000 0.000000
# 4 0.000000 0.000000 0.000000 0.127581 0.000000 0.000000
# 5 0.000000 0.000000 0.000000 0.000000 0.031786 0.000000
# 6 0.000000 0.000000 0.000000 0.000000 0.000000 0.074702
#
#
# Mechanical properties :
#
#
# Convention : Reuss Voigt Hill
#
# Bulk Modulus (GPa) = 40.80164 47.62480 44.21322
# Shear Modulus (GPa) = 14.95733 19.79959 17.37846
#
# Velocity S-wave (km/s) = 3.11305 3.58168 3.35555
# Velocity P-wave (km/s) = 6.27354 6.92541 6.60752
#
# Compressibility (1/GPa) = 0.02450882
#
# Stress axis : x y z
#
# Youngs Moduli (GPa) = 47.54296 43.23321 70.85539
#
# Poissons Ratio (x) = 0.30976 0.64345
# Poissons Ratio (y) = 0.34064 0.04522
# Poissons Ratio (z) = 0.43174 0.02759
#
# Static dielectric constant tensor:
#      x y z
#    x 2.947560 0.000000 0.000000 
#    y 0.000000 2.698830 0.000000 
#    z 0.000000 0.000000 3.125300 
# 
# 
# High freq. dielectric constant tensor:
#      x y z
#    x 1.595170 0.000000 0.000000 
#    y 0.000000 1.541780 0.000000 
#    z 0.000000 0.000000 1.595050 
# 
# From -- ./inp_files/37449.got.cif
#   From: 2010.03.12/outbox.cif.g09.slc.cpg/sg51_19_cif.got.tgz:37449.got - 2010.04.16 13:43:02.
