data_PCOD8207681
_publ_section_title
;
Structure prediction by ZEFSAII (Michael W. Deem and Ramdas Pophale) SiO2 
 PCOD8207681
Probable space group: P M M A
;
_chemical_formula_sum "Si O2"
_cell_formula_units_Z 56
_cell_length_a 9.367458
_cell_length_b 20.274206
_cell_length_c 15.404092
_cell_angle_alpha 90.000000
_cell_angle_beta 90.000000
_cell_angle_gamma 90.000000
_cell_volume 2925.510851
_symmetry_space_group_name_H-M "P M M A"
_symmetry_group_IT_number 51
_symmetry_cell_setting 'orthorhombic'
loop_
_space_group_symop_operation_xyz
x,y,z
1/2-x,-y,z
1/2+x,-y,-z
-x,y,-z
-x,-y,-z
1/2+x,y,-z
1/2-x,y,z
x,-y,z
loop_
_atom_site_type_symbol
_atom_site_label
_atom_site_fract_x
_atom_site_fract_y
_atom_site_fract_z
Si Si1 0.419432 0.174466 0.412741
Si Si2 0.418551 0.925871 0.267110
Si Si3 0.410197 0.729823 0.122941
Si Si4 0.916041 0.573213 0.272009
Si Si5 0.411851 0.695619 0.318519
Si Si6 0.914388 0.880116 0.917381
Si Si7 0.582479 0.392095 0.079739
O O1 0.500000 0.154743 0.500000
O O2 0.250000 0.166612 0.425146
O O3 0.478316 0.124852 0.338687
O O4 0.459927 0.249897 0.388627
O O5 0.250000 0.916008 0.261556
O O6 0.479968 0.910678 0.171057
O O7 0.461163 0.000000 0.294681
O O8 0.250000 0.703802 0.100696
O O9 0.430853 0.731090 0.226336
O O10 0.433635 0.801885 0.085942
O O11 0.530200 0.683664 0.080678
O O12 0.750000 0.589142 0.280558
O O13 0.952449 0.500000 0.307884
O O14 0.960986 0.574467 0.170623
O O15 0.996647 0.628695 0.327598
O O16 0.250000 0.673745 0.334587
O O17 0.750000 0.900664 0.928782
O O18 0.000000 0.908310 0.000000
O O19 0.750000 0.396248 0.062731
O O20 0.500000 0.428181 0.000000
#
# Coordination Sequence:
#
# PCOD8207681 Si02
#       7
#     8   8   8   8   8   8   8
#     4  10  20  36  59  87 113 139 175 220 268 322
#     4   9  18  35  57  78 107 149 187 218 263 323
#     4   9  16  29  48  68  95 131 173 219 265 310
#     4   9  19  34  50  71 101 136 173 215 266 318
#     4   9  17  32  54  77 103 135 173 216 260 313
#     4  10  19  31  49  74 103 140 184 226 267 312
#     4  10  19  29  42  64  95 131 172 217 265 313
#
# _framework density 19.141956
#
# number of rings (size 3 to 8) (size 9 to 14) (size 15 to 20)
#    0.000    2.571    1.429    0.857    0.000    4.000 
#    0.000    0.714    0.000    1.286    0.000    0.000 
#    0.000    0.000    0.000    0.000    0.000    0.000 
#
# Total GULP energy -694238.561533 kJ/mol
# GULP energy per Si atom -12397.117170 kJ/mol
# Density = 1.909839 g / cm^3
# Si number density = 19.141956 Si / 1000 Ang^3
#
#
#
# Elastic Constant Matrix: (Units=GPa)
#
#
# Indices 1 2 3 4 5 6 
#
# 1 55.8057 37.9548 35.9597 0.0000 0.0000 0.0000
# 2 37.9548 104.8859 51.2356 0.0000 0.0000 0.0000
# 3 35.9597 51.2356 109.0466 0.0000 0.0000 0.0000
# 4 0.0000 0.0000 0.0000 9.9776 0.0000 0.0000
# 5 0.0000 0.0000 0.0000 0.0000 29.6183 0.0000
# 6 0.0000 0.0000 0.0000 0.0000 0.0000 14.8520
#
#
#
# Elastic Compliance Matrix: (Units=1/GPa)
#
#
# Indices 1 2 3 4 5 6 
#
# 1 0.026001 -0.006776 -0.005391 0.000000 0.000000 0.000000
# 2 -0.006776 0.014140 -0.004409 0.000000 0.000000 0.000000
# 3 -0.005391 -0.004409 0.013020 0.000000 0.000000 0.000000
# 4 0.000000 0.000000 0.000000 0.100224 0.000000 0.000000
# 5 0.000000 0.000000 0.000000 0.000000 0.033763 0.000000
# 6 0.000000 0.000000 0.000000 0.000000 0.000000 0.067331
#
#
# Mechanical properties :
#
#
# Convention : Reuss Voigt Hill
#
# Bulk Modulus (GPa) = 49.97606 57.78203 53.87904
# Shear Modulus (GPa) = 16.98945 20.52881 18.75913
#
# Velocity S-wave (km/s) = 2.98241 3.27838 3.13389
# Velocity P-wave (km/s) = 6.16640 6.67697 6.42676
#
# Compressibility (1/GPa) = 0.02000958
#
# Stress axis : x y z
#
# Youngs Moduli (GPa) = 38.45962 70.72160 76.80633
#
# Poissons Ratio (x) = 0.47919 0.41404
# Poissons Ratio (y) = 0.26059 0.33866
# Poissons Ratio (z) = 0.20733 0.31183
#
# Static dielectric constant tensor:
#      x y z
#    x 3.261220 0.000000 0.000000 
#    y 0.000000 3.443720 0.000000 
#    z 0.000000 0.000000 3.435630 
# 
# 
# High freq. dielectric constant tensor:
#      x y z
#    x 1.718120 0.000000 0.000000 
#    y 0.000000 1.742430 0.000000 
#    z 0.000000 0.000000 1.731250 
# 
# From -- ./inp_files/21736.got.cif
#   From: 2010.03.12/outbox.cif.g09.slc.cpg/sg51_11_cif.got.tgz:21736.got - 2010.04.16 13:43:02.
