data_PCOD8207837
_publ_section_title
;
Structure prediction by ZEFSAII (Michael W. Deem and Ramdas Pophale) SiO2 
 PCOD8207837
Probable space group: P M M A
;
_chemical_formula_sum "Si O2"
_cell_formula_units_Z 52
_cell_length_a 9.465823
_cell_length_b 18.568400
_cell_length_c 18.768963
_cell_angle_alpha 90.000000
_cell_angle_beta 90.000000
_cell_angle_gamma 90.000000
_cell_volume 3298.930306
_symmetry_space_group_name_H-M "P M M A"
_symmetry_group_IT_number 51
_symmetry_cell_setting 'orthorhombic'
loop_
_space_group_symop_operation_xyz
x,y,z
1/2-x,-y,z
1/2+x,-y,-z
-x,y,-z
-x,-y,-z
1/2+x,y,-z
1/2-x,y,z
x,-y,z
loop_
_atom_site_type_symbol
_atom_site_label
_atom_site_fract_x
_atom_site_fract_y
_atom_site_fract_z
Si Si1 0.914296 0.582299 0.569728
Si Si2 0.414287 0.786141 0.781108
Si Si3 0.411954 0.081226 0.683913
Si Si4 0.909005 0.000000 0.068515
Si Si5 0.085998 0.842378 0.428104
Si Si6 0.910896 0.293586 0.671949
Si Si7 0.413825 0.156729 0.927792
O O1 0.750000 0.594656 0.552159
O O2 0.947086 0.500000 0.590777
O O3 0.961087 0.631543 0.636341
O O4 0.000000 0.605689 0.500000
O O5 0.250000 0.768895 0.773389
O O6 0.451466 0.863315 0.746373
O O7 0.497367 0.721862 0.742312
O O8 0.458991 0.788883 0.864567
O O9 0.250000 0.092750 0.658946
O O10 0.515586 0.093355 0.617096
O O11 0.434153 0.000000 0.712832
O O12 0.939593 0.076400 0.107117
O O13 0.750000 0.000000 0.041462
O O14 0.000000 0.000000 0.000000
O O15 0.250000 0.860530 0.442994
O O16 0.068306 0.768036 0.386347
O O17 0.000000 0.833556 0.500000
O O18 0.750000 0.298584 0.697580
O O19 0.250000 0.167194 0.947273
O O20 0.500000 0.171768 0.000000
#
# Coordination Sequence:
#
# PCOD8207837 Si02
#       7
#     8   8   8   4   8   8   8
#     4   9  17  29  46  69  95 121 148 177 210 250
#     4   9  18  30  45  64  84 111 145 179 214 255
#     4   9  18  31  45  59  76 102 138 178 219 257
#     4   8  14  24  38  56  80 106 133 168 211 256
#     4  10  19  30  44  60  79 104 137 175 214 254
#     4   9  18  31  45  63  88 116 143 173 210 252
#     4   9  17  28  43  63  86 111 141 177 217 260
#
# _framework density 15.762686
#
# number of rings (size 3 to 8) (size 9 to 14) (size 15 to 20)
#    0.000    2.923    0.000    0.923    1.077    2.462 
#    0.000    0.000    0.000    0.000    0.000    0.000 
#    0.000    0.615    0.000    1.385    0.000    2.154 
#
# Total GULP energy -644423.267545 kJ/mol
# GULP energy per Si atom -12392.755145 kJ/mol
# Density = 1.572681 g / cm^3
# Si number density = 15.762686 Si / 1000 Ang^3
#
#
#
# Elastic Constant Matrix: (Units=GPa)
#
#
# Indices 1 2 3 4 5 6 
#
# 1 67.9834 32.4496 55.3022 0.0000 0.0000 0.0000
# 2 32.4496 72.6665 45.0880 0.0000 0.0000 0.0000
# 3 55.3022 45.0880 110.1108 0.0000 0.0000 0.0000
# 4 0.0000 0.0000 0.0000 20.7269 0.0000 0.0000
# 5 0.0000 0.0000 0.0000 0.0000 26.0537 0.0000
# 6 0.0000 0.0000 0.0000 0.0000 0.0000 19.1265
#
#
#
# Elastic Compliance Matrix: (Units=1/GPa)
#
#
# Indices 1 2 3 4 5 6 
#
# 1 0.026018 -0.004706 -0.011140 0.000000 0.000000 0.000000
# 2 -0.004706 0.019300 -0.005539 0.000000 0.000000 0.000000
# 3 -0.011140 -0.005539 0.016945 0.000000 0.000000 0.000000
# 4 0.000000 0.000000 0.000000 0.048247 0.000000 0.000000
# 5 0.000000 0.000000 0.000000 0.000000 0.038382 0.000000
# 6 0.000000 0.000000 0.000000 0.000000 0.000000 0.052283
#
#
# Mechanical properties :
#
#
# Convention : Reuss Voigt Hill
#
# Bulk Modulus (GPa) = 51.30392 57.38225 54.34308
# Shear Modulus (GPa) = 19.96452 21.04281 20.50366
#
# Velocity S-wave (km/s) = 3.56275 3.65770 3.61053
# Velocity P-wave (km/s) = 7.03865 7.37029 7.20638
#
# Compressibility (1/GPa) = 0.01949169
#
# Stress axis : x y z
#
# Youngs Moduli (GPa) = 38.43488 51.81316 59.01412
#
# Poissons Ratio (x) = 0.24384 0.65743
# Poissons Ratio (y) = 0.18088 0.32690
# Poissons Ratio (z) = 0.42817 0.28701
#
# Static dielectric constant tensor:
#      x y z
#    x 3.078380 0.000000 0.000000 
#    y 0.000000 2.831260 0.000000 
#    z 0.000000 0.000000 2.838130 
# 
# 
# High freq. dielectric constant tensor:
#      x y z
#    x 1.608700 0.000000 0.000000 
#    y 0.000000 1.578960 0.000000 
#    z 0.000000 0.000000 1.588790 
# 
# From -- ./inp_files/28206.got.cif
#   From: 2010.03.12/outbox.cif.g09.slc.cpg/sg51_15_cif.got.tgz:28206.got - 2010.04.16 13:43:02.
