data_PCOD8207812
_publ_section_title
;
Structure prediction by ZEFSAII (Michael W. Deem and Ramdas Pophale) SiO2 
 PCOD8207812
Probable space group: P M M A
;
_chemical_formula_sum "Si O2"
_cell_formula_units_Z 52
_cell_length_a 8.953074
_cell_length_b 18.381471
_cell_length_c 24.755860
_cell_angle_alpha 90.000000
_cell_angle_beta 90.000000
_cell_angle_gamma 90.000000
_cell_volume 4074.088469
_symmetry_space_group_name_H-M "P M M A"
_symmetry_group_IT_number 51
_symmetry_cell_setting 'orthorhombic'
loop_
_space_group_symop_operation_xyz
x,y,z
1/2-x,-y,z
1/2+x,-y,-z
-x,y,-z
-x,-y,-z
1/2+x,y,-z
1/2-x,y,z
x,-y,z
loop_
_atom_site_type_symbol
_atom_site_label
_atom_site_fract_x
_atom_site_fract_y
_atom_site_fract_z
Si Si1 0.921789 0.417294 0.764872
Si Si2 0.418312 0.586666 0.658996
Si Si3 0.927629 0.235018 0.059038
Si Si4 0.428524 0.500000 0.941463
Si Si5 0.076874 0.076743 0.943073
Si Si6 0.918080 0.586758 0.553127
Si Si7 0.074544 0.634333 0.118123
O O1 0.750000 0.415721 0.747807
O O2 0.972307 0.500000 0.777431
O O3 0.952573 0.369547 0.817768
O O4 0.012330 0.383293 0.714706
O O5 0.250000 0.614535 0.655020
O O6 0.429164 0.500000 0.659202
O O7 0.504539 0.618078 0.607011
O O8 0.750000 0.250698 0.055574
O O9 0.963168 0.154294 0.084456
O O10 0.008844 0.289153 0.099627
O O11 0.000000 0.244254 0.000000
O O12 0.250000 0.500000 0.945424
O O13 0.483470 0.428860 0.910783
O O14 0.500000 0.500000 0.000000
O O15 0.250000 0.077839 0.955691
O O16 0.035687 0.000000 0.911409
O O17 0.000000 0.074509 0.000000
O O18 0.750000 0.615795 0.551941
O O19 0.923967 0.500000 0.553314
O O20 0.000000 0.617381 0.500000
O O21 0.250000 0.626824 0.104094
#
# Coordination Sequence:
#
# PCOD8207812 Si02
#       7
#     8   8   8   4   8   8   8
#     4   9  17  30  43  52  64  85 113 144 178 214
#     4   9  16  24  35  51  67  83 106 137 171 208
#     4  10  19  30  43  60  78  96 117 142 175 215
#     4  12  24  36  48  58  70  88 115 148 185 224
#     4   8  14  25  41  59  78  97 115 135 162 201
#     4   9  15  22  32  46  65  87 108 132 165 206
#     4  11  21  34  46  57  73  93 118 148 184 221
#
# _framework density 12.763591999999999
#
# number of rings (size 3 to 8) (size 9 to 14) (size 15 to 20)
#    0.000    2.462    0.769    3.000    0.000    5.538 
#    0.000    0.000    0.000    0.000    0.000    0.000 
#    0.000    0.000    0.000    0.000    0.000    0.000 
#
# Total GULP energy -644305.523977 kJ/mol
# GULP energy per Si atom -12390.490846 kJ/mol
# Density = 1.273454 g / cm^3
# Si number density = 12.763592 Si / 1000 Ang^3
#
#
#
# Elastic Constant Matrix: (Units=GPa)
#
#
# Indices 1 2 3 4 5 6 
#
# 1 92.5799 31.0630 52.8823 0.0000 0.0000 0.0000
# 2 31.0630 72.4661 32.6248 0.0000 0.0000 0.0000
# 3 52.8823 32.6248 91.3700 0.0000 0.0000 0.0000
# 4 0.0000 0.0000 0.0000 -2.5607 0.0000 0.0000
# 5 0.0000 0.0000 0.0000 0.0000 23.7471 0.0000
# 6 0.0000 0.0000 0.0000 0.0000 0.0000 9.2496
#
#
#
# Elastic Compliance Matrix: (Units=1/GPa)
#
#
# Indices 1 2 3 4 5 6 
#
# 1 0.016797 -0.003364 -0.008521 0.000000 0.000000 0.000000
# 2 -0.003364 0.017117 -0.004165 0.000000 0.000000 0.000000
# 3 -0.008521 -0.004165 0.017363 0.000000 0.000000 0.000000
# 4 0.000000 0.000000 0.000000 -0.390525 0.000000 0.000000
# 5 0.000000 0.000000 0.000000 0.000000 0.042110 0.000000
# 6 0.000000 0.000000 0.000000 0.000000 0.000000 0.108113
#
#
# Mechanical properties :
#
#
# Convention : Reuss Voigt Hill
#
# Bulk Modulus (GPa) = 52.14268 54.39511 53.26889
# Shear Modulus (GPa) = -33.21530 15.41027 -8.90252
#
# Velocity S-wave (km/s) = -5.10685 3.47848 -2.64387
# Velocity P-wave (km/s) = 2.48356 7.67092 5.70136
#
# Compressibility (1/GPa) = 0.01917815
#
# Stress axis : x y z
#
# Youngs Moduli (GPa) = 59.53354 58.42287 57.59395
#
# Poissons Ratio (x) = 0.19655 0.49073
# Poissons Ratio (y) = 0.20029 0.23985
# Poissons Ratio (z) = 0.50726 0.24331
#
# Static dielectric constant tensor:
#      x y z
#    x 2.759540 0.000000 0.000000 
#    y 0.000000 2.624630 0.000000 
#    z 0.000000 0.000000 2.556380 
# 
# 
# High freq. dielectric constant tensor:
#      x y z
#    x 1.504400 0.000000 0.000000 
#    y 0.000000 1.438880 0.000000 
#    z 0.000000 0.000000 1.467600 
# 
# From -- ./inp_files/35061.got.cif
#   From: 2010.03.12/outbox.cif.g09.slc.cpg/sg51_18_cif.got.tgz:35061.got - 2010.04.16 13:43:02.
