data_PCOD8207906
_publ_section_title
;
Structure prediction by ZEFSAII (Michael W. Deem and Ramdas Pophale) SiO2 
 PCOD8207906
Probable space group: P M M A
;
_chemical_formula_sum "Si O2"
_cell_formula_units_Z 48
_cell_length_a 9.139386
_cell_length_b 24.561906
_cell_length_c 13.456005
_cell_angle_alpha 90.000000
_cell_angle_beta 90.000000
_cell_angle_gamma 90.000000
_cell_volume 3020.613958
_symmetry_space_group_name_H-M "P M M A"
_symmetry_group_IT_number 51
_symmetry_cell_setting 'orthorhombic'
loop_
_space_group_symop_operation_xyz
x,y,z
1/2-x,-y,z
1/2+x,-y,-z
-x,y,-z
-x,-y,-z
1/2+x,y,-z
1/2-x,y,z
x,-y,z
loop_
_atom_site_type_symbol
_atom_site_label
_atom_site_fract_x
_atom_site_fract_y
_atom_site_fract_z
Si Si1 0.079418 0.057479 0.103824
Si Si2 0.579145 0.174799 0.895646
Si Si3 0.921099 0.342492 0.598708
Si Si4 0.079847 0.715367 0.201056
Si Si5 0.919077 0.437582 0.299655
Si Si6 0.420300 0.379567 0.902085
O O1 0.250000 0.057884 0.081339
O O2 0.037414 0.115622 0.154770
O O3 0.039485 0.000000 0.161877
O O4 0.000000 0.056254 0.000000
O O5 0.750000 0.177786 0.919342
O O6 0.535838 0.221780 0.817428
O O7 0.500000 0.184236 0.000000
O O8 0.750000 0.347826 0.578411
O O9 0.957493 0.299106 0.685074
O O10 0.000000 0.320784 0.500000
O O11 0.981708 0.401896 0.627493
O O12 0.250000 0.703918 0.178879
O O13 0.985439 0.679045 0.126390
O O14 0.750000 0.426392 0.325642
O O15 0.962252 0.500000 0.316627
O O16 0.950386 0.422690 0.185199
O O17 0.250000 0.372349 0.924532
O O18 0.500000 0.402303 0.000000
#
# Coordination Sequence:
#
# PCOD8207906 Si02
#       6
#     8   8   8   8   8   8
#     4   8  13  21  33  50  75 108 142 172 200 230
#     4   9  16  25  38  58  84 113 143 172 201 235
#     4  10  20  34  51  68  85 106 132 166 211 257
#     4   9  18  31  45  62  84 109 139 174 209 247
#     4   9  19  35  51  67  87 110 138 170 202 241
#     4  10  19  30  45  64  87 115 143 171 203 239
#
# _framework density 15.89081
#
# number of rings (size 3 to 8) (size 9 to 14) (size 15 to 20)
#    0.000    2.833    0.000    1.500    0.000    4.333 
#    0.000    0.000    0.000    0.000    0.000    0.000 
#    0.000    0.667    0.000    0.500    0.000    1.333 
#
# Total GULP energy -594758.510162 kJ/mol
# GULP energy per Si atom -12390.802295 kJ/mol
# Density = 1.585464 g / cm^3
# Si number density = 15.890810 Si / 1000 Ang^3
#
#
#
# Elastic Constant Matrix: (Units=GPa)
#
#
# Indices 1 2 3 4 5 6 
#
# 1 51.1247 27.9780 30.4744 0.0000 0.0000 0.0000
# 2 27.9780 132.3845 35.8453 0.0000 0.0000 0.0000
# 3 30.4744 35.8453 71.1957 0.0000 0.0000 0.0000
# 4 0.0000 0.0000 0.0000 4.6436 0.0000 0.0000
# 5 0.0000 0.0000 0.0000 0.0000 24.9923 0.0000
# 6 0.0000 0.0000 0.0000 0.0000 0.0000 16.6733
#
#
#
# Elastic Compliance Matrix: (Units=1/GPa)
#
#
# Indices 1 2 3 4 5 6 
#
# 1 0.027260 -0.003012 -0.010151 0.000000 0.000000 0.000000
# 2 -0.003012 0.009079 -0.003282 0.000000 0.000000 0.000000
# 3 -0.010151 -0.003282 0.020043 0.000000 0.000000 0.000000
# 4 0.000000 0.000000 0.000000 0.215349 0.000000 0.000000
# 5 0.000000 0.000000 0.000000 0.000000 0.040012 0.000000
# 6 0.000000 0.000000 0.000000 0.000000 0.000000 0.059976
#
#
# Mechanical properties :
#
#
# Convention : Reuss Voigt Hill
#
# Bulk Modulus (GPa) = 42.56976 49.25560 45.91268
# Shear Modulus (GPa) = 12.12295 19.95565 16.03930
#
# Velocity S-wave (km/s) = 2.76504 3.54757 3.18046
# Velocity P-wave (km/s) = 6.08613 6.91693 6.51479
#
# Compressibility (1/GPa) = 0.02349086
#
# Stress axis : x y z
#
# Youngs Moduli (GPa) = 36.68433 110.14515 49.89220
#
# Poissons Ratio (x) = 0.33179 0.50648
# Poissons Ratio (y) = 0.11051 0.16373
# Poissons Ratio (z) = 0.37240 0.36145
#
# Static dielectric constant tensor:
#      x y z
#    x 2.992910 0.000000 0.000000 
#    y 0.000000 3.538750 0.000000 
#    z 0.000000 0.000000 2.788170 
# 
# 
# High freq. dielectric constant tensor:
#      x y z
#    x 1.617980 0.000000 0.000000 
#    y 0.000000 1.616540 0.000000 
#    z 0.000000 0.000000 1.571420 
# 
# From -- ./inp_files/14450.got.cif
#   From: 2010.03.12/outbox.cif.g09.slc.cpg/sg51_8_cif.got.tgz:14450.got - 2010.04.16 13:43:02.
