data_PCOD8207518
_publ_section_title
;
Structure prediction by ZEFSAII (Michael W. Deem and Ramdas Pophale) SiO2 
 PCOD8207518
Probable space group: P M M A
;
_chemical_formula_sum "Si O2"
_cell_formula_units_Z 48
_cell_length_a 14.917079
_cell_length_b 8.661674
_cell_length_c 19.145996
_cell_angle_alpha 90.000000
_cell_angle_beta 90.000000
_cell_angle_gamma 90.000000
_cell_volume 2473.794318
_symmetry_space_group_name_H-M "P M M A"
_symmetry_group_IT_number 51
_symmetry_cell_setting 'orthorhombic'
loop_
_space_group_symop_operation_xyz
x,y,z
1/2-x,-y,z
1/2+x,-y,-z
-x,y,-z
-x,-y,-z
1/2+x,y,-z
1/2-x,y,z
x,-y,z
loop_
_atom_site_type_symbol
_atom_site_label
_atom_site_fract_x
_atom_site_fract_y
_atom_site_fract_z
Si Si1 0.250000 0.317475 0.972181
Si Si2 0.094746 0.327775 0.462385
Si Si3 0.023576 0.819144 0.331347
Si Si4 0.056544 0.317042 0.934582
Si Si5 0.652772 0.824533 0.406221
Si Si6 0.750000 0.819461 0.875934
Si Si7 0.574586 0.318922 0.813556
O O1 0.250000 0.500000 0.965895
O O2 0.158947 0.250998 0.936134
O O3 0.250000 0.275990 0.053168
O O4 0.123267 0.500000 0.439905
O O5 0.093168 0.220752 0.393454
O O6 0.162679 0.263682 0.520150
O O7 0.000000 0.325687 0.500000
O O8 0.047309 0.717663 0.264929
O O9 0.923966 0.762356 0.354328
O O10 0.028362 0.000000 0.313397
O O11 0.060757 0.500000 0.941196
O O12 0.007327 0.265954 0.863580
O O13 0.000000 0.249692 0.000000
O O14 0.750000 0.810322 0.368788
O O15 0.627691 0.000000 0.424602
O O16 0.837011 0.776653 0.831291
O O17 0.750000 0.000000 0.892587
O O18 0.594460 0.500000 0.822604
#
# Coordination Sequence:
#
# PCOD8207518 Si02
#       7
#     4   8   8   8   8   4   8
#     4  10  18  36  62  86 114 149 192 235 278 338
#     4   9  17  31  53  79 105 136 178 229 277 323
#     4  10  20  36  56  79 112 151 187 228 280 340
#     4   9  17  32  59  88 111 146 191 234 279 330
#     4   9  18  34  56  80 109 149 190 227 276 337
#     4  12  24  38  58  86 114 145 184 233 292 348
#     4  11  22  39  60  84 114 151 191 235 286 341
#
# _framework density 19.403392
#
# number of rings (size 3 to 8) (size 9 to 14) (size 15 to 20)
#    0.000    2.167    1.667    2.250    0.000    3.000 
#    3.000    2.500    0.000    0.000    0.000    0.000 
#    0.000    0.000    0.000    0.000    0.000    0.000 
#
# Total GULP energy -595054.610492 kJ/mol
# GULP energy per Si atom -12396.971052 kJ/mol
# Density = 1.935923 g / cm^3
# Si number density = 19.403392 Si / 1000 Ang^3
#
#
#
# Elastic Constant Matrix: (Units=GPa)
#
#
# Indices 1 2 3 4 5 6 
#
# 1 131.4272 11.6654 40.3059 0.0000 0.0000 0.0000
# 2 11.6654 33.6906 1.8994 0.0000 0.0000 0.0000
# 3 40.3059 1.8994 93.3877 0.0000 0.0000 0.0000
# 4 0.0000 0.0000 0.0000 19.9291 0.0000 0.0000
# 5 0.0000 0.0000 0.0000 0.0000 21.4997 0.0000
# 6 0.0000 0.0000 0.0000 0.0000 0.0000 13.7171
#
#
#
# Elastic Compliance Matrix: (Units=1/GPa)
#
#
# Indices 1 2 3 4 5 6 
#
# 1 0.009047 -0.002916 -0.003845 0.000000 0.000000 0.000000
# 2 -0.002916 0.030656 0.000635 0.000000 0.000000 0.000000
# 3 -0.003845 0.000635 0.012355 0.000000 0.000000 0.000000
# 4 0.000000 0.000000 0.000000 0.050178 0.000000 0.000000
# 5 0.000000 0.000000 0.000000 0.000000 0.046512 0.000000
# 6 0.000000 0.000000 0.000000 0.000000 0.000000 0.072902
#
#
# Mechanical properties :
#
#
# Convention : Reuss Voigt Hill
#
# Bulk Modulus (GPa) = 25.12245 40.69412 32.90829
# Shear Modulus (GPa) = 20.22902 24.67150 22.45026
#
# Velocity S-wave (km/s) = 3.23236 3.56968 3.40520
# Velocity P-wave (km/s) = 5.18714 6.16510 5.69714
#
# Compressibility (1/GPa) = 0.03980503
#
# Stress axis : x y z
#
# Youngs Moduli (GPa) = 110.53593 32.62047 80.94059
#
# Poissons Ratio (x) = 0.09511 0.31124
# Poissons Ratio (y) = 0.32229 -0.05139
# Poissons Ratio (z) = 0.42504 -0.02071
#
# Static dielectric constant tensor:
#      x y z
#    x 3.880410 0.000000 0.000000 
#    y 0.000000 3.381760 0.000000 
#    z 0.000000 0.000000 3.442080 
# 
# 
# High freq. dielectric constant tensor:
#      x y z
#    x 1.760440 0.000000 0.000000 
#    y 0.000000 1.739040 0.000000 
#    z 0.000000 0.000000 1.742760 
# 
# From -- ./inp_files/29571.got.cif
#   From: 2010.03.12/outbox.cif.g09.slc.cpg/sg51_15_cif.got.tgz:29571.got - 2010.04.16 13:43:02.
