data_PCOD8207440
_publ_section_title
;
Structure prediction by ZEFSAII (Michael W. Deem and Ramdas Pophale) SiO2 
 PCOD8207440
Probable space group: P M M A
;
_chemical_formula_sum "Si O2"
_cell_formula_units_Z 40
_cell_length_a 13.459780
_cell_length_b 14.959712
_cell_length_c 9.833805
_cell_angle_alpha 90.000000
_cell_angle_beta 90.000000
_cell_angle_gamma 90.000000
_cell_volume 1980.080224
_symmetry_space_group_name_H-M "P M M A"
_symmetry_group_IT_number 51
_symmetry_cell_setting 'orthorhombic'
loop_
_space_group_symop_operation_xyz
x,y,z
1/2-x,-y,z
1/2+x,-y,-z
-x,y,-z
-x,-y,-z
1/2+x,y,-z
1/2-x,y,z
x,-y,z
loop_
_atom_site_type_symbol
_atom_site_label
_atom_site_fract_x
_atom_site_fract_y
_atom_site_fract_z
Si Si1 0.250000 0.095932 0.241051
Si Si2 0.750000 0.109657 0.055902
Si Si3 0.566667 0.163522 0.615540
Si Si4 0.054573 0.598131 0.718185
Si Si5 0.936454 0.776480 0.136013
Si Si6 0.636337 0.355084 0.566181
O O1 0.344454 0.101890 0.337430
O O2 0.250000 0.000000 0.173320
O O3 0.250000 0.150835 0.099674
O O4 0.654668 0.154732 0.125585
O O5 0.750000 0.000000 0.074893
O O6 0.500000 0.115149 0.500000
O O7 0.503197 0.184608 0.746298
O O8 0.614127 0.250751 0.545888
O O9 0.070906 0.500000 0.784780
O O10 0.093248 0.674377 0.822706
O O11 0.117417 0.599934 0.578956
O O12 0.937045 0.607702 0.682769
O O13 0.000000 0.773798 0.000000
O O14 0.750000 0.371370 0.613060
#
# Coordination Sequence:
#
# PCOD8207440 Si02
#       6
#     4   4   8   8   8   8
#     4  11  24  41  65  95 126 162 212 271 333 399
#     4  11  26  45  70  97 126 170 223 265 320 403
#     4  11  21  39  65  93 129 169 207 265 332 388
#     4  10  22  37  57  93 131 170 215 260 314 376
#     4  11  23  42  67  94 128 173 212 267 319 380
#     4  10  18  33  61  87 125 170 214 257 311 382
#
# _framework density 20.201201000000001
#
# number of rings (size 3 to 8) (size 9 to 14) (size 15 to 20)
#    0.000    1.400    7.000    1.200    1.400    4.400 
#    0.000    1.000    0.000    0.000    0.000    0.000 
#    0.000    0.000    0.000    0.000    0.000    0.000 
#
# Total GULP energy -495641.090491 kJ/mol
# GULP energy per Si atom -12391.027262 kJ/mol
# Density = 2.015522 g / cm^3
# Si number density = 20.201201 Si / 1000 Ang^3
#
#
#
# Elastic Constant Matrix: (Units=GPa)
#
#
# Indices 1 2 3 4 5 6 
#
# 1 122.3150 53.3405 42.3825 0.0000 0.0000 0.0000
# 2 53.3405 123.9572 36.4187 0.0000 0.0000 0.0000
# 3 42.3825 36.4187 102.0159 0.0000 0.0000 0.0000
# 4 0.0000 0.0000 0.0000 31.3559 0.0000 0.0000
# 5 0.0000 0.0000 0.0000 0.0000 33.4192 0.0000
# 6 0.0000 0.0000 0.0000 0.0000 0.0000 23.9951
#
#
#
# Elastic Compliance Matrix: (Units=1/GPa)
#
#
# Indices 1 2 3 4 5 6 
#
# 1 0.010923 -0.003762 -0.003195 0.000000 0.000000 0.000000
# 2 -0.003762 0.010308 -0.002117 0.000000 0.000000 0.000000
# 3 -0.003195 -0.002117 0.011886 0.000000 0.000000 0.000000
# 4 0.000000 0.000000 0.000000 0.031892 0.000000 0.000000
# 5 0.000000 0.000000 0.000000 0.000000 0.029923 0.000000
# 6 0.000000 0.000000 0.000000 0.000000 0.000000 0.041675
#
#
# Mechanical properties :
#
#
# Convention : Reuss Voigt Hill
#
# Bulk Modulus (GPa) = 66.80479 68.06351 67.43415
# Shear Modulus (GPa) = 31.30004 32.16380 31.73192
#
# Velocity S-wave (km/s) = 3.94053 3.99453 3.96762
# Velocity P-wave (km/s) = 7.33793 7.41896 7.37856
#
# Compressibility (1/GPa) = 0.01496899
#
# Stress axis : x y z
#
# Youngs Moduli (GPa) = 91.54855 97.01212 84.13537
#
# Poissons Ratio (x) = 0.36493 0.26883
# Poissons Ratio (y) = 0.34437 0.17812
# Poissons Ratio (z) = 0.29251 0.20538
#
# Static dielectric constant tensor:
#      x y z
#    x 3.718100 0.000000 0.000000 
#    y 0.000000 3.795750 0.000000 
#    z 0.000000 0.000000 3.559690 
# 
# 
# High freq. dielectric constant tensor:
#      x y z
#    x 1.791610 0.000000 0.000000 
#    y 0.000000 1.784400 0.000000 
#    z 0.000000 0.000000 1.776580 
# 
# From -- ./inp_files/8010.got.cif
#   From: 2010.03.12/outbox.cif.g09.slc.cpg/sg51_5_cif.got.tgz:8010.got - 2010.04.16 13:43:02.
