data_PCOD8207245
_publ_section_title
;
Structure prediction by ZEFSAII (Michael W. Deem and Ramdas Pophale) SiO2 
 PCOD8207245
Probable space group: P M M A
;
_chemical_formula_sum "Si O2"
_cell_formula_units_Z 64
_cell_length_a 8.883481
_cell_length_b 19.744506
_cell_length_c 20.813829
_cell_angle_alpha 90.000000
_cell_angle_beta 90.000000
_cell_angle_gamma 90.000000
_cell_volume 3650.744439
_symmetry_space_group_name_H-M "P M M A"
_symmetry_group_IT_number 51
_symmetry_cell_setting 'orthorhombic'
loop_
_space_group_symop_operation_xyz
x,y,z
1/2-x,-y,z
1/2+x,-y,-z
-x,y,-z
-x,-y,-z
1/2+x,y,-z
1/2-x,y,z
x,-y,z
loop_
_atom_site_type_symbol
_atom_site_label
_atom_site_fract_x
_atom_site_fract_y
_atom_site_fract_z
Si Si1 0.928125 0.426908 0.237108
Si Si2 0.574746 0.786204 0.684622
Si Si3 0.927959 0.925858 0.125097
Si Si4 0.571334 0.713735 0.434225
Si Si5 0.071367 0.573862 0.618699
Si Si6 0.927367 0.790248 0.065195
Si Si7 0.077977 0.075173 0.258362
Si Si8 0.571610 0.284425 0.193524
O O1 0.750000 0.429352 0.241010
O O2 0.987122 0.500000 0.210052
O O3 0.991417 0.415939 0.309146
O O4 0.977701 0.363699 0.193219
O O5 0.750000 0.768273 0.676061
O O6 0.482045 0.760410 0.623966
O O7 0.548410 0.867553 0.687986
O O8 0.515328 0.753389 0.750063
O O9 0.750000 0.925804 0.125576
O O10 0.985567 0.867309 0.077199
O O11 0.977092 0.908202 0.196933
O O12 0.990475 0.000000 0.103594
O O13 0.500000 0.741296 0.500000
O O14 0.750000 0.717793 0.438387
O O15 0.512285 0.636316 0.424078
O O16 0.250000 0.576048 0.620259
O O17 0.016864 0.500000 0.591999
O O18 0.750000 0.787015 0.057399
O O19 0.979872 0.744297 0.124867
O O20 0.000000 0.762093 0.000000
O O21 0.250000 0.078319 0.234906
O O22 0.039993 0.000000 0.286237
O O23 0.750000 0.275129 0.204871
#
# Coordination Sequence:
#
# PCOD8207245 Si02
#       8
#     8   8   8   8   8   8   8   8
#     4   8  13  24  47  76  99 122 161 209 252 295
#     4  11  21  33  53  79 104 132 167 207 252 301
#     4   9  17  30  48  71  99 130 165 204 245 295
#     4  11  22  36  53  74 105 140 173 211 250 296
#     4   8  14  26  47  74 101 132 168 204 244 292
#     4  10  21  33  47  69 100 135 172 209 252 300
#     4   9  18  32  51  76 103 130 162 203 250 299
#     4  10  18  32  53  76  99 130 170 212 254 298
#
# _framework density 17.530671000000002
#
# number of rings (size 3 to 8) (size 9 to 14) (size 15 to 20)
#    0.000    2.500    2.500    1.500    0.000    2.000 
#    0.000    0.000    0.000    3.000    0.000    0.000 
#    0.000    0.000    0.000    0.000    0.000    0.000 
#
# Total GULP energy -793119.171168 kJ/mol
# GULP energy per Si atom -12392.487049 kJ/mol
# Density = 1.749077 g / cm^3
# Si number density = 17.530671 Si / 1000 Ang^3
#
#
#
# Elastic Constant Matrix: (Units=GPa)
#
#
# Indices 1 2 3 4 5 6 
#
# 1 31.7747 28.2547 28.2970 0.0000 0.0000 0.0000
# 2 28.2547 117.9793 62.4854 0.0000 0.0000 0.0000
# 3 28.2970 62.4854 113.3746 0.0000 0.0000 0.0000
# 4 0.0000 0.0000 0.0000 19.0893 0.0000 0.0000
# 5 0.0000 0.0000 0.0000 0.0000 25.0177 0.0000
# 6 0.0000 0.0000 0.0000 0.0000 0.0000 14.8800
#
#
#
# Elastic Compliance Matrix: (Units=1/GPa)
#
#
# Indices 1 2 3 4 5 6 
#
# 1 0.043871 -0.006648 -0.007286 0.000000 0.000000 0.000000
# 2 -0.006648 0.012978 -0.005493 0.000000 0.000000 0.000000
# 3 -0.007286 -0.005493 0.013666 0.000000 0.000000 0.000000
# 4 0.000000 0.000000 0.000000 0.052385 0.000000 0.000000
# 5 0.000000 0.000000 0.000000 0.000000 0.039972 0.000000
# 6 0.000000 0.000000 0.000000 0.000000 0.000000 0.067205
#
#
# Mechanical properties :
#
#
# Convention : Reuss Voigt Hill
#
# Bulk Modulus (GPa) = 31.58423 55.68917 43.63670
# Shear Modulus (GPa) = 17.89008 21.40350 19.64679
#
# Velocity S-wave (km/s) = 3.19799 3.49795 3.35133
# Velocity P-wave (km/s) = 5.62956 6.93901 6.31830
#
# Compressibility (1/GPa) = 0.03166137
#
# Stress axis : x y z
#
# Youngs Moduli (GPa) = 22.79386 77.05627 73.17259
#
# Poissons Ratio (x) = 0.51226 0.53313
# Poissons Ratio (y) = 0.15153 0.40195
# Poissons Ratio (z) = 0.16607 0.42329
#
# Static dielectric constant tensor:
#      x y z
#    x 3.004950 0.000000 0.000000 
#    y 0.000000 3.904690 0.000000 
#    z 0.000000 0.000000 3.067760 
# 
# 
# High freq. dielectric constant tensor:
#      x y z
#    x 1.654190 0.000000 0.000000 
#    y 0.000000 1.690560 0.000000 
#    z 0.000000 0.000000 1.648110 
# 
# From -- ./inp_files/28412.got.cif
#   From: 2010.03.12/outbox.cif.g09.slc.cpg/sg51_15_cif.got.tgz:28412.got - 2010.04.16 13:43:02.
