data_PCOD8207928
_publ_section_title
;
Structure prediction by ZEFSAII (Michael W. Deem and Ramdas Pophale) SiO2 
 PCOD8207928
Probable space group: P M M A
;
_chemical_formula_sum "Si O2"
_cell_formula_units_Z 56
_cell_length_a 9.255406
_cell_length_b 18.953341
_cell_length_c 18.638417
_cell_angle_alpha 90.000000
_cell_angle_beta 90.000000
_cell_angle_gamma 90.000000
_cell_volume 3269.567251
_symmetry_space_group_name_H-M "P M M A"
_symmetry_group_IT_number 51
_symmetry_cell_setting 'orthorhombic'
loop_
_space_group_symop_operation_xyz
x,y,z
1/2-x,-y,z
1/2+x,-y,-z
-x,y,-z
-x,-y,-z
1/2+x,y,-z
1/2-x,y,z
x,-y,z
loop_
_atom_site_type_symbol
_atom_site_label
_atom_site_fract_x
_atom_site_fract_y
_atom_site_fract_z
Si Si1 0.582071 0.290167 0.336582
Si Si2 0.418351 0.579162 0.309593
Si Si3 0.078540 0.576851 0.146034
Si Si4 0.918696 0.716573 0.928912
Si Si5 0.415560 0.211932 0.215453
Si Si6 0.081215 0.155148 0.573709
Si Si7 0.415426 0.920337 0.303683
O O1 0.750000 0.302316 0.323938
O O2 0.507452 0.364566 0.357198
O O3 0.515166 0.261884 0.262897
O O4 0.552489 0.235082 0.400519
O O5 0.250000 0.596770 0.316450
O O6 0.450095 0.500000 0.337724
O O7 0.473335 0.586719 0.227718
O O8 0.250000 0.579093 0.146636
O O9 0.024879 0.500000 0.117132
O O10 0.019356 0.640168 0.096572
O O11 0.750000 0.711678 0.946126
O O12 0.951255 0.775082 0.867992
O O13 0.000000 0.741247 0.000000
O O14 0.250000 0.233939 0.231173
O O15 0.443721 0.130004 0.234976
O O16 0.250000 0.139812 0.563588
O O17 0.000000 0.142053 0.500000
O O18 0.019773 0.100227 0.631370
O O19 0.250000 0.912480 0.330073
O O20 0.449792 0.000000 0.279289
#
# Coordination Sequence:
#
# PCOD8207928 Si02
#       7
#     8   8   8   8   8   8   8
#     4  10  19  30  48  73  99 124 158 205 249 281
#     4   9  16  28  48  70  92 124 165 204 245 294
#     4   8  14  26  43  62  87 120 157 195 236 285
#     4  10  19  30  45  65  91 126 163 202 245 286
#     4   9  17  32  51  69  93 126 163 198 238 292
#     4  10  21  35  51  75 105 137 164 191 231 282
#     4   9  18  33  55  80 101 125 159 198 238 283
#
# _framework density 17.127649999999999
#
# number of rings (size 3 to 8) (size 9 to 14) (size 15 to 20)
#    0.000    2.714    1.429    1.714    0.000    3.429 
#    0.000    0.000    0.000    0.857    0.000    0.000 
#    0.000    0.000    0.000    0.000    0.000    0.000 
#
# Total GULP energy -694214.475854 kJ/mol
# GULP energy per Si atom -12396.687069 kJ/mol
# Density = 1.708867 g / cm^3
# Si number density = 17.127650 Si / 1000 Ang^3
#
#
#
# Elastic Constant Matrix: (Units=GPa)
#
#
# Indices 1 2 3 4 5 6 
#
# 1 63.0191 48.9818 31.6441 0.0000 0.0000 0.0000
# 2 48.9818 132.9458 48.4721 0.0000 0.0000 0.0000
# 3 31.6441 48.4721 76.0379 0.0000 0.0000 0.0000
# 4 0.0000 0.0000 0.0000 16.7124 0.0000 0.0000
# 5 0.0000 0.0000 0.0000 0.0000 25.0380 0.0000
# 6 0.0000 0.0000 0.0000 0.0000 0.0000 20.9173
#
#
#
# Elastic Compliance Matrix: (Units=1/GPa)
#
#
# Indices 1 2 3 4 5 6 
#
# 1 0.023971 -0.006768 -0.005662 0.000000 0.000000 0.000000
# 2 -0.006768 0.011710 -0.004648 0.000000 0.000000 0.000000
# 3 -0.005662 -0.004648 0.018471 0.000000 0.000000 0.000000
# 4 0.000000 0.000000 0.000000 0.059836 0.000000 0.000000
# 5 0.000000 0.000000 0.000000 0.000000 0.039939 0.000000
# 6 0.000000 0.000000 0.000000 0.000000 0.000000 0.047807
#
#
# Mechanical properties :
#
#
# Convention : Reuss Voigt Hill
#
# Bulk Modulus (GPa) = 50.00857 58.91096 54.45977
# Shear Modulus (GPa) = 20.61381 22.06052 21.33717
#
# Velocity S-wave (km/s) = 3.47297 3.59277 3.53338
# Velocity P-wave (km/s) = 6.73372 7.18892 6.96504
#
# Compressibility (1/GPa) = 0.01999657
#
# Stress axis : x y z
#
# Youngs Moduli (GPa) = 41.71650 85.39634 54.13938
#
# Poissons Ratio (x) = 0.57793 0.30653
# Poissons Ratio (y) = 0.28232 0.25167
# Poissons Ratio (z) = 0.23619 0.39696
#
# Static dielectric constant tensor:
#      x y z
#    x 3.086840 0.000000 0.000000 
#    y 0.000000 3.434550 0.000000 
#    z 0.000000 0.000000 2.955390 
# 
# 
# High freq. dielectric constant tensor:
#      x y z
#    x 1.648560 0.000000 0.000000 
#    y 0.000000 1.665070 0.000000 
#    z 0.000000 0.000000 1.629430 
# 
# From -- ./inp_files/28161.got.cif
#   From: 2010.03.12/outbox.cif.g09.slc.cpg/sg51_15_cif.got.tgz:28161.got - 2010.04.16 13:43:02.
