data_PCOD8207438
_publ_section_title
;
Structure prediction by ZEFSAII (Michael W. Deem and Ramdas Pophale) SiO2 
 PCOD8207438
Probable space group: P M M A
;
_chemical_formula_sum "Si O2"
_cell_formula_units_Z 64
_cell_length_a 16.684616
_cell_length_b 15.142694
_cell_length_c 12.492956
_cell_angle_alpha 90.000000
_cell_angle_beta 90.000000
_cell_angle_gamma 90.000000
_cell_volume 3156.345766
_symmetry_space_group_name_H-M "P M M A"
_symmetry_group_IT_number 51
_symmetry_cell_setting 'orthorhombic'
loop_
_space_group_symop_operation_xyz
x,y,z
1/2-x,-y,z
1/2+x,-y,-z
-x,y,-z
-x,-y,-z
1/2+x,y,-z
1/2-x,y,z
x,-y,z
loop_
_atom_site_type_symbol
_atom_site_label
_atom_site_fract_x
_atom_site_fract_y
_atom_site_fract_z
Si Si1 0.432791 0.277714 0.819937
Si Si2 0.159147 0.148978 0.242075
Si Si3 0.342350 0.598940 0.980578
Si Si4 0.655001 0.902522 0.521088
Si Si5 0.841869 0.597743 0.572879
Si Si6 0.503199 0.902529 0.874504
Si Si7 0.109808 0.658567 0.207754
Si Si8 0.845353 0.734275 0.397803
O O1 0.389035 0.322506 0.920735
O O2 0.443460 0.171790 0.828632
O O3 0.518218 0.322370 0.816386
O O4 0.382684 0.295603 0.713582
O O5 0.250000 0.113009 0.221658
O O6 0.127244 0.124618 0.360273
O O7 0.096267 0.107279 0.159464
O O8 0.161027 0.253806 0.229561
O O9 0.250000 0.609973 0.950277
O O10 0.371679 0.500000 0.946700
O O11 0.352866 0.607243 0.107849
O O12 0.750000 0.902847 0.519307
O O13 0.624008 0.831636 0.433914
O O14 0.620903 0.000000 0.492400
O O15 0.750000 0.621957 0.595814
O O16 0.851249 0.500000 0.523835
O O17 0.887802 0.599980 0.685574
O O18 0.877376 0.666308 0.487255
O O19 0.472583 0.000000 0.839262
O O20 0.500000 0.891831 0.000000
O O21 0.750000 0.730260 0.386317
#
# Coordination Sequence:
#
# PCOD8207438 Si02
#       8
#     8   8   8   8   8   8   8   8
#     4  11  24  40  60  86 124 164 197 238 305 372
#     4  10  18  33  60  89 119 156 202 251 305 359
#     4  11  24  42  66  93 118 153 204 254 302 362
#     4   9  17  31  55  86 115 146 194 254 302 341
#     4  10  20  36  59  85 114 152 199 248 297 350
#     4  10  22  40  59  85 123 161 201 249 303 364
#     4  11  21  36  59  90 126 155 191 246 306 362
#     4  10  21  39  59  81 115 158 203 247 292 354
#
# _framework density 20.276612
#
# number of rings (size 3 to 8) (size 9 to 14) (size 15 to 20)
#    0.000    1.750    1.250    4.125    0.000    4.750 
#    0.000    2.500    0.000    4.875    0.000    0.000 
#    0.000    0.000    0.000    0.000    0.000    0.000 
#
# Total GULP energy -793532.947648 kJ/mol
# GULP energy per Si atom -12398.952307 kJ/mol
# Density = 2.023046 g / cm^3
# Si number density = 20.276612 Si / 1000 Ang^3
#
#
#
# Elastic Constant Matrix: (Units=GPa)
#
#
# Indices 1 2 3 4 5 6 
#
# 1 52.0147 32.4463 22.5815 0.0000 0.0000 0.0000
# 2 32.4463 128.1002 38.8816 0.0000 0.0000 0.0000
# 3 22.5815 38.8816 100.0637 0.0000 0.0000 0.0000
# 4 0.0000 0.0000 0.0000 17.7078 0.0000 0.0000
# 5 0.0000 0.0000 0.0000 0.0000 30.9158 0.0000
# 6 0.0000 0.0000 0.0000 0.0000 0.0000 17.4035
#
#
#
# Elastic Compliance Matrix: (Units=1/GPa)
#
#
# Indices 1 2 3 4 5 6 
#
# 1 0.023833 -0.004993 -0.003438 0.000000 0.000000 0.000000
# 2 -0.004993 0.009896 -0.002719 0.000000 0.000000 0.000000
# 3 -0.003438 -0.002719 0.011826 0.000000 0.000000 0.000000
# 4 0.000000 0.000000 0.000000 0.056472 0.000000 0.000000
# 5 0.000000 0.000000 0.000000 0.000000 0.032346 0.000000
# 6 0.000000 0.000000 0.000000 0.000000 0.000000 0.057460
#
#
# Mechanical properties :
#
#
# Convention : Reuss Voigt Hill
#
# Bulk Modulus (GPa) = 43.00119 51.99970 47.50045
# Shear Modulus (GPa) = 22.53435 25.62338 24.07887
#
# Velocity S-wave (km/s) = 3.33730 3.55870 3.44978
# Velocity P-wave (km/s) = 6.00861 6.52584 6.27256
#
# Compressibility (1/GPa) = 0.02325517
#
# Stress axis : x y z
#
# Youngs Moduli (GPa) = 41.95945 101.04883 84.56014
#
# Poissons Ratio (x) = 0.50453 0.29074
# Poissons Ratio (y) = 0.20950 0.22989
# Poissons Ratio (z) = 0.14427 0.27471
#
# Static dielectric constant tensor:
#      x y z
#    x 3.475370 0.000000 0.000000 
#    y 0.000000 4.008820 0.000000 
#    z 0.000000 0.000000 3.601680 
# 
# 
# High freq. dielectric constant tensor:
#      x y z
#    x 1.773360 0.000000 0.000000 
#    y 0.000000 1.806060 0.000000 
#    z 0.000000 0.000000 1.789670 
# 
# From -- ./inp_files/17551.got.cif
#   From: 2010.03.12/outbox.cif.g09.slc.cpg/sg51_9_cif.got.tgz:17551.got - 2010.04.16 13:43:02.
