data_PCOD8207800
_publ_section_title
;
Structure prediction by ZEFSAII (Michael W. Deem and Ramdas Pophale) SiO2 
 PCOD8207800
Probable space group: P M M A
;
_chemical_formula_sum "Si O2"
_cell_formula_units_Z 56
_cell_length_a 8.957294
_cell_length_b 15.566512
_cell_length_c 29.983853
_cell_angle_alpha 90.000000
_cell_angle_beta 90.000000
_cell_angle_gamma 90.000000
_cell_volume 4180.763298
_symmetry_space_group_name_H-M "P M M A"
_symmetry_group_IT_number 51
_symmetry_cell_setting 'orthorhombic'
loop_
_space_group_symop_operation_xyz
x,y,z
1/2-x,-y,z
1/2+x,-y,-z
-x,y,-z
-x,-y,-z
1/2+x,y,-z
1/2-x,y,z
x,-y,z
loop_
_atom_site_type_symbol
_atom_site_label
_atom_site_fract_x
_atom_site_fract_y
_atom_site_fract_z
Si Si1 0.427195 0.664815 0.103566
Si Si2 0.418518 0.602480 0.632185
Si Si3 0.573820 0.186618 0.048592
Si Si4 0.424955 0.600258 0.809748
Si Si5 0.581938 0.397914 0.719889
Si Si6 0.074515 0.500000 0.047631
Si Si7 0.420174 0.000000 0.954036
Si Si8 0.581617 0.397587 0.544022
O O1 0.250000 0.673216 0.105393
O O2 0.497867 0.749402 0.082831
O O3 0.489753 0.654719 0.153132
O O4 0.478939 0.583591 0.074343
O O5 0.250000 0.637465 0.633374
O O6 0.419757 0.500000 0.632437
O O7 0.505726 0.638938 0.675173
O O8 0.497581 0.637837 0.587675
O O9 0.750000 0.206123 0.044340
O O10 0.542789 0.090965 0.069984
O O11 0.500000 0.197008 0.000000
O O12 0.250000 0.618969 0.812233
O O13 0.461023 0.500000 0.816817
O O14 0.485935 0.632632 0.762214
O O15 0.750000 0.361635 0.723562
O O16 0.584416 0.500000 0.717598
O O17 0.250000 0.500000 0.040732
O O18 0.000000 0.500000 0.000000
O O19 0.250000 0.000000 0.967507
O O20 0.500000 0.000000 0.000000
O O21 0.500000 0.361866 0.500000
O O22 0.750000 0.362484 0.544439
O O23 0.580115 0.500000 0.543926
#
# Coordination Sequence:
#
# PCOD8207800 Si02
#       8
#     8   8   8   8   8   4   4   8
#     4  11  21  33  45  60  80 105 129 155 184 218
#     4   9  15  22  31  43  58  75  99 131 165 205
#     4  10  19  32  48  67  85 104 126 151 181 217
#     4  10  19  30  43  57  72  94 122 152 183 217
#     4   9  16  25  37  50  64  83 107 139 175 211
#     4  10  22  34  44  56  76 102 128 152 179 210
#     4   8  16  30  48  66  86 104 122 148 180 214
#     4   9  15  21  28  38  53  73  96 123 160 206
#
# _framework density 13.394684
#
# number of rings (size 3 to 8) (size 9 to 14) (size 15 to 20)
#    0.000    2.429    0.714    3.000    0.000    8.571 
#    0.000    0.000    0.000    0.000    0.000    0.000 
#    0.000    0.000    0.000    0.000    0.000    0.000 
#
# Total GULP energy -694181.850294 kJ/mol
# GULP energy per Si atom -12396.104470 kJ/mol
# Density = 1.336420 g / cm^3
# Si number density = 13.394684 Si / 1000 Ang^3
#
#
#
# Elastic Constant Matrix: (Units=GPa)
#
#
# Indices 1 2 3 4 5 6 
#
# 1 96.1732 30.2971 52.8016 0.0000 0.0000 0.0000
# 2 30.2971 54.3348 33.4131 0.0000 0.0000 0.0000
# 3 52.8016 33.4131 117.5070 0.0000 0.0000 0.0000
# 4 0.0000 0.0000 0.0000 2.9754 0.0000 0.0000
# 5 0.0000 0.0000 0.0000 0.0000 30.1049 0.0000
# 6 0.0000 0.0000 0.0000 0.0000 0.0000 11.6861
#
#
#
# Elastic Compliance Matrix: (Units=1/GPa)
#
#
# Indices 1 2 3 4 5 6 
#
# 1 0.014873 -0.005070 -0.005241 0.000000 0.000000 0.000000
# 2 -0.005070 0.024033 -0.004556 0.000000 0.000000 0.000000
# 3 -0.005241 -0.004556 0.012161 0.000000 0.000000 0.000000
# 4 0.000000 0.000000 0.000000 0.336094 0.000000 0.000000
# 5 0.000000 0.000000 0.000000 0.000000 0.033217 0.000000
# 6 0.000000 0.000000 0.000000 0.000000 0.000000 0.085572
#
#
# Mechanical properties :
#
#
# Convention : Reuss Voigt Hill
#
# Bulk Modulus (GPa) = 46.87675 55.67097 51.27386
# Shear Modulus (GPa) = 9.21160 19.05348 14.13254
#
# Velocity S-wave (km/s) = 2.62526 3.77565 3.25173
# Velocity P-wave (km/s) = 6.65296 7.78843 7.24298
#
# Compressibility (1/GPa) = 0.02133254
#
# Stress axis : x y z
#
# Youngs Moduli (GPa) = 67.23719 41.60983 82.23183
#
# Poissons Ratio (x) = 0.21096 0.43101
# Poissons Ratio (y) = 0.34088 0.37461
# Poissons Ratio (z) = 0.35242 0.18956
#
# Static dielectric constant tensor:
#      x y z
#    x 2.875480 0.000000 0.000000 
#    y 0.000000 2.258330 0.000000 
#    z 0.000000 0.000000 2.732060 
# 
# 
# High freq. dielectric constant tensor:
#      x y z
#    x 1.532990 0.000000 0.000000 
#    y 0.000000 1.439730 0.000000 
#    z 0.000000 0.000000 1.510370 
# 
# From -- ./inp_files/37516.got.cif
#   From: 2010.03.12/outbox.cif.g09.slc.cpg/sg51_19_cif.got.tgz:37516.got - 2010.04.16 13:43:02.
