data_PCOD8207330
_publ_section_title
;
Structure prediction by ZEFSAII (Michael W. Deem and Ramdas Pophale) SiO2 
 PCOD8207330
Probable space group: P M M A
;
_chemical_formula_sum "Si O2"
_cell_formula_units_Z 64
_cell_length_a 19.122620
_cell_length_b 18.304439
_cell_length_c 9.594708
_cell_angle_alpha 90.000000
_cell_angle_beta 90.000000
_cell_angle_gamma 90.000000
_cell_volume 3358.424428
_symmetry_space_group_name_H-M "P M M A"
_symmetry_group_IT_number 51
_symmetry_cell_setting 'orthorhombic'
loop_
_space_group_symop_operation_xyz
x,y,z
1/2-x,-y,z
1/2+x,-y,-z
-x,y,-z
-x,-y,-z
1/2+x,y,-z
1/2-x,y,z
x,-y,z
loop_
_atom_site_type_symbol
_atom_site_label
_atom_site_fract_x
_atom_site_fract_y
_atom_site_fract_z
Si Si1 0.329250 0.158572 0.907166
Si Si2 0.071763 0.670118 0.460583
Si Si3 0.037324 0.919369 0.853133
Si Si4 0.331658 0.698206 0.722730
Si Si5 0.667062 0.417860 0.053062
Si Si6 0.962143 0.173284 0.635732
Si Si7 0.672112 0.641086 0.759790
Si Si8 0.826330 0.186651 0.773597
O O1 0.250000 0.131033 0.891452
O O2 0.379456 0.092382 0.864582
O O3 0.342510 0.228488 0.810198
O O4 0.347294 0.178053 0.065990
O O5 0.119299 0.699814 0.587412
O O6 0.040269 0.739153 0.374177
O O7 0.118839 0.616984 0.363315
O O8 0.000000 0.626698 0.500000
O O9 0.008319 0.852690 0.763867
O O10 0.024925 0.000000 0.786848
O O11 0.000000 0.915213 0.000000
O O12 0.250000 0.689367 0.678971
O O13 0.358248 0.630721 0.817487
O O14 0.750000 0.415154 0.047753
O O15 0.638625 0.500000 0.073289
O O16 0.639776 0.385269 0.906497
O O17 0.881963 0.147629 0.669014
O O18 0.000000 0.138412 0.500000
O O19 0.750000 0.607365 0.736503
O O20 0.676742 0.727603 0.746916
O O21 0.750000 0.151968 0.742321
#
# Coordination Sequence:
#
# PCOD8207330 Si02
#       8
#     8   8   8   8   8   8   8   8
#     4  10  18  32  56  83 107 137 180 229 274 319
#     4  10  20  33  50  79 110 140 180 224 270 317
#     4  11  23  38  56  80 110 145 182 222 272 327
#     4  10  19  34  57  85 111 138 179 229 278 320
#     4   9  17  31  54  83 110 137 179 229 272 321
#     4  10  20  36  53  78 109 140 181 223 273 326
#     4   9  16  30  51  76 105 139 174 217 271 323
#     4   9  16  29  52  80 107 136 176 225 272 319
#
# _framework density 19.056554999999999
#
# number of rings (size 3 to 8) (size 9 to 14) (size 15 to 20)
#    0.000    2.250    2.500    1.875    0.000    1.000 
#    0.000    1.875    0.000    5.625    0.000    0.000 
#    0.000    0.000    0.000    0.000    0.000    0.000 
#
# Total GULP energy -792977.659139 kJ/mol
# GULP energy per Si atom -12390.275924 kJ/mol
# Density = 1.901318 g / cm^3
# Si number density = 19.056555 Si / 1000 Ang^3
#
#
#
# Elastic Constant Matrix: (Units=GPa)
#
#
# Indices 1 2 3 4 5 6 
#
# 1 98.6512 27.9321 29.9614 0.0000 0.0000 0.0000
# 2 27.9321 54.7098 31.6135 0.0000 0.0000 0.0000
# 3 29.9614 31.6135 72.0678 0.0000 0.0000 0.0000
# 4 0.0000 0.0000 0.0000 11.3866 0.0000 0.0000
# 5 0.0000 0.0000 0.0000 0.0000 31.4719 0.0000
# 6 0.0000 0.0000 0.0000 0.0000 0.0000 24.7060
#
#
#
# Elastic Compliance Matrix: (Units=1/GPa)
#
#
# Indices 1 2 3 4 5 6 
#
# 1 0.012370 -0.004479 -0.003178 0.000000 0.000000 0.000000
# 2 -0.004479 0.026106 -0.009590 0.000000 0.000000 0.000000
# 3 -0.003178 -0.009590 0.019404 0.000000 0.000000 0.000000
# 4 0.000000 0.000000 0.000000 0.087823 0.000000 0.000000
# 5 0.000000 0.000000 0.000000 0.000000 0.031774 0.000000
# 6 0.000000 0.000000 0.000000 0.000000 0.000000 0.040476
#
#
# Mechanical properties :
#
#
# Convention : Reuss Voigt Hill
#
# Bulk Modulus (GPa) = 42.75967 44.93807 43.84887
# Shear Modulus (GPa) = 19.21284 22.57436 20.89360
#
# Velocity S-wave (km/s) = 3.17866 3.44553 3.31478
# Velocity P-wave (km/s) = 5.99657 6.28184 6.14086
#
# Compressibility (1/GPa) = 0.02338652
#
# Stress axis : x y z
#
# Youngs Moduli (GPa) = 80.83986 38.30469 51.53674
#
# Poissons Ratio (x) = 0.17158 0.16378
# Poissons Ratio (y) = 0.36210 0.49422
# Poissons Ratio (z) = 0.25690 0.36733
#
# Static dielectric constant tensor:
#      x y z
#    x 4.220460 0.000000 0.000000 
#    y 0.000000 3.165710 0.000000 
#    z 0.000000 0.000000 3.590070 
# 
# 
# High freq. dielectric constant tensor:
#      x y z
#    x 1.745840 0.000000 0.000000 
#    y 0.000000 1.695160 0.000000 
#    z 0.000000 0.000000 1.742560 
# 
# From -- ./inp_files/11263.got.cif
#   From: 2010.03.12/outbox.cif.g09.slc.cpg/sg51_6_cif.got.tgz:11263.got - 2010.04.16 13:43:02.
