data_PCOD8207638
_publ_section_title
;
Structure prediction by ZEFSAII (Michael W. Deem and Ramdas Pophale) SiO2 
 PCOD8207638
Probable space group: P M M A
;
_chemical_formula_sum "Si O2"
_cell_formula_units_Z 64
_cell_length_a 9.061343
_cell_length_b 21.112688
_cell_length_c 21.597788
_cell_angle_alpha 90.000000
_cell_angle_beta 90.000000
_cell_angle_gamma 90.000000
_cell_volume 4131.857868
_symmetry_space_group_name_H-M "P M M A"
_symmetry_group_IT_number 51
_symmetry_cell_setting 'orthorhombic'
loop_
_space_group_symop_operation_xyz
x,y,z
1/2-x,-y,z
1/2+x,-y,-z
-x,y,-z
-x,-y,-z
1/2+x,y,-z
1/2-x,y,z
x,-y,z
loop_
_atom_site_type_symbol
_atom_site_label
_atom_site_fract_x
_atom_site_fract_y
_atom_site_fract_z
Si Si1 0.080660 0.925302 0.063133
Si Si2 0.923442 0.427885 0.434435
Si Si3 0.087421 0.738047 0.944388
Si Si4 0.574759 0.354489 0.672000
Si Si5 0.584734 0.650544 0.865213
Si Si6 0.913794 0.157834 0.158845
Si Si7 0.085993 0.426182 0.776167
Si Si8 0.414297 0.244975 0.241708
O O1 0.250000 0.902986 0.057929
O O2 0.010243 0.895982 0.125309
O O3 0.067252 0.000000 0.071049
O O4 0.000000 0.903196 0.000000
O O5 0.750000 0.414987 0.440661
O O6 0.951283 0.500000 0.409687
O O7 0.000000 0.419356 0.500000
O O8 0.992711 0.373493 0.391032
O O9 0.250000 0.717758 0.966500
O O10 0.099325 0.783838 0.886887
O O11 0.992164 0.676236 0.927162
O O12 0.000000 0.772840 0.000000
O O13 0.750000 0.360204 0.663362
O O14 0.522868 0.405072 0.722198
O O15 0.532260 0.283096 0.696222
O O16 0.750000 0.627501 0.880420
O O17 0.485669 0.592447 0.841662
O O18 0.587352 0.704804 0.813457
O O19 0.750000 0.131056 0.173764
O O20 0.985039 0.184323 0.223037
O O21 0.250000 0.395199 0.769080
O O22 0.103186 0.500000 0.773004
O O23 0.250000 0.218255 0.252701
#
# Coordination Sequence:
#
# PCOD8207638 Si02
#       8
#     8   8   8   8   8   8   8   8
#     4  10  20  32  45  61  84 115 148 181 215 252
#     4  10  20  32  45  62  86 117 151 185 219 256
#     4  10  19  29  42  60  79  99 124 155 195 241
#     4  10  19  30  45  64  85 109 138 173 211 249
#     4   9  17  29  43  58  76  97 122 155 195 238
#     4  10  19  29  44  64  84 107 135 170 208 245
#     4  10  19  29  42  60  80 101 125 156 196 241
#     4   8  16  29  43  60  82 106 132 166 207 249
#
# _framework density 15.4894
#
# number of rings (size 3 to 8) (size 9 to 14) (size 15 to 20)
#    0.000    2.375    0.000    4.125    0.000   10.000 
#    0.000    0.000    0.000    0.375    0.000    0.000 
#    0.000    0.000    0.000    0.000    0.000    0.625 
#
# Total GULP energy -793160.036154 kJ/mol
# GULP energy per Si atom -12393.125565 kJ/mol
# Density = 1.545415 g / cm^3
# Si number density = 15.489400 Si / 1000 Ang^3
#
#
#
# Elastic Constant Matrix: (Units=GPa)
#
#
# Indices 1 2 3 4 5 6 
#
# 1 125.1141 34.6620 40.0042 0.0000 0.0000 0.0000
# 2 34.6620 40.7446 26.8780 0.0000 0.0000 0.0000
# 3 40.0042 26.8780 48.6578 0.0000 0.0000 0.0000
# 4 0.0000 0.0000 0.0000 24.2481 0.0000 0.0000
# 5 0.0000 0.0000 0.0000 0.0000 26.7836 0.0000
# 6 0.0000 0.0000 0.0000 0.0000 0.0000 20.5124
#
#
#
# Elastic Compliance Matrix: (Units=1/GPa)
#
#
# Indices 1 2 3 4 5 6 
#
# 1 0.011610 -0.005633 -0.006434 0.000000 0.000000 0.000000
# 2 -0.005633 0.041346 -0.018208 0.000000 0.000000 0.000000
# 3 -0.006434 -0.018208 0.035900 0.000000 0.000000 0.000000
# 4 0.000000 0.000000 0.000000 0.041240 0.000000 0.000000
# 5 0.000000 0.000000 0.000000 0.000000 0.037336 0.000000
# 6 0.000000 0.000000 0.000000 0.000000 0.000000 0.048751
#
#
# Mechanical properties :
#
#
# Convention : Reuss Voigt Hill
#
# Bulk Modulus (GPa) = 35.32802 46.40054 40.86428
# Shear Modulus (GPa) = 17.47214 21.84030 19.65622
#
# Velocity S-wave (km/s) = 3.36222 3.75909 3.56618
# Velocity P-wave (km/s) = 6.15874 6.99016 6.58758
#
# Compressibility (1/GPa) = 0.02830614
#
# Stress axis : x y z
#
# Youngs Moduli (GPa) = 86.12902 24.18585 27.85552
#
# Poissons Ratio (x) = 0.13623 0.17922
# Poissons Ratio (y) = 0.48515 0.50720
# Poissons Ratio (z) = 0.55416 0.44038
#
# Static dielectric constant tensor:
#      x y z
#    x 3.388070 0.000000 0.000000 
#    y 0.000000 2.783050 0.000000 
#    z 0.000000 0.000000 2.904790 
# 
# 
# High freq. dielectric constant tensor:
#      x y z
#    x 1.619280 0.000000 0.000000 
#    y 0.000000 1.556590 0.000000 
#    z 0.000000 0.000000 1.559460 
# 
# From -- ./inp_files/32568.got.cif
#   From: 2010.03.12/outbox.cif.g09.slc.cpg/sg51_17_cif.got.tgz:32568.got - 2010.04.16 13:43:02.
