data_PCOD8207100
_publ_section_title
;
Structure prediction by ZEFSAII (Michael W. Deem and Ramdas Pophale) SiO2 
 PCOD8207100
Probable space group: P M M A
;
_chemical_formula_sum "Si O2"
_cell_formula_units_Z 56
_cell_length_a 9.318832
_cell_length_b 18.544939
_cell_length_c 18.750066
_cell_angle_alpha 90.000000
_cell_angle_beta 90.000000
_cell_angle_gamma 90.000000
_cell_volume 3240.333362
_symmetry_space_group_name_H-M "P M M A"
_symmetry_group_IT_number 51
_symmetry_cell_setting 'orthorhombic'
loop_
_space_group_symop_operation_xyz
x,y,z
1/2-x,-y,z
1/2+x,-y,-z
-x,y,-z
-x,-y,-z
1/2+x,y,-z
1/2-x,y,z
x,-y,z
loop_
_atom_site_type_symbol
_atom_site_label
_atom_site_fract_x
_atom_site_fract_y
_atom_site_fract_z
Si Si1 0.913557 0.193312 0.565914
Si Si2 0.584241 0.583237 0.719974
Si Si3 0.586549 0.212433 0.069924
Si Si4 0.416340 0.081765 0.834671
Si Si5 0.417123 0.641039 0.431743
Si Si6 0.581867 0.163123 0.722353
Si Si7 0.417201 0.705562 0.788887
O O1 0.750000 0.189981 0.542451
O O2 0.960471 0.275736 0.579901
O O3 0.940535 0.148345 0.638240
O O4 0.000000 0.158740 0.500000
O O5 0.750000 0.606657 0.729671
O O6 0.561421 0.500000 0.738458
O O7 0.535414 0.597919 0.638752
O O8 0.485395 0.627443 0.774888
O O9 0.750000 0.205855 0.046149
O O10 0.534356 0.135667 0.102483
O O11 0.564042 0.275466 0.127767
O O12 0.500000 0.233004 0.000000
O O13 0.250000 0.096927 0.815233
O O14 0.511869 0.096443 0.764673
O O15 0.440903 0.000000 0.860321
O O16 0.500000 0.608720 0.500000
O O17 0.250000 0.630979 0.446646
O O18 0.750000 0.170552 0.741054
O O19 0.502357 0.236917 0.741685
O O20 0.250000 0.706651 0.767241
#
# Coordination Sequence:
#
# PCOD8207100 Si02
#       7
#     8   8   8   8   8   8   8
#     4   9  17  28  44  67  95 125 162 211 258 297
#     4  10  20  34  51  71  99 134 170 211 258 302
#     4   9  19  34  53  79 105 133 163 197 240 287
#     4   9  19  35  52  75 109 141 166 196 239 290
#     4   9  17  30  44  65  96 130 166 206 254 301
#     4  10  18  31  51  74  99 129 170 213 251 293
#     4  10  20  34  52  74 101 130 166 207 248 296
#
# _framework density 17.282173
#
# number of rings (size 3 to 8) (size 9 to 14) (size 15 to 20)
#    0.000    2.571    1.429    1.714    0.000    5.714 
#    0.000    0.000    0.000    0.857    0.000    0.000 
#    0.000    0.000    0.000    0.000    0.000    0.000 
#
# Total GULP energy -694376.362618 kJ/mol
# GULP energy per Si atom -12399.577904 kJ/mol
# Density = 1.724284 g / cm^3
# Si number density = 17.282173 Si / 1000 Ang^3
#
#
#
# Elastic Constant Matrix: (Units=GPa)
#
#
# Indices 1 2 3 4 5 6 
#
# 1 79.7085 31.7553 56.4990 0.0000 0.0000 0.0000
# 2 31.7553 65.8699 35.2505 0.0000 0.0000 0.0000
# 3 56.4990 35.2505 103.8960 0.0000 0.0000 0.0000
# 4 0.0000 0.0000 0.0000 17.8667 0.0000 0.0000
# 5 0.0000 0.0000 0.0000 0.0000 35.1618 0.0000
# 6 0.0000 0.0000 0.0000 0.0000 0.0000 24.4625
#
#
#
# Elastic Compliance Matrix: (Units=1/GPa)
#
#
# Indices 1 2 3 4 5 6 
#
# 1 0.021718 -0.005070 -0.010090 0.000000 0.000000 0.000000
# 2 -0.005070 0.019733 -0.003938 0.000000 0.000000 0.000000
# 3 -0.010090 -0.003938 0.016448 0.000000 0.000000 0.000000
# 4 0.000000 0.000000 0.000000 0.055970 0.000000 0.000000
# 5 0.000000 0.000000 0.000000 0.000000 0.028440 0.000000
# 6 0.000000 0.000000 0.000000 0.000000 0.000000 0.040879
#
#
# Mechanical properties :
#
#
# Convention : Reuss Voigt Hill
#
# Bulk Modulus (GPa) = 50.75463 55.16488 52.95976
# Shear Modulus (GPa) = 21.93453 23.89618 22.91536
#
# Velocity S-wave (km/s) = 3.56645 3.72251 3.64531
# Velocity P-wave (km/s) = 6.81112 7.10391 6.95905
#
# Compressibility (1/GPa) = 0.01970264
#
# Stress axis : x y z
#
# Youngs Moduli (GPa) = 46.04578 50.67607 60.79777
#
# Poissons Ratio (x) = 0.25694 0.61344
# Poissons Ratio (y) = 0.23346 0.23942
# Poissons Ratio (z) = 0.46459 0.19956
#
# Static dielectric constant tensor:
#      x y z
#    x 3.269280 0.000000 0.000000 
#    y 0.000000 3.031990 0.000000 
#    z 0.000000 0.000000 3.166970 
# 
# 
# High freq. dielectric constant tensor:
#      x y z
#    x 1.671520 0.000000 0.000000 
#    y 0.000000 1.639960 0.000000 
#    z 0.000000 0.000000 1.659700 
# 
# From -- ./inp_files/28213.got.cif
#   From: 2010.03.12/outbox.cif.g09.slc.cpg/sg51_15_cif.got.tgz:28213.got - 2010.04.16 13:43:02.
