data_PCOD8207504
_publ_section_title
;
Structure prediction by ZEFSAII (Michael W. Deem and Ramdas Pophale) SiO2 
 PCOD8207504
Probable space group: P M M A
;
_chemical_formula_sum "Si O2"
_cell_formula_units_Z 44
_cell_length_a 8.909921
_cell_length_b 13.455064
_cell_length_c 19.467648
_cell_angle_alpha 90.000000
_cell_angle_beta 90.000000
_cell_angle_gamma 90.000000
_cell_volume 2333.850894
_symmetry_space_group_name_H-M "P M M A"
_symmetry_group_IT_number 51
_symmetry_cell_setting 'orthorhombic'
loop_
_space_group_symop_operation_xyz
x,y,z
1/2-x,-y,z
1/2+x,-y,-z
-x,y,-z
-x,-y,-z
1/2+x,y,-z
1/2-x,y,z
x,-y,z
loop_
_atom_site_type_symbol
_atom_site_label
_atom_site_fract_x
_atom_site_fract_y
_atom_site_fract_z
Si Si1 0.571726 0.500000 0.074252
Si Si2 0.075519 0.320520 0.154908
Si Si3 0.073240 0.608563 0.303291
Si Si4 0.575157 0.111325 0.804221
Si Si5 0.916304 0.885530 0.339386
Si Si6 0.927420 0.738388 0.571759
O O1 0.750000 0.500000 0.069150
O O2 0.521516 0.602497 0.110733
O O3 0.500000 0.500000 0.000000
O O4 0.250000 0.345279 0.140575
O O5 0.031519 0.333380 0.234337
O O6 0.040309 0.201892 0.141284
O O7 0.250000 0.599898 0.310361
O O8 0.998811 0.500000 0.299579
O O9 0.010116 0.663065 0.370342
O O10 0.750000 0.115787 0.785267
O O11 0.487967 0.133894 0.734662
O O12 0.533953 0.000000 0.833536
O O13 0.750000 0.837268 0.340035
O O14 0.017467 0.845038 0.401767
O O15 0.904327 0.000000 0.355211
O O16 0.750000 0.737413 0.563624
O O17 0.000000 0.707790 0.500000
#
# Coordination Sequence:
#
# PCOD8207504 Si02
#       6
#     4   8   8   8   8   8
#     4  12  26  42  62  94 127 158 191 232 279 333
#     4  10  18  35  62  89 119 156 191 233 283 337
#     4   9  17  32  55  79 104 139 183 224 276 338
#     4   9  17  31  55  87 119 153 193 233 280 340
#     4  10  20  33  50  74 105 140 181 234 288 337
#     4  11  22  36  52  72  99 140 186 236 292 348
#
# _framework density 18.852961000000001
#
# number of rings (size 3 to 8) (size 9 to 14) (size 15 to 20)
#    0.000    2.000    2.727    1.909    0.000    2.545 
#    0.000    0.000    0.000    0.545    0.000    0.000 
#    0.000    0.000    0.000    0.000    0.000    0.000 
#
# Total GULP energy -545217.448496 kJ/mol
# GULP energy per Si atom -12391.305648 kJ/mol
# Density = 1.881005 g / cm^3
# Si number density = 18.852961 Si / 1000 Ang^3
#
#
#
# Elastic Constant Matrix: (Units=GPa)
#
#
# Indices 1 2 3 4 5 6 
#
# 1 85.9940 47.8052 38.7932 0.0000 0.0000 0.0000
# 2 47.8052 132.7904 58.8193 0.0000 0.0000 0.0000
# 3 38.7932 58.8193 84.3506 0.0000 0.0000 0.0000
# 4 0.0000 0.0000 0.0000 17.9525 0.0000 0.0000
# 5 0.0000 0.0000 0.0000 0.0000 28.2987 0.0000
# 6 0.0000 0.0000 0.0000 0.0000 0.0000 21.8398
#
#
#
# Elastic Compliance Matrix: (Units=1/GPa)
#
#
# Indices 1 2 3 4 5 6 
#
# 1 0.015758 -0.003564 -0.004762 0.000000 0.000000 0.000000
# 2 -0.003564 0.011702 -0.006521 0.000000 0.000000 0.000000
# 3 -0.004762 -0.006521 0.018593 0.000000 0.000000 0.000000
# 4 0.000000 0.000000 0.000000 0.055703 0.000000 0.000000
# 5 0.000000 0.000000 0.000000 0.000000 0.035337 0.000000
# 6 0.000000 0.000000 0.000000 0.000000 0.000000 0.045788
#
#
# Mechanical properties :
#
#
# Convention : Reuss Voigt Hill
#
# Bulk Modulus (GPa) = 61.12859 65.99670 63.56265
# Shear Modulus (GPa) = 22.93281 24.13266 23.53274
#
# Velocity S-wave (km/s) = 3.49148 3.58165 3.53686
# Velocity P-wave (km/s) = 6.98199 7.22401 7.10403
#
# Compressibility (1/GPa) = 0.01635896
#
# Stress axis : x y z
#
# Youngs Moduli (GPa) = 63.45951 85.45456 53.78409
#
# Poissons Ratio (x) = 0.30452 0.25613
# Poissons Ratio (y) = 0.22614 0.35074
# Poissons Ratio (z) = 0.30221 0.55727
#
# Static dielectric constant tensor:
#      x y z
#    x 3.469550 0.000000 0.000000 
#    y 0.000000 4.151110 0.000000 
#    z 0.000000 0.000000 3.238520 
# 
# 
# High freq. dielectric constant tensor:
#      x y z
#    x 1.719110 0.000000 0.000000 
#    y 0.000000 1.752220 0.000000 
#    z 0.000000 0.000000 1.697580 
# 
# From -- ./inp_files/27402.got.cif
#   From: 2010.03.12/outbox.cif.g09.slc.cpg/sg51_14_cif.got.tgz:27402.got - 2010.04.16 13:43:02.
