data_PCOD8207129
_publ_section_title
;
Structure prediction by ZEFSAII (Michael W. Deem and Ramdas Pophale) SiO2 
 PCOD8207129
Probable space group: P M M A
;
_chemical_formula_sum "Si O2"
_cell_formula_units_Z 64
_cell_length_a 9.472415
_cell_length_b 19.669831
_cell_length_c 20.261646
_cell_angle_alpha 90.000000
_cell_angle_beta 90.000000
_cell_angle_gamma 90.000000
_cell_volume 3775.166137
_symmetry_space_group_name_H-M "P M M A"
_symmetry_group_IT_number 51
_symmetry_cell_setting 'orthorhombic'
loop_
_space_group_symop_operation_xyz
x,y,z
1/2-x,-y,z
1/2+x,-y,-z
-x,y,-z
-x,-y,-z
1/2+x,y,-z
1/2-x,y,z
x,-y,z
loop_
_atom_site_type_symbol
_atom_site_label
_atom_site_fract_x
_atom_site_fract_y
_atom_site_fract_z
Si Si1 0.916214 0.342470 0.935720
Si Si2 0.584891 0.421627 0.433469
Si Si3 0.909085 0.074510 0.120018
Si Si4 0.909346 0.925365 0.276941
Si Si5 0.415295 0.653018 0.321592
Si Si6 0.413564 0.801055 0.122142
Si Si7 0.912245 0.199211 0.726633
Si Si8 0.082501 0.576192 0.190773
O O1 0.750000 0.352800 0.947056
O O2 0.953259 0.264374 0.920654
O O3 0.973315 0.388015 0.875404
O O4 0.000000 0.366619 0.000000
O O5 0.500000 0.407093 0.500000
O O6 0.750000 0.403075 0.442828
O O7 0.567514 0.500000 0.412014
O O8 0.514699 0.374195 0.378919
O O9 0.750000 0.088029 0.096233
O O10 0.918074 0.075714 0.198499
O O11 0.006090 0.134239 0.090899
O O12 0.960031 0.000000 0.094826
O O13 0.750000 0.913186 0.301043
O O14 0.003630 0.864054 0.305603
O O15 0.961775 0.000000 0.301904
O O16 0.250000 0.636717 0.335577
O O17 0.440978 0.733570 0.316047
O O18 0.468060 0.617706 0.254438
O O19 0.250000 0.818086 0.117909
O O20 0.458361 0.786635 0.197833
O O21 0.750000 0.178302 0.724188
O O22 0.250000 0.576022 0.189089
O O23 0.021085 0.500000 0.194390
#
# Coordination Sequence:
#
# PCOD8207129 Si02
#       8
#     8   8   8   8   8   8   8   8
#     4  10  20  34  49  67  90 118 156 200 244 293
#     4  10  21  36  53  75 104 137 171 205 241 284
#     4   8  14  24  39  61  87 113 144 183 228 281
#     4   8  14  24  37  57  89 126 159 191 232 283
#     4  10  18  31  52  77 102 130 165 202 242 290
#     4   9  16  28  44  62  88 117 150 193 235 283
#     4   9  16  26  43  67  94 123 157 198 240 284
#     4   9  17  31  52  73  93 122 158 195 241 296
#
# _framework density 16.952895999999999
#
# number of rings (size 3 to 8) (size 9 to 14) (size 15 to 20)
#    0.000    2.875    1.250    1.500    0.000    3.000 
#    0.000    3.125    0.000    1.125    0.000    0.000 
#    0.000    0.500    0.000    1.625    0.000    2.375 
#
# Total GULP energy -793352.764087 kJ/mol
# GULP energy per Si atom -12396.136939 kJ/mol
# Density = 1.691431 g / cm^3
# Si number density = 16.952896 Si / 1000 Ang^3
#
#
#
# Elastic Constant Matrix: (Units=GPa)
#
#
# Indices 1 2 3 4 5 6 
#
# 1 66.9649 54.8758 39.0873 0.0000 0.0000 0.0000
# 2 54.8758 123.6613 43.4278 0.0000 0.0000 0.0000
# 3 39.0873 43.4278 71.5795 0.0000 0.0000 0.0000
# 4 0.0000 0.0000 0.0000 14.9189 0.0000 0.0000
# 5 0.0000 0.0000 0.0000 0.0000 23.8751 0.0000
# 6 0.0000 0.0000 0.0000 0.0000 0.0000 26.7083
#
#
#
# Elastic Compliance Matrix: (Units=1/GPa)
#
#
# Indices 1 2 3 4 5 6 
#
# 1 0.028057 -0.008984 -0.009870 0.000000 0.000000 0.000000
# 2 -0.008984 0.013153 -0.003074 0.000000 0.000000 0.000000
# 3 -0.009870 -0.003074 0.021225 0.000000 0.000000 0.000000
# 4 0.000000 0.000000 0.000000 0.067029 0.000000 0.000000
# 5 0.000000 0.000000 0.000000 0.000000 0.041885 0.000000
# 6 0.000000 0.000000 0.000000 0.000000 0.000000 0.037442
#
#
# Mechanical properties :
#
#
# Convention : Reuss Voigt Hill
#
# Bulk Modulus (GPa) = 53.82628 59.66527 56.74578
# Shear Modulus (GPa) = 19.31701 21.42145 20.36923
#
# Velocity S-wave (km/s) = 3.37924 3.55855 3.47005
# Velocity P-wave (km/s) = 6.85894 7.22188 7.04275
#
# Compressibility (1/GPa) = 0.01857829
#
# Stress axis : x y z
#
# Youngs Moduli (GPa) = 35.64226 76.02858 47.11375
#
# Poissons Ratio (x) = 0.68305 0.46502
# Poissons Ratio (y) = 0.32022 0.14483
# Poissons Ratio (z) = 0.35179 0.23371
#
# Static dielectric constant tensor:
#      x y z
#    x 3.077490 0.000000 0.000000 
#    y 0.000000 3.501020 0.000000 
#    z 0.000000 0.000000 2.806570 
# 
# 
# High freq. dielectric constant tensor:
#      x y z
#    x 1.639220 0.000000 0.000000 
#    y 0.000000 1.665250 0.000000 
#    z 0.000000 0.000000 1.610550 
# 
# From -- ./inp_files/32655.got.cif
#   From: 2010.03.12/outbox.cif.g09.slc.cpg/sg51_17_cif.got.tgz:32655.got - 2010.04.16 13:43:02.
