data_PCOD8207296
_publ_section_title
;
Structure prediction by ZEFSAII (Michael W. Deem and Ramdas Pophale) SiO2 
 PCOD8207296
Probable space group: P M M A
;
_chemical_formula_sum "Si O2"
_cell_formula_units_Z 64
_cell_length_a 19.399664
_cell_length_b 17.173550
_cell_length_c 10.287647
_cell_angle_alpha 90.000000
_cell_angle_beta 90.000000
_cell_angle_gamma 90.000000
_cell_volume 3427.443788
_symmetry_space_group_name_H-M "P M M A"
_symmetry_group_IT_number 51
_symmetry_cell_setting 'orthorhombic'
loop_
_space_group_symop_operation_xyz
x,y,z
1/2-x,-y,z
1/2+x,-y,-z
-x,y,-z
-x,-y,-z
1/2+x,y,-z
1/2-x,y,z
x,-y,z
loop_
_atom_site_type_symbol
_atom_site_label
_atom_site_fract_x
_atom_site_fract_y
_atom_site_fract_z
Si Si1 0.669575 0.668353 0.873022
Si Si2 0.175816 0.089598 0.285491
Si Si3 0.581151 0.407785 0.650797
Si Si4 0.672736 0.407868 0.136071
Si Si5 0.968839 0.906928 0.633553
Si Si6 0.575080 0.407923 0.358612
Si Si7 0.947666 0.089936 0.117754
Si Si8 0.827401 0.837165 0.977960
O O1 0.750000 0.654421 0.845015
O O2 0.628863 0.641445 0.746137
O O3 0.652766 0.757717 0.904291
O O4 0.644035 0.618161 0.996347
O O5 0.250000 0.129001 0.326019
O O6 0.109180 0.127351 0.355620
O O7 0.166693 0.095355 0.130016
O O8 0.179127 0.000000 0.323747
O O9 0.591644 0.500000 0.674609
O O10 0.600198 0.383919 0.502729
O O11 0.502419 0.381102 0.673729
O O12 0.750000 0.375008 0.155535
O O13 0.671826 0.500000 0.142080
O O14 0.625964 0.371493 0.250663
O O15 0.000000 0.874642 0.500000
O O16 0.016144 0.877581 0.752119
O O17 0.965983 0.000000 0.637481
O O18 0.576276 0.500000 0.351072
O O19 0.925858 0.000000 0.133941
O O20 0.879581 0.142053 0.094279
O O21 0.000000 0.100984 0.000000
O O22 0.750000 0.831786 0.036444
#
# Coordination Sequence:
#
# PCOD8207296 Si02
#       8
#     8   8   8   8   8   8   8   8
#     4  10  21  34  49  71 103 136 167 210 258 302
#     4   9  16  29  52  75  95 130 175 209 247 307
#     4   9  17  32  53  75 101 131 168 214 258 302
#     4   9  17  31  50  72  98 129 167 206 246 297
#     4   9  17  30  50  78 108 130 155 207 266 304
#     4   8  16  31  51  75 101 129 164 212 260 301
#     4  10  18  32  55  79 101 128 169 214 254 301
#     4  10  20  34  51  73 106 138 172 214 257 303
#
# _framework density 18.672808
#
# number of rings (size 3 to 8) (size 9 to 14) (size 15 to 20)
#    0.000    2.750    1.250    1.500    0.000    2.500 
#    2.250    3.750    5.500    2.250    0.000    0.000 
#    0.000    0.000    0.000    0.000    0.000    0.000 
#
# Total GULP energy -793253.792162 kJ/mol
# GULP energy per Si atom -12394.590503 kJ/mol
# Density = 1.863031 g / cm^3
# Si number density = 18.672808 Si / 1000 Ang^3
#
#
#
# Elastic Constant Matrix: (Units=GPa)
#
#
# Indices 1 2 3 4 5 6 
#
# 1 146.5025 33.0079 90.1999 0.0000 0.0000 0.0000
# 2 33.0079 32.1762 23.1728 0.0000 0.0000 0.0000
# 3 90.1999 23.1728 142.6919 0.0000 0.0000 0.0000
# 4 0.0000 0.0000 0.0000 13.5543 0.0000 0.0000
# 5 0.0000 0.0000 0.0000 0.0000 36.4235 0.0000
# 6 0.0000 0.0000 0.0000 0.0000 0.0000 20.0993
#
#
#
# Elastic Compliance Matrix: (Units=1/GPa)
#
#
# Indices 1 2 3 4 5 6 
#
# 1 0.012883 -0.008325 -0.006792 0.000000 0.000000 0.000000
# 2 -0.008325 0.040574 -0.001327 0.000000 0.000000 0.000000
# 3 -0.006792 -0.001327 0.011517 0.000000 0.000000 0.000000
# 4 0.000000 0.000000 0.000000 0.073777 0.000000 0.000000
# 5 0.000000 0.000000 0.000000 0.000000 0.027455 0.000000
# 6 0.000000 0.000000 0.000000 0.000000 0.000000 0.049753
#
#
# Mechanical properties :
#
#
# Convention : Reuss Voigt Hill
#
# Bulk Modulus (GPa) = 31.16481 68.23686 49.70084
# Shear Modulus (GPa) = 19.26468 25.68141 22.47305
#
# Velocity S-wave (km/s) = 3.21549 3.71258 3.47294
# Velocity P-wave (km/s) = 5.52377 7.41623 6.53882
#
# Compressibility (1/GPa) = 0.03208748
#
# Stress axis : x y z
#
# Youngs Moduli (GPa) = 77.62091 24.64610 86.82851
#
# Poissons Ratio (x) = 0.20517 0.58973
# Poissons Ratio (y) = 0.64617 0.11521
# Poissons Ratio (z) = 0.52719 0.03270
#
# Static dielectric constant tensor:
#      x y z
#    x 3.812280 0.000000 0.000000 
#    y 0.000000 3.045860 0.000000 
#    z 0.000000 0.000000 3.478600 
# 
# 
# High freq. dielectric constant tensor:
#      x y z
#    x 1.733260 0.000000 0.000000 
#    y 0.000000 1.689300 0.000000 
#    z 0.000000 0.000000 1.712790 
# 
# From -- ./inp_files/11205.got.cif
#   From: 2010.03.12/outbox.cif.g09.slc.cpg/sg51_6_cif.got.tgz:11205.got - 2010.04.16 13:43:02.
