data_PCOD8207556
_publ_section_title
;
Structure prediction by ZEFSAII (Michael W. Deem and Ramdas Pophale) SiO2 
 PCOD8207556
Probable space group: P M M A
;
_chemical_formula_sum "Si O2"
_cell_formula_units_Z 56
_cell_length_a 9.112323
_cell_length_b 29.467469
_cell_length_c 13.698801
_cell_angle_alpha 90.000000
_cell_angle_beta 90.000000
_cell_angle_gamma 90.000000
_cell_volume 3678.362257
_symmetry_space_group_name_H-M "P M M A"
_symmetry_group_IT_number 51
_symmetry_cell_setting 'orthorhombic'
loop_
_space_group_symop_operation_xyz
x,y,z
1/2-x,-y,z
1/2+x,-y,-z
-x,y,-z
-x,-y,-z
1/2+x,y,-z
1/2-x,y,z
x,-y,z
loop_
_atom_site_type_symbol
_atom_site_label
_atom_site_fract_x
_atom_site_fract_y
_atom_site_fract_z
Si Si1 0.920863 0.401620 0.099364
Si Si2 0.422260 0.637052 0.598357
Si Si3 0.575185 0.449703 0.291177
Si Si4 0.578414 0.950608 0.104388
Si Si5 0.579925 0.233277 0.896889
Si Si6 0.580292 0.689362 0.208189
Si Si7 0.420345 0.132728 0.103201
O O1 0.750000 0.409166 0.082896
O O2 0.980667 0.435064 0.183906
O O3 0.953794 0.349908 0.129920
O O4 0.000000 0.414411 0.000000
O O5 0.500000 0.653195 0.500000
O O6 0.250000 0.635923 0.579991
O O7 0.480099 0.586735 0.628865
O O8 0.461818 0.672466 0.683622
O O9 0.750000 0.448440 0.289482
O O10 0.515303 0.500000 0.316973
O O11 0.750000 0.940237 0.091724
O O12 0.500713 0.908567 0.163231
O O13 0.555830 0.000000 0.156312
O O14 0.500000 0.952708 0.000000
O O15 0.750000 0.243658 0.915861
O O16 0.517577 0.267261 0.816225
O O17 0.558856 0.182748 0.850605
O O18 0.500000 0.239704 0.000000
O O19 0.750000 0.703345 0.203722
O O20 0.250000 0.120671 0.091162
O O21 0.500000 0.135140 0.000000
#
# Coordination Sequence:
#
# PCOD8207556 Si02
#       7
#     8   8   8   8   8   8   8
#     4   9  17  28  42  60  81 106 135 163 191 227
#     4   9  18  32  49  67  84 103 129 161 198 240
#     4   8  15  29  46  62  83 110 134 156 189 234
#     4   9  15  21  30  44  62  88 125 166 203 236
#     4  10  19  28  40  59  81 106 136 169 204 241
#     4   9  18  31  44  59  80 105 133 163 197 240
#     4   9  16  24  33  47  68  94 126 163 201 238
#
# _framework density 15.224166
#
# number of rings (size 3 to 8) (size 9 to 14) (size 15 to 20)
#    0.000    3.000    0.000    4.286    0.000    5.429 
#    0.000    2.143    0.000    0.857    0.000    0.000 
#    0.000    0.000    0.000    0.000    0.000    0.714 
#
# Total GULP energy -693824.628708 kJ/mol
# GULP energy per Si atom -12389.725513 kJ/mol
# Density = 1.518951 g / cm^3
# Si number density = 15.224166 Si / 1000 Ang^3
#
#
#
# Elastic Constant Matrix: (Units=GPa)
#
#
# Indices 1 2 3 4 5 6 
#
# 1 74.3846 53.9553 27.0905 0.0000 0.0000 0.0000
# 2 53.9553 122.1738 30.8881 0.0000 0.0000 0.0000
# 3 27.0905 30.8881 65.2298 0.0000 0.0000 0.0000
# 4 0.0000 0.0000 0.0000 9.1104 0.0000 0.0000
# 5 0.0000 0.0000 0.0000 0.0000 20.5963 0.0000
# 6 0.0000 0.0000 0.0000 0.0000 0.0000 22.3021
#
#
#
# Elastic Compliance Matrix: (Units=1/GPa)
#
#
# Indices 1 2 3 4 5 6 
#
# 1 0.021094 -0.008067 -0.004941 0.000000 0.000000 0.000000
# 2 -0.008067 0.012383 -0.002514 0.000000 0.000000 0.000000
# 3 -0.004941 -0.002514 0.018573 0.000000 0.000000 0.000000
# 4 0.000000 0.000000 0.000000 0.109764 0.000000 0.000000
# 5 0.000000 0.000000 0.000000 0.000000 0.048552 0.000000
# 6 0.000000 0.000000 0.000000 0.000000 0.000000 0.044839
#
#
# Mechanical properties :
#
#
# Convention : Reuss Voigt Hill
#
# Bulk Modulus (GPa) = 47.60135 53.96178 50.78156
# Shear Modulus (GPa) = 17.05030 20.39207 18.72118
#
# Velocity S-wave (km/s) = 3.35020 3.66383 3.51051
# Velocity P-wave (km/s) = 6.80441 7.30889 7.06116
#
# Compressibility (1/GPa) = 0.02100781
#
# Stress axis : x y z
#
# Youngs Moduli (GPa) = 47.40621 80.75589 53.84273
#
# Poissons Ratio (x) = 0.65143 0.26603
# Poissons Ratio (y) = 0.38241 0.13534
# Poissons Ratio (z) = 0.23423 0.20298
#
# Static dielectric constant tensor:
#      x y z
#    x 2.849450 0.000000 0.000000 
#    y 0.000000 3.757240 0.000000 
#    z 0.000000 0.000000 2.532380 
# 
# 
# High freq. dielectric constant tensor:
#      x y z
#    x 1.581580 0.000000 0.000000 
#    y 0.000000 1.596160 0.000000 
#    z 0.000000 0.000000 1.524820 
# 
# From -- ./inp_files/22537.got.cif
#   From: 2010.03.12/outbox.cif.g09.slc.cpg/sg51_12_cif.got.tgz:22537.got - 2010.04.16 13:43:02.
