data_PCOD8207352
_publ_section_title
;
Structure prediction by ZEFSAII (Michael W. Deem and Ramdas Pophale) SiO2 
 PCOD8207352
Probable space group: P M M A
;
_chemical_formula_sum "Si O2"
_cell_formula_units_Z 56
_cell_length_a 16.244255
_cell_length_b 9.106728
_cell_length_c 19.001662
_cell_angle_alpha 90.000000
_cell_angle_beta 90.000000
_cell_angle_gamma 90.000000
_cell_volume 2810.954088
_symmetry_space_group_name_H-M "P M M A"
_symmetry_group_IT_number 51
_symmetry_cell_setting 'orthorhombic'
loop_
_space_group_symop_operation_xyz
x,y,z
1/2-x,-y,z
1/2+x,-y,-z
-x,y,-z
-x,-y,-z
1/2+x,y,-z
1/2-x,y,z
x,-y,z
loop_
_atom_site_type_symbol
_atom_site_label
_atom_site_fract_x
_atom_site_fract_y
_atom_site_fract_z
Si Si1 0.094870 0.170275 0.816365
Si Si2 0.652356 0.835411 0.910037
Si Si3 0.567426 0.325117 0.444955
Si Si4 0.250000 0.326457 0.575982
Si Si5 0.250000 0.834124 0.720418
Si Si6 0.158696 0.333089 0.226905
Si Si7 0.499888 0.667713 0.703208
Si Si8 0.346254 0.327836 0.951550
O O1 0.173768 0.199009 0.769202
O O2 0.101616 0.255001 0.889510
O O3 0.021531 0.236448 0.770965
O O4 0.079925 0.000000 0.832622
O O5 0.750000 0.837425 0.911794
O O6 0.622983 0.763400 0.837216
O O7 0.616117 0.000000 0.914817
O O8 0.620080 0.740898 0.975912
O O9 0.500000 0.260635 0.500000
O O10 0.563221 0.500000 0.446971
O O11 0.662875 0.272348 0.459867
O O12 0.538348 0.266756 0.368475
O O13 0.250000 0.500000 0.575312
O O14 0.250000 0.277665 0.656328
O O15 0.250000 0.000000 0.690730
O O16 0.250000 0.280766 0.250053
O O17 0.161471 0.500000 0.199136
O O18 0.099831 0.322227 0.295858
O O19 0.469710 0.500000 0.712664
O O20 0.250000 0.292106 0.940349
O O21 0.363242 0.500000 0.952811
#
# Coordination Sequence:
#
# PCOD8207352 Si02
#       8
#     8   8   8   4   4   8   8   8
#     4  11  21  33  50  76 110 143 179 225 273 322
#     4   9  17  30  50  74 101 137 181 228 275 324
#     4   9  18  33  53  83 117 145 179 224 269 318
#     4  10  18  32  58  82 108 149 186 219 266 325
#     4  10  20  32  50  76 108 143 178 221 266 319
#     4   9  18  34  54  75 100 135 179 225 276 329
#     4  10  20  35  55  78 108 141 177 224 271 324
#     4  10  19  30  48  75 107 143 182 224 271 327
#
# _framework density 19.922062
#
# number of rings (size 3 to 8) (size 9 to 14) (size 15 to 20)
#    0.000    2.286    2.143    1.286    0.000    3.429 
#    1.286    0.714    0.000    6.000    0.000    0.000 
#    0.000    0.000    0.000    0.000    0.000    0.000 
#
# Total GULP energy -694036.089134 kJ/mol
# GULP energy per Si atom -12393.501592 kJ/mol
# Density = 1.987672 g / cm^3
# Si number density = 19.922062 Si / 1000 Ang^3
#
#
#
# Elastic Constant Matrix: (Units=GPa)
#
#
# Indices 1 2 3 4 5 6 
#
# 1 112.1199 25.8463 59.8786 0.0000 0.0000 0.0000
# 2 25.8463 68.0345 26.5828 0.0000 0.0000 0.0000
# 3 59.8786 26.5828 80.7495 0.0000 0.0000 0.0000
# 4 0.0000 0.0000 0.0000 12.4362 0.0000 0.0000
# 5 0.0000 0.0000 0.0000 0.0000 63.0239 0.0000
# 6 0.0000 0.0000 0.0000 0.0000 0.0000 12.9585
#
#
#
# Elastic Compliance Matrix: (Units=1/GPa)
#
#
# Indices 1 2 3 4 5 6 
#
# 1 0.014907 -0.001542 -0.010546 0.000000 0.000000 0.000000
# 2 -0.001542 0.017028 -0.004462 0.000000 0.000000 0.000000
# 3 -0.010546 -0.004462 0.021673 0.000000 0.000000 0.000000
# 4 0.000000 0.000000 0.000000 0.080410 0.000000 0.000000
# 5 0.000000 0.000000 0.000000 0.000000 0.015867 0.000000
# 6 0.000000 0.000000 0.000000 0.000000 0.000000 0.077169
#
#
# Mechanical properties :
#
#
# Convention : Reuss Voigt Hill
#
# Bulk Modulus (GPa) = 48.76393 53.94658 51.35526
# Shear Modulus (GPa) = 18.72723 27.59013 23.15868
#
# Velocity S-wave (km/s) = 3.06931 3.72547 3.41319
# Velocity P-wave (km/s) = 6.09027 6.75597 6.43173
#
# Compressibility (1/GPa) = 0.02050696
#
# Stress axis : x y z
#
# Youngs Moduli (GPa) = 67.08313 58.72772 46.13998
#
# Poissons Ratio (x) = 0.09059 0.48660
# Poissons Ratio (y) = 0.10347 0.20587
# Poissons Ratio (z) = 0.70747 0.26203
#
# Static dielectric constant tensor:
#      x y z
#    x 3.781810 0.000000 0.000000 
#    y 0.000000 3.486220 0.000000 
#    z 0.000000 0.000000 3.503850 
# 
# 
# High freq. dielectric constant tensor:
#      x y z
#    x 1.781130 0.000000 0.000000 
#    y 0.000000 1.757460 0.000000 
#    z 0.000000 0.000000 1.758600 
# 
# From -- ./inp_files/33509.got.cif
#   From: 2010.03.12/outbox.cif.g09.slc.cpg/sg51_17_cif.got.tgz:33509.got - 2010.04.16 13:43:02.
