data_PCOD8207541
_publ_section_title
;
Structure prediction by ZEFSAII (Michael W. Deem and Ramdas Pophale) SiO2 
 PCOD8207541
Probable space group: P M M A
;
_chemical_formula_sum "Si O2"
_cell_formula_units_Z 64
_cell_length_a 9.001850
_cell_length_b 13.854184
_cell_length_c 34.256718
_cell_angle_alpha 90.000000
_cell_angle_beta 90.000000
_cell_angle_gamma 90.000000
_cell_volume 4272.267878
_symmetry_space_group_name_H-M "P M M A"
_symmetry_group_IT_number 51
_symmetry_cell_setting 'orthorhombic'
loop_
_space_group_symop_operation_xyz
x,y,z
1/2-x,-y,z
1/2+x,-y,-z
-x,y,-z
-x,-y,-z
1/2+x,y,-z
1/2-x,y,z
x,-y,z
loop_
_atom_site_type_symbol
_atom_site_label
_atom_site_fract_x
_atom_site_fract_y
_atom_site_fract_z
Si Si1 0.575617 0.110729 0.040198
Si Si2 0.074189 0.208089 0.112058
Si Si3 0.417692 0.384866 0.538471
Si Si4 0.425790 0.292147 0.234338
Si Si5 0.574096 0.106250 0.809741
Si Si6 0.574124 0.606127 0.843894
Si Si7 0.417166 0.385289 0.385151
Si Si8 0.074948 0.611035 0.693363
O O1 0.750000 0.126209 0.036058
O O2 0.513181 0.179363 0.073606
O O3 0.535361 0.000000 0.050162
O O4 0.500000 0.142664 0.000000
O O5 0.250000 0.198610 0.104875
O O6 0.020018 0.140143 0.147571
O O7 0.026912 0.318008 0.122699
O O8 0.500000 0.345463 0.500000
O O9 0.250000 0.345413 0.538468
O O10 0.418717 0.500000 0.538803
O O11 0.501099 0.343679 0.576588
O O12 0.250000 0.301536 0.241677
O O13 0.473032 0.182191 0.223690
O O14 0.479668 0.359981 0.198792
O O15 0.513503 0.322034 0.272578
O O16 0.750000 0.102936 0.811167
O O17 0.507520 0.000000 0.800446
O O18 0.750000 0.602535 0.842540
O O19 0.507158 0.500000 0.853185
O O20 0.250000 0.344280 0.383839
O O21 0.415889 0.500000 0.387216
O O22 0.504331 0.350784 0.346812
O O23 0.250000 0.622624 0.690110
O O24 0.029407 0.500000 0.701391
#
# Coordination Sequence:
#
# PCOD8207541 Si02
#       8
#     8   8   8   8   8   8   8   8
#     4  10  20  32  46  65  88 111 133 160 196 237
#     4   9  16  27  46  68  87 110 137 164 195 231
#     4   9  15  22  32  46  65  89 119 157 199 240
#     4   9  16  26  42  61  78 102 136 167 194 229
#     4   8  14  25  42  64  87 108 131 160 194 233
#     4   8  14  25  42  64  87 109 135 166 198 232
#     4   9  16  25  36  49  65  89 124 163 201 241
#     4  10  19  28  37  51  74 102 130 165 208 245
#
# _framework density 14.980333999999999
#
# number of rings (size 3 to 8) (size 9 to 14) (size 15 to 20)
#    0.000    3.000    0.000    3.750    0.000    5.500 
#    0.000    2.500    0.000    2.625    0.000    0.000 
#    0.000    0.000    0.000    0.000    0.000    0.625 
#
# Total GULP energy -793337.325664 kJ/mol
# GULP energy per Si atom -12395.895714 kJ/mol
# Density = 1.494624 g / cm^3
# Si number density = 14.980334 Si / 1000 Ang^3
#
#
#
# Elastic Constant Matrix: (Units=GPa)
#
#
# Indices 1 2 3 4 5 6 
#
# 1 71.9648 26.8690 54.8159 0.0000 0.0000 0.0000
# 2 26.8690 87.7739 54.1329 0.0000 0.0000 0.0000
# 3 54.8159 54.1329 140.0722 0.0000 0.0000 0.0000
# 4 0.0000 0.0000 0.0000 13.3192 0.0000 0.0000
# 5 0.0000 0.0000 0.0000 0.0000 29.0447 0.0000
# 6 0.0000 0.0000 0.0000 0.0000 0.0000 11.4335
#
#
#
# Elastic Compliance Matrix: (Units=1/GPa)
#
#
# Indices 1 2 3 4 5 6 
#
# 1 0.019988 -0.001700 -0.007165 0.000000 0.000000 0.000000
# 2 -0.001700 0.015103 -0.005172 0.000000 0.000000 0.000000
# 3 -0.007165 -0.005172 0.011942 0.000000 0.000000 0.000000
# 4 0.000000 0.000000 0.000000 0.075080 0.000000 0.000000
# 5 0.000000 0.000000 0.000000 0.000000 0.034430 0.000000
# 6 0.000000 0.000000 0.000000 0.000000 0.000000 0.087463
#
#
# Mechanical properties :
#
#
# Convention : Reuss Voigt Hill
#
# Bulk Modulus (GPa) = 52.74334 63.49405 58.11869
# Shear Modulus (GPa) = 17.95995 21.69234 19.82614
#
# Velocity S-wave (km/s) = 3.46627 3.80946 3.64191
# Velocity P-wave (km/s) = 7.16274 7.86297 7.52101
#
# Compressibility (1/GPa) = 0.01895974
#
# Stress axis : x y z
#
# Youngs Moduli (GPa) = 50.02975 66.21366 83.73903
#
# Poissons Ratio (x) = 0.11254 0.60002
# Poissons Ratio (y) = 0.08503 0.43306
# Poissons Ratio (z) = 0.35848 0.34242
#
# Static dielectric constant tensor:
#      x y z
#    x 2.763810 0.000000 0.000000 
#    y 0.000000 2.951180 0.000000 
#    z 0.000000 0.000000 2.903990 
# 
# 
# High freq. dielectric constant tensor:
#      x y z
#    x 1.563160 0.000000 0.000000 
#    y 0.000000 1.530270 0.000000 
#    z 0.000000 0.000000 1.574710 
# 
# From -- ./inp_files/37652.got.cif
#   From: 2010.03.12/outbox.cif.g09.slc.cpg/sg51_19_cif.got.tgz:37652.got - 2010.04.16 13:43:02.
