data_PCOD8207839
_publ_section_title
;
Structure prediction by ZEFSAII (Michael W. Deem and Ramdas Pophale) SiO2 
 PCOD8207839
Probable space group: P M M A
;
_chemical_formula_sum "Si O2"
_cell_formula_units_Z 56
_cell_length_a 9.580982
_cell_length_b 15.079588
_cell_length_c 20.492895
_cell_angle_alpha 90.000000
_cell_angle_beta 90.000000
_cell_angle_gamma 90.000000
_cell_volume 2960.757344
_symmetry_space_group_name_H-M "P M M A"
_symmetry_group_IT_number 51
_symmetry_cell_setting 'orthorhombic'
loop_
_space_group_symop_operation_xyz
x,y,z
1/2-x,-y,z
1/2+x,-y,-z
-x,y,-z
-x,-y,-z
1/2+x,y,-z
1/2-x,y,z
x,-y,z
loop_
_atom_site_type_symbol
_atom_site_label
_atom_site_fract_x
_atom_site_fract_y
_atom_site_fract_z
Si Si1 0.413391 0.898453 0.204569
Si Si2 0.096916 0.873717 0.056625
Si Si3 0.097608 0.668773 0.054951
Si Si4 0.910762 0.897136 0.439463
Si Si5 0.902159 0.598898 0.153224
Si Si6 0.416915 0.209362 0.688550
Si Si7 0.092130 0.595307 0.693138
O O1 0.250000 0.871925 0.210399
O O2 0.464494 0.889440 0.129351
O O3 0.504781 0.832129 0.249050
O O4 0.437278 0.000000 0.227607
O O5 0.250000 0.918880 0.053180
O O6 0.114384 0.771275 0.040276
O O7 0.000000 0.916820 0.000000
O O8 0.250000 0.622884 0.055196
O O9 0.025049 0.659159 0.125126
O O10 0.000000 0.623233 0.000000
O O11 0.750000 0.879379 0.456036
O O12 0.957202 0.847773 0.374159
O O13 0.000000 0.860212 0.500000
O O14 0.942321 0.000000 0.427574
O O15 0.750000 0.636946 0.132340
O O16 0.919597 0.500000 0.125362
O O17 0.913867 0.598326 0.229806
O O18 0.250000 0.209491 0.702731
O O19 0.472696 0.309843 0.671419
O O20 0.250000 0.591919 0.667482
O O21 0.020873 0.500000 0.670086
#
# Coordination Sequence:
#
# PCOD8207839 Si02
#       7
#     8   8   8   8   8   8   8
#     4  10  21  35  50  72 104 137 167 205 258 315
#     4   9  19  34  49  66  89 121 163 206 247 295
#     4  10  19  30  44  60  80 108 145 191 240 291
#     4   9  18  32  50  75 107 140 174 210 247 292
#     4   9  17  29  44  62  85 112 144 185 234 291
#     4  10  19  32  54  81 106 133 170 216 255 293
#     4   8  15  29  50  75 100 127 160 199 247 299
#
# _framework density 18.914079999999998
#
# number of rings (size 3 to 8) (size 9 to 14) (size 15 to 20)
#    0.000    2.714    0.000    2.571    0.000    3.429 
#    0.000    1.429    0.000    1.714    0.000    0.000 
#    0.000    0.000    0.000    0.000    0.000    0.000 
#
# Total GULP energy -693737.756959 kJ/mol
# GULP energy per Si atom -12388.174231 kJ/mol
# Density = 1.887103 g / cm^3
# Si number density = 18.914080 Si / 1000 Ang^3
#
#
#
# Elastic Constant Matrix: (Units=GPa)
#
#
# Indices 1 2 3 4 5 6 
#
# 1 81.3905 29.2535 45.1334 0.0000 0.0000 0.0000
# 2 29.2535 85.9582 42.3637 0.0000 0.0000 0.0000
# 3 45.1334 42.3637 99.5130 0.0000 0.0000 0.0000
# 4 0.0000 0.0000 0.0000 18.1649 0.0000 0.0000
# 5 0.0000 0.0000 0.0000 0.0000 29.1056 0.0000
# 6 0.0000 0.0000 0.0000 0.0000 0.0000 -8.9255
#
#
#
# Elastic Compliance Matrix: (Units=1/GPa)
#
#
# Indices 1 2 3 4 5 6 
#
# 1 0.016825 -0.002487 -0.006572 0.000000 0.000000 0.000000
# 2 -0.002487 0.015090 -0.005296 0.000000 0.000000 0.000000
# 3 -0.006572 -0.005296 0.015284 0.000000 0.000000 0.000000
# 4 0.000000 0.000000 0.000000 0.055051 0.000000 0.000000
# 5 0.000000 0.000000 0.000000 0.000000 0.034358 0.000000
# 6 0.000000 0.000000 0.000000 0.000000 0.000000 -0.112038
#
#
# Mechanical properties :
#
#
# Convention : Reuss Voigt Hill
#
# Bulk Modulus (GPa) = 54.08623 55.59588 54.84106
# Shear Modulus (GPa) = 84.11480 17.67639 50.89560
#
# Velocity S-wave (km/s) = 6.67597 3.06038 5.19300
# Velocity P-wave (km/s) = 9.38523 6.47654 8.06313
#
# Compressibility (1/GPa) = 0.01848899
#
# Stress axis : x y z
#
# Youngs Moduli (GPa) = 59.43665 66.26899 65.42696
#
# Poissons Ratio (x) = 0.16480 0.42999
# Poissons Ratio (y) = 0.14781 0.34651
# Poissons Ratio (z) = 0.39062 0.35097
#
# Static dielectric constant tensor:
#      x y z
#    x 3.595970 0.000000 0.000000 
#    y 0.000000 4.111230 0.000000 
#    z 0.000000 0.000000 3.236680 
# 
# 
# High freq. dielectric constant tensor:
#      x y z
#    x 1.715120 0.000000 0.000000 
#    y 0.000000 1.742580 0.000000 
#    z 0.000000 0.000000 1.708510 
# 
# From -- ./inp_files/32043.got.cif
#   From: 2010.03.12/outbox.cif.g09.slc.cpg/sg51_17_cif.got.tgz:32043.got - 2010.04.16 13:43:02.
