data_PCOD8207915
_publ_section_title
;
Structure prediction by ZEFSAII (Michael W. Deem and Ramdas Pophale) SiO2 
 PCOD8207915
Probable space group: P M M A
;
_chemical_formula_sum "Si O2"
_cell_formula_units_Z 40
_cell_length_a 9.230965
_cell_length_b 11.973321
_cell_length_c 20.603067
_cell_angle_alpha 90.000000
_cell_angle_beta 90.000000
_cell_angle_gamma 90.000000
_cell_volume 2277.160307
_symmetry_space_group_name_H-M "P M M A"
_symmetry_group_IT_number 51
_symmetry_cell_setting 'orthorhombic'
loop_
_space_group_symop_operation_xyz
x,y,z
1/2-x,-y,z
1/2+x,-y,-z
-x,y,-z
-x,-y,-z
1/2+x,y,-z
1/2-x,y,z
x,-y,z
loop_
_atom_site_type_symbol
_atom_site_label
_atom_site_fract_x
_atom_site_fract_y
_atom_site_fract_z
Si Si1 0.080547 0.371273 0.935180
Si Si2 0.921581 0.232384 0.434656
Si Si3 0.422472 0.238873 0.810687
Si Si4 0.078247 0.000000 0.623144
Si Si5 0.922427 0.000000 0.230782
Si Si6 0.077745 0.625296 0.687710
O O1 0.250000 0.352502 0.946102
O O2 0.046220 0.500000 0.918477
O O3 0.019752 0.295643 0.876505
O O4 0.000000 0.332313 0.000000
O O5 0.750000 0.236030 0.445047
O O6 0.975786 0.108740 0.415264
O O7 0.972703 0.316797 0.378658
O O8 0.000000 0.270770 0.500000
O O9 0.250000 0.244570 0.809244
O O10 0.477071 0.110564 0.806993
O O11 0.484856 0.306237 0.748919
O O12 0.250000 0.000000 0.628632
O O13 0.014298 0.000000 0.696101
O O14 0.750000 0.000000 0.234340
O O15 0.250000 0.624322 0.691317
O O16 0.015075 0.500000 0.689795
#
# Coordination Sequence:
#
# PCOD8207915 Si02
#       6
#     8   8   8   4   4   8
#     4   9  17  29  46  69  95 121 148 179 216 258
#     4  10  19  30  45  65  89 116 146 182 223 266
#     4   9  15  25  43  67  91 114 146 187 223 256
#     4   9  15  27  44  65  89 112 143 184 225 262
#     4   9  14  23  42  67  91 112 141 186 230 258
#     4   9  16  26  42  64  88 114 146 185 225 260
#
# _framework density 17.565738
#
# number of rings (size 3 to 8) (size 9 to 14) (size 15 to 20)
#    0.000    2.800    2.000    0.900    0.000    2.800 
#    0.000    0.500    0.000    1.200    0.000    0.000 
#    0.000    0.000    0.000    0.000    0.000    0.000 
#
# Total GULP energy -495911.575066 kJ/mol
# GULP energy per Si atom -12397.789377 kJ/mol
# Density = 1.752576 g / cm^3
# Si number density = 17.565738 Si / 1000 Ang^3
#
#
#
# Elastic Constant Matrix: (Units=GPa)
#
#
# Indices 1 2 3 4 5 6 
#
# 1 12.8776 15.9224 26.7661 0.0000 0.0000 0.0000
# 2 15.9224 154.9888 92.5587 0.0000 0.0000 0.0000
# 3 26.7661 92.5587 179.1685 0.0000 0.0000 0.0000
# 4 0.0000 0.0000 0.0000 35.9409 0.0000 0.0000
# 5 0.0000 0.0000 0.0000 0.0000 23.9407 0.0000
# 6 0.0000 0.0000 0.0000 0.0000 0.0000 8.1603
#
#
#
# Elastic Compliance Matrix: (Units=1/GPa)
#
#
# Indices 1 2 3 4 5 6 
#
# 1 0.113148 -0.002212 -0.015761 0.000000 0.000000 0.000000
# 2 -0.002212 0.009374 -0.004512 0.000000 0.000000 0.000000
# 3 -0.015761 -0.004512 0.010267 0.000000 0.000000 0.000000
# 4 0.000000 0.000000 0.000000 0.027823 0.000000 0.000000
# 5 0.000000 0.000000 0.000000 0.000000 0.041770 0.000000
# 6 0.000000 0.000000 0.000000 0.000000 0.000000 0.122544
#
#
# Mechanical properties :
#
#
# Convention : Reuss Voigt Hill
#
# Bulk Modulus (GPa) = 11.38702 68.61438 40.00070
# Shear Modulus (GPa) = 12.52604 27.72755 20.12680
#
# Velocity S-wave (km/s) = 2.67328 3.97735 3.38864
# Velocity P-wave (km/s) = 4.00314 7.76136 6.17510
#
# Compressibility (1/GPa) = 0.08781931
#
# Stress axis : x y z
#
# Youngs Moduli (GPa) = 8.83801 106.67857 97.40099
#
# Poissons Ratio (x) = 0.23595 1.53510
# Poissons Ratio (y) = 0.01955 0.43949
# Poissons Ratio (z) = 0.13929 0.48135
#
# Static dielectric constant tensor:
#      x y z
#    x 2.585510 0.000000 0.000000 
#    y 0.000000 3.539030 0.000000 
#    z 0.000000 0.000000 3.364260 
# 
# 
# High freq. dielectric constant tensor:
#      x y z
#    x 1.605330 0.000000 0.000000 
#    y 0.000000 1.688490 0.000000 
#    z 0.000000 0.000000 1.687340 
# 
# From -- ./inp_files/31433.got.cif
#   From: 2010.03.12/outbox.cif.g09.slc.cpg/sg51_16_cif.got.tgz:31433.got - 2010.04.16 13:43:02.
