data_PCOD8207103
_publ_section_title
;
Structure prediction by ZEFSAII (Michael W. Deem and Ramdas Pophale) SiO2 
 PCOD8207103
Probable space group: P M M A
;
_chemical_formula_sum "Si O2"
_cell_formula_units_Z 48
_cell_length_a 19.318372
_cell_length_b 8.703905
_cell_length_c 15.227687
_cell_angle_alpha 90.000000
_cell_angle_beta 90.000000
_cell_angle_gamma 90.000000
_cell_volume 2560.463613
_symmetry_space_group_name_H-M "P M M A"
_symmetry_group_IT_number 51
_symmetry_cell_setting 'orthorhombic'
loop_
_space_group_symop_operation_xyz
x,y,z
1/2-x,-y,z
1/2+x,-y,-z
-x,y,-z
-x,-y,-z
1/2+x,y,-z
1/2-x,y,z
x,-y,z
loop_
_atom_site_type_symbol
_atom_site_label
_atom_site_fract_x
_atom_site_fract_y
_atom_site_fract_z
Si Si1 0.089647 0.317625 0.230404
Si Si2 0.830020 0.821127 0.609244
Si Si3 0.672402 0.317126 0.129281
Si Si4 0.062684 0.682587 0.732424
Si Si5 0.076092 0.319928 0.533614
Si Si6 0.827390 0.317338 0.934159
O O1 0.086821 0.500000 0.227770
O O2 0.138278 0.271573 0.310274
O O3 0.120468 0.250768 0.139144
O O4 0.012696 0.249595 0.243218
O O5 0.750000 0.776460 0.600335
O O6 0.867045 0.774739 0.519139
O O7 0.840635 0.000000 0.626991
O O8 0.750000 0.257677 0.150398
O O9 0.671529 0.500000 0.133771
O O10 0.619073 0.247666 0.200202
O O11 0.649677 0.262640 0.031556
O O12 0.060209 0.500000 0.739151
O O13 0.083201 0.732191 0.634457
O O14 0.090271 0.500000 0.520679
O O15 0.000000 0.276728 0.500000
O O16 0.750000 0.256625 0.913812
O O17 0.827433 0.500000 0.930776
#
# Coordination Sequence:
#
# PCOD8207103 Si02
#       6
#     8   8   8   8   8   8
#     4  10  18  31  51  75 103 132 166 209 254 302
#     4  11  24  38  52  75 104 134 172 213 254 305
#     4   8  14  25  40  65 103 136 163 202 251 303
#     4   9  17  28  46  72 100 131 166 206 253 305
#     4  10  19  35  55  76 103 133 170 213 256 305
#     4   8  14  24  41  67  99 134 166 199 248 303
#
# _framework density 18.746606
#
# number of rings (size 3 to 8) (size 9 to 14) (size 15 to 20)
#    0.000    2.667    1.667    2.000    0.000    3.667 
#    0.000    5.000    0.000    0.000    0.000    3.500 
#    0.000    5.333    0.000    0.000    0.000    0.000 
#
# Total GULP energy -595072.017072 kJ/mol
# GULP energy per Si atom -12397.333689 kJ/mol
# Density = 1.870394 g / cm^3
# Si number density = 18.746606 Si / 1000 Ang^3
#
#
#
# Elastic Constant Matrix: (Units=GPa)
#
#
# Indices 1 2 3 4 5 6 
#
# 1 133.0849 11.6796 88.5406 0.0000 0.0000 0.0000
# 2 11.6796 5.9744 6.3482 0.0000 0.0000 0.0000
# 3 88.5406 6.3482 170.5237 0.0000 0.0000 0.0000
# 4 0.0000 0.0000 0.0000 1.2685 0.0000 0.0000
# 5 0.0000 0.0000 0.0000 0.0000 44.3792 0.0000
# 6 0.0000 0.0000 0.0000 0.0000 0.0000 13.8934
#
#
#
# Elastic Compliance Matrix: (Units=1/GPa)
#
#
# Indices 1 2 3 4 5 6 
#
# 1 0.013358 -0.019516 -0.006209 0.000000 0.000000 0.000000
# 2 -0.019516 0.202786 0.002584 0.000000 0.000000 0.000000
# 3 -0.006209 0.002584 0.008992 0.000000 0.000000 0.000000
# 4 0.000000 0.000000 0.000000 0.788329 0.000000 0.000000
# 5 0.000000 0.000000 0.000000 0.000000 0.022533 0.000000
# 6 0.000000 0.000000 0.000000 0.000000 0.000000 0.071977
#
#
# Mechanical properties :
#
#
# Convention : Reuss Voigt Hill
#
# Bulk Modulus (GPa) = 5.59115 58.07997 31.83556
# Shear Modulus (GPa) = 4.11904 25.44251 14.78078
#
# Velocity S-wave (km/s) = 1.48391 3.68799 2.81098
# Velocity P-wave (km/s) = 2.43412 7.01312 5.24923
#
# Compressibility (1/GPa) = 0.17885417
#
# Stress axis : x y z
#
# Youngs Moduli (GPa) = 74.86393 4.93130 111.20954
#
# Poissons Ratio (x) = 0.09624 0.69051
# Poissons Ratio (y) = 1.46101 -0.28734
# Poissons Ratio (z) = 0.46484 -0.01274
#
# Static dielectric constant tensor:
#      x y z
#    x 3.736350 0.000000 0.000000 
#    y 0.000000 2.829210 0.000000 
#    z 0.000000 0.000000 3.772030 
# 
# 
# High freq. dielectric constant tensor:
#      x y z
#    x 1.734020 0.000000 0.000000 
#    y 0.000000 1.665870 0.000000 
#    z 0.000000 0.000000 1.743540 
# 
# From -- ./inp_files/24793.got.cif
#   From: 2010.03.12/outbox.cif.g09.slc.cpg/sg51_13_cif.got.tgz:24793.got - 2010.04.16 13:43:02.
