data_PCOD8207992
_publ_section_title
;
Structure prediction by ZEFSAII (Michael W. Deem and Ramdas Pophale) SiO2 
 PCOD8207992
Probable space group: P M M A
;
_chemical_formula_sum "Si O2"
_cell_formula_units_Z 64
_cell_length_a 8.957998
_cell_length_b 18.851093
_cell_length_c 23.553003
_cell_angle_alpha 90.000000
_cell_angle_beta 90.000000
_cell_angle_gamma 90.000000
_cell_volume 3977.349768
_symmetry_space_group_name_H-M "P M M A"
_symmetry_group_IT_number 51
_symmetry_cell_setting 'orthorhombic'
loop_
_space_group_symop_operation_xyz
x,y,z
1/2-x,-y,z
1/2+x,-y,-z
-x,y,-z
-x,-y,-z
1/2+x,y,-z
1/2-x,y,z
x,-y,z
loop_
_atom_site_type_symbol
_atom_site_label
_atom_site_fract_x
_atom_site_fract_y
_atom_site_fract_z
Si Si1 0.579093 0.283540 0.330150
Si Si2 0.924670 0.350253 0.835962
Si Si3 0.075392 0.794979 0.557422
Si Si4 0.922797 0.919120 0.619960
Si Si5 0.576019 0.920630 0.259475
Si Si6 0.079064 0.420773 0.732885
Si Si7 0.923723 0.210624 0.771729
Si Si8 0.425068 0.418623 0.941147
O O1 0.750000 0.263450 0.315408
O O2 0.542187 0.264766 0.395059
O O3 0.549807 0.367277 0.319560
O O4 0.472401 0.238177 0.289983
O O5 0.750000 0.361416 0.845934
O O6 0.963244 0.269061 0.819302
O O7 0.975126 0.402662 0.786049
O O8 0.011949 0.367183 0.893144
O O9 0.250000 0.806310 0.547631
O O10 0.000000 0.766814 0.500000
O O11 0.004343 0.870257 0.574127
O O12 0.750000 0.897861 0.624475
O O13 0.996602 0.907581 0.680866
O O14 0.942694 0.000000 0.599615
O O15 0.750000 0.907764 0.268515
O O16 0.510481 0.863044 0.214928
O O17 0.543729 0.000000 0.236394
O O18 0.250000 0.415086 0.753970
O O19 0.041530 0.500000 0.711480
O O20 0.750000 0.194163 0.770561
O O21 0.250000 0.406965 0.946893
O O22 0.464249 0.500000 0.925765
O O23 0.500000 0.396263 0.000000
#
# Coordination Sequence:
#
# PCOD8207992 Si02
#       8
#     8   8   8   8   8   8   8   8
#     4   9  18  32  48  66  88 115 148 185 230 281
#     4  10  20  31  45  70 101 130 161 198 235 274
#     4  11  22  34  49  66  86 115 150 189 230 277
#     4  10  20  33  49  68  90 116 147 184 224 270
#     4  10  19  30  46  68  94 124 155 187 227 277
#     4   9  17  30  49  71  93 118 150 190 234 280
#     4  10  19  30  47  69  94 124 156 192 234 275
#     4  10  20  33  49  69  96 134 174 207 239 276
#
# _framework density 16.091118000000002
#
# number of rings (size 3 to 8) (size 9 to 14) (size 15 to 20)
#    0.000    2.125    1.250    2.625    0.000    6.250 
#    0.000    0.000    0.000    0.375    0.000    0.000 
#    0.000    0.500    0.000    1.625    0.000    2.500 
#
# Total GULP energy -793631.763081 kJ/mol
# GULP energy per Si atom -12400.496298 kJ/mol
# Density = 1.605449 g / cm^3
# Si number density = 16.091118 Si / 1000 Ang^3
#
#
#
# Elastic Constant Matrix: (Units=GPa)
#
#
# Indices 1 2 3 4 5 6 
#
# 1 92.5983 52.2787 51.3924 0.0000 0.0000 0.0000
# 2 52.2787 118.0778 55.9416 0.0000 0.0000 0.0000
# 3 51.3924 55.9416 94.1309 0.0000 0.0000 0.0000
# 4 0.0000 0.0000 0.0000 21.5466 0.0000 0.0000
# 5 0.0000 0.0000 0.0000 0.0000 26.6142 0.0000
# 6 0.0000 0.0000 0.0000 0.0000 0.0000 24.0597
#
#
#
# Elastic Compliance Matrix: (Units=1/GPa)
#
#
# Indices 1 2 3 4 5 6 
#
# 1 0.016958 -0.004345 -0.006676 0.000000 0.000000 0.000000
# 2 -0.004345 0.012901 -0.005295 0.000000 0.000000 0.000000
# 3 -0.006676 -0.005295 0.017415 0.000000 0.000000 0.000000
# 4 0.000000 0.000000 0.000000 0.046411 0.000000 0.000000
# 5 0.000000 0.000000 0.000000 0.000000 0.037574 0.000000
# 6 0.000000 0.000000 0.000000 0.000000 0.000000 0.041563
#
#
# Mechanical properties :
#
#
# Convention : Reuss Voigt Hill
#
# Bulk Modulus (GPa) = 68.29656 69.33693 68.81675
# Shear Modulus (GPa) = 23.77154 24.12371 23.94763
#
# Velocity S-wave (km/s) = 3.84775 3.87614 3.86197
# Velocity P-wave (km/s) = 7.89151 7.95087 7.92125
#
# Compressibility (1/GPa) = 0.01464203
#
# Stress axis : x y z
#
# Youngs Moduli (GPa) = 58.97022 77.51125 57.42107
#
# Poissons Ratio (x) = 0.33679 0.38335
# Poissons Ratio (y) = 0.25623 0.30404
# Poissons Ratio (z) = 0.39369 0.41042
#
# Static dielectric constant tensor:
#      x y z
#    x 3.192230 0.000000 0.000000 
#    y 0.000000 3.279980 0.000000 
#    z 0.000000 0.000000 2.815560 
# 
# 
# High freq. dielectric constant tensor:
#      x y z
#    x 1.635590 0.000000 0.000000 
#    y 0.000000 1.619080 0.000000 
#    z 0.000000 0.000000 1.581120 
# 
# From -- ./inp_files/35124.got.cif
#   From: 2010.03.12/outbox.cif.g09.slc.cpg/sg51_18_cif.got.tgz:35124.got - 2010.04.16 13:43:02.
