data_PCOD8207059
_publ_section_title
;
Structure prediction by ZEFSAII (Michael W. Deem and Ramdas Pophale) SiO2 
 PCOD8207059
Probable space group: P M M A
;
_chemical_formula_sum "Si O2"
_cell_formula_units_Z 64
_cell_length_a 22.978499
_cell_length_b 9.058626
_cell_length_c 17.655171
_cell_angle_alpha 90.000000
_cell_angle_beta 90.000000
_cell_angle_gamma 90.000000
_cell_volume 3674.987905
_symmetry_space_group_name_H-M "P M M A"
_symmetry_group_IT_number 51
_symmetry_cell_setting 'orthorhombic'
loop_
_space_group_symop_operation_xyz
x,y,z
1/2-x,-y,z
1/2+x,-y,-z
-x,y,-z
-x,-y,-z
1/2+x,y,-z
1/2-x,y,z
x,-y,z
loop_
_atom_site_type_symbol
_atom_site_label
_atom_site_fract_x
_atom_site_fract_y
_atom_site_fract_z
Si Si1 0.088127 0.676580 0.147771
Si Si2 0.360283 0.825471 0.409218
Si Si3 0.009547 0.835515 0.411693
Si Si4 0.684103 0.827286 0.750036
Si Si5 0.317281 0.827586 0.569780
Si Si6 0.067856 0.339272 0.985792
Si Si7 0.541919 0.676233 0.172629
Si Si8 0.590777 0.326044 0.330308
O O1 0.091913 0.500000 0.148333
O O2 0.140210 0.740985 0.196567
O O3 0.025415 0.729635 0.180680
O O4 0.095124 0.738512 0.060701
O O5 0.426210 0.773010 0.395258
O O6 0.322795 0.773150 0.337048
O O7 0.335044 0.759445 0.487782
O O8 0.357580 0.000000 0.417674
O O9 0.000000 0.847198 0.500000
O O10 0.965086 0.718588 0.378557
O O11 0.000846 0.000000 0.376286
O O12 0.750000 0.793168 0.775704
O O13 0.669672 0.000000 0.755838
O O14 0.250000 0.796580 0.584178
O O15 0.351589 0.749524 0.637554
O O16 0.332531 0.000000 0.572663
O O17 0.097700 0.500000 0.978789
O O18 0.073028 0.256856 0.903830
O O19 0.000000 0.360758 0.000000
O O20 0.541024 0.500000 0.165457
O O21 0.579701 0.728331 0.244295
O O22 0.598760 0.500000 0.334780
#
# Coordination Sequence:
#
# PCOD8207059 Si02
#       8
#     8   8   8   8   8   8   8   8
#     4   9  16  29  51  74  95 121 156 194 230 275
#     4   9  17  32  52  70  88 119 163 203 233 273
#     4  10  18  31  50  70  95 124 159 199 236 280
#     4  10  20  32  46  66  94 128 162 194 234 283
#     4  10  20  36  55  68  84 120 170 211 236 269
#     4   7  11  23  46  72  94 118 149 182 218 270
#     4   8  15  28  47  74 102 125 149 185 240 295
#     4  11  21  31  47  73 104 128 150 189 243 295
#
# _framework density 17.415023999999999
#
# number of rings (size 3 to 8) (size 9 to 14) (size 15 to 20)
#    0.000    2.750    1.250    3.000    0.000    2.250 
#    0.000    1.250    0.000    7.125    0.000    5.250 
#    0.000    0.000    0.000    0.000    0.000    0.000 
#
# Total GULP energy -792988.681797 kJ/mol
# GULP energy per Si atom -12390.448153 kJ/mol
# Density = 1.737539 g / cm^3
# Si number density = 17.415024 Si / 1000 Ang^3
#
#
#
# Elastic Constant Matrix: (Units=GPa)
#
#
# Indices 1 2 3 4 5 6 
#
# 1 95.6298 32.8218 70.9366 0.0000 0.0000 0.0000
# 2 32.8218 30.4499 34.1862 0.0000 0.0000 0.0000
# 3 70.9366 34.1862 150.5488 0.0000 0.0000 0.0000
# 4 0.0000 0.0000 0.0000 15.5496 0.0000 0.0000
# 5 0.0000 0.0000 0.0000 0.0000 21.0520 0.0000
# 6 0.0000 0.0000 0.0000 0.0000 0.0000 23.7653
#
#
#
# Elastic Compliance Matrix: (Units=1/GPa)
#
#
# Indices 1 2 3 4 5 6 
#
# 1 0.020043 -0.014766 -0.006091 0.000000 0.000000 0.000000
# 2 -0.014766 0.054956 -0.005522 0.000000 0.000000 0.000000
# 3 -0.006091 -0.005522 0.010766 0.000000 0.000000 0.000000
# 4 0.000000 0.000000 0.000000 0.064310 0.000000 0.000000
# 5 0.000000 0.000000 0.000000 0.000000 0.047501 0.000000
# 6 0.000000 0.000000 0.000000 0.000000 0.000000 0.042078
#
#
# Mechanical properties :
#
#
# Convention : Reuss Voigt Hill
#
# Bulk Modulus (GPa) = 30.29562 61.39084 45.84323
# Shear Modulus (GPa) = 16.47904 21.31898 18.89901
#
# Velocity S-wave (km/s) = 3.07946 3.50261 3.29783
# Velocity P-wave (km/s) = 5.48435 7.18929 6.39391
#
# Compressibility (1/GPa) = 0.03300807
#
# Stress axis : x y z
#
# Youngs Moduli (GPa) = 49.89233 18.19631 92.88270
#
# Poissons Ratio (x) = 0.26869 0.56576
# Poissons Ratio (y) = 0.73671 0.51288
# Poissons Ratio (z) = 0.30390 0.10048
#
# Static dielectric constant tensor:
#      x y z
#    x 3.118140 0.000000 0.000000 
#    y 0.000000 2.878560 0.000000 
#    z 0.000000 0.000000 4.080430 
# 
# 
# High freq. dielectric constant tensor:
#      x y z
#    x 1.655390 0.000000 0.000000 
#    y 0.000000 1.628840 0.000000 
#    z 0.000000 0.000000 1.685280 
# 
# From -- ./inp_files/30831.got.cif
#   From: 2010.03.12/outbox.cif.g09.slc.cpg/sg51_16_cif.got.tgz:30831.got - 2010.04.16 13:43:02.
