data_PCOD8207896
_publ_section_title
;
Structure prediction by ZEFSAII (Michael W. Deem and Ramdas Pophale) SiO2 
 PCOD8207896
Probable space group: P M M A
;
_chemical_formula_sum "Si O2"
_cell_formula_units_Z 40
_cell_length_a 9.501835
_cell_length_b 13.176738
_cell_length_c 19.533402
_cell_angle_alpha 90.000000
_cell_angle_beta 90.000000
_cell_angle_gamma 90.000000
_cell_volume 2445.644248
_symmetry_space_group_name_H-M "P M M A"
_symmetry_group_IT_number 51
_symmetry_cell_setting 'orthorhombic'
loop_
_space_group_symop_operation_xyz
x,y,z
1/2-x,-y,z
1/2+x,-y,-z
-x,y,-z
-x,-y,-z
1/2+x,y,-z
1/2-x,y,z
x,-y,z
loop_
_atom_site_type_symbol
_atom_site_label
_atom_site_fract_x
_atom_site_fract_y
_atom_site_fract_z
Si Si1 0.589419 0.704352 0.663906
Si Si2 0.089684 0.382997 0.192287
Si Si3 0.909226 0.379498 0.063046
Si Si4 0.587645 0.885301 0.566360
Si Si5 0.903717 0.383693 0.441833
O O1 0.750000 0.673488 0.646369
O O2 0.564514 0.694952 0.745050
O O3 0.553726 0.815477 0.632856
O O4 0.483123 0.624441 0.630150
O O5 0.250000 0.374248 0.165427
O O6 0.059520 0.500000 0.214232
O O7 0.984624 0.346295 0.133144
O O8 0.750000 0.335789 0.061231
O O9 0.905244 0.500000 0.057698
O O10 0.000000 0.334701 0.000000
O O11 0.500000 0.850424 0.500000
O O12 0.750000 0.876652 0.545721
O O13 0.547332 0.000000 0.587706
O O14 0.750000 0.330490 0.439594
O O15 0.881814 0.500000 0.460769
O O16 0.000000 0.330009 0.500000
#
# Coordination Sequence:
#
# PCOD8207896 Si02
#       5
#     8   8   8   8   8
#     4  10  19  30  45  63  84 111 141 175 216 259
#     4   9  17  28  41  59  85 115 144 173 206 246
#     4   9  16  26  41  60  83 113 147 178 205 236
#     4   9  18  32  48  65  84 107 139 180 224 267
#     4  10  20  31  42  57  79 108 141 175 209 248
#
# _framework density 16.355609000000001
#
# number of rings (size 3 to 8) (size 9 to 14) (size 15 to 20)
#    0.000    2.600    0.000    2.400    0.000    7.600 
#    0.000    2.000    0.000    0.000    0.000    0.000 
#    0.000    0.800    0.000    1.400    0.000    2.000 
#
# Total GULP energy -495785.227281 kJ/mol
# GULP energy per Si atom -12394.630682 kJ/mol
# Density = 1.631838 g / cm^3
# Si number density = 16.355609 Si / 1000 Ang^3
#
#
#
# Elastic Constant Matrix: (Units=GPa)
#
#
# Indices 1 2 3 4 5 6 
#
# 1 128.0996 25.6842 76.8272 0.0000 0.0000 0.0000
# 2 25.6842 50.6599 35.9716 0.0000 0.0000 0.0000
# 3 76.8272 35.9716 123.4898 0.0000 0.0000 0.0000
# 4 0.0000 0.0000 0.0000 15.9229 0.0000 0.0000
# 5 0.0000 0.0000 0.0000 0.0000 31.4725 0.0000
# 6 0.0000 0.0000 0.0000 0.0000 0.0000 10.6024
#
#
#
# Elastic Compliance Matrix: (Units=1/GPa)
#
#
# Indices 1 2 3 4 5 6 
#
# 1 0.012495 -0.001028 -0.007474 0.000000 0.000000 0.000000
# 2 -0.001028 0.024972 -0.006635 0.000000 0.000000 0.000000
# 3 -0.007474 -0.006635 0.014680 0.000000 0.000000 0.000000
# 4 0.000000 0.000000 0.000000 0.062802 0.000000 0.000000
# 5 0.000000 0.000000 0.000000 0.000000 0.031774 0.000000
# 6 0.000000 0.000000 0.000000 0.000000 0.000000 0.094319
#
#
# Mechanical properties :
#
#
# Convention : Reuss Voigt Hill
#
# Bulk Modulus (GPa) = 45.71670 64.35726 55.03698
# Shear Modulus (GPa) = 17.94645 22.51731 20.23188
#
# Velocity S-wave (km/s) = 3.31609 3.71446 3.52092
# Velocity P-wave (km/s) = 6.53256 7.60463 7.08889
#
# Compressibility (1/GPa) = 0.02187384
#
# Stress axis : x y z
#
# Youngs Moduli (GPa) = 80.03094 40.04560 68.11776
#
# Poissons Ratio (x) = 0.04116 0.50913
# Poissons Ratio (y) = 0.08225 0.45194
# Poissons Ratio (z) = 0.59817 0.26569
#
# Static dielectric constant tensor:
#      x y z
#    x 3.398680 0.000000 0.000000 
#    y 0.000000 2.791310 0.000000 
#    z 0.000000 0.000000 3.011520 
# 
# 
# High freq. dielectric constant tensor:
#      x y z
#    x 1.645040 0.000000 0.000000 
#    y 0.000000 1.580850 0.000000 
#    z 0.000000 0.000000 1.616830 
# 
# From -- ./inp_files/27203.got.cif
#   From: 2010.03.12/outbox.cif.g09.slc.cpg/sg51_14_cif.got.tgz:27203.got - 2010.04.16 13:43:02.
