data_PCOD8207635
_publ_section_title
;
Structure prediction by ZEFSAII (Michael W. Deem and Ramdas Pophale) SiO2 
 PCOD8207635
Probable space group: P M M A
;
_chemical_formula_sum "Si O2"
_cell_formula_units_Z 56
_cell_length_a 27.751792
_cell_length_b 9.120236
_cell_length_c 15.369959
_cell_angle_alpha 90.000000
_cell_angle_beta 90.000000
_cell_angle_gamma 90.000000
_cell_volume 3890.181080
_symmetry_space_group_name_H-M "P M M A"
_symmetry_group_IT_number 51
_symmetry_cell_setting 'orthorhombic'
loop_
_space_group_symop_operation_xyz
x,y,z
1/2-x,-y,z
1/2+x,-y,-z
-x,y,-z
-x,-y,-z
1/2+x,y,-z
1/2-x,y,z
x,-y,z
loop_
_atom_site_type_symbol
_atom_site_label
_atom_site_fract_x
_atom_site_fract_y
_atom_site_fract_z
Si Si1 0.806895 0.168804 0.730507
Si Si2 0.692740 0.837511 0.065042
Si Si3 0.128821 0.334333 0.603887
Si Si4 0.133325 0.666047 0.412378
Si Si5 0.692603 0.335872 0.900882
Si Si6 0.194582 0.827713 0.740865
Si Si7 0.055760 0.826975 0.502666
O O1 0.750000 0.187623 0.721628
O O2 0.830253 0.251708 0.650156
O O3 0.825862 0.238780 0.820370
O O4 0.822497 0.000000 0.729379
O O5 0.750000 0.844326 0.059910
O O6 0.677896 0.783951 0.161451
O O7 0.671938 0.000000 0.047413
O O8 0.671877 0.729756 0.991157
O O9 0.116049 0.500000 0.632575
O O10 0.156217 0.334836 0.510029
O O11 0.162342 0.262126 0.675111
O O12 0.079226 0.241098 0.591168
O O13 0.124636 0.500000 0.379173
O O14 0.082064 0.752717 0.418633
O O15 0.750000 0.335712 0.903376
O O16 0.672419 0.500000 0.890284
O O17 0.250000 0.783379 0.725820
O O18 0.187484 0.000000 0.725401
O O19 0.000000 0.785177 0.500000
O O20 0.064366 0.000000 0.500800
#
# Coordination Sequence:
#
# PCOD8207635 Si02
#       7
#     8   8   8   8   8   8   8
#     4  10  19  29  42  59  82 115 149 179 209 244
#     4   8  14  25  39  55  76 105 142 179 212 244
#     4   9  19  30  42  62  86 112 139 173 210 249
#     4   9  19  31  43  62  86 111 138 173 210 249
#     4   9  16  25  38  56  78 106 140 178 215 248
#     4   9  17  28  42  59  83 116 149 180 210 243
#     4   9  17  31  50  66  81 104 134 170 210 251
#
# _framework density 14.395216
#
# number of rings (size 3 to 8) (size 9 to 14) (size 15 to 20)
#    0.857    2.143    0.000    2.571    0.000    5.143 
#    0.000    4.286    0.000    0.000    0.000    0.000 
#    0.000    1.143    0.000   12.000    0.000    6.286 
#
# Total GULP energy -693866.022754 kJ/mol
# GULP energy per Si atom -12390.464692 kJ/mol
# Density = 1.436245 g / cm^3
# Si number density = 14.395216 Si / 1000 Ang^3
#
#
#
# Elastic Constant Matrix: (Units=GPa)
#
#
# Indices 1 2 3 4 5 6 
#
# 1 38.8837 40.8310 31.4629 0.0000 0.0000 0.0000
# 2 40.8310 117.2152 58.2979 0.0000 0.0000 0.0000
# 3 31.4629 58.2979 91.8337 0.0000 0.0000 0.0000
# 4 0.0000 0.0000 0.0000 27.1747 0.0000 0.0000
# 5 0.0000 0.0000 0.0000 0.0000 -1.1825 0.0000
# 6 0.0000 0.0000 0.0000 0.0000 0.0000 15.6192
#
#
#
# Elastic Compliance Matrix: (Units=1/GPa)
#
#
# Indices 1 2 3 4 5 6 
#
# 1 0.044091 -0.011466 -0.007827 0.000000 0.000000 0.000000
# 2 -0.011466 0.015450 -0.005879 0.000000 0.000000 0.000000
# 3 -0.007827 -0.005879 0.017303 0.000000 0.000000 0.000000
# 4 0.000000 0.000000 0.000000 0.036799 0.000000 0.000000
# 5 0.000000 0.000000 0.000000 0.000000 -0.845698 0.000000
# 6 0.000000 0.000000 0.000000 0.000000 0.000000 0.064024
#
#
# Mechanical properties :
#
#
# Convention : Reuss Voigt Hill
#
# Bulk Modulus (GPa) = 37.73716 56.56847 47.15282
# Shear Modulus (GPa) = -8.21216 16.14500 3.96642
#
# Velocity S-wave (km/s) = -2.39106 3.35259 1.66173
# Velocity P-wave (km/s) = 4.31846 7.37350 6.04225
#
# Compressibility (1/GPa) = 0.02649908
#
# Stress axis : x y z
#
# Youngs Moduli (GPa) = 22.68021 64.72691 57.79262
#
# Poissons Ratio (x) = 0.74215 0.45236
# Poissons Ratio (y) = 0.26005 0.33978
# Poissons Ratio (z) = 0.17752 0.38055
#
# Static dielectric constant tensor:
#      x y z
#    x 2.362810 0.000000 0.000000 
#    y 0.000000 2.986010 0.000000 
#    z 0.000000 0.000000 2.845390 
# 
# 
# High freq. dielectric constant tensor:
#      x y z
#    x 1.492860 0.000000 0.000000 
#    y 0.000000 1.568590 0.000000 
#    z 0.000000 0.000000 1.546820 
# 
# From -- ./inp_files/26550.got.cif
#   From: 2010.03.12/outbox.cif.g09.slc.cpg/sg51_14_cif.got.tgz:26550.got - 2010.04.16 13:43:02.
