data_PCOD8207009
_publ_section_title
;
Structure prediction by ZEFSAII (Michael W. Deem and Ramdas Pophale) SiO2 
 PCOD8207009
Probable space group: P M M A
;
_chemical_formula_sum "Si O2"
_cell_formula_units_Z 44
_cell_length_a 8.724541
_cell_length_b 28.949849
_cell_length_c 9.177158
_cell_angle_alpha 90.000000
_cell_angle_beta 90.000000
_cell_angle_gamma 90.000000
_cell_volume 2317.912831
_symmetry_space_group_name_H-M "P M M A"
_symmetry_group_IT_number 51
_symmetry_cell_setting 'orthorhombic'
loop_
_space_group_symop_operation_xyz
x,y,z
1/2-x,-y,z
1/2+x,-y,-z
-x,y,-z
-x,-y,-z
1/2+x,y,-z
1/2-x,y,z
x,-y,z
loop_
_atom_site_type_symbol
_atom_site_label
_atom_site_fract_x
_atom_site_fract_y
_atom_site_fract_z
Si Si1 0.929440 0.682638 0.341729
Si Si2 0.071154 0.407757 0.842649
Si Si3 0.431502 0.764856 0.158817
Si Si4 0.430334 0.951272 0.341791
Si Si5 0.568218 0.500000 0.838757
Si Si6 0.431184 0.851462 0.340550
O O1 0.750000 0.693615 0.350607
O O2 0.963510 0.634912 0.261075
O O3 0.000000 0.678740 0.500000
O O4 0.013206 0.723110 0.257088
O O5 0.250000 0.416991 0.863853
O O6 0.994760 0.452902 0.765523
O O7 0.000000 0.397010 0.000000
O O8 0.250000 0.763720 0.147331
O O9 0.491863 0.812578 0.230237
O O10 0.500000 0.759707 0.000000
O O11 0.500000 0.952673 0.500000
O O12 0.250000 0.950722 0.359076
O O13 0.480779 0.901945 0.271925
O O14 0.479457 0.000000 0.259968
O O15 0.750000 0.500000 0.837463
O O16 0.500000 0.500000 0.000000
O O17 0.500000 0.843265 0.500000
O O18 0.250000 0.847679 0.357883
#
# Coordination Sequence:
#
# PCOD8207009 Si02
#       6
#     8   8   8   8   4   8
#     4  11  24  40  59  82 109 141 177 219 267 318
#     4  10  20  35  56  82 111 143 179 219 261 307
#     4  11  23  38  56  77 104 137 176 220 266 319
#     4   8  13  23  41  66  96 128 163 204 250 301
#     4  10  18  30  53  82 111 144 180 218 258 304
#     4   9  18  31  49  75 103 133 169 211 260 311
#
# _framework density 18.982593999999999
#
# number of rings (size 3 to 8) (size 9 to 14) (size 15 to 20)
#    0.000    2.182    0.000    4.636    0.000    7.273 
#    0.000    0.455    0.000    0.545    0.000    0.000 
#    0.000    0.000    0.000    0.000    0.000    0.182 
#
# Total GULP energy -545157.790958 kJ/mol
# GULP energy per Si atom -12389.949794 kJ/mol
# Density = 1.893939 g / cm^3
# Si number density = 18.982594 Si / 1000 Ang^3
#
#
#
# Elastic Constant Matrix: (Units=GPa)
#
#
# Indices 1 2 3 4 5 6 
#
# 1 76.9675 65.5528 37.5768 0.0000 0.0000 0.0000
# 2 65.5528 184.2434 64.8333 0.0000 0.0000 0.0000
# 3 37.5768 64.8333 93.7134 0.0000 0.0000 0.0000
# 4 0.0000 0.0000 0.0000 29.8611 0.0000 0.0000
# 5 0.0000 0.0000 0.0000 0.0000 25.5400 0.0000
# 6 0.0000 0.0000 0.0000 0.0000 0.0000 35.7291
#
#
#
# Elastic Compliance Matrix: (Units=1/GPa)
#
#
# Indices 1 2 3 4 5 6 
#
# 1 0.019734 -0.005600 -0.004038 0.000000 0.000000 0.000000
# 2 -0.005600 0.008763 -0.003817 0.000000 0.000000 0.000000
# 3 -0.004038 -0.003817 0.014931 0.000000 0.000000 0.000000
# 4 0.000000 0.000000 0.000000 0.033488 0.000000 0.000000
# 5 0.000000 0.000000 0.000000 0.000000 0.039154 0.000000
# 6 0.000000 0.000000 0.000000 0.000000 0.000000 0.027988
#
#
# Mechanical properties :
#
#
# Convention : Reuss Voigt Hill
#
# Bulk Modulus (GPa) = 60.54536 76.76113 68.65324
# Shear Modulus (GPa) = 28.33250 30.69015 29.51132
#
# Velocity S-wave (km/s) = 3.86755 4.02525 3.94718
# Velocity P-wave (km/s) = 7.20474 7.88219 7.55107
#
# Compressibility (1/GPa) = 0.01651654
#
# Stress axis : x y z
#
# Youngs Moduli (GPa) = 50.67484 114.11244 66.97477
#
# Poissons Ratio (x) = 0.63903 0.27048
# Poissons Ratio (y) = 0.28378 0.25566
# Poissons Ratio (z) = 0.20465 0.43559
#
# Static dielectric constant tensor:
#      x y z
#    x 3.577000 0.000000 0.000000 
#    y 0.000000 4.568920 0.000000 
#    z 0.000000 0.000000 3.162150 
# 
# 
# High freq. dielectric constant tensor:
#      x y z
#    x 1.745660 0.000000 0.000000 
#    y 0.000000 1.776160 0.000000 
#    z 0.000000 0.000000 1.693710 
# 
# From -- ./inp_files/5741.got.cif
#   From: 2010.03.12/outbox.cif.g09.slc.cpg/sg51_3_cif.got.tgz:5741.got - 2010.04.16 13:43:02.
