data_PCOD8207806
_publ_section_title
;
Structure prediction by ZEFSAII (Michael W. Deem and Ramdas Pophale) SiO2 
 PCOD8207806
Probable space group: P M M A
;
_chemical_formula_sum "Si O2"
_cell_formula_units_Z 52
_cell_length_a 9.026132
_cell_length_b 12.558405
_cell_length_c 30.262396
_cell_angle_alpha 90.000000
_cell_angle_beta 90.000000
_cell_angle_gamma 90.000000
_cell_volume 3430.358226
_symmetry_space_group_name_H-M "P M M A"
_symmetry_group_IT_number 51
_symmetry_cell_setting 'orthorhombic'
loop_
_space_group_symop_operation_xyz
x,y,z
1/2-x,-y,z
1/2+x,-y,-z
-x,y,-z
-x,-y,-z
1/2+x,y,-z
1/2-x,y,z
x,-y,z
loop_
_atom_site_type_symbol
_atom_site_label
_atom_site_fract_x
_atom_site_fract_y
_atom_site_fract_z
Si Si1 0.576072 0.684758 0.102658
Si Si2 0.415732 0.373341 0.723159
Si Si3 0.916568 0.627258 0.638311
Si Si4 0.423469 0.622079 0.457886
Si Si5 0.927624 0.500000 0.952126
Si Si6 0.920780 0.374054 0.810617
Si Si7 0.578386 0.880935 0.044042
O O1 0.750000 0.654817 0.100544
O O2 0.480870 0.603518 0.073835
O O3 0.519703 0.683905 0.152746
O O4 0.544345 0.803033 0.084689
O O5 0.250000 0.329143 0.730044
O O6 0.415495 0.500000 0.721302
O O7 0.478589 0.327374 0.676958
O O8 0.519312 0.334935 0.763257
O O9 0.750000 0.666478 0.648135
O O10 0.918751 0.500000 0.637316
O O11 0.969747 0.670914 0.590051
O O12 0.500000 0.680662 0.500000
O O13 0.250000 0.632829 0.464208
O O14 0.475409 0.500000 0.457683
O O15 0.750000 0.500000 0.955606
O O16 0.000000 0.500000 0.000000
O O17 0.750000 0.340131 0.815134
O O18 0.939797 0.500000 0.816506
O O19 0.750000 0.881757 0.032696
O O20 0.522386 0.000000 0.056459
O O21 0.500000 0.837730 0.000000
#
# Coordination Sequence:
#
# PCOD8207806 Si02
#       7
#     8   8   8   8   4   8   8
#     4  11  21  33  50  69  90 114 139 170 202 240
#     4   9  16  24  35  50  67  89 119 154 188 229
#     4   8  13  21  30  40  56  79 108 142 183 230
#     4   8  13  19  26  36  51  72  99 135 180 228
#     4  12  24  36  48  66  92 118 142 168 199 240
#     4  10  19  30  43  59  81 108 133 161 196 240
#     4   9  19  35  53  72  91 112 138 168 202 237
#
# _framework density 15.158768
#
# number of rings (size 3 to 8) (size 9 to 14) (size 15 to 20)
#    0.000    2.615    0.769    3.462    0.000    5.538 
#    0.000    3.077    0.000    0.000    0.000    0.000 
#    0.000    0.000    0.000    0.000    0.000    0.000 
#
# Total GULP energy -644511.842518 kJ/mol
# GULP energy per Si atom -12394.458510 kJ/mol
# Density = 1.512427 g / cm^3
# Si number density = 15.158768 Si / 1000 Ang^3
#
#
#
# Elastic Constant Matrix: (Units=GPa)
#
#
# Indices 1 2 3 4 5 6 
#
# 1 86.3861 21.3312 57.0748 0.0000 0.0000 0.0000
# 2 21.3312 31.8249 25.9693 0.0000 0.0000 0.0000
# 3 57.0748 25.9693 140.1812 0.0000 0.0000 0.0000
# 4 0.0000 0.0000 0.0000 5.1285 0.0000 0.0000
# 5 0.0000 0.0000 0.0000 0.0000 33.7278 0.0000
# 6 0.0000 0.0000 0.0000 0.0000 0.0000 7.7753
#
#
#
# Elastic Compliance Matrix: (Units=1/GPa)
#
#
# Indices 1 2 3 4 5 6 
#
# 1 0.016988 -0.006765 -0.005663 0.000000 0.000000 0.000000
# 2 -0.006765 0.039712 -0.004602 0.000000 0.000000 0.000000
# 3 -0.005663 -0.004602 0.010292 0.000000 0.000000 0.000000
# 4 0.000000 0.000000 0.000000 0.194988 0.000000 0.000000
# 5 0.000000 0.000000 0.000000 0.000000 0.029649 0.000000
# 6 0.000000 0.000000 0.000000 0.000000 0.000000 0.128612
#
#
# Mechanical properties :
#
#
# Convention : Reuss Voigt Hill
#
# Bulk Modulus (GPa) = 30.36727 51.90476 41.13602
# Shear Modulus (GPa) = 10.74620 19.59413 15.17017
#
# Velocity S-wave (km/s) = 2.66543 3.59917 3.16690
# Velocity P-wave (km/s) = 5.43589 7.18241 6.36930
#
# Compressibility (1/GPa) = 0.03293019
#
# Stress axis : x y z
#
# Youngs Moduli (GPa) = 58.86402 25.18129 97.16170
#
# Poissons Ratio (x) = 0.17036 0.55027
# Poissons Ratio (y) = 0.39823 0.44717
# Poissons Ratio (z) = 0.33338 0.11589
#
# Static dielectric constant tensor:
#      x y z
#    x 3.044420 0.000000 0.000000 
#    y 0.000000 2.332160 0.000000 
#    z 0.000000 0.000000 3.290420 
# 
# 
# High freq. dielectric constant tensor:
#      x y z
#    x 1.592630 0.000000 0.000000 
#    y 0.000000 1.496190 0.000000 
#    z 0.000000 0.000000 1.598280 
# 
# From -- ./inp_files/37359.got.cif
#   From: 2010.03.12/outbox.cif.g09.slc.cpg/sg51_19_cif.got.tgz:37359.got - 2010.04.16 13:43:02.
