data_PCOD8207622
_publ_section_title
;
Structure prediction by ZEFSAII (Michael W. Deem and Ramdas Pophale) SiO2 
 PCOD8207622
Probable space group: P M M A
;
_chemical_formula_sum "Si O2"
_cell_formula_units_Z 44
_cell_length_a 9.103363
_cell_length_b 12.697045
_cell_length_c 24.753673
_cell_angle_alpha 90.000000
_cell_angle_beta 90.000000
_cell_angle_gamma 90.000000
_cell_volume 2861.173336
_symmetry_space_group_name_H-M "P M M A"
_symmetry_group_IT_number 51
_symmetry_cell_setting 'orthorhombic'
loop_
_space_group_symop_operation_xyz
x,y,z
1/2-x,-y,z
1/2+x,-y,-z
-x,y,-z
-x,-y,-z
1/2+x,y,-z
1/2-x,y,z
x,-y,z
loop_
_atom_site_type_symbol
_atom_site_label
_atom_site_fract_x
_atom_site_fract_y
_atom_site_fract_z
Si Si1 0.578074 0.500000 0.556984
Si Si2 0.583747 0.625594 0.052848
Si Si3 0.422187 0.622469 0.734657
Si Si4 0.084029 0.625291 0.157919
Si Si5 0.078961 0.881122 0.445981
Si Si6 0.078080 0.305282 0.369323
O O1 0.750000 0.500000 0.545781
O O2 0.500000 0.500000 0.500000
O O3 0.528978 0.602457 0.590250
O O4 0.750000 0.668809 0.052615
O O5 0.584195 0.500000 0.053264
O O6 0.500217 0.669882 0.105513
O O7 0.500000 0.668221 0.000000
O O8 0.250000 0.642251 0.740431
O O9 0.458703 0.500000 0.724848
O O10 0.499563 0.664449 0.788858
O O11 0.485493 0.689132 0.685252
O O12 0.250000 0.669365 0.158423
O O13 0.084787 0.500000 0.155903
O O14 0.250000 0.874122 0.458535
O O15 0.037306 0.806143 0.396250
O O16 0.000000 0.841136 0.500000
O O17 0.030246 0.000000 0.430972
O O18 0.250000 0.315163 0.355269
#
# Coordination Sequence:
#
# PCOD8207622 Si02
#       6
#     4   8   8   8   8   8
#     4  10  20  30  42  60  82 106 131 160 199 242
#     4   9  15  22  32  47  68  94 129 172 212 247
#     4  10  19  29  41  58  79 104 135 170 205 245
#     4   9  16  25  37  51  70  99 132 167 207 248
#     4   9  18  32  49  67  85 106 133 166 204 246
#     4  10  19  31  45  61  83 109 135 165 202 247
#
# _framework density 15.378304999999999
#
# number of rings (size 3 to 8) (size 9 to 14) (size 15 to 20)
#    0.000    2.545    0.909    2.182    0.000    6.545 
#    0.000    0.000    0.000    0.000    0.000    0.000 
#    0.000    0.000    0.000    0.000    0.000    0.909 
#
# Total GULP energy -545637.980745 kJ/mol
# GULP energy per Si atom -12400.863199 kJ/mol
# Density = 1.534330 g / cm^3
# Si number density = 15.378305 Si / 1000 Ang^3
#
#
#
# Elastic Constant Matrix: (Units=GPa)
#
#
# Indices 1 2 3 4 5 6 
#
# 1 101.4731 24.8201 76.9765 0.0000 0.0000 0.0000
# 2 24.8201 41.9748 35.3998 0.0000 0.0000 0.0000
# 3 76.9765 35.3998 156.7052 0.0000 0.0000 0.0000
# 4 0.0000 0.0000 0.0000 9.8444 0.0000 0.0000
# 5 0.0000 0.0000 0.0000 0.0000 37.1532 0.0000
# 6 0.0000 0.0000 0.0000 0.0000 0.0000 9.0715
#
#
#
# Elastic Compliance Matrix: (Units=1/GPa)
#
#
# Indices 1 2 3 4 5 6 
#
# 1 0.016120 -0.003525 -0.007122 0.000000 0.000000 0.000000
# 2 -0.003525 0.030202 -0.005091 0.000000 0.000000 0.000000
# 3 -0.007122 -0.005091 0.011030 0.000000 0.000000 0.000000
# 4 0.000000 0.000000 0.000000 0.101580 0.000000 0.000000
# 5 0.000000 0.000000 0.000000 0.000000 0.026916 0.000000
# 6 0.000000 0.000000 0.000000 0.000000 0.000000 0.110235
#
#
# Mechanical properties :
#
#
# Convention : Reuss Voigt Hill
#
# Bulk Modulus (GPa) = 38.64726 63.83841 51.24284
# Shear Modulus (GPa) = 14.87283 22.07762 18.47522
#
# Velocity S-wave (km/s) = 3.11325 3.79309 3.46986
# Velocity P-wave (km/s) = 6.17322 7.79650 7.03186
#
# Compressibility (1/GPa) = 0.02587506
#
# Stress axis : x y z
#
# Youngs Moduli (GPa) = 62.03568 33.11054 90.66297
#
# Poissons Ratio (x) = 0.11673 0.64569
# Poissons Ratio (y) = 0.21870 0.46155
# Poissons Ratio (z) = 0.44181 0.16856
#
# Static dielectric constant tensor:
#      x y z
#    x 3.048640 0.000000 0.000000 
#    y 0.000000 2.573650 0.000000 
#    z 0.000000 0.000000 3.038910 
# 
# 
# High freq. dielectric constant tensor:
#      x y z
#    x 1.602230 0.000000 0.000000 
#    y 0.000000 1.521300 0.000000 
#    z 0.000000 0.000000 1.599470 
# 
# From -- ./inp_files/34525.got.cif
#   From: 2010.03.12/outbox.cif.g09.slc.cpg/sg51_18_cif.got.tgz:34525.got - 2010.04.16 13:43:02.
