data_PCOD8207488
_publ_section_title
;
Structure prediction by ZEFSAII (Michael W. Deem and Ramdas Pophale) SiO2 
 PCOD8207488
Probable space group: P M M A
;
_chemical_formula_sum "Si O2"
_cell_formula_units_Z 56
_cell_length_a 15.088191
_cell_length_b 8.818762
_cell_length_c 21.286709
_cell_angle_alpha 90.000000
_cell_angle_beta 90.000000
_cell_angle_gamma 90.000000
_cell_volume 2832.391734
_symmetry_space_group_name_H-M "P M M A"
_symmetry_group_IT_number 51
_symmetry_cell_setting 'orthorhombic'
loop_
_space_group_symop_operation_xyz
x,y,z
1/2-x,-y,z
1/2+x,-y,-z
-x,y,-z
-x,-y,-z
1/2+x,y,-z
1/2-x,y,z
x,-y,z
loop_
_atom_site_type_symbol
_atom_site_label
_atom_site_fract_x
_atom_site_fract_y
_atom_site_fract_z
Si Si1 0.649470 0.672389 0.876227
Si Si2 0.604791 0.172620 0.001849
Si Si3 0.351197 0.323004 0.449886
Si Si4 0.507325 0.678899 0.652818
Si Si5 0.351202 0.821578 0.580842
Si Si6 0.347869 0.179354 0.861479
Si Si7 0.514231 0.821286 0.785273
O O1 0.750000 0.683299 0.851985
O O2 0.614472 0.500000 0.870229
O O3 0.646200 0.722815 0.948437
O O4 0.591077 0.784825 0.834558
O O5 0.638544 0.000000 0.992640
O O6 0.500000 0.178732 0.000000
O O7 0.636587 0.242093 0.068314
O O8 0.250000 0.284375 0.430898
O O9 0.363141 0.500000 0.463922
O O10 0.415083 0.267702 0.394284
O O11 0.380367 0.234974 0.512282
O O12 0.498743 0.500000 0.653518
O O13 0.412999 0.748038 0.633507
O O14 0.535046 0.736573 0.720925
O O15 0.250000 0.772703 0.594934
O O16 0.362808 0.000000 0.583834
O O17 0.250000 0.227257 0.837643
O O18 0.420902 0.241521 0.812848
O O19 0.358940 0.000000 0.865168
O O20 0.511285 0.000000 0.773148
#
# Coordination Sequence:
#
# PCOD8207488 Si02
#       7
#     8   8   8   8   8   8   8
#     4  11  24  40  58  83 116 153 192 238 293 347
#     4  10  18  34  61  89 113 142 185 236 289 347
#     4   9  19  37  60  85 115 150 186 230 287 349
#     4  11  23  38  58  85 117 155 195 234 288 349
#     4  10  21  37  59  88 119 151 191 239 285 332
#     4   9  18  34  57  83 111 144 183 231 287 343
#     4  11  23  40  59  82 113 152 198 242 286 340
#
# _framework density 19.771276
#
# number of rings (size 3 to 8) (size 9 to 14) (size 15 to 20)
#    0.000    1.857    1.429    2.571    0.000    6.857 
#    0.000    2.857    0.000    2.143    0.000    0.000 
#    0.000    0.000    0.000    0.000    0.000    0.000 
#
# Total GULP energy -694594.500935 kJ/mol
# GULP energy per Si atom -12403.473231 kJ/mol
# Density = 1.972628 g / cm^3
# Si number density = 19.771276 Si / 1000 Ang^3
#
#
#
# Elastic Constant Matrix: (Units=GPa)
#
#
# Indices 1 2 3 4 5 6 
#
# 1 86.3754 19.5885 22.4277 0.0000 0.0000 0.0000
# 2 19.5885 43.5036 17.4721 0.0000 0.0000 0.0000
# 3 22.4277 17.4721 79.8720 0.0000 0.0000 0.0000
# 4 0.0000 0.0000 0.0000 11.1746 0.0000 0.0000
# 5 0.0000 0.0000 0.0000 0.0000 15.7051 0.0000
# 6 0.0000 0.0000 0.0000 0.0000 0.0000 26.7168
#
#
#
# Elastic Compliance Matrix: (Units=1/GPa)
#
#
# Indices 1 2 3 4 5 6 
#
# 1 0.013397 -0.004957 -0.002677 0.000000 0.000000 0.000000
# 2 -0.004957 0.027035 -0.004522 0.000000 0.000000 0.000000
# 3 -0.002677 -0.004522 0.014261 0.000000 0.000000 0.000000
# 4 0.000000 0.000000 0.000000 0.089489 0.000000 0.000000
# 5 0.000000 0.000000 0.000000 0.000000 0.063674 0.000000
# 6 0.000000 0.000000 0.000000 0.000000 0.000000 0.037430
#
#
# Mechanical properties :
#
#
# Convention : Reuss Voigt Hill
#
# Bulk Modulus (GPa) = 32.91652 36.52528 34.72090
# Shear Modulus (GPa) = 17.87479 20.73682 19.30580
#
# Velocity S-wave (km/s) = 3.01005 3.24209 3.12822
# Velocity P-wave (km/s) = 5.36333 5.70341 5.53598
#
# Compressibility (1/GPa) = 0.03037988
#
# Stress axis : x y z
#
# Youngs Moduli (GPa) = 74.64526 36.98954 70.12114
#
# Poissons Ratio (x) = 0.18335 0.18774
# Poissons Ratio (y) = 0.37000 0.31709
# Poissons Ratio (z) = 0.19986 0.16727
#
# Static dielectric constant tensor:
#      x y z
#    x 3.770820 0.000000 0.000000 
#    y 0.000000 3.444610 0.000000 
#    z 0.000000 0.000000 3.586940 
# 
# 
# High freq. dielectric constant tensor:
#      x y z
#    x 1.783610 0.000000 0.000000 
#    y 0.000000 1.756370 0.000000 
#    z 0.000000 0.000000 1.767750 
# 
# From -- ./inp_files/33313.got.cif
#   From: 2010.03.12/outbox.cif.g09.slc.cpg/sg51_17_cif.got.tgz:33313.got - 2010.04.16 13:43:02.
