data_PCOD8207424
_publ_section_title
;
Structure prediction by ZEFSAII (Michael W. Deem and Ramdas Pophale) SiO2 
 PCOD8207424
Probable space group: P M M A
;
_chemical_formula_sum "Si O2"
_cell_formula_units_Z 48
_cell_length_a 14.837398
_cell_length_b 15.759064
_cell_length_c 10.214696
_cell_angle_alpha 90.000000
_cell_angle_beta 90.000000
_cell_angle_gamma 90.000000
_cell_volume 2388.436018
_symmetry_space_group_name_H-M "P M M A"
_symmetry_group_IT_number 51
_symmetry_cell_setting 'orthorhombic'
loop_
_space_group_symop_operation_xyz
x,y,z
1/2-x,-y,z
1/2+x,-y,-z
-x,y,-z
-x,-y,-z
1/2+x,y,-z
1/2-x,y,z
x,-y,z
loop_
_atom_site_type_symbol
_atom_site_label
_atom_site_fract_x
_atom_site_fract_y
_atom_site_fract_z
Si Si1 0.853733 0.793178 0.250172
Si Si2 0.903590 0.500000 0.063214
Si Si3 0.641155 0.500000 0.358726
Si Si4 0.147415 0.667813 0.511554
Si Si5 0.141711 0.236413 0.262658
Si Si6 0.508536 0.901691 0.653937
Si Si7 0.851972 0.312942 0.005438
O O1 0.750000 0.822266 0.227844
O O2 0.862386 0.739774 0.381227
O O3 0.917439 0.874533 0.269309
O O4 0.892813 0.734864 0.131865
O O5 0.907048 0.500000 0.219040
O O6 0.855462 0.414639 0.013680
O O7 0.000000 0.500000 0.000000
O O8 0.750000 0.500000 0.336253
O O9 0.603519 0.419198 0.437909
O O10 0.250000 0.645757 0.481842
O O11 0.104320 0.700624 0.376216
O O12 0.250000 0.224640 0.269074
O O13 0.104393 0.277778 0.128307
O O14 0.095126 0.145770 0.285205
O O15 0.500000 0.882675 0.500000
O O16 0.524561 0.000000 0.681608
O O17 0.750000 0.284330 0.000334
#
# Coordination Sequence:
#
# PCOD8207424 Si02
#       7
#     8   4   4   8   8   8   8
#     4  10  20  38  64  90 117 156 201 248 301 359
#     4  12  24  33  52  90 125 159 207 251 289 339
#     4  10  18  33  58  85 117 158 211 251 290 348
#     4   9  17  32  58  85 113 154 197 244 292 341
#     4  10  22  40  61  90 124 160 199 245 305 366
#     4  11  24  40  64  93 119 153 197 252 312 367
#     4  10  22  40  63  86 121 168 203 243 301 357
#
# _framework density 20.096833
#
# number of rings (size 3 to 8) (size 9 to 14) (size 15 to 20)
#    0.000    1.833    3.333    0.750    2.333    1.333 
#    0.000    5.833    0.000    5.000    0.000    0.000 
#    0.000    0.000    0.000    0.000    0.000    0.000 
#
# Total GULP energy -594971.085401 kJ/mol
# GULP energy per Si atom -12395.230946 kJ/mol
# Density = 2.005109 g / cm^3
# Si number density = 20.096833 Si / 1000 Ang^3
#
#
#
# Elastic Constant Matrix: (Units=GPa)
#
#
# Indices 1 2 3 4 5 6 
#
# 1 65.7219 36.9732 31.6934 0.0000 0.0000 0.0000
# 2 36.9732 140.4795 65.0036 0.0000 0.0000 0.0000
# 3 31.6934 65.0036 146.1224 0.0000 0.0000 0.0000
# 4 0.0000 0.0000 0.0000 28.2770 0.0000 0.0000
# 5 0.0000 0.0000 0.0000 0.0000 17.3073 0.0000
# 6 0.0000 0.0000 0.0000 0.0000 0.0000 28.6004
#
#
#
# Elastic Compliance Matrix: (Units=1/GPa)
#
#
# Indices 1 2 3 4 5 6 
#
# 1 0.018465 -0.003786 -0.002321 0.000000 0.000000 0.000000
# 2 -0.003786 0.009740 -0.003512 0.000000 0.000000 0.000000
# 3 -0.002321 -0.003512 0.008909 0.000000 0.000000 0.000000
# 4 0.000000 0.000000 0.000000 0.035364 0.000000 0.000000
# 5 0.000000 0.000000 0.000000 0.000000 0.057779 0.000000
# 6 0.000000 0.000000 0.000000 0.000000 0.000000 0.034965
#
#
# Mechanical properties :
#
#
# Convention : Reuss Voigt Hill
#
# Bulk Modulus (GPa) = 55.93793 68.85160 62.39476
# Shear Modulus (GPa) = 26.25811 29.41384 27.83597
#
# Velocity S-wave (km/s) = 3.61859 3.82986 3.72572
# Velocity P-wave (km/s) = 6.73450 7.34108 7.04432
#
# Compressibility (1/GPa) = 0.01787696
#
# Stress axis : x y z
#
# Youngs Moduli (GPa) = 54.15771 102.67091 112.24429
#
# Poissons Ratio (x) = 0.38870 0.26049
# Poissons Ratio (y) = 0.20504 0.39417
# Poissons Ratio (z) = 0.12569 0.36055
#
# Static dielectric constant tensor:
#      x y z
#    x 3.519440 0.000000 0.000000 
#    y 0.000000 3.502040 0.000000 
#    z 0.000000 0.000000 4.017850 
# 
# 
# High freq. dielectric constant tensor:
#      x y z
#    x 1.774460 0.000000 0.000000 
#    y 0.000000 1.773090 0.000000 
#    z 0.000000 0.000000 1.794230 
# 
# From -- ./inp_files/8311.got.cif
#   From: 2010.03.12/outbox.cif.g09.slc.cpg/sg51_5_cif.got.tgz:8311.got - 2010.04.16 13:43:02.
