data_PCOD8207189
_publ_section_title
;
Structure prediction by ZEFSAII (Michael W. Deem and Ramdas Pophale) SiO2 
 PCOD8207189
Probable space group: P M M A
;
_chemical_formula_sum "Si O2"
_cell_formula_units_Z 64
_cell_length_a 8.902052
_cell_length_b 24.938904
_cell_length_c 14.854312
_cell_angle_alpha 90.000000
_cell_angle_beta 90.000000
_cell_angle_gamma 90.000000
_cell_volume 3297.767486
_symmetry_space_group_name_H-M "P M M A"
_symmetry_group_IT_number 51
_symmetry_cell_setting 'orthorhombic'
loop_
_space_group_symop_operation_xyz
x,y,z
1/2-x,-y,z
1/2+x,-y,-z
-x,y,-z
-x,-y,-z
1/2+x,y,-z
1/2-x,y,z
x,-y,z
loop_
_atom_site_type_symbol
_atom_site_label
_atom_site_fract_x
_atom_site_fract_y
_atom_site_fract_z
Si Si1 0.072743 0.770061 0.091021
Si Si2 0.574556 0.062274 0.906434
Si Si3 0.927129 0.405937 0.413472
Si Si4 0.419503 0.339001 0.167856
Si Si5 0.575678 0.700354 0.632889
Si Si6 0.925553 0.853315 0.217119
Si Si7 0.072962 0.441230 0.780594
Si Si8 0.073917 0.812892 0.589660
O O1 0.250000 0.781104 0.092342
O O2 0.036632 0.706340 0.095287
O O3 0.998980 0.800358 0.174727
O O4 0.000000 0.793048 0.000000
O O5 0.750000 0.075563 0.912268
O O6 0.502345 0.093699 0.823029
O O7 0.543208 0.000000 0.888648
O O8 0.500000 0.081001 0.000000
O O9 0.750000 0.409798 0.420401
O O10 0.986288 0.433193 0.321494
O O11 0.000000 0.435929 0.500000
O O12 0.981533 0.344707 0.418455
O O13 0.250000 0.358222 0.156076
O O14 0.445453 0.309093 0.261570
O O15 0.515263 0.393347 0.155542
O O16 0.750000 0.697643 0.604547
O O17 0.507406 0.756782 0.605782
O O18 0.750000 0.853953 0.194258
O O19 0.953476 0.851790 0.324739
O O20 0.250000 0.438111 0.781648
O O21 0.017982 0.500000 0.814502
O O22 0.250000 0.803145 0.574594
O O23 0.000000 0.839379 0.500000
#
# Coordination Sequence:
#
# PCOD8207189 Si02
#       8
#     8   8   8   8   8   8   8   8
#     4  11  22  37  57  85 118 150 183 223 276 339
#     4  10  21  38  62  91 123 160 199 239 285 336
#     4  10  19  30  44  65  94 127 166 214 268 326
#     4   9  19  34  53  76 103 136 173 217 269 325
#     4  10  18  32  51  71  99 136 179 223 271 324
#     4  11  23  38  58  86 120 157 195 237 284 333
#     4   9  19  34  51  70  93 126 169 217 271 329
#     4  11  23  36  53  78 110 150 195 237 283 331
#
# _framework density 19.407067999999999
#
# number of rings (size 3 to 8) (size 9 to 14) (size 15 to 20)
#    0.000    1.875    1.250    3.000    0.000    4.750 
#    0.000    0.000    0.000    0.750    0.000    0.000 
#    0.000    0.000    0.000    0.000    0.000    0.000 
#
# Total GULP energy -793484.000280 kJ/mol
# GULP energy per Si atom -12398.187504 kJ/mol
# Density = 1.936290 g / cm^3
# Si number density = 19.407068 Si / 1000 Ang^3
#
#
#
# Elastic Constant Matrix: (Units=GPa)
#
#
# Indices 1 2 3 4 5 6 
#
# 1 95.4512 42.3132 39.4580 0.0000 0.0000 0.0000
# 2 42.3132 98.0257 38.0317 0.0000 0.0000 0.0000
# 3 39.4580 38.0317 80.9047 0.0000 0.0000 0.0000
# 4 0.0000 0.0000 0.0000 12.4070 0.0000 0.0000
# 5 0.0000 0.0000 0.0000 0.0000 28.3309 0.0000
# 6 0.0000 0.0000 0.0000 0.0000 0.0000 29.3811
#
#
#
# Elastic Compliance Matrix: (Units=1/GPa)
#
#
# Indices 1 2 3 4 5 6 
#
# 1 0.014459 -0.004287 -0.005036 0.000000 0.000000 0.000000
# 2 -0.004287 0.013748 -0.004372 0.000000 0.000000 0.000000
# 3 -0.005036 -0.004372 0.016872 0.000000 0.000000 0.000000
# 4 0.000000 0.000000 0.000000 0.080599 0.000000 0.000000
# 5 0.000000 0.000000 0.000000 0.000000 0.035297 0.000000
# 6 0.000000 0.000000 0.000000 0.000000 0.000000 0.034035
#
#
# Mechanical properties :
#
#
# Convention : Reuss Voigt Hill
#
# Bulk Modulus (GPa) = 56.53608 57.10971 56.82290
# Shear Modulus (GPa) = 21.90119 24.32906 23.11513
#
# Velocity S-wave (km/s) = 3.36298 3.54449 3.45493
# Velocity P-wave (km/s) = 6.65391 6.80017 6.72744
#
# Compressibility (1/GPa) = 0.01768782
#
# Stress axis : x y z
#
# Youngs Moduli (GPa) = 69.16061 72.73683 59.27101
#
# Poissons Ratio (x) = 0.31184 0.29852
# Poissons Ratio (y) = 0.29651 0.25912
# Poissons Ratio (z) = 0.34832 0.31799
#
# Static dielectric constant tensor:
#      x y z
#    x 3.583900 0.000000 0.000000 
#    y 0.000000 3.449120 0.000000 
#    z 0.000000 0.000000 3.959460 
# 
# 
# High freq. dielectric constant tensor:
#      x y z
#    x 1.763790 0.000000 0.000000 
#    y 0.000000 1.738630 0.000000 
#    z 0.000000 0.000000 1.746700 
# 
# From -- ./inp_files/22397.got.cif
#   From: 2010.03.12/outbox.cif.g09.slc.cpg/sg51_12_cif.got.tgz:22397.got - 2010.04.16 13:43:02.
