data_PCOD8207764
_publ_section_title
;
Structure prediction by ZEFSAII (Michael W. Deem and Ramdas Pophale) SiO2 
 PCOD8207764
Probable space group: P M M A
;
_chemical_formula_sum "Si O2"
_cell_formula_units_Z 64
_cell_length_a 8.949003
_cell_length_b 20.346291
_cell_length_c 19.828693
_cell_angle_alpha 90.000000
_cell_angle_beta 90.000000
_cell_angle_gamma 90.000000
_cell_volume 3610.388973
_symmetry_space_group_name_H-M "P M M A"
_symmetry_group_IT_number 51
_symmetry_cell_setting 'orthorhombic'
loop_
_space_group_symop_operation_xyz
x,y,z
1/2-x,-y,z
1/2+x,-y,-z
-x,y,-z
-x,-y,-z
1/2+x,y,-z
1/2-x,y,z
x,-y,z
loop_
_atom_site_type_symbol
_atom_site_label
_atom_site_fract_x
_atom_site_fract_y
_atom_site_fract_z
Si Si1 0.573566 0.196634 0.928458
Si Si2 0.577467 0.873660 0.562829
Si Si3 0.426715 0.928030 0.152349
Si Si4 0.577185 0.727586 0.288418
Si Si5 0.575957 0.576285 0.068925
Si Si6 0.076477 0.133636 0.290298
Si Si7 0.576416 0.267201 0.437175
Si Si8 0.425433 0.678632 0.161266
O O1 0.750000 0.193231 0.938066
O O2 0.509301 0.128637 0.896795
O O3 0.528406 0.255422 0.878538
O O4 0.500000 0.209936 0.000000
O O5 0.500000 0.913038 0.500000
O O6 0.750000 0.869581 0.545002
O O7 0.552262 0.904288 0.637789
O O8 0.508218 0.801660 0.566276
O O9 0.250000 0.928274 0.145303
O O10 0.470445 0.914814 0.230117
O O11 0.491506 0.000000 0.132056
O O12 0.750000 0.724287 0.267027
O O13 0.526185 0.802754 0.284974
O O14 0.554606 0.698293 0.364276
O O15 0.479417 0.683709 0.238194
O O16 0.750000 0.591584 0.062910
O O17 0.543099 0.500000 0.082265
O O18 0.506529 0.615759 0.130511
O O19 0.500000 0.600432 0.000000
O O20 0.250000 0.155824 0.283041
O O21 0.500000 0.307353 0.500000
O O22 0.750000 0.256087 0.452501
O O23 0.250000 0.666594 0.159136
#
# Coordination Sequence:
#
# PCOD8207764 Si02
#       8
#     8   8   8   8   8   8   8   8
#     4  10  21  35  51  73  96 121 156 198 247 297
#     4   9  15  22  37  59  85 114 147 189 235 287
#     4   9  17  32  52  69  88 118 159 205 249 298
#     4  10  19  29  45  70  99 130 163 204 253 298
#     4  10  21  37  56  79 108 141 176 210 246 293
#     4   9  16  29  46  65  88 118 158 200 243 295
#     4   9  16  25  38  60  91 126 161 196 240 292
#     4  11  21  34  53  76 104 136 171 209 247 294
#
# _framework density 17.726621999999999
#
# number of rings (size 3 to 8) (size 9 to 14) (size 15 to 20)
#    0.000    2.375    1.250    3.000    0.000    5.000 
#    0.000    0.000    0.000    1.500    0.000    0.000 
#    0.000    0.500    0.000    1.625    0.000    5.625 
#
# Total GULP energy -793150.020549 kJ/mol
# GULP energy per Si atom -12392.969071 kJ/mol
# Density = 1.768628 g / cm^3
# Si number density = 17.726622 Si / 1000 Ang^3
#
#
#
# Elastic Constant Matrix: (Units=GPa)
#
#
# Indices 1 2 3 4 5 6 
#
# 1 72.7176 27.9893 42.6792 0.0000 0.0000 0.0000
# 2 27.9893 54.1695 31.5437 0.0000 0.0000 0.0000
# 3 42.6792 31.5437 120.0790 0.0000 0.0000 0.0000
# 4 0.0000 0.0000 0.0000 15.3848 0.0000 0.0000
# 5 0.0000 0.0000 0.0000 0.0000 31.5155 0.0000
# 6 0.0000 0.0000 0.0000 0.0000 0.0000 11.7528
#
#
#
# Elastic Compliance Matrix: (Units=1/GPa)
#
#
# Indices 1 2 3 4 5 6 
#
# 1 0.019450 -0.007112 -0.005045 0.000000 0.000000 0.000000
# 2 -0.007112 0.024395 -0.003880 0.000000 0.000000 0.000000
# 3 -0.005045 -0.003880 0.011140 0.000000 0.000000 0.000000
# 4 0.000000 0.000000 0.000000 0.064999 0.000000 0.000000
# 5 0.000000 0.000000 0.000000 0.000000 0.031730 0.000000
# 6 0.000000 0.000000 0.000000 0.000000 0.000000 0.085086
#
#
# Mechanical properties :
#
#
# Convention : Reuss Voigt Hill
#
# Bulk Modulus (GPa) = 43.64802 50.15450 46.90126
# Shear Modulus (GPa) = 18.08231 21.38088 19.73160
#
# Velocity S-wave (km/s) = 3.19731 3.47673 3.33994
# Velocity P-wave (km/s) = 6.18924 6.66870 6.43344
#
# Compressibility (1/GPa) = 0.02291055
#
# Stress axis : x y z
#
# Youngs Moduli (GPa) = 51.41324 40.99183 89.76436
#
# Poissons Ratio (x) = 0.29154 0.45284
# Poissons Ratio (y) = 0.36566 0.34833
# Poissons Ratio (z) = 0.25937 0.15907
#
# Static dielectric constant tensor:
#      x y z
#    x 3.274530 0.000000 0.000000 
#    y 0.000000 2.953740 0.000000 
#    z 0.000000 0.000000 4.025350 
# 
# 
# High freq. dielectric constant tensor:
#      x y z
#    x 1.684500 0.000000 0.000000 
#    y 0.000000 1.629390 0.000000 
#    z 0.000000 0.000000 1.707040 
# 
# From -- ./inp_files/32436.got.cif
#   From: 2010.03.12/outbox.cif.g09.slc.cpg/sg51_17_cif.got.tgz:32436.got - 2010.04.16 13:43:02.
