data_PCOD8207251
_publ_section_title
;
Structure prediction by ZEFSAII (Michael W. Deem and Ramdas Pophale) SiO2 
 PCOD8207251
Probable space group: P M M A
;
_chemical_formula_sum "Si O2"
_cell_formula_units_Z 64
_cell_length_a 18.112903
_cell_length_b 8.532303
_cell_length_c 21.649834
_cell_angle_alpha 90.000000
_cell_angle_beta 90.000000
_cell_angle_gamma 90.000000
_cell_volume 3345.868759
_symmetry_space_group_name_H-M "P M M A"
_symmetry_group_IT_number 51
_symmetry_cell_setting 'orthorhombic'
loop_
_space_group_symop_operation_xyz
x,y,z
1/2-x,-y,z
1/2+x,-y,-z
-x,y,-z
-x,-y,-z
1/2+x,y,-z
1/2-x,y,z
x,-y,z
loop_
_atom_site_type_symbol
_atom_site_label
_atom_site_fract_x
_atom_site_fract_y
_atom_site_fract_z
Si Si1 0.095771 0.682766 0.252786
Si Si2 0.334575 0.682615 0.497112
Si Si3 0.578037 0.184187 0.390839
Si Si4 0.669504 0.314768 0.871795
Si Si5 0.041887 0.183100 0.813331
Si Si6 0.831796 0.815609 0.275248
Si Si7 0.911578 0.816556 0.617994
Si Si8 0.021308 0.313626 0.067951
O O1 0.100980 0.500000 0.268665
O O2 0.152743 0.731588 0.198919
O O3 0.116578 0.782674 0.312878
O O4 0.013727 0.721238 0.229753
O O5 0.250000 0.733208 0.506809
O O6 0.345601 0.500000 0.509371
O O7 0.385110 0.777981 0.544154
O O8 0.358340 0.724112 0.427974
O O9 0.625673 0.257512 0.334525
O O10 0.494770 0.250558 0.389559
O O11 0.572819 0.000000 0.381484
O O12 0.750000 0.244524 0.890448
O O13 0.671491 0.500000 0.878034
O O14 0.604218 0.251883 0.916413
O O15 0.123792 0.220384 0.787872
O O16 0.036828 0.238894 0.884196
O O17 0.022986 0.000000 0.807773
O O18 0.750000 0.740187 0.270208
O O19 0.824613 0.000000 0.285243
O O20 0.906682 0.000000 0.603448
O O21 0.016215 0.500000 0.073889
O O22 0.000000 0.254726 0.000000
#
# Coordination Sequence:
#
# PCOD8207251 Si02
#       8
#     8   8   8   8   8   8   8   8
#     4  10  19  32  53  79 107 140 173 214 268 319
#     4  11  25  41  54  75 108 143 180 224 276 327
#     4  10  20  37  59  80 103 136 181 225 267 325
#     4   8  15  29  50  75 102 136 177 215 254 306
#     4  10  18  32  53  78 107 138 177 217 256 313
#     4   9  17  31  53  79 106 138 174 215 265 318
#     4  11  22  37  58  83 106 136 181 224 270 328
#     4   9  18  33  53  77 105 140 181 221 266 319
#
# _framework density 19.128067000000001
#
# number of rings (size 3 to 8) (size 9 to 14) (size 15 to 20)
#    0.000    2.250    1.250    3.000    0.000    4.750 
#    0.000    1.875    0.000   12.000    0.000    0.000 
#    0.000    0.000    0.000    0.000    0.000    0.000 
#
# Total GULP energy -793549.868881 kJ/mol
# GULP energy per Si atom -12399.216701 kJ/mol
# Density = 1.908453 g / cm^3
# Si number density = 19.128067 Si / 1000 Ang^3
#
#
#
# Elastic Constant Matrix: (Units=GPa)
#
#
# Indices 1 2 3 4 5 6 
#
# 1 94.0169 17.9043 38.2884 0.0000 0.0000 0.0000
# 2 17.9043 17.9631 6.9898 0.0000 0.0000 0.0000
# 3 38.2884 6.9898 121.7254 0.0000 0.0000 0.0000
# 4 0.0000 0.0000 0.0000 29.2267 0.0000 0.0000
# 5 0.0000 0.0000 0.0000 0.0000 23.5858 0.0000
# 6 0.0000 0.0000 0.0000 0.0000 0.0000 18.7915
#
#
#
# Elastic Compliance Matrix: (Units=1/GPa)
#
#
# Indices 1 2 3 4 5 6 
#
# 1 0.014722 -0.013166 -0.003875 0.000000 0.000000 0.000000
# 2 -0.013166 0.068716 0.000195 0.000000 0.000000 0.000000
# 3 -0.003875 0.000195 0.009423 0.000000 0.000000 0.000000
# 4 0.000000 0.000000 0.000000 0.034215 0.000000 0.000000
# 5 0.000000 0.000000 0.000000 0.000000 0.042398 0.000000
# 6 0.000000 0.000000 0.000000 0.000000 0.000000 0.053215
#
#
# Mechanical properties :
#
#
# Convention : Reuss Voigt Hill
#
# Bulk Modulus (GPa) = 16.90023 40.00781 28.45402
# Shear Modulus (GPa) = 18.10916 25.68899 21.89908
#
# Velocity S-wave (km/s) = 3.08024 3.66867 3.38726
# Velocity P-wave (km/s) = 4.63735 6.23752 5.49598
#
# Compressibility (1/GPa) = 0.05917079
#
# Stress axis : x y z
#
# Youngs Moduli (GPa) = 67.92769 14.55258 106.12621
#
# Poissons Ratio (x) = 0.19159 0.41120
# Poissons Ratio (y) = 0.89431 -0.02073
# Poissons Ratio (z) = 0.26319 -0.00284
#
# Static dielectric constant tensor:
#      x y z
#    x 3.780480 0.000000 0.000000 
#    y 0.000000 3.239480 0.000000 
#    z 0.000000 0.000000 3.531230 
# 
# 
# High freq. dielectric constant tensor:
#      x y z
#    x 1.744080 0.000000 0.000000 
#    y 0.000000 1.718940 0.000000 
#    z 0.000000 0.000000 1.741590 
# 
# From -- ./inp_files/33822.got.cif
#   From: 2010.03.12/outbox.cif.g09.slc.cpg/sg51_17_cif.got.tgz:33822.got - 2010.04.16 13:43:02.
