data_PCOD8207788
_publ_section_title
;
Structure prediction by ZEFSAII (Michael W. Deem and Ramdas Pophale) SiO2 
 PCOD8207788
Probable space group: P M M A
;
_chemical_formula_sum "Si O2"
_cell_formula_units_Z 48
_cell_length_a 14.611192
_cell_length_b 14.277139
_cell_length_c 13.874507
_cell_angle_alpha 90.000000
_cell_angle_beta 90.000000
_cell_angle_gamma 90.000000
_cell_volume 2894.305673
_symmetry_space_group_name_H-M "P M M A"
_symmetry_group_IT_number 51
_symmetry_cell_setting 'orthorhombic'
loop_
_space_group_symop_operation_xyz
x,y,z
1/2-x,-y,z
1/2+x,-y,-z
-x,y,-z
-x,-y,-z
1/2+x,y,-z
1/2-x,y,z
x,-y,z
loop_
_atom_site_type_symbol
_atom_site_label
_atom_site_fract_x
_atom_site_fract_y
_atom_site_fract_z
Si Si1 0.499290 0.649898 0.612515
Si Si2 0.149616 0.236548 0.067884
Si Si3 0.851615 0.500000 0.614609
Si Si4 0.479320 0.250180 0.797119
Si Si5 0.091094 0.603851 0.940078
Si Si6 0.643617 0.891959 0.107256
Si Si7 0.148927 0.500000 0.610978
O O1 0.500000 0.679732 0.500000
O O2 0.590078 0.591818 0.642514
O O3 0.495672 0.739637 0.682374
O O4 0.408428 0.591549 0.638333
O O5 0.250000 0.217732 0.112219
O O6 0.077683 0.238009 0.153518
O O7 0.156817 0.332876 0.006388
O O8 0.119997 0.153096 0.996139
O O9 0.750000 0.500000 0.664605
O O10 0.837582 0.500000 0.502109
O O11 0.429289 0.342595 0.839891
O O12 0.416789 0.158762 0.811187
O O13 0.133008 0.500000 0.918341
O O14 0.000000 0.590715 0.000000
O O15 0.750000 0.877946 0.133012
O O16 0.615781 0.000000 0.103976
O O17 0.250000 0.500000 0.660637
#
# Coordination Sequence:
#
# PCOD8207788 Si02
#       7
#     8   8   4   8   8   8   4
#     4   9  18  30  45  67  96 127 163 204 240 274
#     4   9  18  31  45  68  97 123 153 190 232 286
#     4   8  15  29  46  63  87 124 168 206 240 270
#     4  10  19  29  48  70  96 126 158 197 236 286
#     4   8  15  27  42  58  86 123 156 187 224 272
#     4   9  18  34  55  76  94 114 149 198 247 292
#     4   8  15  29  46  61  83 120 164 210 246 272
#
# _framework density 16.584288999999998
#
# number of rings (size 3 to 8) (size 9 to 14) (size 15 to 20)
#    0.000    3.167    0.000    2.500    2.333    3.000 
#    0.000    0.000    0.000    0.500    0.000    0.000 
#    0.000    2.667    0.000    0.000    0.000    0.000 
#
# Total GULP energy -594804.464677 kJ/mol
# GULP energy per Si atom -12391.759681 kJ/mol
# Density = 1.654654 g / cm^3
# Si number density = 16.584289 Si / 1000 Ang^3
#
#
#
# Elastic Constant Matrix: (Units=GPa)
#
#
# Indices 1 2 3 4 5 6 
#
# 1 101.8641 35.5297 38.2416 0.0000 0.0000 0.0000
# 2 35.5297 114.0203 45.9774 0.0000 0.0000 0.0000
# 3 38.2416 45.9774 91.0908 0.0000 0.0000 0.0000
# 4 0.0000 0.0000 0.0000 9.6452 0.0000 0.0000
# 5 0.0000 0.0000 0.0000 0.0000 10.1148 0.0000
# 6 0.0000 0.0000 0.0000 0.0000 0.0000 18.0714
#
#
#
# Elastic Compliance Matrix: (Units=1/GPa)
#
#
# Indices 1 2 3 4 5 6 
#
# 1 0.012061 -0.002155 -0.003976 0.000000 0.000000 0.000000
# 2 -0.002155 0.011397 -0.004848 0.000000 0.000000 0.000000
# 3 -0.003976 -0.004848 0.015094 0.000000 0.000000 0.000000
# 4 0.000000 0.000000 0.000000 0.103679 0.000000 0.000000
# 5 0.000000 0.000000 0.000000 0.000000 0.098865 0.000000
# 6 0.000000 0.000000 0.000000 0.000000 0.000000 0.055336
#
#
# Mechanical properties :
#
#
# Convention : Reuss Voigt Hill
#
# Bulk Modulus (GPa) = 60.25975 60.71918 60.48946
# Shear Modulus (GPa) = 15.43588 20.04803 17.74195
#
# Velocity S-wave (km/s) = 3.05413 3.48063 3.27434
# Velocity P-wave (km/s) = 6.98937 7.26946 7.13079
#
# Compressibility (1/GPa) = 0.01659483
#
# Stress axis : x y z
#
# Youngs Moduli (GPa) = 82.90980 87.74472 66.25188
#
# Poissons Ratio (x) = 0.18911 0.26340
# Poissons Ratio (y) = 0.17869 0.32116
# Poissons Ratio (z) = 0.32963 0.42535
#
# Static dielectric constant tensor:
#      x y z
#    x 4.199750 0.000000 0.000000 
#    y 0.000000 3.113940 0.000000 
#    z 0.000000 0.000000 2.796380 
# 
# 
# High freq. dielectric constant tensor:
#      x y z
#    x 1.648070 0.000000 0.000000 
#    y 0.000000 1.613100 0.000000 
#    z 0.000000 0.000000 1.608290 
# 
# From -- ./inp_files/24244.got.cif
#   From: 2010.03.12/outbox.cif.g09.slc.cpg/sg51_13_cif.got.tgz:24244.got - 2010.04.16 13:43:02.
