data_PCOD8207367
_publ_section_title
;
Structure prediction by ZEFSAII (Michael W. Deem and Ramdas Pophale) SiO2 
 PCOD8207367
Probable space group: P M M A
;
_chemical_formula_sum "Si O2"
_cell_formula_units_Z 48
_cell_length_a 16.355515
_cell_length_b 17.298235
_cell_length_c 7.995488
_cell_angle_alpha 90.000000
_cell_angle_beta 90.000000
_cell_angle_gamma 90.000000
_cell_volume 2262.095794
_symmetry_space_group_name_H-M "P M M A"
_symmetry_group_IT_number 51
_symmetry_cell_setting 'orthorhombic'
loop_
_space_group_symop_operation_xyz
x,y,z
1/2-x,-y,z
1/2+x,-y,-z
-x,y,-z
-x,-y,-z
1/2+x,y,-z
1/2-x,y,z
x,-y,z
loop_
_atom_site_type_symbol
_atom_site_label
_atom_site_fract_x
_atom_site_fract_y
_atom_site_fract_z
Si Si1 0.652416 0.318843 0.773118
Si Si2 0.343549 0.150998 0.716461
Si Si3 0.847628 0.587465 0.091499
Si Si4 0.157181 0.000000 0.224788
Si Si5 0.653006 0.685499 0.403332
Si Si6 0.910379 0.000000 0.427099
Si Si7 0.343869 0.158754 0.102410
O O1 0.750000 0.316484 0.785405
O O2 0.624693 0.345768 0.586570
O O3 0.616702 0.232450 0.803952
O O4 0.618807 0.375928 0.917528
O O5 0.250000 0.130465 0.671708
O O6 0.375105 0.225123 0.612331
O O7 0.398740 0.076389 0.683330
O O8 0.352403 0.175053 0.907792
O O9 0.750000 0.590311 0.093296
O O10 0.879880 0.500000 0.101237
O O11 0.883593 0.633009 0.253491
O O12 0.155413 0.000000 0.424477
O O13 0.112667 0.922190 0.155281
O O14 0.250000 0.000000 0.158058
O O15 0.750000 0.682709 0.387789
O O16 0.000000 0.000000 0.500000
O O17 0.250000 0.152212 0.159212
#
# Coordination Sequence:
#
# PCOD8207367 Si02
#       7
#     8   8   8   4   8   4   8
#     4   9  15  24  38  60  90 123 160 202 245 289
#     4  10  18  33  54  72  93 130 176 214 251 297
#     4   9  16  25  36  57  95 133 161 197 247 302
#     4  10  19  32  51  74  95 124 167 209 247 294
#     4   9  16  26  44  67  91 126 170 209 244 290
#     4  12  25  36  46  70 106 136 165 207 255 306
#     4   9  16  28  49  74  94 117 164 220 254 285
#
# _framework density 21.219260999999999
#
# number of rings (size 3 to 8) (size 9 to 14) (size 15 to 20)
#    0.000    2.500    1.667    2.250    0.000    4.667 
#    0.000    5.000    0.000    0.000    0.000    0.000 
#    0.000    0.667    0.000    4.667    0.000    7.167 
#
# Total GULP energy -594928.680024 kJ/mol
# GULP energy per Si atom -12394.347501 kJ/mol
# Density = 2.117096 g / cm^3
# Si number density = 21.219261 Si / 1000 Ang^3
#
#
#
# Elastic Constant Matrix: (Units=GPa)
#
#
# Indices 1 2 3 4 5 6 
#
# 1 9.0522 6.7246 5.1784 0.0000 0.0000 0.0000
# 2 6.7246 166.8310 85.2866 0.0000 0.0000 0.0000
# 3 5.1784 85.2866 152.4213 0.0000 0.0000 0.0000
# 4 0.0000 0.0000 0.0000 28.8616 0.0000 0.0000
# 5 0.0000 0.0000 0.0000 0.0000 3.5547 0.0000
# 6 0.0000 0.0000 0.0000 0.0000 0.0000 1.0514
#
#
#
# Elastic Compliance Matrix: (Units=1/GPa)
#
#
# Indices 1 2 3 4 5 6 
#
# 1 0.114243 -0.003671 -0.001827 0.000000 0.000000 0.000000
# 2 -0.003671 0.008514 -0.004639 0.000000 0.000000 0.000000
# 3 -0.001827 -0.004639 0.009219 0.000000 0.000000 0.000000
# 4 0.000000 0.000000 0.000000 0.034648 0.000000 0.000000
# 5 0.000000 0.000000 0.000000 0.000000 0.281317 0.000000
# 6 0.000000 0.000000 0.000000 0.000000 0.000000 0.951137
#
#
# Mechanical properties :
#
#
# Convention : Reuss Voigt Hill
#
# Bulk Modulus (GPa) = 8.95251 58.07598 33.51424
# Shear Modulus (GPa) = 3.43269 22.10119 12.76694
#
# Velocity S-wave (km/s) = 1.27328 3.23083 2.45555
# Velocity P-wave (km/s) = 2.52782 6.43013 4.88551
#
# Compressibility (1/GPa) = 0.11170052
#
# Stress axis : x y z
#
# Youngs Moduli (GPa) = 8.75330 117.45925 108.47641
#
# Poissons Ratio (x) = 0.43116 0.19823
# Poissons Ratio (y) = 0.03213 0.50323
# Poissons Ratio (z) = 0.01600 0.54490
#
# Static dielectric constant tensor:
#      x y z
#    x 2.954750 0.000000 0.000000 
#    y 0.000000 4.047570 0.000000 
#    z 0.000000 0.000000 4.024580 
# 
# 
# High freq. dielectric constant tensor:
#      x y z
#    x 1.741790 0.000000 0.000000 
#    y 0.000000 1.838820 0.000000 
#    z 0.000000 0.000000 1.846810 
# 
# From -- ./inp_files/9717.got.cif
#   From: 2010.03.12/outbox.cif.g09.slc.cpg/sg51_5_cif.got.tgz:9717.got - 2010.04.16 13:43:02.
