data_PCOD8207339
_publ_section_title
;
Structure prediction by ZEFSAII (Michael W. Deem and Ramdas Pophale) SiO2 
 PCOD8207339
Probable space group: P M M A
;
_chemical_formula_sum "Si O2"
_cell_formula_units_Z 56
_cell_length_a 27.884550
_cell_length_b 14.007193
_cell_length_c 6.978601
_cell_angle_alpha 90.000000
_cell_angle_beta 90.000000
_cell_angle_gamma 90.000000
_cell_volume 2725.731802
_symmetry_space_group_name_H-M "P M M A"
_symmetry_group_IT_number 51
_symmetry_cell_setting 'orthorhombic'
loop_
_space_group_symop_operation_xyz
x,y,z
1/2-x,-y,z
1/2+x,-y,-z
-x,y,-z
-x,-y,-z
1/2+x,y,-z
1/2-x,y,z
x,-y,z
loop_
_atom_site_type_symbol
_atom_site_label
_atom_site_fract_x
_atom_site_fract_y
_atom_site_fract_z
Si Si1 0.382336 0.111890 0.141992
Si Si2 0.950432 0.780273 0.574410
Si Si3 0.629232 0.210973 0.260992
Si Si4 0.306957 0.809672 0.417136
Si Si5 0.305877 0.602323 0.316582
Si Si6 0.640233 0.604634 0.056023
Si Si7 0.959447 0.610059 0.847845
O O1 0.426387 0.155031 0.261905
O O2 0.330936 0.135435 0.239247
O O3 0.389818 0.000000 0.132149
O O4 0.383282 0.152093 0.927827
O O5 0.917607 0.774368 0.387975
O O6 0.962288 0.675281 0.658876
O O7 0.000000 0.827003 0.500000
O O8 0.670622 0.154103 0.381381
O O9 0.649719 0.316049 0.214633
O O10 0.250000 0.824592 0.407185
O O11 0.325296 0.698783 0.413785
O O12 0.250000 0.600394 0.351384
O O13 0.327828 0.500000 0.393860
O O14 0.315677 0.608877 0.090673
O O15 0.637150 0.500000 0.153694
O O16 0.591863 0.628633 0.942146
O O17 0.965959 0.500000 0.784671
O O18 0.000000 0.640392 0.000000
#
# Coordination Sequence:
#
# PCOD8207339 Si02
#       7
#     8   8   8   8   8   8   8
#     4  11  25  46  66  87 121 158 202 265 325 369
#     4  11  24  40  67  94 125 161 205 255 307 370
#     4  11  22  39  61  94 123 163 205 253 308 367
#     4  10  22  40  65  94 125 161 205 253 307 372
#     4   9  17  32  56  87 125 164 199 239 290 355
#     4  10  18  32  56  85 122 166 207 239 288 358
#     4  10  20  36  61  92 130 171 205 241 293 361
#
# _framework density 20.544941000000001
#
# number of rings (size 3 to 8) (size 9 to 14) (size 15 to 20)
#    0.000    1.714    2.857    1.714    0.000    5.429 
#    0.000    0.714    0.000    0.000    0.000    0.000 
#    0.000    0.000    0.000    0.000    0.000    0.000 
#
# Total GULP energy -694111.800413 kJ/mol
# GULP energy per Si atom -12394.853579 kJ/mol
# Density = 2.049818 g / cm^3
# Si number density = 20.544941 Si / 1000 Ang^3
#
#
#
# Elastic Constant Matrix: (Units=GPa)
#
#
# Indices 1 2 3 4 5 6 
#
# 1 73.0492 22.4669 43.1421 0.0000 0.0000 0.0000
# 2 22.4669 116.2018 54.5183 0.0000 0.0000 0.0000
# 3 43.1421 54.5183 131.9053 0.0000 0.0000 0.0000
# 4 0.0000 0.0000 0.0000 6.6480 0.0000 0.0000
# 5 0.0000 0.0000 0.0000 0.0000 21.9264 0.0000
# 6 0.0000 0.0000 0.0000 0.0000 0.0000 19.4369
#
#
#
# Elastic Compliance Matrix: (Units=1/GPa)
#
#
# Indices 1 2 3 4 5 6 
#
# 1 0.017033 -0.000843 -0.005223 0.000000 0.000000 0.000000
# 2 -0.000843 0.010718 -0.004154 0.000000 0.000000 0.000000
# 3 -0.005223 -0.004154 0.011006 0.000000 0.000000 0.000000
# 4 0.000000 0.000000 0.000000 0.150420 0.000000 0.000000
# 5 0.000000 0.000000 0.000000 0.000000 0.045607 0.000000
# 6 0.000000 0.000000 0.000000 0.000000 0.000000 0.051449
#
#
# Mechanical properties :
#
#
# Convention : Reuss Voigt Hill
#
# Bulk Modulus (GPa) = 54.59167 62.37897 58.48532
# Shear Modulus (GPa) = 15.98579 23.00420 19.49500
#
# Velocity S-wave (km/s) = 2.79245 3.34982 3.08376
# Velocity P-wave (km/s) = 6.08494 6.73720 6.41936
#
# Compressibility (1/GPa) = 0.01831781
#
# Stress axis : x y z
#
# Youngs Moduli (GPa) = 58.70934 93.30402 90.85733
#
# Poissons Ratio (x) = 0.07865 0.47451
# Poissons Ratio (y) = 0.04949 0.37743
# Poissons Ratio (z) = 0.30661 0.38759
#
# Static dielectric constant tensor:
#      x y z
#    x 3.705790 0.000000 0.000000 
#    y 0.000000 3.890180 0.000000 
#    z 0.000000 0.000000 3.692890 
# 
# 
# High freq. dielectric constant tensor:
#      x y z
#    x 1.804370 0.000000 0.000000 
#    y 0.000000 1.795460 0.000000 
#    z 0.000000 0.000000 1.800420 
# 
# From -- ./inp_files/3993.got.cif
#   From: 2010.03.12/outbox.cif.g09.slc.cpg/sg51_2_cif.got.tgz:3993.got - 2010.04.16 13:43:02.
