data_PCOD8207032
_publ_section_title
;
Structure prediction by ZEFSAII (Michael W. Deem and Ramdas Pophale) SiO2 
 PCOD8207032
Probable space group: P M M A
;
_chemical_formula_sum "Si O2"
_cell_formula_units_Z 64
_cell_length_a 24.954357
_cell_length_b 8.961667
_cell_length_c 16.958373
_cell_angle_alpha 90.000000
_cell_angle_beta 90.000000
_cell_angle_gamma 90.000000
_cell_volume 3792.445684
_symmetry_space_group_name_H-M "P M M A"
_symmetry_group_IT_number 51
_symmetry_cell_setting 'orthorhombic'
loop_
_space_group_symop_operation_xyz
x,y,z
1/2-x,-y,z
1/2+x,-y,-z
-x,y,-z
-x,-y,-z
1/2+x,y,-z
1/2-x,y,z
x,-y,z
loop_
_atom_site_type_symbol
_atom_site_label
_atom_site_fract_x
_atom_site_fract_y
_atom_site_fract_z
Si Si1 0.188120 0.826525 0.419646
Si Si2 0.563777 0.675347 0.158726
Si Si3 0.312416 0.673478 0.581846
Si Si4 0.436271 0.831561 0.998466
Si Si5 0.059675 0.672383 0.153098
Si Si6 0.102440 0.175923 0.686891
Si Si7 0.100981 0.325652 0.322812
Si Si8 0.496525 0.172967 0.407858
O O1 0.250000 0.796538 0.400026
O O2 0.169936 0.744115 0.498970
O O3 0.154193 0.761922 0.347535
O O4 0.175586 0.000000 0.431176
O O5 0.573904 0.500000 0.164796
O O6 0.501616 0.718220 0.169782
O O7 0.596613 0.758456 0.226097
O O8 0.585344 0.733985 0.074511
O O9 0.250000 0.701770 0.597809
O O10 0.326888 0.500000 0.579696
O O11 0.344118 0.753361 0.651368
O O12 0.414805 0.764963 0.080924
O O13 0.415320 0.000000 0.989355
O O14 0.500000 0.823611 0.000000
O O15 0.062304 0.500000 0.129243
O O16 0.093490 0.709372 0.230663
O O17 0.052102 0.220377 0.632525
O O18 0.109582 0.000000 0.692311
O O19 0.108729 0.500000 0.338188
O O20 0.050111 0.272722 0.372203
O O21 0.500000 0.207579 0.500000
O O22 0.483229 0.000000 0.391870
#
# Coordination Sequence:
#
# PCOD8207032 Si02
#       8
#     8   8   8   8   8   8   8   8
#     4  10  21  37  55  74  98 130 169 213 259 301
#     4  10  18  31  48  68 101 137 169 205 246 297
#     4  10  21  37  56  76  98 128 169 215 259 301
#     4   9  17  28  45  69  96 129 169 206 245 293
#     4   9  18  31  46  69 100 134 167 201 247 298
#     4  11  21  32  50  75 104 135 169 208 250 299
#     4  11  21  33  51  75 101 132 169 208 249 298
#     4  10  21  34  47  67  99 136 169 202 246 300
#
# _framework density 16.875654999999998
#
# number of rings (size 3 to 8) (size 9 to 14) (size 15 to 20)
#    0.000    2.000    1.250    3.000    0.000    6.250 
#    0.000    0.000    0.000    0.000    0.000    0.875 
#    0.000    3.000    0.000    0.000    0.000    0.000 
#
# Total GULP energy -793860.473074 kJ/mol
# GULP energy per Si atom -12404.069892 kJ/mol
# Density = 1.683724 g / cm^3
# Si number density = 16.875655 Si / 1000 Ang^3
#
#
#
# Elastic Constant Matrix: (Units=GPa)
#
#
# Indices 1 2 3 4 5 6 
#
# 1 60.1110 44.1254 48.6148 0.0000 0.0000 0.0000
# 2 44.1254 100.0170 61.3548 0.0000 0.0000 0.0000
# 3 48.6148 61.3548 126.3234 0.0000 0.0000 0.0000
# 4 0.0000 0.0000 0.0000 34.2231 0.0000 0.0000
# 5 0.0000 0.0000 0.0000 0.0000 14.2093 0.0000
# 6 0.0000 0.0000 0.0000 0.0000 0.0000 25.8984
#
#
#
# Elastic Compliance Matrix: (Units=1/GPa)
#
#
# Indices 1 2 3 4 5 6 
#
# 1 0.028241 -0.008250 -0.006861 0.000000 0.000000 0.000000
# 2 -0.008250 0.016652 -0.004913 0.000000 0.000000 0.000000
# 3 -0.006861 -0.004913 0.012943 0.000000 0.000000 0.000000
# 4 0.000000 0.000000 0.000000 0.029220 0.000000 0.000000
# 5 0.000000 0.000000 0.000000 0.000000 0.070376 0.000000
# 6 0.000000 0.000000 0.000000 0.000000 0.000000 0.038612
#
#
# Mechanical properties :
#
#
# Convention : Reuss Voigt Hill
#
# Bulk Modulus (GPa) = 56.22011 66.07126 61.14568
# Shear Modulus (GPa) = 20.65924 23.68993 22.17459
#
# Velocity S-wave (km/s) = 3.50266 3.75079 3.62884
# Velocity P-wave (km/s) = 7.05300 7.61542 7.33960
#
# Compressibility (1/GPa) = 0.01778723
#
# Stress axis : x y z
#
# Youngs Moduli (GPa) = 35.40903 60.05346 77.26341
#
# Poissons Ratio (x) = 0.49547 0.53013
# Poissons Ratio (y) = 0.29214 0.37956
# Poissons Ratio (z) = 0.24295 0.29502
#
# Static dielectric constant tensor:
#      x y z
#    x 2.918420 0.000000 0.000000 
#    y 0.000000 3.276290 0.000000 
#    z 0.000000 0.000000 3.282100 
# 
# 
# High freq. dielectric constant tensor:
#      x y z
#    x 1.612970 0.000000 0.000000 
#    y 0.000000 1.666660 0.000000 
#    z 0.000000 0.000000 1.657380 
# 
# From -- ./inp_files/26211.got.cif
#   From: 2010.03.12/outbox.cif.g09.slc.cpg/sg51_14_cif.got.tgz:26211.got - 2010.04.16 13:43:02.
