data_PCOD8207789
_publ_section_title
;
Structure prediction by ZEFSAII (Michael W. Deem and Ramdas Pophale) SiO2 
 PCOD8207789
Probable space group: P M M A
;
_chemical_formula_sum "Si O2"
_cell_formula_units_Z 64
_cell_length_a 28.828484
_cell_length_b 9.812345
_cell_length_c 12.860253
_cell_angle_alpha 90.000000
_cell_angle_beta 90.000000
_cell_angle_gamma 90.000000
_cell_volume 3637.844464
_symmetry_space_group_name_H-M "P M M A"
_symmetry_group_IT_number 51
_symmetry_cell_setting 'orthorhombic'
loop_
_space_group_symop_operation_xyz
x,y,z
1/2-x,-y,z
1/2+x,-y,-z
-x,y,-z
-x,-y,-z
1/2+x,y,-z
1/2-x,y,z
x,-y,z
loop_
_atom_site_type_symbol
_atom_site_label
_atom_site_fract_x
_atom_site_fract_y
_atom_site_fract_z
Si Si1 0.697563 0.658107 0.863926
Si Si2 0.196432 0.841961 0.552194
Si Si3 0.541323 0.337472 0.783326
Si Si4 0.118710 0.339559 0.623056
Si Si5 0.046790 0.338785 0.449030
Si Si6 0.561883 0.661788 0.176203
Si Si7 0.695199 0.851169 0.681414
Si Si8 0.605796 0.660151 0.966389
O O1 0.750000 0.700729 0.897883
O O2 0.695938 0.500000 0.833409
O O3 0.679027 0.737489 0.762791
O O4 0.661067 0.691181 0.956025
O O5 0.250000 0.804486 0.569899
O O6 0.166495 0.744442 0.626270
O O7 0.180217 0.809616 0.434445
O O8 0.187498 0.000000 0.579032
O O9 0.541926 0.500000 0.781635
O O10 0.553794 0.281001 0.668042
O O11 0.490568 0.283518 0.816660
O O12 0.578151 0.279444 0.866957
O O13 0.129794 0.500000 0.626590
O O14 0.090399 0.298430 0.519774
O O15 0.089726 0.290793 0.722612
O O16 0.041027 0.500000 0.443808
O O17 0.000000 0.276930 0.500000
O O18 0.561619 0.500000 0.170789
O O19 0.586570 0.724460 0.073414
O O20 0.750000 0.862566 0.682935
O O21 0.674424 0.000000 0.711349
O O22 0.596833 0.500000 0.969311
#
# Coordination Sequence:
#
# PCOD8207789 Si02
#       8
#     8   8   8   8   8   8   8   8
#     4   9  17  28  42  65  96 123 148 188 241 285
#     4   9  19  35  51  68  95 131 165 195 235 289
#     4   9  15  24  40  62  93 128 160 194 234 283
#     4  10  19  29  48  74 100 127 158 199 242 286
#     4   9  15  25  40  65  99 129 154 188 242 296
#     4   9  16  28  42  63  94 127 161 199 240 278
#     4   8  15  29  47  64  86 119 153 185 225 274
#     4   9  17  26  40  63  92 127 165 196 231 282
#
# _framework density 17.592835000000001
#
# number of rings (size 3 to 8) (size 9 to 14) (size 15 to 20)
#    0.000    3.000    1.250    1.125    1.750    2.250 
#    0.000    1.875    0.000    3.375    0.000    2.625 
#    0.000    2.000    0.000    0.000    0.000    0.000 
#
# Total GULP energy -793185.004372 kJ/mol
# GULP energy per Si atom -12393.515693 kJ/mol
# Density = 1.755279 g / cm^3
# Si number density = 17.592835 Si / 1000 Ang^3
#
#
#
# Elastic Constant Matrix: (Units=GPa)
#
#
# Indices 1 2 3 4 5 6 
#
# 1 115.1713 29.3083 62.9015 0.0000 0.0000 0.0000
# 2 29.3083 25.2699 17.2180 0.0000 0.0000 0.0000
# 3 62.9015 17.2180 124.5735 0.0000 0.0000 0.0000
# 4 0.0000 0.0000 0.0000 8.1360 0.0000 0.0000
# 5 0.0000 0.0000 0.0000 0.0000 25.7485 0.0000
# 6 0.0000 0.0000 0.0000 0.0000 0.0000 10.2228
#
#
#
# Elastic Compliance Matrix: (Units=1/GPa)
#
#
# Indices 1 2 3 4 5 6 
#
# 1 0.015421 -0.013888 -0.005867 0.000000 0.000000 0.000000
# 2 -0.013888 0.056194 -0.000754 0.000000 0.000000 0.000000
# 3 -0.005867 -0.000754 0.011094 0.000000 0.000000 0.000000
# 4 0.000000 0.000000 0.000000 0.122911 0.000000 0.000000
# 5 0.000000 0.000000 0.000000 0.000000 0.038837 0.000000
# 6 0.000000 0.000000 0.000000 0.000000 0.000000 0.097821
#
#
# Mechanical properties :
#
#
# Convention : Reuss Voigt Hill
#
# Bulk Modulus (GPa) = 23.98626 53.76337 38.87482
# Shear Modulus (GPa) = 12.58828 19.19391 15.89109
#
# Velocity S-wave (km/s) = 2.67785 3.30662 3.00871
# Velocity P-wave (km/s) = 4.81922 6.72343 5.84933
#
# Compressibility (1/GPa) = 0.04169053
#
# Stress axis : x y z
#
# Youngs Moduli (GPa) = 64.84535 17.79540 90.13709
#
# Poissons Ratio (x) = 0.24714 0.52885
# Poissons Ratio (y) = 0.90058 0.06800
# Poissons Ratio (z) = 0.38046 0.01342
#
# Static dielectric constant tensor:
#      x y z
#    x 3.288460 0.000000 0.000000 
#    y 0.000000 2.900310 0.000000 
#    z 0.000000 0.000000 3.468580 
# 
# 
# High freq. dielectric constant tensor:
#      x y z
#    x 1.685430 0.000000 0.000000 
#    y 0.000000 1.616150 0.000000 
#    z 0.000000 0.000000 1.675370 
# 
# From -- ./inp_files/19635.got.cif
#   From: 2010.03.12/outbox.cif.g09.slc.cpg/sg51_10_cif.got.tgz:19635.got - 2010.04.16 13:43:02.
