data_PCOD8207903
_publ_section_title
;
Structure prediction by ZEFSAII (Michael W. Deem and Ramdas Pophale) SiO2 
 PCOD8207903
Probable space group: P M M A
;
_chemical_formula_sum "Si O2"
_cell_formula_units_Z 64
_cell_length_a 9.112733
_cell_length_b 14.665508
_cell_length_c 28.458059
_cell_angle_alpha 90.000000
_cell_angle_beta 90.000000
_cell_angle_gamma 90.000000
_cell_volume 3803.216358
_symmetry_space_group_name_H-M "P M M A"
_symmetry_group_IT_number 51
_symmetry_cell_setting 'orthorhombic'
loop_
_space_group_symop_operation_xyz
x,y,z
1/2-x,-y,z
1/2+x,-y,-z
-x,y,-z
-x,-y,-z
1/2+x,y,-z
1/2-x,y,z
x,-y,z
loop_
_atom_site_type_symbol
_atom_site_label
_atom_site_fract_x
_atom_site_fract_y
_atom_site_fract_z
Si Si1 0.085047 0.391589 0.454896
Si Si2 0.576003 0.219886 0.953002
Si Si3 0.078068 0.395391 0.638503
Si Si4 0.576711 0.275354 0.272953
Si Si5 0.918875 0.605522 0.802739
Si Si6 0.422773 0.894938 0.238522
Si Si7 0.424006 0.401468 0.091472
Si Si8 0.075963 0.100573 0.132912
O O1 0.250000 0.352702 0.454978
O O2 0.085774 0.500000 0.457582
O O3 0.000000 0.351167 0.500000
O O4 0.004757 0.359560 0.407611
O O5 0.750000 0.209370 0.958218
O O6 0.525150 0.324443 0.945065
O O7 0.514510 0.165706 0.907843
O O8 0.500000 0.182283 0.000000
O O9 0.250000 0.388470 0.628479
O O10 0.034727 0.500000 0.650870
O O11 0.028033 0.329399 0.680445
O O12 0.750000 0.265740 0.269926
O O13 0.521085 0.332614 0.228940
O O14 0.506867 0.173914 0.273368
O O15 0.750000 0.637185 0.797123
O O16 0.935630 0.500000 0.788291
O O17 0.976167 0.621063 0.855773
O O18 0.250000 0.882189 0.245488
O O19 0.470601 0.868084 0.185190
O O20 0.466971 0.000000 0.249316
O O21 0.250000 0.405804 0.093596
O O22 0.487162 0.500000 0.075121
O O23 0.250000 0.098975 0.130842
O O24 0.012918 0.000000 0.122955
#
# Coordination Sequence:
#
# PCOD8207903 Si02
#       8
#     8   8   8   8   8   8   8   8
#     4   9  16  26  42  63  87 120 163 207 245 276
#     4  10  19  30  45  64  86 109 134 168 210 259
#     4   9  18  31  43  59  91 133 169 195 223 267
#     4  11  21  30  44  68 100 131 152 182 235 288
#     4   9  17  30  49  69  87 114 156 196 223 259
#     4   9  18  34  55  73  87 111 153 197 229 267
#     4   8  15  29  47  63  79 106 145 182 213 249
#     4   8  15  30  51  69  83 105 138 173 212 261
#
# _framework density 16.827860000000001
#
# number of rings (size 3 to 8) (size 9 to 14) (size 15 to 20)
#    0.000    2.875    0.000    3.375    0.000    6.000 
#    0.000    3.750    0.000    1.500    0.000    0.000 
#    0.000    0.500    0.000    1.625    0.000    2.375 
#
# Total GULP energy -793318.776085 kJ/mol
# GULP energy per Si atom -12395.605876 kJ/mol
# Density = 1.678956 g / cm^3
# Si number density = 16.827860 Si / 1000 Ang^3
#
#
#
# Elastic Constant Matrix: (Units=GPa)
#
#
# Indices 1 2 3 4 5 6 
#
# 1 45.7957 32.6376 36.2031 0.0000 0.0000 0.0000
# 2 32.6376 82.4970 53.8140 0.0000 0.0000 0.0000
# 3 36.2031 53.8140 94.4098 0.0000 0.0000 0.0000
# 4 0.0000 0.0000 0.0000 17.5449 0.0000 0.0000
# 5 0.0000 0.0000 0.0000 0.0000 27.6832 0.0000
# 6 0.0000 0.0000 0.0000 0.0000 0.0000 18.4637
#
#
#
# Elastic Compliance Matrix: (Units=1/GPa)
#
#
# Indices 1 2 3 4 5 6 
#
# 1 0.034325 -0.007949 -0.008631 0.000000 0.000000 0.000000
# 2 -0.007949 0.021138 -0.009000 0.000000 0.000000 0.000000
# 3 -0.008631 -0.009000 0.019032 0.000000 0.000000 0.000000
# 4 0.000000 0.000000 0.000000 0.056997 0.000000 0.000000
# 5 0.000000 0.000000 0.000000 0.000000 0.036123 0.000000
# 6 0.000000 0.000000 0.000000 0.000000 0.000000 0.054160
#
#
# Mechanical properties :
#
#
# Convention : Reuss Voigt Hill
#
# Bulk Modulus (GPa) = 42.85812 52.00134 47.42973
# Shear Modulus (GPa) = 17.81176 19.40821 18.60998
#
# Velocity S-wave (km/s) = 3.25694 3.39977 3.32912
# Velocity P-wave (km/s) = 6.29821 6.81030 6.55925
#
# Compressibility (1/GPa) = 0.02333280
#
# Stress axis : x y z
#
# Youngs Moduli (GPa) = 29.13352 47.30924 52.54277
#
# Poissons Ratio (x) = 0.37607 0.45351
# Poissons Ratio (y) = 0.23159 0.47290
# Poissons Ratio (z) = 0.25146 0.42579
#
# Static dielectric constant tensor:
#      x y z
#    x 2.896060 0.000000 0.000000 
#    y 0.000000 3.344200 0.000000 
#    z 0.000000 0.000000 3.143090 
# 
# 
# High freq. dielectric constant tensor:
#      x y z
#    x 1.623980 0.000000 0.000000 
#    y 0.000000 1.633950 0.000000 
#    z 0.000000 0.000000 1.638070 
# 
# From -- ./inp_files/37677.got.cif
#   From: 2010.03.12/outbox.cif.g09.slc.cpg/sg51_19_cif.got.tgz:37677.got - 2010.04.16 13:43:02.
