data_PCOD8207350
_publ_section_title
;
Structure prediction by ZEFSAII (Michael W. Deem and Ramdas Pophale) SiO2 
 PCOD8207350
Probable space group: P M M A
;
_chemical_formula_sum "Si O2"
_cell_formula_units_Z 64
_cell_length_a 19.211049
_cell_length_b 13.665963
_cell_length_c 11.935903
_cell_angle_alpha 90.000000
_cell_angle_beta 90.000000
_cell_angle_gamma 90.000000
_cell_volume 3133.621953
_symmetry_space_group_name_H-M "P M M A"
_symmetry_group_IT_number 51
_symmetry_cell_setting 'orthorhombic'
loop_
_space_group_symop_operation_xyz
x,y,z
1/2-x,-y,z
1/2+x,-y,-z
-x,y,-z
-x,-y,-z
1/2+x,y,-z
1/2-x,y,z
x,-y,z
loop_
_atom_site_type_symbol
_atom_site_label
_atom_site_fract_x
_atom_site_fract_y
_atom_site_fract_z
Si Si1 0.674430 0.183106 0.460032
Si Si2 0.855791 0.393617 0.435123
Si Si3 0.104556 0.816491 0.314585
Si Si4 0.925192 0.607121 0.656308
Si Si5 0.066325 0.393035 0.783831
Si Si6 0.450796 0.113014 0.692343
Si Si7 0.567503 0.202519 0.075335
Si Si8 0.670100 0.112577 0.908955
O O1 0.750000 0.134077 0.432202
O O2 0.690217 0.299690 0.465189
O O3 0.648709 0.144054 0.580319
O O4 0.615372 0.160670 0.369002
O O5 0.818620 0.500000 0.454881
O O6 0.922710 0.389252 0.519969
O O7 0.870772 0.385446 0.303032
O O8 0.118357 0.699901 0.295499
O O9 0.128627 0.875398 0.206536
O O10 0.022862 0.834653 0.341654
O O11 0.896427 0.500000 0.697450
O O12 0.001841 0.623137 0.701921
O O13 0.064387 0.500000 0.842227
O O14 0.071812 0.313690 0.881347
O O15 0.437849 0.125697 0.824077
O O16 0.455668 0.000000 0.660216
O O17 0.500000 0.188802 0.000000
O O18 0.636519 0.180140 0.004511
O O19 0.750000 0.144902 0.893577
O O20 0.664190 0.000000 0.946004
#
# Coordination Sequence:
#
# PCOD8207350 Si02
#       8
#     8   8   8   8   8   8   8   8
#     4  11  24  40  61  93 133 167 199 250 318 387
#     4   9  17  32  57  87 123 166 206 243 293 368
#     4  11  21  41  67  95 124 161 208 262 318 372
#     4   9  16  29  56  94 129 159 198 246 302 369
#     4  10  18  32  57  92 126 161 202 250 307 365
#     4  12  25  41  64  91 121 160 210 263 313 372
#     4  12  23  41  65  93 123 162 206 262 311 366
#     4  11  25  44  67  91 118 161 217 271 319 370
#
# _framework density 20.423651
#
# number of rings (size 3 to 8) (size 9 to 14) (size 15 to 20)
#    0.000    1.375    3.750    1.875    0.000    6.750 
#    0.000    0.625    0.000    2.250    0.000    0.000 
#    0.000    0.000    0.000    0.000    0.000    0.000 
#
# Total GULP energy -792957.906748 kJ/mol
# GULP energy per Si atom -12389.967293 kJ/mol
# Density = 2.037717 g / cm^3
# Si number density = 20.423651 Si / 1000 Ang^3
#
#
#
# Elastic Constant Matrix: (Units=GPa)
#
#
# Indices 1 2 3 4 5 6 
#
# 1 134.4678 31.8200 52.1381 0.0000 0.0000 0.0000
# 2 31.8200 119.0797 30.7289 0.0000 0.0000 0.0000
# 3 52.1381 30.7289 102.9602 0.0000 0.0000 0.0000
# 4 0.0000 0.0000 0.0000 29.5975 0.0000 0.0000
# 5 0.0000 0.0000 0.0000 0.0000 21.0432 0.0000
# 6 0.0000 0.0000 0.0000 0.0000 0.0000 6.5930
#
#
#
# Elastic Compliance Matrix: (Units=1/GPa)
#
#
# Indices 1 2 3 4 5 6 
#
# 1 0.009464 -0.001400 -0.004375 0.000000 0.000000 0.000000
# 2 -0.001400 0.009306 -0.002068 0.000000 0.000000 0.000000
# 3 -0.004375 -0.002068 0.012545 0.000000 0.000000 0.000000
# 4 0.000000 0.000000 0.000000 0.033787 0.000000 0.000000
# 5 0.000000 0.000000 0.000000 0.000000 0.047521 0.000000
# 6 0.000000 0.000000 0.000000 0.000000 0.000000 0.151676
#
#
# Mechanical properties :
#
#
# Convention : Reuss Voigt Hill
#
# Bulk Modulus (GPa) = 63.98486 65.09796 64.54141
# Shear Modulus (GPa) = 17.53186 27.56813 22.55000
#
# Velocity S-wave (km/s) = 2.93304 3.67797 3.32642
# Velocity P-wave (km/s) = 6.54730 7.06963 6.81347
#
# Compressibility (1/GPa) = 0.01562870
#
# Stress axis : x y z
#
# Youngs Moduli (GPa) = 105.66037 107.46225 79.71227
#
# Poissons Ratio (x) = 0.15046 0.34872
# Poissons Ratio (y) = 0.14793 0.16487
# Poissons Ratio (z) = 0.46224 0.22226
#
# Static dielectric constant tensor:
#      x y z
#    x 3.493560 0.000000 0.000000 
#    y 0.000000 4.016370 0.000000 
#    z 0.000000 0.000000 3.576850 
# 
# 
# High freq. dielectric constant tensor:
#      x y z
#    x 1.777180 0.000000 0.000000 
#    y 0.000000 1.813920 0.000000 
#    z 0.000000 0.000000 1.785430 
# 
# From -- ./inp_files/17557.got.cif
#   From: 2010.03.12/outbox.cif.g09.slc.cpg/sg51_9_cif.got.tgz:17557.got - 2010.04.16 13:43:02.
