data_PCOD8207691
_publ_section_title
;
Structure prediction by ZEFSAII (Michael W. Deem and Ramdas Pophale) SiO2 
 PCOD8207691
Probable space group: P M M A
;
_chemical_formula_sum "Si O2"
_cell_formula_units_Z 64
_cell_length_a 9.043532
_cell_length_b 23.801351
_cell_length_c 19.107581
_cell_angle_alpha 90.000000
_cell_angle_beta 90.000000
_cell_angle_gamma 90.000000
_cell_volume 4112.873934
_symmetry_space_group_name_H-M "P M M A"
_symmetry_group_IT_number 51
_symmetry_cell_setting 'orthorhombic'
loop_
_space_group_symop_operation_xyz
x,y,z
1/2-x,-y,z
1/2+x,-y,-z
-x,y,-z
-x,-y,-z
1/2+x,y,-z
1/2-x,y,z
x,-y,z
loop_
_atom_site_type_symbol
_atom_site_label
_atom_site_fract_x
_atom_site_fract_y
_atom_site_fract_z
Si Si1 0.422076 0.936167 0.798908
Si Si2 0.424186 0.437005 0.572631
Si Si3 0.075844 0.164534 0.707551
Si Si4 0.923156 0.884373 0.929279
Si Si5 0.576643 0.245885 0.928893
Si Si6 0.425157 0.224516 0.572959
Si Si7 0.924796 0.332038 0.343460
Si Si8 0.925124 0.728493 0.207701
O O1 0.250000 0.925345 0.815986
O O2 0.475417 0.896651 0.734541
O O3 0.515715 0.922366 0.867153
O O4 0.451507 0.000000 0.775733
O O5 0.500000 0.421049 0.500000
O O6 0.250000 0.431604 0.561111
O O7 0.468188 0.500000 0.596636
O O8 0.481049 0.393362 0.631742
O O9 0.250000 0.170252 0.705937
O O10 0.020775 0.176856 0.628568
O O11 0.019165 0.211953 0.761344
O O12 0.750000 0.894366 0.936615
O O13 0.961754 0.819346 0.915582
O O14 0.000000 0.905517 0.000000
O O15 0.750000 0.256829 0.934930
O O16 0.509997 0.282030 0.864957
O O17 0.500000 0.266928 0.000000
O O18 0.500000 0.210341 0.500000
O O19 0.250000 0.224166 0.562465
O O20 0.482091 0.284567 0.602526
O O21 0.750000 0.328757 0.344669
O O22 0.974891 0.319471 0.263640
O O23 0.750000 0.727552 0.193598
#
# Coordination Sequence:
#
# PCOD8207691 Si02
#       8
#     8   8   8   8   8   8   8   8
#     4  10  19  31  48  65  79 101 137 175 207 246
#     4   9  16  26  40  59  87 122 157 187 211 243
#     4   8  15  28  44  60  80 104 130 163 208 253
#     4  10  20  32  46  63  85 111 137 167 201 243
#     4  10  19  29  43  64  87 112 140 168 203 250
#     4   9  16  27  43  62  83 107 135 170 208 250
#     4   8  15  26  41  62  86 115 147 176 212 250
#     4   9  15  27  46  61  80 110 140 174 211 250
#
# _framework density 15.560893999999999
#
# number of rings (size 3 to 8) (size 9 to 14) (size 15 to 20)
#    0.000    2.875    1.250    2.625    0.000    1.500 
#    0.000    3.750    0.000    0.375    0.000    0.000 
#    0.000    0.500    0.000    0.875    0.000    1.250 
#
# Total GULP energy -793280.012720 kJ/mol
# GULP energy per Si atom -12395.000199 kJ/mol
# Density = 1.552548 g / cm^3
# Si number density = 15.560894 Si / 1000 Ang^3
#
#
#
# Elastic Constant Matrix: (Units=GPa)
#
#
# Indices 1 2 3 4 5 6 
#
# 1 41.5165 26.0915 40.2816 0.0000 0.0000 0.0000
# 2 26.0915 94.0430 66.7021 0.0000 0.0000 0.0000
# 3 40.2816 66.7021 144.1937 0.0000 0.0000 0.0000
# 4 0.0000 0.0000 0.0000 25.8615 0.0000 0.0000
# 5 0.0000 0.0000 0.0000 0.0000 27.2125 0.0000
# 6 0.0000 0.0000 0.0000 0.0000 0.0000 12.1377
#
#
#
# Elastic Compliance Matrix: (Units=1/GPa)
#
#
# Indices 1 2 3 4 5 6 
#
# 1 0.034033 -0.004017 -0.007649 0.000000 0.000000 0.000000
# 2 -0.004017 0.016300 -0.006418 0.000000 0.000000 0.000000
# 3 -0.007649 -0.006418 0.012041 0.000000 0.000000 0.000000
# 4 0.000000 0.000000 0.000000 0.038668 0.000000 0.000000
# 5 0.000000 0.000000 0.000000 0.000000 0.036748 0.000000
# 6 0.000000 0.000000 0.000000 0.000000 0.000000 0.082388
#
#
# Mechanical properties :
#
#
# Convention : Reuss Voigt Hill
#
# Bulk Modulus (GPa) = 38.15968 60.65596 49.40782
# Shear Modulus (GPa) = 18.86222 22.82087 20.84155
#
# Velocity S-wave (km/s) = 3.48538 3.83371 3.66369
# Velocity P-wave (km/s) = 6.38539 7.65904 7.05103
#
# Compressibility (1/GPa) = 0.02620567
#
# Stress axis : x y z
#
# Youngs Moduli (GPa) = 29.38336 61.34974 83.05034
#
# Poissons Ratio (x) = 0.24643 0.63527
# Poissons Ratio (y) = 0.11803 0.53302
# Poissons Ratio (z) = 0.22476 0.39375
#
# Static dielectric constant tensor:
#      x y z
#    x 2.718080 0.000000 0.000000 
#    y 0.000000 3.036780 0.000000 
#    z 0.000000 0.000000 3.162450 
# 
# 
# High freq. dielectric constant tensor:
#      x y z
#    x 1.578820 0.000000 0.000000 
#    y 0.000000 1.567400 0.000000 
#    z 0.000000 0.000000 1.596580 
# 
# From -- ./inp_files/32636.got.cif
#   From: 2010.03.12/outbox.cif.g09.slc.cpg/sg51_17_cif.got.tgz:32636.got - 2010.04.16 13:43:02.
