data_PCOD8207085
_publ_section_title
;
Structure prediction by ZEFSAII (Michael W. Deem and Ramdas Pophale) SiO2 
 PCOD8207085
Probable space group: P M M A
;
_chemical_formula_sum "Si O2"
_cell_formula_units_Z 64
_cell_length_a 23.296260
_cell_length_b 9.205605
_cell_length_c 18.120595
_cell_angle_alpha 90.000000
_cell_angle_beta 90.000000
_cell_angle_gamma 90.000000
_cell_volume 3886.073357
_symmetry_space_group_name_H-M "P M M A"
_symmetry_group_IT_number 51
_symmetry_cell_setting 'orthorhombic'
loop_
_space_group_symop_operation_xyz
x,y,z
1/2-x,-y,z
1/2+x,-y,-z
-x,y,-z
-x,-y,-z
1/2+x,y,-z
1/2-x,y,z
x,-y,z
loop_
_atom_site_type_symbol
_atom_site_label
_atom_site_fract_x
_atom_site_fract_y
_atom_site_fract_z
Si Si1 0.874831 0.826968 0.862603
Si Si2 0.495813 0.829772 0.081897
Si Si3 0.620530 0.829870 0.125739
Si Si4 0.818410 0.837999 0.555686
Si Si5 0.816817 0.668505 0.994434
Si Si6 0.683948 0.830852 0.273617
Si Si7 0.686166 0.172604 0.716728
Si Si8 0.681604 0.662995 0.416961
O O1 0.939677 0.769775 0.876051
O O2 0.857030 0.775425 0.780590
O O3 0.868857 0.000000 0.871702
O O4 0.832033 0.751866 0.919690
O O5 0.552753 0.793961 0.128544
O O6 0.487422 0.000000 0.072456
O O7 0.500000 0.759601 0.000000
O O8 0.648723 0.737367 0.061618
O O9 0.646956 0.781747 0.203471
O O10 0.631727 0.000000 0.109648
O O11 0.750000 0.843121 0.552133
O O12 0.836497 0.774297 0.636216
O O13 0.843632 0.737323 0.490768
O O14 0.843207 0.000000 0.543859
O O15 0.750000 0.689088 0.010826
O O16 0.833513 0.500000 0.986751
O O17 0.750000 0.790798 0.257266
O O18 0.659630 0.746508 0.344474
O O19 0.676850 0.000000 0.290476
O O20 0.750000 0.235184 0.732901
O O21 0.689830 0.000000 0.713720
O O22 0.750000 0.667210 0.419082
O O23 0.657894 0.500000 0.413768
#
# Coordination Sequence:
#
# PCOD8207085 Si02
#       8
#     8   8   8   8   8   8   8   8
#     4  10  18  31  51  69  89 120 156 190 227 274
#     4   9  16  29  49  72  91 111 148 199 238 262
#     4  10  19  33  51  68  88 118 156 191 227 274
#     4   8  13  23  39  59  86 116 145 178 213 255
#     4  11  23  34  44  64  94 122 149 186 232 275
#     4   9  17  28  43  64  88 115 148 184 221 264
#     4   8  14  24  41  67  92 115 148 186 221 262
#     4   9  16  25  39  61  89 119 146 172 212 267
#
# _framework density 16.469066000000002
#
# number of rings (size 3 to 8) (size 9 to 14) (size 15 to 20)
#    0.000    2.750    1.250    2.250    0.000    4.000 
#    0.000    3.125    0.000    2.250    0.000    0.875 
#    0.000    7.000    0.000    0.000    0.000    0.000 
#
# Total GULP energy -793362.714011 kJ/mol
# GULP energy per Si atom -12396.292406 kJ/mol
# Density = 1.643158 g / cm^3
# Si number density = 16.469066 Si / 1000 Ang^3
#
#
#
# Elastic Constant Matrix: (Units=GPa)
#
#
# Indices 1 2 3 4 5 6 
#
# 1 54.5885 14.0474 35.3366 0.0000 0.0000 0.0000
# 2 14.0474 51.3956 40.0527 0.0000 0.0000 0.0000
# 3 35.3366 40.0527 145.2472 0.0000 0.0000 0.0000
# 4 0.0000 0.0000 0.0000 7.2333 0.0000 0.0000
# 5 0.0000 0.0000 0.0000 0.0000 4.9466 0.0000
# 6 0.0000 0.0000 0.0000 0.0000 0.0000 10.3884
#
#
#
# Elastic Compliance Matrix: (Units=1/GPa)
#
#
# Indices 1 2 3 4 5 6 
#
# 1 0.021962 -0.002342 -0.004697 0.000000 0.000000 0.000000
# 2 -0.002342 0.025032 -0.006333 0.000000 0.000000 0.000000
# 3 -0.004697 -0.006333 0.009774 0.000000 0.000000 0.000000
# 4 0.000000 0.000000 0.000000 0.138250 0.000000 0.000000
# 5 0.000000 0.000000 0.000000 0.000000 0.202161 0.000000
# 6 0.000000 0.000000 0.000000 0.000000 0.000000 0.096261
#
#
# Mechanical properties :
#
#
# Convention : Reuss Voigt Hill
#
# Bulk Modulus (GPa) = 33.30685 47.78939 40.54812
# Shear Modulus (GPa) = 9.43052 15.29995 12.36524
#
# Velocity S-wave (km/s) = 2.39554 3.05128 2.74307
# Velocity P-wave (km/s) = 5.28387 6.44161 5.89125
#
# Compressibility (1/GPa) = 0.03002386
#
# Stress axis : x y z
#
# Youngs Moduli (GPa) = 45.53266 39.94820 102.31267
#
# Poissons Ratio (x) = 0.09356 0.48059
# Poissons Ratio (y) = 0.10664 0.64795
# Poissons Ratio (z) = 0.21388 0.25299
#
# Static dielectric constant tensor:
#      x y z
#    x 2.940930 0.000000 0.000000 
#    y 0.000000 2.945380 0.000000 
#    z 0.000000 0.000000 3.420580 
# 
# 
# High freq. dielectric constant tensor:
#      x y z
#    x 1.596510 0.000000 0.000000 
#    y 0.000000 1.609340 0.000000 
#    z 0.000000 0.000000 1.644950 
# 
# From -- ./inp_files/30836.got.cif
#   From: 2010.03.12/outbox.cif.g09.slc.cpg/sg51_16_cif.got.tgz:30836.got - 2010.04.16 13:43:02.
