data_PCOD8207519
_publ_section_title
;
Structure prediction by ZEFSAII (Michael W. Deem and Ramdas Pophale) SiO2 
 PCOD8207519
Probable space group: P M M A
;
_chemical_formula_sum "Si O2"
_cell_formula_units_Z 48
_cell_length_a 16.075412
_cell_length_b 9.310388
_cell_length_c 16.357935
_cell_angle_alpha 90.000000
_cell_angle_beta 90.000000
_cell_angle_gamma 90.000000
_cell_volume 2448.264699
_symmetry_space_group_name_H-M "P M M A"
_symmetry_group_IT_number 51
_symmetry_cell_setting 'orthorhombic'
loop_
_space_group_symop_operation_xyz
x,y,z
1/2-x,-y,z
1/2+x,-y,-z
-x,y,-z
-x,-y,-z
1/2+x,y,-z
1/2-x,y,z
x,-y,z
loop_
_atom_site_type_symbol
_atom_site_label
_atom_site_fract_x
_atom_site_fract_y
_atom_site_fract_z
Si Si1 0.154591 0.167761 0.311842
Si Si2 0.878917 0.663166 0.354325
Si Si3 0.902232 0.839288 0.509699
Si Si4 0.750000 0.332118 0.088175
Si Si5 0.250000 0.829993 0.746995
Si Si6 0.435202 0.331414 0.934739
Si Si7 0.981527 0.662365 0.769153
O O1 0.250000 0.210718 0.298781
O O2 0.125647 0.217054 0.401858
O O3 0.101876 0.245036 0.240946
O O4 0.139051 0.000000 0.301638
O O5 0.844377 0.500000 0.352850
O O6 0.868813 0.723408 0.445438
O O7 0.830509 0.768637 0.295813
O O8 0.971819 0.667969 0.318300
O O9 0.000000 0.846692 0.500000
O O10 0.865235 0.000000 0.493799
O O11 0.750000 0.500000 0.116325
O O12 0.750000 0.222972 0.161587
O O13 0.662179 0.297108 0.041782
O O14 0.250000 0.000000 0.743402
O O15 0.446774 0.500000 0.936235
O O16 0.460902 0.276913 0.843571
O O17 0.500000 0.261479 0.000000
O O18 0.954677 0.500000 0.789517
#
# Coordination Sequence:
#
# PCOD8207519 Si02
#       7
#     8   8   8   4   4   8   8
#     4  10  22  39  56  77 113 158 199 236 285 344
#     4  11  22  36  55  83 115 149 190 242 302 346
#     4  10  20  35  55  79 108 149 198 243 284 339
#     4  10  18  36  62  88 121 154 187 238 295 348
#     4  12  24  36  56  84 115 150 191 238 293 358
#     4   9  18  35  60  90 120 151 189 236 292 350
#     4  10  20  36  59  84 112 144 189 242 290 346
#
# _framework density 19.605723000000001
#
# number of rings (size 3 to 8) (size 9 to 14) (size 15 to 20)
#    0.000    1.833    3.333    1.250    1.167    2.000 
#    1.500    0.000    0.000    2.000    0.000    0.000 
#    0.000    0.000    0.000    0.000    0.000    0.000 
#
# Total GULP energy -594852.523745 kJ/mol
# GULP energy per Si atom -12392.760911 kJ/mol
# Density = 1.956110 g / cm^3
# Si number density = 19.605723 Si / 1000 Ang^3
#
#
#
# Elastic Constant Matrix: (Units=GPa)
#
#
# Indices 1 2 3 4 5 6 
#
# 1 142.2711 40.5341 51.6781 0.0000 0.0000 0.0000
# 2 40.5341 85.0072 26.2425 0.0000 0.0000 0.0000
# 3 51.6781 26.2425 78.2536 0.0000 0.0000 0.0000
# 4 0.0000 0.0000 0.0000 24.8925 0.0000 0.0000
# 5 0.0000 0.0000 0.0000 0.0000 32.9018 0.0000
# 6 0.0000 0.0000 0.0000 0.0000 0.0000 30.9681
#
#
#
# Elastic Compliance Matrix: (Units=1/GPa)
#
#
# Indices 1 2 3 4 5 6 
#
# 1 0.009893 -0.003012 -0.005523 0.000000 0.000000 0.000000
# 2 -0.003012 0.014039 -0.002719 0.000000 0.000000 0.000000
# 3 -0.005523 -0.002719 0.017338 0.000000 0.000000 0.000000
# 4 0.000000 0.000000 0.000000 0.040173 0.000000 0.000000
# 5 0.000000 0.000000 0.000000 0.000000 0.030393 0.000000
# 6 0.000000 0.000000 0.000000 0.000000 0.000000 0.032291
#
#
# Mechanical properties :
#
#
# Convention : Reuss Voigt Hill
#
# Bulk Modulus (GPa) = 53.29887 60.27122 56.78505
# Shear Modulus (GPa) = 28.91987 30.22429 29.57208
#
# Velocity S-wave (km/s) = 3.84483 3.93059 3.88795
# Velocity P-wave (km/s) = 6.85235 7.16992 7.01293
#
# Compressibility (1/GPa) = 0.01876212
#
# Stress axis : x y z
#
# Youngs Moduli (GPa) = 101.07808 71.22801 57.67589
#
# Poissons Ratio (x) = 0.21456 0.31856
# Poissons Ratio (y) = 0.30448 0.15681
# Poissons Ratio (z) = 0.55828 0.19365
#
# Static dielectric constant tensor:
#      x y z
#    x 3.641250 0.000000 0.000000 
#    y 0.000000 3.412620 0.000000 
#    z 0.000000 0.000000 3.860590 
# 
# 
# High freq. dielectric constant tensor:
#      x y z
#    x 1.771430 0.000000 0.000000 
#    y 0.000000 1.740190 0.000000 
#    z 0.000000 0.000000 1.746150 
# 
# From -- ./inp_files/29567.got.cif
#   From: 2010.03.12/outbox.cif.g09.slc.cpg/sg51_15_cif.got.tgz:29567.got - 2010.04.16 13:43:02.
