data_PCOD8207834
_publ_section_title
;
Structure prediction by ZEFSAII (Michael W. Deem and Ramdas Pophale) SiO2 
 PCOD8207834
Probable space group: P M M A
;
_chemical_formula_sum "Si O2"
_cell_formula_units_Z 64
_cell_length_a 9.222228
_cell_length_b 17.373874
_cell_length_c 27.915913
_cell_angle_alpha 90.000000
_cell_angle_beta 90.000000
_cell_angle_gamma 90.000000
_cell_volume 4472.850254
_symmetry_space_group_name_H-M "P M M A"
_symmetry_group_IT_number 51
_symmetry_cell_setting 'orthorhombic'
loop_
_space_group_symop_operation_xyz
x,y,z
1/2-x,-y,z
1/2+x,-y,-z
-x,y,-z
-x,-y,-z
1/2+x,y,-z
1/2-x,y,z
x,-y,z
loop_
_atom_site_type_symbol
_atom_site_label
_atom_site_fract_x
_atom_site_fract_y
_atom_site_fract_z
Si Si1 0.909337 0.409656 0.365547
Si Si2 0.088150 0.415556 0.096828
Si Si3 0.083296 0.301773 0.184824
Si Si4 0.412125 0.408152 0.454235
Si Si5 0.593162 0.690340 0.040805
Si Si6 0.578216 0.411606 0.257266
Si Si7 0.586630 0.810603 0.123519
Si Si8 0.417053 0.090947 0.048627
O O1 0.750000 0.372465 0.372563
O O2 0.895709 0.500000 0.373870
O O3 0.966320 0.393810 0.312042
O O4 0.017135 0.374878 0.405384
O O5 0.250000 0.416020 0.076137
O O6 0.039836 0.500000 0.114298
O O7 0.076995 0.359152 0.140975
O O8 0.984382 0.389698 0.053795
O O9 0.250000 0.281614 0.198382
O O10 0.005656 0.346390 0.227928
O O11 0.998795 0.222376 0.170350
O O12 0.500000 0.377122 0.500000
O O13 0.250000 0.375288 0.457498
O O14 0.410838 0.500000 0.453804
O O15 0.750000 0.671946 0.019428
O O16 0.604586 0.741043 0.087415
O O17 0.500000 0.733920 0.000000
O O18 0.750000 0.402384 0.249395
O O19 0.532822 0.500000 0.243906
O O20 0.750000 0.839852 0.137603
O O21 0.494616 0.876401 0.096398
O O22 0.250000 0.120460 0.045621
O O23 0.421468 0.000000 0.054142
O O24 0.500000 0.116329 0.000000
#
# Coordination Sequence:
#
# PCOD8207834 Si02
#       8
#     8   8   8   8   8   8   8   8
#     4   8  14  24  35  47  65  89 117 151 192 235
#     4   9  18  31  43  54  69  89 114 145 179 214
#     4  10  19  30  44  60  77  97 123 155 190 227
#     4   9  15  21  30  44  62  85 113 146 186 234
#     4  10  20  31  43  58  73  92 116 141 171 206
#     4   9  17  28  41  56  75  99 127 162 203 243
#     4  10  20  33  48  64  82 103 126 150 177 213
#     4  10  20  33  50  72  94 112 128 146 172 209
#
# _framework density 14.30855
#
# number of rings (size 3 to 8) (size 9 to 14) (size 15 to 20)
#    0.000    2.625    0.000    3.375    0.000    7.000 
#    0.000    1.250    0.000    0.000    0.000    0.000 
#    0.000    0.000    0.000    0.000    0.000    0.000 
#
# Total GULP energy -793062.277133 kJ/mol
# GULP energy per Si atom -12391.598080 kJ/mol
# Density = 1.427598 g / cm^3
# Si number density = 14.308550 Si / 1000 Ang^3
#
#
#
# Elastic Constant Matrix: (Units=GPa)
#
#
# Indices 1 2 3 4 5 6 
#
# 1 115.0310 22.7270 49.6059 0.0000 0.0000 0.0000
# 2 22.7270 29.9490 15.2879 0.0000 0.0000 0.0000
# 3 49.6059 15.2879 75.9078 0.0000 0.0000 0.0000
# 4 0.0000 0.0000 0.0000 -37.5479 0.0000 0.0000
# 5 0.0000 0.0000 0.0000 0.0000 24.3738 0.0000
# 6 0.0000 0.0000 0.0000 0.0000 0.0000 -5.2251
#
#
#
# Elastic Compliance Matrix: (Units=1/GPa)
#
#
# Indices 1 2 3 4 5 6 
#
# 1 0.013059 -0.006190 -0.007287 0.000000 0.000000 0.000000
# 2 -0.006190 0.040150 -0.004041 0.000000 0.000000 0.000000
# 3 -0.007287 -0.004041 0.018750 0.000000 0.000000 0.000000
# 4 0.000000 0.000000 0.000000 -0.026633 0.000000 0.000000
# 5 0.000000 0.000000 0.000000 0.000000 0.041028 0.000000
# 6 0.000000 0.000000 0.000000 0.000000 0.000000 -0.191382
#
#
# Mechanical properties :
#
#
# Convention : Reuss Voigt Hill
#
# Bulk Modulus (GPa) = 27.08391 44.01438 35.54915
# Shear Modulus (GPa) = -86.67884 5.20461 -40.73711
#
# Velocity S-wave (km/s) = -7.79165 1.90927 -5.34156
# Velocity P-wave (km/s) = 7.87254 5.97395 3.62552
#
# Compressibility (1/GPa) = 0.03692228
#
# Stress axis : x y z
#
# Youngs Moduli (GPa) = 76.57643 24.90652 53.33321
#
# Poissons Ratio (x) = 0.15417 0.38866
# Poissons Ratio (y) = 0.47400 0.21553
# Poissons Ratio (z) = 0.55804 0.10065
#
# Static dielectric constant tensor:
#      x y z
#    x 3.236030 0.000000 0.000000 
#    y 0.000000 2.456790 0.000000 
#    z 0.000000 0.000000 2.763100 
# 
# 
# High freq. dielectric constant tensor:
#      x y z
#    x 1.566250 0.000000 0.000000 
#    y 0.000000 1.490270 0.000000 
#    z 0.000000 0.000000 1.526520 
# 
# From -- ./inp_files/36442.got.cif
#   From: 2010.03.12/outbox.cif.g09.slc.cpg/sg51_19_cif.got.tgz:36442.got - 2010.04.16 13:43:02.
