data_PCOD8207925
_publ_section_title
;
Structure prediction by ZEFSAII (Michael W. Deem and Ramdas Pophale) SiO2 
 PCOD8207925
Probable space group: P M M A
;
_chemical_formula_sum "Si O2"
_cell_formula_units_Z 64
_cell_length_a 19.759875
_cell_length_b 9.010615
_cell_length_c 19.034225
_cell_angle_alpha 90.000000
_cell_angle_beta 90.000000
_cell_angle_gamma 90.000000
_cell_volume 3389.017610
_symmetry_space_group_name_H-M "P M M A"
_symmetry_group_IT_number 51
_symmetry_cell_setting 'orthorhombic'
loop_
_space_group_symop_operation_xyz
x,y,z
1/2-x,-y,z
1/2+x,-y,-z
-x,y,-z
-x,-y,-z
1/2+x,y,-z
1/2-x,y,z
x,-y,z
loop_
_atom_site_type_symbol
_atom_site_label
_atom_site_fract_x
_atom_site_fract_y
_atom_site_fract_z
Si Si1 0.673535 0.338815 0.123557
Si Si2 0.636585 0.164446 0.256375
Si Si3 0.516170 0.166160 0.790634
Si Si4 0.922197 0.832598 0.522126
Si Si5 0.454943 0.324294 0.067602
Si Si6 0.671109 0.825889 0.987822
Si Si7 0.047815 0.332213 0.342835
Si Si8 0.392173 0.667106 0.612056
O O1 0.750000 0.370069 0.103083
O O2 0.635087 0.500000 0.122137
O O3 0.672129 0.266721 0.199456
O O4 0.645118 0.227927 0.064543
O O5 0.557897 0.153592 0.240779
O O6 0.650541 0.238353 0.331773
O O7 0.668934 0.000000 0.255642
O O8 0.510730 0.257688 0.862802
O O9 0.560675 0.252246 0.732205
O O10 0.545617 0.000000 0.803323
O O11 0.910694 0.755419 0.597431
O O12 0.880945 0.741191 0.463794
O O13 0.000000 0.833493 0.500000
O O14 0.894221 0.000000 0.526295
O O15 0.449774 0.500000 0.074444
O O16 0.378648 0.257851 0.065846
O O17 0.500000 0.277982 0.000000
O O18 0.750000 0.787786 0.971912
O O19 0.658622 0.000000 0.983116
O O20 0.075330 0.500000 0.337245
O O21 0.969829 0.333297 0.364612
O O22 0.363986 0.500000 0.609095
#
# Coordination Sequence:
#
# PCOD8207925 Si02
#       8
#     8   8   8   8   8   8   8   8
#     4  10  20  33  49  68  90 118 153 193 236 282
#     4  10  19  30  45  65  91 123 157 194 236 281
#     4  10  20  32  46  66  93 124 157 194 238 286
#     4   9  15  23  36  55  81 113 150 188 225 269
#     4  11  23  36  52  75 102 132 166 204 248 299
#     4  10  21  37  56  76  98 127 164 205 249 296
#     4   9  16  26  40  58  83 116 152 188 228 275
#     4   9  16  25  38  57  83 116 152 188 226 271
#
# _framework density 18.884529000000001
#
# number of rings (size 3 to 8) (size 9 to 14) (size 15 to 20)
#    0.000    2.250    0.000    3.750    0.000   10.500 
#    0.000    0.000    0.000    0.000    0.000    0.000 
#    0.000    1.000    0.000    3.750    0.000    6.125 
#
# Total GULP energy -793389.936363 kJ/mol
# GULP energy per Si atom -12396.717756 kJ/mol
# Density = 1.884155 g / cm^3
# Si number density = 18.884529 Si / 1000 Ang^3
#
#
#
# Elastic Constant Matrix: (Units=GPa)
#
#
# Indices 1 2 3 4 5 6 
#
# 1 25.0959 17.0818 4.6814 0.0000 0.0000 0.0000
# 2 17.0818 161.3003 57.1521 0.0000 0.0000 0.0000
# 3 4.6814 57.1521 116.9564 0.0000 0.0000 0.0000
# 4 0.0000 0.0000 0.0000 41.0582 0.0000 0.0000
# 5 0.0000 0.0000 0.0000 0.0000 15.5582 0.0000
# 6 0.0000 0.0000 0.0000 0.0000 0.0000 15.4027
#
#
#
# Elastic Compliance Matrix: (Units=1/GPa)
#
#
# Indices 1 2 3 4 5 6 
#
# 1 0.042978 -0.004767 0.000609 0.000000 0.000000 0.000000
# 2 -0.004767 0.008027 -0.003731 0.000000 0.000000 0.000000
# 3 0.000609 -0.003731 0.010349 0.000000 0.000000 0.000000
# 4 0.000000 0.000000 0.000000 0.024356 0.000000 0.000000
# 5 0.000000 0.000000 0.000000 0.000000 0.064275 0.000000
# 6 0.000000 0.000000 0.000000 0.000000 0.000000 0.064924
#
#
# Mechanical properties :
#
#
# Convention : Reuss Voigt Hill
#
# Bulk Modulus (GPa) = 21.94174 51.24257 36.59216
# Shear Modulus (GPa) = 20.33521 29.36630 24.85075
#
# Velocity S-wave (km/s) = 3.28505 3.94768 3.63151
# Velocity P-wave (km/s) = 5.10224 6.92622 6.08298
#
# Compressibility (1/GPa) = 0.04557523
#
# Stress axis : x y z
#
# Youngs Moduli (GPa) = 23.26755 124.58538 96.62542
#
# Poissons Ratio (x) = 0.59394 -0.05888
# Poissons Ratio (y) = 0.11092 0.36056
# Poissons Ratio (z) = -0.01418 0.46489
#
# Static dielectric constant tensor:
#      x y z
#    x 2.961450 0.000000 0.000000 
#    y 0.000000 3.817440 0.000000 
#    z 0.000000 0.000000 3.535070 
# 
# 
# High freq. dielectric constant tensor:
#      x y z
#    x 1.665800 0.000000 0.000000 
#    y 0.000000 1.758170 0.000000 
#    z 0.000000 0.000000 1.734020 
# 
# From -- ./inp_files/30659.got.cif
#   From: 2010.03.12/outbox.cif.g09.slc.cpg/sg51_16_cif.got.tgz:30659.got - 2010.04.16 13:43:02.
