data_PCOD8207835
_publ_section_title
;
Structure prediction by ZEFSAII (Michael W. Deem and Ramdas Pophale) SiO2 
 PCOD8207835
Probable space group: P M M A
;
_chemical_formula_sum "Si O2"
_cell_formula_units_Z 40
_cell_length_a 9.003625
_cell_length_b 15.220599
_cell_length_c 20.504724
_cell_angle_alpha 90.000000
_cell_angle_beta 90.000000
_cell_angle_gamma 90.000000
_cell_volume 2809.978976
_symmetry_space_group_name_H-M "P M M A"
_symmetry_group_IT_number 51
_symmetry_cell_setting 'orthorhombic'
loop_
_space_group_symop_operation_xyz
x,y,z
1/2-x,-y,z
1/2+x,-y,-z
-x,y,-z
-x,-y,-z
1/2+x,y,-z
1/2-x,y,z
x,-y,z
loop_
_atom_site_type_symbol
_atom_site_label
_atom_site_fract_x
_atom_site_fract_y
_atom_site_fract_z
Si Si1 0.917581 0.104576 0.807619
Si Si2 0.082220 0.895230 0.935730
Si Si3 0.574344 0.783322 0.570495
Si Si4 0.079769 0.895923 0.677818
Si Si5 0.077583 0.407258 0.431422
O O1 0.750000 0.141312 0.805148
O O2 0.997686 0.141567 0.872204
O O3 0.006068 0.138634 0.744575
O O4 0.916960 0.000000 0.809455
O O5 0.250000 0.859264 0.935314
O O6 0.081695 0.000000 0.935461
O O7 0.000000 0.859208 0.000000
O O8 0.500000 0.793439 0.500000
O O9 0.750000 0.798992 0.563790
O O10 0.507017 0.856334 0.617083
O O11 0.536844 0.686255 0.602152
O O12 0.250000 0.865044 0.676988
O O13 0.066287 0.000000 0.672371
O O14 0.250000 0.405583 0.446692
O O15 0.037350 0.500000 0.393178
O O16 0.000000 0.410051 0.500000
#
# Coordination Sequence:
#
# PCOD8207835 Si02
#       5
#     8   8   8   8   8
#     4   9  16  26  39  53  69  91 121 156 192 229
#     4   9  15  22  33  50  71  93 118 150 187 224
#     4  10  19  30  44  60  77  97 123 157 194 231
#     4  10  20  32  43  54  71  98 131 165 198 230
#     4   8  14  25  41  60  79  96 114 140 179 227
#
# _framework density 14.234982
#
# number of rings (size 3 to 8) (size 9 to 14) (size 15 to 20)
#    0.000    2.800    0.000    2.400    0.000    7.200 
#    0.000    0.000    0.000    0.000    0.000    0.000 
#    0.000    0.000    0.000    0.000    0.000    1.000 
#
# Total GULP energy -495532.164800 kJ/mol
# GULP energy per Si atom -12388.304120 kJ/mol
# Density = 1.420258 g / cm^3
# Si number density = 14.234982 Si / 1000 Ang^3
#
#
#
# Elastic Constant Matrix: (Units=GPa)
#
#
# Indices 1 2 3 4 5 6 
#
# 1 109.8527 24.2503 55.3685 0.0000 0.0000 0.0000
# 2 24.2503 25.3679 25.2025 0.0000 0.0000 0.0000
# 3 55.3685 25.2025 101.1390 0.0000 0.0000 0.0000
# 4 0.0000 0.0000 0.0000 0.2062 0.0000 0.0000
# 5 0.0000 0.0000 0.0000 0.0000 28.1539 0.0000
# 6 0.0000 0.0000 0.0000 0.0000 0.0000 8.9699
#
#
#
# Elastic Compliance Matrix: (Units=1/GPa)
#
#
# Indices 1 2 3 4 5 6 
#
# 1 0.013547 -0.007419 -0.005568 0.000000 0.000000 0.000000
# 2 -0.007419 0.056453 -0.010006 0.000000 0.000000 0.000000
# 3 -0.005568 -0.010006 0.015429 0.000000 0.000000 0.000000
# 4 0.000000 0.000000 0.000000 4.849503 0.000000 0.000000
# 5 0.000000 0.000000 0.000000 0.000000 0.035519 0.000000
# 6 0.000000 0.000000 0.000000 0.000000 0.000000 0.111484
#
#
# Mechanical properties :
#
#
# Convention : Reuss Voigt Hill
#
# Bulk Modulus (GPa) = 25.35262 49.55581 37.45421
# Shear Modulus (GPa) = 0.97256 16.23522 8.60389
#
# Velocity S-wave (km/s) = 0.82747 3.38082 2.46116
# Velocity P-wave (km/s) = 4.33148 7.08012 5.86898
#
# Compressibility (1/GPa) = 0.03944366
#
# Stress axis : x y z
#
# Youngs Moduli (GPa) = 73.81665 17.71399 64.81434
#
# Poissons Ratio (x) = 0.13142 0.36086
# Poissons Ratio (y) = 0.54764 0.64852
# Poissons Ratio (z) = 0.41098 0.17724
#
# Static dielectric constant tensor:
#      x y z
#    x 3.023550 0.000000 0.000000 
#    y 0.000000 2.812520 0.000000 
#    z 0.000000 0.000000 2.705210 
# 
# 
# High freq. dielectric constant tensor:
#      x y z
#    x 1.566320 0.000000 0.000000 
#    y 0.000000 1.494490 0.000000 
#    z 0.000000 0.000000 1.524390 
# 
# From -- ./inp_files/27211.got.cif
#   From: 2010.03.12/outbox.cif.g09.slc.cpg/sg51_14_cif.got.tgz:27211.got - 2010.04.16 13:43:02.
