data_PCOD8207674
_publ_section_title
;
Structure prediction by ZEFSAII (Michael W. Deem and Ramdas Pophale) SiO2 
 PCOD8207674
Probable space group: P M M A
;
_chemical_formula_sum "Si O2"
_cell_formula_units_Z 64
_cell_length_a 8.847149
_cell_length_b 25.794469
_cell_length_c 18.329872
_cell_angle_alpha 90.000000
_cell_angle_beta 90.000000
_cell_angle_gamma 90.000000
_cell_volume 4183.014459
_symmetry_space_group_name_H-M "P M M A"
_symmetry_group_IT_number 51
_symmetry_cell_setting 'orthorhombic'
loop_
_space_group_symop_operation_xyz
x,y,z
1/2-x,-y,z
1/2+x,-y,-z
-x,y,-z
-x,-y,-z
1/2+x,y,-z
1/2-x,y,z
x,-y,z
loop_
_atom_site_type_symbol
_atom_site_label
_atom_site_fract_x
_atom_site_fract_y
_atom_site_fract_z
Si Si1 0.583212 0.696504 0.710977
Si Si2 0.072228 0.252291 0.921135
Si Si3 0.419619 0.196397 0.203712
Si Si4 0.570338 0.853377 0.334819
Si Si5 0.425670 0.060384 0.423533
Si Si6 0.924751 0.355652 0.165997
Si Si7 0.570729 0.760024 0.577373
Si Si8 0.572860 0.559120 0.924878
O O1 0.750000 0.671147 0.712373
O O2 0.586578 0.750401 0.752981
O O3 0.467752 0.657259 0.750138
O O4 0.533197 0.710120 0.628461
O O5 0.250000 0.244222 0.926552
O O6 0.031376 0.307660 0.885750
O O7 0.003691 0.205587 0.873062
O O8 0.000000 0.249974 0.000000
O O9 0.250000 0.175529 0.189334
O O10 0.512104 0.155376 0.252326
O O11 0.750000 0.850683 0.335752
O O12 0.511550 0.909550 0.359272
O O13 0.504878 0.811647 0.391324
O O14 0.500000 0.076361 0.500000
O O15 0.250000 0.075903 0.425719
O O16 0.448497 0.000000 0.407319
O O17 0.750000 0.369089 0.162069
O O18 0.016463 0.406053 0.141658
O O19 0.500000 0.746377 0.500000
O O20 0.750000 0.769347 0.572495
O O21 0.750000 0.565113 0.933381
O O22 0.524581 0.500000 0.908767
O O23 0.500000 0.579105 0.000000
#
# Coordination Sequence:
#
# PCOD8207674 Si02
#       8
#     8   8   8   8   8   8   8   8
#     4   8  16  29  43  59  82 111 141 174 210 249
#     4  10  19  29  42  63  88 115 146 177 213 254
#     4   9  17  30  45  61  83 111 143 178 214 252
#     4  11  20  30  45  63  86 115 146 179 215 257
#     4  10  20  33  47  63  85 113 146 183 219 254
#     4  10  19  29  44  63  84 112 144 177 212 252
#     4  10  19  30  44  63  87 115 146 178 212 251
#     4  10  20  32  45  61  83 111 143 179 215 250
#
# _framework density 15.299970999999999
#
# number of rings (size 3 to 8) (size 9 to 14) (size 15 to 20)
#    0.000    2.250    0.000    4.875    0.000    7.500 
#    0.000    0.000    0.000    0.000    0.000    0.000 
#    0.000    1.000    0.000    3.500    0.000    4.875 
#
# Total GULP energy -793615.645502 kJ/mol
# GULP energy per Si atom -12400.244461 kJ/mol
# Density = 1.526515 g / cm^3
# Si number density = 15.299971 Si / 1000 Ang^3
#
#
#
# Elastic Constant Matrix: (Units=GPa)
#
#
# Indices 1 2 3 4 5 6 
#
# 1 105.8519 40.8407 52.6102 0.0000 0.0000 0.0000
# 2 40.8407 56.4195 39.8246 0.0000 0.0000 0.0000
# 3 52.6102 39.8246 102.2659 0.0000 0.0000 0.0000
# 4 0.0000 0.0000 0.0000 19.5250 0.0000 0.0000
# 5 0.0000 0.0000 0.0000 0.0000 29.7076 0.0000
# 6 0.0000 0.0000 0.0000 0.0000 0.0000 21.9187
#
#
#
# Elastic Compliance Matrix: (Units=1/GPa)
#
#
# Indices 1 2 3 4 5 6 
#
# 1 0.014564 -0.007246 -0.004671 0.000000 0.000000 0.000000
# 2 -0.007246 0.028048 -0.007195 0.000000 0.000000 0.000000
# 3 -0.004671 -0.007195 0.014983 0.000000 0.000000 0.000000
# 4 0.000000 0.000000 0.000000 0.051216 0.000000 0.000000
# 5 0.000000 0.000000 0.000000 0.000000 0.033661 0.000000
# 6 0.000000 0.000000 0.000000 0.000000 0.000000 0.045623
#
#
# Mechanical properties :
#
#
# Convention : Reuss Voigt Hill
#
# Bulk Modulus (GPa) = 51.61993 59.00983 55.31488
# Shear Modulus (GPa) = 21.47976 22.98104 22.23040
#
# Velocity S-wave (km/s) = 3.75094 3.87981 3.81592
# Velocity P-wave (km/s) = 7.25060 7.66309 7.45970
#
# Compressibility (1/GPa) = 0.01937236
#
# Stress axis : x y z
#
# Youngs Moduli (GPa) = 68.66116 35.65306 66.74126
#
# Poissons Ratio (x) = 0.25833 0.31174
# Poissons Ratio (y) = 0.49750 0.48020
# Poissons Ratio (z) = 0.32071 0.25652
#
# Static dielectric constant tensor:
#      x y z
#    x 3.117730 0.000000 0.000000 
#    y 0.000000 2.731980 0.000000 
#    z 0.000000 0.000000 2.889160 
# 
# 
# High freq. dielectric constant tensor:
#      x y z
#    x 1.606920 0.000000 0.000000 
#    y 0.000000 1.548680 0.000000 
#    z 0.000000 0.000000 1.576580 
# 
# From -- ./inp_files/28609.got.cif
#   From: 2010.03.12/outbox.cif.g09.slc.cpg/sg51_15_cif.got.tgz:28609.got - 2010.04.16 13:43:02.
