data_PCOD8207590
_publ_section_title
;
Structure prediction by ZEFSAII (Michael W. Deem and Ramdas Pophale) SiO2 
 PCOD8207590
Probable space group: P M M A
;
_chemical_formula_sum "Si O2"
_cell_formula_units_Z 64
_cell_length_a 28.557889
_cell_length_b 9.333222
_cell_length_c 15.407268
_cell_angle_alpha 90.000000
_cell_angle_beta 90.000000
_cell_angle_gamma 90.000000
_cell_volume 4106.608807
_symmetry_space_group_name_H-M "P M M A"
_symmetry_group_IT_number 51
_symmetry_cell_setting 'orthorhombic'
loop_
_space_group_symop_operation_xyz
x,y,z
1/2-x,-y,z
1/2+x,-y,-z
-x,y,-z
-x,-y,-z
1/2+x,y,-z
1/2-x,y,z
x,-y,z
loop_
_atom_site_type_symbol
_atom_site_label
_atom_site_fract_x
_atom_site_fract_y
_atom_site_fract_z
Si Si1 0.603466 0.666082 0.836772
Si Si2 0.444339 0.842439 0.496770
Si Si3 0.803028 0.666931 0.104234
Si Si4 0.545582 0.168456 0.314176
Si Si5 0.950443 0.666220 0.665050
Si Si6 0.446461 0.167847 0.014321
Si Si7 0.389704 0.168635 0.844353
Si Si8 0.199526 0.330289 0.092721
O O1 0.600093 0.500000 0.863308
O O2 0.588781 0.690710 0.737862
O O3 0.569660 0.751986 0.899813
O O4 0.656946 0.723295 0.846902
O O5 0.500000 0.848516 0.500000
O O6 0.428403 0.797177 0.594020
O O7 0.428446 0.729116 0.424044
O O8 0.424355 0.000000 0.472768
O O9 0.750000 0.697190 0.136340
O O10 0.815006 0.500000 0.112136
O O11 0.839480 0.754599 0.162982
O O12 0.809136 0.721813 0.005565
O O13 0.497386 0.254436 0.305228
O O14 0.579716 0.218332 0.237744
O O15 0.533316 0.000000 0.307793
O O16 0.962038 0.500000 0.650741
O O17 0.440847 0.000000 0.030757
O O18 0.500000 0.210689 0.000000
O O19 0.416536 0.217786 0.931281
O O20 0.381368 0.000000 0.842721
O O21 0.250000 0.269528 0.126078
O O22 0.202397 0.500000 0.092369
#
# Coordination Sequence:
#
# PCOD8207590 Si02
#       8
#     8   8   8   8   8   8   8   8
#     4  10  19  30  44  64  88 115 148 182 214 256
#     4   8  15  29  47  63  82 114 150 181 216 262
#     4   9  17  30  48  66  85 114 149 183 222 266
#     4   9  18  32  47  63  87 120 154 180 212 266
#     4  10  19  28  42  67  93 115 144 185 227 258
#     4  10  20  31  42  59  87 122 152 176 209 252
#     4  10  19  30  45  66  89 115 148 187 222 253
#     4   8  14  27  46  63  81 110 146 181 215 254
#
# _framework density 15.584636
#
# number of rings (size 3 to 8) (size 9 to 14) (size 15 to 20)
#    0.000    2.750    1.250    2.625    0.000    5.250 
#    0.000    0.000    0.000    0.375    0.000    0.875 
#    0.000    3.000    0.000    0.000    0.000    0.000 
#
# Total GULP energy -793339.319308 kJ/mol
# GULP energy per Si atom -12395.926864 kJ/mol
# Density = 1.554916 g / cm^3
# Si number density = 15.584636 Si / 1000 Ang^3
#
#
#
# Elastic Constant Matrix: (Units=GPa)
#
#
# Indices 1 2 3 4 5 6 
#
# 1 90.7723 33.7993 34.4964 0.0000 0.0000 0.0000
# 2 33.7993 44.7355 30.8756 0.0000 0.0000 0.0000
# 3 34.4964 30.8756 77.9331 0.0000 0.0000 0.0000
# 4 0.0000 0.0000 0.0000 23.5549 0.0000 0.0000
# 5 0.0000 0.0000 0.0000 0.0000 12.1823 0.0000
# 6 0.0000 0.0000 0.0000 0.0000 0.0000 18.1087
#
#
#
# Elastic Compliance Matrix: (Units=1/GPa)
#
#
# Indices 1 2 3 4 5 6 
#
# 1 0.015865 -0.009827 -0.003129 0.000000 0.000000 0.000000
# 2 -0.009827 0.036853 -0.010251 0.000000 0.000000 0.000000
# 3 -0.003129 -0.010251 0.018278 0.000000 0.000000 0.000000
# 4 0.000000 0.000000 0.000000 0.042454 0.000000 0.000000
# 5 0.000000 0.000000 0.000000 0.000000 0.082086 0.000000
# 6 0.000000 0.000000 0.000000 0.000000 0.000000 0.055222
#
#
# Mechanical properties :
#
#
# Convention : Reuss Voigt Hill
#
# Bulk Modulus (GPa) = 40.67988 45.75372 43.21680
# Shear Modulus (GPa) = 16.37384 18.38714 17.38049
#
# Velocity S-wave (km/s) = 3.24487 3.43858 3.34313
# Velocity P-wave (km/s) = 6.34020 6.72214 6.53396
#
# Compressibility (1/GPa) = 0.02458218
#
# Stress axis : x y z
#
# Youngs Moduli (GPa) = 63.03272 27.13494 54.71123
#
# Poissons Ratio (x) = 0.26665 0.17121
# Poissons Ratio (y) = 0.61940 0.56083
# Poissons Ratio (z) = 0.19725 0.27815
#
# Static dielectric constant tensor:
#      x y z
#    x 3.080390 0.000000 0.000000 
#    y 0.000000 2.872910 0.000000 
#    z 0.000000 0.000000 3.137650 
# 
# 
# High freq. dielectric constant tensor:
#      x y z
#    x 1.579790 0.000000 0.000000 
#    y 0.000000 1.588680 0.000000 
#    z 0.000000 0.000000 1.588410 
# 
# From -- ./inp_files/26631.got.cif
#   From: 2010.03.12/outbox.cif.g09.slc.cpg/sg51_14_cif.got.tgz:26631.got - 2010.04.16 13:43:02.
