data_PCOD8207676
_publ_section_title
;
Structure prediction by ZEFSAII (Michael W. Deem and Ramdas Pophale) SiO2 
 PCOD8207676
Probable space group: P M M A
;
_chemical_formula_sum "Si O2"
_cell_formula_units_Z 64
_cell_length_a 13.852333
_cell_length_b 8.942252
_cell_length_c 31.479608
_cell_angle_alpha 90.000000
_cell_angle_beta 90.000000
_cell_angle_gamma 90.000000
_cell_volume 3899.412174
_symmetry_space_group_name_H-M "P M M A"
_symmetry_group_IT_number 51
_symmetry_cell_setting 'orthorhombic'
loop_
_space_group_symop_operation_xyz
x,y,z
1/2-x,-y,z
1/2+x,-y,-z
-x,y,-z
-x,-y,-z
1/2+x,y,-z
1/2-x,y,z
x,-y,z
loop_
_atom_site_type_symbol
_atom_site_label
_atom_site_fract_x
_atom_site_fract_y
_atom_site_fract_z
Si Si1 0.860997 0.675884 0.184000
Si Si2 0.358804 0.171537 0.056833
Si Si3 0.356233 0.822886 0.481142
Si Si4 0.364390 0.668559 0.972227
Si Si5 0.042524 0.172203 0.894181
Si Si6 0.860862 0.676245 0.354355
Si Si7 0.135383 0.831787 0.730857
Si Si8 0.042580 0.176959 0.566386
O O1 0.750000 0.723152 0.175189
O O2 0.869732 0.500000 0.189374
O O3 0.927389 0.728009 0.145485
O O4 0.902260 0.750454 0.226815
O O5 0.250000 0.217584 0.070122
O O6 0.428091 0.195279 0.097445
O O7 0.362231 0.000000 0.041424
O O8 0.398934 0.272404 0.018203
O O9 0.250000 0.755970 0.470890
O O10 0.389638 0.768676 0.527681
O O11 0.432585 0.774872 0.444991
O O12 0.353012 0.000000 0.482524
O O13 0.250000 0.672091 0.970699
O O14 0.403384 0.500000 0.965441
O O15 0.400812 0.777897 0.935862
O O16 0.067653 0.000000 0.884541
O O17 0.750000 0.725300 0.362393
O O18 0.870223 0.500000 0.351048
O O19 0.901808 0.745452 0.310740
O O20 0.927318 0.736070 0.391834
O O21 0.250000 0.829518 0.731134
O O22 0.094611 0.000000 0.730014
O O23 0.051696 0.000000 0.574111
#
# Coordination Sequence:
#
# PCOD8207676 Si02
#       8
#     8   8   8   8   8   8   8   8
#     4  10  20  33  48  68  96 124 146 173 214 263
#     4   9  19  35  50  64  86 116 150 188 225 258
#     4   8  14  25  41  62  89 119 152 192 233 268
#     4  10  20  32  46  66  92 120 148 180 220 263
#     4  11  21  31  47  69  90 117 152 184 216 258
#     4  10  19  29  42  63  92 122 149 181 223 266
#     4   9  17  30  48  68  90 117 148 180 214 258
#     4   9  16  26  43  65  86 115 156 194 226 265
#
# _framework density 16.41273
#
# number of rings (size 3 to 8) (size 9 to 14) (size 15 to 20)
#    0.000    2.500    0.000    3.750    0.000    8.250 
#    0.000    1.250    0.000    1.125    0.000    0.875 
#    0.000    7.000    0.000    0.000    0.000    0.000 
#
# Total GULP energy -793537.136151 kJ/mol
# GULP energy per Si atom -12399.017752 kJ/mol
# Density = 1.637537 g / cm^3
# Si number density = 16.412730 Si / 1000 Ang^3
#
#
#
# Elastic Constant Matrix: (Units=GPa)
#
#
# Indices 1 2 3 4 5 6 
#
# 1 70.9412 28.5669 55.1624 0.0000 0.0000 0.0000
# 2 28.5669 65.4172 38.8777 0.0000 0.0000 0.0000
# 3 55.1624 38.8777 119.0614 0.0000 0.0000 0.0000
# 4 0.0000 0.0000 0.0000 11.9282 0.0000 0.0000
# 5 0.0000 0.0000 0.0000 0.0000 22.3714 0.0000
# 6 0.0000 0.0000 0.0000 0.0000 0.0000 16.5705
#
#
#
# Elastic Compliance Matrix: (Units=1/GPa)
#
#
# Indices 1 2 3 4 5 6 
#
# 1 0.023110 -0.004626 -0.009196 0.000000 0.000000 0.000000
# 2 -0.004626 0.019893 -0.004352 0.000000 0.000000 0.000000
# 3 -0.009196 -0.004352 0.014081 0.000000 0.000000 0.000000
# 4 0.000000 0.000000 0.000000 0.083835 0.000000 0.000000
# 5 0.000000 0.000000 0.000000 0.000000 0.044700 0.000000
# 6 0.000000 0.000000 0.000000 0.000000 0.000000 0.060348
#
#
# Mechanical properties :
#
#
# Convention : Reuss Voigt Hill
#
# Bulk Modulus (GPa) = 48.22992 55.62597 51.92795
# Shear Modulus (GPa) = 17.28729 19.02822 18.15776
#
# Velocity S-wave (km/s) = 3.24896 3.40863 3.32975
# Velocity P-wave (km/s) = 6.59725 7.03258 6.81839
#
# Compressibility (1/GPa) = 0.02073402
#
# Stress axis : x y z
#
# Youngs Moduli (GPa) = 43.27103 50.26779 71.01728
#
# Poissons Ratio (x) = 0.23256 0.65311
# Poissons Ratio (y) = 0.20019 0.30910
# Poissons Ratio (z) = 0.39794 0.21879
#
# Static dielectric constant tensor:
#      x y z
#    x 3.199610 0.000000 0.000000 
#    y 0.000000 3.105430 0.000000 
#    z 0.000000 0.000000 3.054130 
# 
# 
# High freq. dielectric constant tensor:
#      x y z
#    x 1.608990 0.000000 0.000000 
#    y 0.000000 1.632320 0.000000 
#    z 0.000000 0.000000 1.621940 
# 
# From -- ./inp_files/37808.got.cif
#   From: 2010.03.12/outbox.cif.g09.slc.cpg/sg51_19_cif.got.tgz:37808.got - 2010.04.16 13:43:02.
