data_PCOD8207086
_publ_section_title
;
Structure prediction by ZEFSAII (Michael W. Deem and Ramdas Pophale) SiO2 
 PCOD8207086
Probable space group: P M M A
;
_chemical_formula_sum "Si O2"
_cell_formula_units_Z 64
_cell_length_a 9.185251
_cell_length_b 14.283839
_cell_length_c 31.156403
_cell_angle_alpha 90.000000
_cell_angle_beta 90.000000
_cell_angle_gamma 90.000000
_cell_volume 4087.740215
_symmetry_space_group_name_H-M "P M M A"
_symmetry_group_IT_number 51
_symmetry_cell_setting 'orthorhombic'
loop_
_space_group_symop_operation_xyz
x,y,z
1/2-x,-y,z
1/2+x,-y,-z
-x,y,-z
-x,-y,-z
1/2+x,y,-z
1/2-x,y,z
x,-y,z
loop_
_atom_site_type_symbol
_atom_site_label
_atom_site_fract_x
_atom_site_fract_y
_atom_site_fract_z
Si Si1 0.580945 0.211999 0.542746
Si Si2 0.579867 0.606379 0.323487
Si Si3 0.585152 0.888364 0.958353
Si Si4 0.585630 0.111418 0.124313
Si Si5 0.421844 0.777024 0.291876
Si Si6 0.583838 0.395426 0.589170
Si Si7 0.919143 0.891854 0.791710
Si Si8 0.576817 0.894930 0.626816
O O1 0.500000 0.179463 0.500000
O O2 0.750000 0.192520 0.535496
O O3 0.548928 0.321750 0.551639
O O4 0.521191 0.151841 0.582788
O O5 0.750000 0.627689 0.323628
O O6 0.546771 0.500000 0.308906
O O7 0.500073 0.676207 0.290620
O O8 0.520525 0.624451 0.371098
O O9 0.750000 0.849866 0.959120
O O10 0.503864 0.848993 0.916237
O O11 0.585857 0.000000 0.958066
O O12 0.500000 0.850586 0.000000
O O13 0.750000 0.150270 0.122381
O O14 0.510051 0.146369 0.167925
O O15 0.584704 0.000000 0.122874
O O16 0.250000 0.761475 0.294307
O O17 0.467225 0.832582 0.249376
O O18 0.480273 0.835425 0.332762
O O19 0.750000 0.381092 0.605354
O O20 0.559831 0.500000 0.570707
O O21 0.750000 0.878717 0.802644
O O22 0.954305 0.000000 0.781751
O O23 0.750000 0.896469 0.627894
O O24 0.513946 0.000000 0.629867
#
# Coordination Sequence:
#
# PCOD8207086 Si02
#       8
#     8   8   8   8   8   8   8   8
#     4  10  20  33  48  68  90 115 142 170 207 250
#     4  10  20  32  48  71  95 115 135 166 210 254
#     4   9  15  22  33  49  70  99 140 189 235 275
#     4   9  16  25  36  51  76 110 145 182 225 269
#     4  10  18  31  51  71  88 112 145 177 211 254
#     4   9  17  32  52  70  88 111 140 170 202 248
#     4   9  17  28  43  64  87 112 145 184 222 259
#     4   9  17  31  50  69  88 112 143 177 211 248
#
# _framework density 15.656573
#
# number of rings (size 3 to 8) (size 9 to 14) (size 15 to 20)
#    0.000    2.625    1.250    1.500    0.000    6.750 
#    0.000    0.000    0.000    1.875    0.000    0.000 
#    0.000    0.000    0.000    0.000    0.000    0.625 
#
# Total GULP energy -793552.376612 kJ/mol
# GULP energy per Si atom -12399.255885 kJ/mol
# Density = 1.562094 g / cm^3
# Si number density = 15.656573 Si / 1000 Ang^3
#
#
#
# Elastic Constant Matrix: (Units=GPa)
#
#
# Indices 1 2 3 4 5 6 
#
# 1 76.9861 30.9504 60.5616 0.0000 0.0000 0.0000
# 2 30.9504 68.0389 43.3475 0.0000 0.0000 0.0000
# 3 60.5616 43.3475 136.2761 0.0000 0.0000 0.0000
# 4 0.0000 0.0000 0.0000 8.0552 0.0000 0.0000
# 5 0.0000 0.0000 0.0000 0.0000 27.3361 0.0000
# 6 0.0000 0.0000 0.0000 0.0000 0.0000 14.2206
#
#
#
# Elastic Compliance Matrix: (Units=1/GPa)
#
#
# Indices 1 2 3 4 5 6 
#
# 1 0.021028 -0.004530 -0.007904 0.000000 0.000000 0.000000
# 2 -0.004530 0.019409 -0.004161 0.000000 0.000000 0.000000
# 3 -0.007904 -0.004161 0.012174 0.000000 0.000000 0.000000
# 4 0.000000 0.000000 0.000000 0.124144 0.000000 0.000000
# 5 0.000000 0.000000 0.000000 0.000000 0.036582 0.000000
# 6 0.000000 0.000000 0.000000 0.000000 0.000000 0.070320
#
#
# Mechanical properties :
#
#
# Convention : Reuss Voigt Hill
#
# Bulk Modulus (GPa) = 51.48807 61.22443 56.35625
# Shear Modulus (GPa) = 15.46455 19.68517 17.57486
#
# Velocity S-wave (km/s) = 3.14624 3.54970 3.35404
# Velocity P-wave (km/s) = 6.79380 7.48265 7.14653
#
# Compressibility (1/GPa) = 0.01942198
#
# Stress axis : x y z
#
# Youngs Moduli (GPa) = 47.55480 51.52305 82.14164
#
# Poissons Ratio (x) = 0.23340 0.64926
# Poissons Ratio (y) = 0.21542 0.34175
# Poissons Ratio (z) = 0.37588 0.21436
#
# Static dielectric constant tensor:
#      x y z
#    x 2.953660 0.000000 0.000000 
#    y 0.000000 2.869840 0.000000 
#    z 0.000000 0.000000 2.960060 
# 
# 
# High freq. dielectric constant tensor:
#      x y z
#    x 1.595800 0.000000 0.000000 
#    y 0.000000 1.563960 0.000000 
#    z 0.000000 0.000000 1.592730 
# 
# From -- ./inp_files/37585.got.cif
#   From: 2010.03.12/outbox.cif.g09.slc.cpg/sg51_19_cif.got.tgz:37585.got - 2010.04.16 13:43:02.
