data_PCOD8207715
_publ_section_title
;
Structure prediction by ZEFSAII (Michael W. Deem and Ramdas Pophale) SiO2 
 PCOD8207715
Probable space group: P M M A
;
_chemical_formula_sum "Si O2"
_cell_formula_units_Z 48
_cell_length_a 8.808472
_cell_length_b 13.648290
_cell_length_c 23.979655
_cell_angle_alpha 90.000000
_cell_angle_beta 90.000000
_cell_angle_gamma 90.000000
_cell_volume 2882.848040
_symmetry_space_group_name_H-M "P M M A"
_symmetry_group_IT_number 51
_symmetry_cell_setting 'orthorhombic'
loop_
_space_group_symop_operation_xyz
x,y,z
1/2-x,-y,z
1/2+x,-y,-z
-x,y,-z
-x,-y,-z
1/2+x,y,-z
1/2-x,y,z
x,-y,z
loop_
_atom_site_type_symbol
_atom_site_label
_atom_site_fract_x
_atom_site_fract_y
_atom_site_fract_z
Si Si1 0.570054 0.297878 0.558502
Si Si2 0.079511 0.883701 0.055199
Si Si3 0.929598 0.218755 0.727601
Si Si4 0.574871 0.612357 0.335729
Si Si5 0.429518 0.892708 0.381287
Si Si6 0.071717 0.886741 0.830667
O O1 0.500000 0.330265 0.500000
O O2 0.750000 0.306300 0.555740
O O3 0.511233 0.370519 0.606032
O O4 0.516573 0.186559 0.572934
O O5 0.250000 0.841559 0.059885
O O6 0.982706 0.851054 0.108728
O O7 0.084155 0.000000 0.050872
O O8 0.000000 0.839756 0.000000
O O9 0.750000 0.231684 0.728795
O O10 0.981680 0.142147 0.679947
O O11 0.003270 0.323766 0.714039
O O12 0.986699 0.180329 0.786419
O O13 0.750000 0.641032 0.343869
O O14 0.555156 0.500000 0.318085
O O15 0.250000 0.900167 0.382431
O O16 0.501520 0.000000 0.393910
O O17 0.250000 0.870493 0.825683
O O18 0.027083 0.000000 0.820643
#
# Coordination Sequence:
#
# PCOD8207715 Si02
#       6
#     8   8   8   8   8   8
#     4  10  20  33  50  71  94 120 150 186 226 272
#     4   9  16  26  40  59  87 125 167 206 241 276
#     4  10  19  31  49  71  95 122 153 192 234 280
#     4  10  21  37  55  72  91 116 146 186 237 288
#     4   8  15  28  45  65  90 120 151 182 219 263
#     4  10  19  29  43  66  97 132 167 200 233 272
#
# _framework density 16.650200999999999
#
# number of rings (size 3 to 8) (size 9 to 14) (size 15 to 20)
#    0.000    2.500    0.000    4.000    0.000    5.667 
#    0.000    0.000    0.000    9.500    0.000    0.000 
#    0.000    0.667    0.000    2.500    0.000    3.833 
#
# Total GULP energy -595161.876382 kJ/mol
# GULP energy per Si atom -12399.205758 kJ/mol
# Density = 1.661230 g / cm^3
# Si number density = 16.650201 Si / 1000 Ang^3
#
#
#
# Elastic Constant Matrix: (Units=GPa)
#
#
# Indices 1 2 3 4 5 6 
#
# 1 88.6551 35.3712 37.0479 0.0000 0.0000 0.0000
# 2 35.3712 71.3410 32.0965 0.0000 0.0000 0.0000
# 3 37.0479 32.0965 105.4658 0.0000 0.0000 0.0000
# 4 0.0000 0.0000 0.0000 12.6414 0.0000 0.0000
# 5 0.0000 0.0000 0.0000 0.0000 31.7941 0.0000
# 6 0.0000 0.0000 0.0000 0.0000 0.0000 20.4510
#
#
#
# Elastic Compliance Matrix: (Units=1/GPa)
#
#
# Indices 1 2 3 4 5 6 
#
# 1 0.015103 -0.005911 -0.003507 0.000000 0.000000 0.000000
# 2 -0.005911 0.018554 -0.003570 0.000000 0.000000 0.000000
# 3 -0.003507 -0.003570 0.011800 0.000000 0.000000 0.000000
# 4 0.000000 0.000000 0.000000 0.079105 0.000000 0.000000
# 5 0.000000 0.000000 0.000000 0.000000 0.031452 0.000000
# 6 0.000000 0.000000 0.000000 0.000000 0.000000 0.048897
#
#
# Mechanical properties :
#
#
# Convention : Reuss Voigt Hill
#
# Bulk Modulus (GPa) = 51.32884 52.72146 52.02515
# Shear Modulus (GPa) = 21.06316 23.70705 22.38510
#
# Velocity S-wave (km/s) = 3.56060 3.77746 3.67063
# Velocity P-wave (km/s) = 6.91365 7.12450 7.01986
#
# Compressibility (1/GPa) = 0.01948223
#
# Stress axis : x y z
#
# Youngs Moduli (GPa) = 66.21096 53.89678 84.74495
#
# Poissons Ratio (x) = 0.31856 0.29717
# Poissons Ratio (y) = 0.39135 0.30256
# Poissons Ratio (z) = 0.23218 0.19243
#
# Static dielectric constant tensor:
#      x y z
#    x 3.172830 0.000000 0.000000 
#    y 0.000000 3.017970 0.000000 
#    z 0.000000 0.000000 3.173250 
# 
# 
# High freq. dielectric constant tensor:
#      x y z
#    x 1.648650 0.000000 0.000000 
#    y 0.000000 1.607050 0.000000 
#    z 0.000000 0.000000 1.637620 
# 
# From -- ./inp_files/31622.got.cif
#   From: 2010.03.12/outbox.cif.g09.slc.cpg/sg51_16_cif.got.tgz:31622.got - 2010.04.16 13:43:02.
