data_PCOD8207747
_publ_section_title
;
Structure prediction by ZEFSAII (Michael W. Deem and Ramdas Pophale) SiO2 
 PCOD8207747
Probable space group: P M M A
;
_chemical_formula_sum "Si O2"
_cell_formula_units_Z 64
_cell_length_a 29.592137
_cell_length_b 9.388098
_cell_length_c 14.299586
_cell_angle_alpha 90.000000
_cell_angle_beta 90.000000
_cell_angle_gamma 90.000000
_cell_volume 3972.623500
_symmetry_space_group_name_H-M "P M M A"
_symmetry_group_IT_number 51
_symmetry_cell_setting 'orthorhombic'
loop_
_space_group_symop_operation_xyz
x,y,z
1/2-x,-y,z
1/2+x,-y,-z
-x,y,-z
-x,-y,-z
1/2+x,y,-z
1/2-x,y,z
x,-y,z
loop_
_atom_site_type_symbol
_atom_site_label
_atom_site_fract_x
_atom_site_fract_y
_atom_site_fract_z
Si Si1 0.801785 0.664058 0.849572
Si Si2 0.549314 0.337142 0.037517
Si Si3 0.610662 0.834613 0.561678
Si Si4 0.300798 0.163443 0.338670
Si Si5 0.434312 0.158476 0.246772
Si Si6 0.876352 0.838203 0.931311
Si Si7 0.044354 0.667866 0.558251
Si Si8 0.518802 0.661639 0.237821
O O1 0.750000 0.676281 0.881179
O O2 0.817509 0.500000 0.843761
O O3 0.809000 0.733636 0.748354
O O4 0.830326 0.746339 0.929503
O O5 0.558961 0.500000 0.006116
O O6 0.552536 0.323331 0.150296
O O7 0.500000 0.290412 0.000000
O O8 0.587188 0.232102 0.999403
O O9 0.663839 0.800126 0.578168
O O10 0.584010 0.787714 0.654438
O O11 0.589961 0.742463 0.478008
O O12 0.603531 0.000000 0.538239
O O13 0.250000 0.183097 0.378490
O O14 0.308863 0.000000 0.305027
O O15 0.393388 0.163336 0.174744
O O16 0.473513 0.258126 0.209266
O O17 0.454173 0.000000 0.255526
O O18 0.867096 0.000000 0.965279
O O19 0.051487 0.500000 0.549728
O O20 0.039916 0.720125 0.665685
O O21 0.000000 0.716763 0.500000
O O22 0.504228 0.500000 0.254673
#
# Coordination Sequence:
#
# PCOD8207747 Si02
#       8
#     8   8   8   8   8   8   8   8
#     4  10  20  32  48  72 100 129 162 199 239 287
#     4  10  20  33  50  71  95 127 164 202 245 290
#     4  10  19  31  46  69  96 127 162 194 235 283
#     4   9  17  31  49  69  97 129 159 194 238 287
#     4  10  19  29  44  68  97 126 161 197 234 278
#     4  11  21  33  49  71  99 132 165 199 240 288
#     4  10  20  32  47  68  93 125 163 199 237 281
#     4  10  20  34  48  66  95 128 163 201 242 282
#
# _framework density 16.110261000000001
#
# number of rings (size 3 to 8) (size 9 to 14) (size 15 to 20)
#    0.000    2.000    3.750    0.750    0.000    3.250 
#    0.000    0.000    0.000    0.000    0.000    0.875 
#    0.000    5.000    0.000    0.000    0.000    0.000 
#
# Total GULP energy -793529.886210 kJ/mol
# GULP energy per Si atom -12398.904472 kJ/mol
# Density = 1.607359 g / cm^3
# Si number density = 16.110261 Si / 1000 Ang^3
#
#
#
# Elastic Constant Matrix: (Units=GPa)
#
#
# Indices 1 2 3 4 5 6 
#
# 1 98.9070 55.1793 32.4727 0.0000 0.0000 0.0000
# 2 55.1793 82.2651 31.1917 0.0000 0.0000 0.0000
# 3 32.4727 31.1917 73.3142 0.0000 0.0000 0.0000
# 4 0.0000 0.0000 0.0000 22.1239 0.0000 0.0000
# 5 0.0000 0.0000 0.0000 0.0000 24.3290 0.0000
# 6 0.0000 0.0000 0.0000 0.0000 0.0000 26.5193
#
#
#
# Elastic Compliance Matrix: (Units=1/GPa)
#
#
# Indices 1 2 3 4 5 6 
#
# 1 0.016743 -0.010038 -0.003145 0.000000 0.000000 0.000000
# 2 -0.010038 0.020512 -0.004281 0.000000 0.000000 0.000000
# 3 -0.003145 -0.004281 0.016854 0.000000 0.000000 0.000000
# 4 0.000000 0.000000 0.000000 0.045200 0.000000 0.000000
# 5 0.000000 0.000000 0.000000 0.000000 0.041103 0.000000
# 6 0.000000 0.000000 0.000000 0.000000 0.000000 0.037708
#
#
# Mechanical properties :
#
#
# Convention : Reuss Voigt Hill
#
# Bulk Modulus (GPa) = 52.13393 54.68594 53.40994
# Shear Modulus (GPa) = 22.78497 23.63729 23.21113
#
# Velocity S-wave (km/s) = 3.76482 3.83459 3.79986
# Velocity P-wave (km/s) = 7.16446 7.32283 7.24408
#
# Compressibility (1/GPa) = 0.01918136
#
# Stress axis : x y z
#
# Youngs Moduli (GPa) = 59.72561 48.75230 59.33196
#
# Poissons Ratio (x) = 0.48937 0.18662
# Poissons Ratio (y) = 0.59952 0.25399
# Poissons Ratio (z) = 0.18786 0.20870
#
# Static dielectric constant tensor:
#      x y z
#    x 3.028980 0.000000 0.000000 
#    y 0.000000 3.117520 0.000000 
#    z 0.000000 0.000000 2.906260 
# 
# 
# High freq. dielectric constant tensor:
#      x y z
#    x 1.607900 0.000000 0.000000 
#    y 0.000000 1.626060 0.000000 
#    z 0.000000 0.000000 1.592140 
# 
# From -- ./inp_files/26684.got.cif
#   From: 2010.03.12/outbox.cif.g09.slc.cpg/sg51_14_cif.got.tgz:26684.got - 2010.04.16 13:43:02.
