data_PCOD8207684
_publ_section_title
;
Structure prediction by ZEFSAII (Michael W. Deem and Ramdas Pophale) SiO2 
 PCOD8207684
Probable space group: P M M A
;
_chemical_formula_sum "Si O2"
_cell_formula_units_Z 52
_cell_length_a 9.150290
_cell_length_b 22.667043
_cell_length_c 15.377756
_cell_angle_alpha 90.000000
_cell_angle_beta 90.000000
_cell_angle_gamma 90.000000
_cell_volume 3189.500632
_symmetry_space_group_name_H-M "P M M A"
_symmetry_group_IT_number 51
_symmetry_cell_setting 'orthorhombic'
loop_
_space_group_symop_operation_xyz
x,y,z
1/2-x,-y,z
1/2+x,-y,-z
-x,y,-z
-x,-y,-z
1/2+x,y,-z
1/2-x,y,z
x,-y,z
loop_
_atom_site_type_symbol
_atom_site_label
_atom_site_fract_x
_atom_site_fract_y
_atom_site_fract_z
Si Si1 0.582359 0.000000 0.411575
Si Si2 0.424415 0.218943 0.739734
Si Si3 0.923943 0.658867 0.731865
Si Si4 0.579199 0.872052 0.407948
Si Si5 0.090444 0.350613 0.078895
Si Si6 0.079131 0.433181 0.413383
Si Si7 0.585184 0.210842 0.916689
O O1 0.500000 0.000000 0.500000
O O2 0.544239 0.937341 0.365508
O O3 0.750000 0.000000 0.436504
O O4 0.250000 0.222539 0.751860
O O5 0.487893 0.281967 0.710800
O O6 0.472958 0.174748 0.663401
O O7 0.495891 0.195763 0.829228
O O8 0.750000 0.672577 0.731931
O O9 0.973594 0.633696 0.826101
O O10 0.970797 0.609337 0.663757
O O11 0.500000 0.861390 0.500000
O O12 0.750000 0.864454 0.426681
O O13 0.250000 0.378487 0.069520
O O14 0.095787 0.280477 0.071009
O O15 0.000000 0.378975 0.000000
O O16 0.250000 0.428474 0.430327
O O17 0.032905 0.500000 0.389528
O O18 0.000000 0.411214 0.500000
O O19 0.750000 0.184484 0.911383
O O20 0.500000 0.183461 0.000000
#
# Coordination Sequence:
#
# PCOD8207684 Si02
#       7
#     4   8   8   8   8   8   8
#     4   8  14  28  46  62  81 110 149 188 221 256
#     4  10  19  29  42  66  95 120 147 180 221 267
#     4   9  18  31  45  63  88 117 145 176 220 268
#     4   9  18  30  45  64  88 118 151 185 221 262
#     4   8  14  24  39  59  82 108 137 166 200 245
#     4   9  18  33  51  67  83 108 146 188 225 263
#     4   9  16  27  43  63  88 119 150 182 219 260
#
# _framework density 16.303491999999999
#
# number of rings (size 3 to 8) (size 9 to 14) (size 15 to 20)
#    0.000    3.077    0.000    1.846    0.000    6.154 
#    0.000    3.077    0.000    0.462    0.000    0.538 
#    0.000    0.000    0.000    0.000    0.000    1.692 
#
# Total GULP energy -644308.385347 kJ/mol
# GULP energy per Si atom -12390.545872 kJ/mol
# Density = 1.626638 g / cm^3
# Si number density = 16.303492 Si / 1000 Ang^3
#
#
#
# Elastic Constant Matrix: (Units=GPa)
#
#
# Indices 1 2 3 4 5 6 
#
# 1 64.5909 37.8403 55.1921 0.0000 0.0000 0.0000
# 2 37.8403 75.4910 75.0321 0.0000 0.0000 0.0000
# 3 55.1921 75.0321 148.3633 0.0000 0.0000 0.0000
# 4 0.0000 0.0000 0.0000 1.8230 0.0000 0.0000
# 5 0.0000 0.0000 0.0000 0.0000 29.7000 0.0000
# 6 0.0000 0.0000 0.0000 0.0000 0.0000 14.7102
#
#
#
# Elastic Compliance Matrix: (Units=1/GPa)
#
#
# Indices 1 2 3 4 5 6 
#
# 1 0.024135 -0.006382 -0.005751 0.000000 0.000000 0.000000
# 2 -0.006382 0.028322 -0.011949 0.000000 0.000000 0.000000
# 3 -0.005751 -0.011949 0.014923 0.000000 0.000000 0.000000
# 4 0.000000 0.000000 0.000000 0.548532 0.000000 0.000000
# 5 0.000000 0.000000 0.000000 0.000000 0.033670 0.000000
# 6 0.000000 0.000000 0.000000 0.000000 0.000000 0.067980
#
#
# Mechanical properties :
#
#
# Convention : Reuss Voigt Hill
#
# Bulk Modulus (GPa) = 52.04071 69.39713 60.71892
# Shear Modulus (GPa) = 6.47558 17.27202 11.87380
#
# Velocity S-wave (km/s) = 1.99512 3.25838 2.70163
# Velocity P-wave (km/s) = 6.10710 7.53753 6.85970
#
# Compressibility (1/GPa) = 0.01921573
#
# Stress axis : x y z
#
# Youngs Moduli (GPa) = 41.43386 35.30779 67.01180
#
# Poissons Ratio (x) = 0.22533 0.38537
# Poissons Ratio (y) = 0.26443 0.80075
# Poissons Ratio (z) = 0.23828 0.42191
#
# Static dielectric constant tensor:
#      x y z
#    x 3.196880 0.000000 0.000000 
#    y 0.000000 3.387950 0.000000 
#    z 0.000000 0.000000 3.216600 
# 
# 
# High freq. dielectric constant tensor:
#      x y z
#    x 1.632430 0.000000 0.000000 
#    y 0.000000 1.590520 0.000000 
#    z 0.000000 0.000000 1.627260 
# 
# From -- ./inp_files/21562.got.cif
#   From: 2010.03.12/outbox.cif.g09.slc.cpg/sg51_11_cif.got.tgz:21562.got - 2010.04.16 13:43:02.
