data_PCOD8207737
_publ_section_title
;
Structure prediction by ZEFSAII (Michael W. Deem and Ramdas Pophale) SiO2 
 PCOD8207737
Probable space group: P M M A
;
_chemical_formula_sum "Si O2"
_cell_formula_units_Z 64
_cell_length_a 27.810598
_cell_length_b 9.312979
_cell_length_c 14.469839
_cell_angle_alpha 90.000000
_cell_angle_beta 90.000000
_cell_angle_gamma 90.000000
_cell_volume 3747.681285
_symmetry_space_group_name_H-M "P M M A"
_symmetry_group_IT_number 51
_symmetry_cell_setting 'orthorhombic'
loop_
_space_group_symop_operation_xyz
x,y,z
1/2-x,-y,z
1/2+x,-y,-z
-x,y,-z
-x,-y,-z
1/2+x,y,-z
1/2-x,y,z
x,-y,z
loop_
_atom_site_type_symbol
_atom_site_label
_atom_site_fract_x
_atom_site_fract_y
_atom_site_fract_z
Si Si1 0.425268 0.664859 0.639411
Si Si2 0.304059 0.666852 0.151568
Si Si3 0.565949 0.335705 0.158923
Si Si4 0.606671 0.666949 0.965293
Si Si5 0.520817 0.839412 0.898296
Si Si6 0.612997 0.168485 0.530241
Si Si7 0.695199 0.167411 0.665529
Si Si8 0.985566 0.156026 0.604449
O O1 0.427181 0.500000 0.607629
O O2 0.404797 0.680875 0.744364
O O3 0.391865 0.749918 0.567615
O O4 0.479849 0.723962 0.646918
O O5 0.250000 0.712594 0.122475
O O6 0.306485 0.500000 0.176548
O O7 0.339033 0.704244 0.065805
O O8 0.321083 0.750732 0.242452
O O9 0.549259 0.500000 0.145094
O O10 0.517889 0.239714 0.166009
O O11 0.600101 0.288887 0.073193
O O12 0.595048 0.500000 0.951063
O O13 0.570980 0.754479 0.898550
O O14 0.529763 0.000000 0.860442
O O15 0.500000 0.842297 0.000000
O O16 0.662507 0.215832 0.578935
O O17 0.570061 0.208321 0.602224
O O18 0.611909 0.000000 0.507039
O O19 0.750000 0.205265 0.639192
O O20 0.688149 0.000000 0.685732
O O21 0.000000 0.131150 0.500000
O O22 0.990397 0.000000 0.655499
#
# Coordination Sequence:
#
# PCOD8207737 Si02
#       8
#     8   8   8   8   8   8   8   8
#     4  10  19  29  44  67  93 122 157 192 222 258
#     4   9  18  32  50  72  93 114 147 190 232 273
#     4   9  18  31  45  64  94 129 159 186 222 269
#     4   9  17  31  49  66  91 126 155 183 226 277
#     4   9  17  28  43  65  90 116 152 193 224 256
#     4   9  18  32  48  66  90 121 153 184 224 274
#     4   9  18  33  52  72  93 118 148 184 231 284
#     4   8  15  28  43  60  86 118 149 182 221 262
#
# _framework density 17.077226
#
# number of rings (size 3 to 8) (size 9 to 14) (size 15 to 20)
#    0.000    3.000    0.000    1.500    0.000    6.750 
#    0.000    2.500    0.000    0.750    0.000    1.750 
#    0.000    0.000    0.000    0.000    0.000    0.000 
#
# Total GULP energy -793178.000970 kJ/mol
# GULP energy per Si atom -12393.406265 kJ/mol
# Density = 1.703836 g / cm^3
# Si number density = 17.077226 Si / 1000 Ang^3
#
#
#
# Elastic Constant Matrix: (Units=GPa)
#
#
# Indices 1 2 3 4 5 6 
#
# 1 100.0636 40.9382 57.3191 0.0000 0.0000 0.0000
# 2 40.9382 70.4923 43.0550 0.0000 0.0000 0.0000
# 3 57.3191 43.0550 98.2859 0.0000 0.0000 0.0000
# 4 0.0000 0.0000 0.0000 15.8460 0.0000 0.0000
# 5 0.0000 0.0000 0.0000 0.0000 22.5146 0.0000
# 6 0.0000 0.0000 0.0000 0.0000 0.0000 18.9708
#
#
#
# Elastic Compliance Matrix: (Units=1/GPa)
#
#
# Indices 1 2 3 4 5 6 
#
# 1 0.016186 -0.004962 -0.007266 0.000000 0.000000 0.000000
# 2 -0.004962 0.020889 -0.006257 0.000000 0.000000 0.000000
# 3 -0.007266 -0.006257 0.017152 0.000000 0.000000 0.000000
# 4 0.000000 0.000000 0.000000 0.063107 0.000000 0.000000
# 5 0.000000 0.000000 0.000000 0.000000 0.044416 0.000000
# 6 0.000000 0.000000 0.000000 0.000000 0.000000 0.052713
#
#
# Mechanical properties :
#
#
# Convention : Reuss Voigt Hill
#
# Bulk Modulus (GPa) = 57.94337 61.27405 59.60871
# Shear Modulus (GPa) = 19.44127 19.96825 19.70476
#
# Velocity S-wave (km/s) = 3.37773 3.42320 3.40054
# Velocity P-wave (km/s) = 7.01541 7.18212 7.09925
#
# Compressibility (1/GPa) = 0.01725823
#
# Stress axis : x y z
#
# Youngs Moduli (GPa) = 61.78301 47.87150 58.30065
#
# Poissons Ratio (x) = 0.23755 0.42359
# Poissons Ratio (y) = 0.30658 0.36478
# Poissons Ratio (z) = 0.44889 0.29953
#
# Static dielectric constant tensor:
#      x y z
#    x 3.412700 0.000000 0.000000 
#    y 0.000000 3.275670 0.000000 
#    z 0.000000 0.000000 3.138330 
# 
# 
# High freq. dielectric constant tensor:
#      x y z
#    x 1.635100 0.000000 0.000000 
#    y 0.000000 1.660980 0.000000 
#    z 0.000000 0.000000 1.650510 
# 
# From -- ./inp_files/26661.got.cif
#   From: 2010.03.12/outbox.cif.g09.slc.cpg/sg51_14_cif.got.tgz:26661.got - 2010.04.16 13:43:02.
