data_PCOD8207923
_publ_section_title
;
Structure prediction by ZEFSAII (Michael W. Deem and Ramdas Pophale) SiO2 
 PCOD8207923
Probable space group: P M M A
;
_chemical_formula_sum "Si O2"
_cell_formula_units_Z 64
_cell_length_a 20.468729
_cell_length_b 9.125882
_cell_length_c 19.187851
_cell_angle_alpha 90.000000
_cell_angle_beta 90.000000
_cell_angle_gamma 90.000000
_cell_volume 3584.198571
_symmetry_space_group_name_H-M "P M M A"
_symmetry_group_IT_number 51
_symmetry_cell_setting 'orthorhombic'
loop_
_space_group_symop_operation_xyz
x,y,z
1/2-x,-y,z
1/2+x,-y,-z
-x,y,-z
-x,-y,-z
1/2+x,y,-z
1/2-x,y,z
x,-y,z
loop_
_atom_site_type_symbol
_atom_site_label
_atom_site_fract_x
_atom_site_fract_y
_atom_site_fract_z
Si Si1 0.100057 0.837236 0.896471
Si Si2 0.446095 0.329952 0.442555
Si Si3 0.008826 0.670723 0.285392
Si Si4 0.677073 0.659451 0.369040
Si Si5 0.452096 0.833237 0.156060
Si Si6 0.925436 0.334506 0.975797
Si Si7 0.173802 0.826981 0.497253
Si Si8 0.624765 0.172053 0.252192
O O1 0.144173 0.800891 0.828826
O O2 0.027056 0.825762 0.866846
O O3 0.113041 0.000000 0.925228
O O4 0.116756 0.728557 0.959724
O O5 0.500000 0.276454 0.500000
O O6 0.430111 0.500000 0.456129
O O7 0.471414 0.302454 0.364750
O O8 0.377745 0.239973 0.442699
O O9 0.006962 0.500000 0.265847
O O10 0.057559 0.749430 0.229701
O O11 0.938616 0.741834 0.277340
O O12 0.750000 0.624429 0.391002
O O13 0.640460 0.500000 0.361497
O O14 0.647137 0.757144 0.430576
O O15 0.680755 0.755208 0.298563
O O16 0.410738 0.755530 0.094602
O O17 0.427898 0.000000 0.164421
O O18 0.904014 0.500000 0.961947
O O19 0.000000 0.321493 0.000000
O O20 0.250000 0.788015 0.479491
O O21 0.165423 0.000000 0.501717
O O22 0.615524 0.000000 0.266545
#
# Coordination Sequence:
#
# PCOD8207923 Si02
#       8
#     8   8   8   8   8   8   8   8
#     4   8  15  25  36  54  81 113 146 179 218 264
#     4  10  21  35  51  73 100 130 163 199 243 294
#     4  10  19  30  45  66  93 122 154 191 230 279
#     4  10  20  33  49  67  88 117 152 190 232 276
#     4   9  16  26  39  55  81 116 150 184 224 269
#     4   9  15  22  35  55  78 108 147 185 220 261
#     4  10  21  36  54  75  97 124 161 203 245 290
#     4  10  19  30  45  65  91 122 154 189 230 275
#
# _framework density 17.856152000000002
#
# number of rings (size 3 to 8) (size 9 to 14) (size 15 to 20)
#    0.000    2.500    0.000    3.750    0.000    8.750 
#    0.000    0.000    0.000    0.000    0.000    0.000 
#    0.000    1.000    0.000    3.250    0.000    5.875 
#
# Total GULP energy -793000.612254 kJ/mol
# GULP energy per Si atom -12390.634566 kJ/mol
# Density = 1.781551 g / cm^3
# Si number density = 17.856152 Si / 1000 Ang^3
#
#
#
# Elastic Constant Matrix: (Units=GPa)
#
#
# Indices 1 2 3 4 5 6 
#
# 1 37.1621 27.3692 21.0640 0.0000 0.0000 0.0000
# 2 27.3692 137.6470 70.1584 0.0000 0.0000 0.0000
# 3 21.0640 70.1584 117.6098 0.0000 0.0000 0.0000
# 4 0.0000 0.0000 0.0000 36.4003 0.0000 0.0000
# 5 0.0000 0.0000 0.0000 0.0000 14.2966 0.0000
# 6 0.0000 0.0000 0.0000 0.0000 0.0000 18.9642
#
#
#
# Elastic Compliance Matrix: (Units=1/GPa)
#
#
# Indices 1 2 3 4 5 6 
#
# 1 0.032152 -0.004969 -0.002795 0.000000 0.000000 0.000000
# 2 -0.004969 0.011207 -0.005795 0.000000 0.000000 0.000000
# 3 -0.002795 -0.005795 0.012460 0.000000 0.000000 0.000000
# 4 0.000000 0.000000 0.000000 0.027472 0.000000 0.000000
# 5 0.000000 0.000000 0.000000 0.000000 0.069947 0.000000
# 6 0.000000 0.000000 0.000000 0.000000 0.000000 0.052731
#
#
# Mechanical properties :
#
#
# Convention : Reuss Voigt Hill
#
# Bulk Modulus (GPa) = 34.84026 58.84468 46.84247
# Shear Modulus (GPa) = 20.60545 25.52070 23.06307
#
# Velocity S-wave (km/s) = 3.40070 3.78463 3.59779
# Velocity P-wave (km/s) = 5.91385 7.21971 6.59916
#
# Compressibility (1/GPa) = 0.02870242
#
# Stress axis : x y z
#
# Youngs Moduli (GPa) = 31.10179 89.23157 80.25476
#
# Poissons Ratio (x) = 0.44337 0.22427
# Poissons Ratio (y) = 0.15454 0.46510
# Poissons Ratio (z) = 0.08691 0.51713
#
# Static dielectric constant tensor:
#      x y z
#    x 2.856370 0.000000 0.000000 
#    y 0.000000 3.539130 0.000000 
#    z 0.000000 0.000000 3.620090 
# 
# 
# High freq. dielectric constant tensor:
#      x y z
#    x 1.624420 0.000000 0.000000 
#    y 0.000000 1.707850 0.000000 
#    z 0.000000 0.000000 1.697490 
# 
# From -- ./inp_files/30635.got.cif
#   From: 2010.03.12/outbox.cif.g09.slc.cpg/sg51_16_cif.got.tgz:30635.got - 2010.04.16 13:43:02.
