data_PCOD8207317
_publ_section_title
;
Structure prediction by ZEFSAII (Michael W. Deem and Ramdas Pophale) SiO2 
 PCOD8207317
Probable space group: P M M A
;
_chemical_formula_sum "Si O2"
_cell_formula_units_Z 64
_cell_length_a 19.575332
_cell_length_b 8.873302
_cell_length_c 20.560786
_cell_angle_alpha 90.000000
_cell_angle_beta 90.000000
_cell_angle_gamma 90.000000
_cell_volume 3571.363964
_symmetry_space_group_name_H-M "P M M A"
_symmetry_group_IT_number 51
_symmetry_cell_setting 'orthorhombic'
loop_
_space_group_symop_operation_xyz
x,y,z
1/2-x,-y,z
1/2+x,-y,-z
-x,y,-z
-x,-y,-z
1/2+x,y,-z
1/2-x,y,z
x,-y,z
loop_
_atom_site_type_symbol
_atom_site_label
_atom_site_fract_x
_atom_site_fract_y
_atom_site_fract_z
Si Si1 0.823698 0.178885 0.515572
Si Si2 0.455035 0.327772 0.679716
Si Si3 0.544041 0.177264 0.936763
Si Si4 0.673026 0.675271 0.986626
Si Si5 0.672771 0.825030 0.368648
Si Si6 0.456524 0.673725 0.826700
Si Si7 0.672665 0.175732 0.125045
Si Si8 0.963811 0.821694 0.565551
O O1 0.750000 0.240532 0.540800
O O2 0.837076 0.235191 0.442183
O O3 0.884624 0.232564 0.562612
O O4 0.821203 0.000000 0.512542
O O5 0.454300 0.500000 0.658529
O O6 0.377978 0.265917 0.677416
O O7 0.482747 0.307168 0.752900
O O8 0.504496 0.241577 0.630906
O O9 0.616954 0.263030 0.936036
O O10 0.504109 0.226526 0.872547
O O11 0.557466 0.000000 0.934490
O O12 0.500000 0.223415 0.000000
O O13 0.750000 0.699133 0.958832
O O14 0.659773 0.500000 0.001506
O O15 0.662875 0.770609 0.051590
O O16 0.750000 0.797099 0.344589
O O17 0.653490 0.000000 0.364138
O O18 0.459297 0.500000 0.848803
O O19 0.378492 0.731775 0.829386
O O20 0.750000 0.205563 0.149125
O O21 0.653984 0.000000 0.127989
O O22 0.000000 0.761271 0.500000
O O23 0.970653 0.000000 0.568536
#
# Coordination Sequence:
#
# PCOD8207317 Si02
#       8
#     8   8   8   8   8   8   8   8
#     4   8  14  27  50  79 106 131 168 219 265 309
#     4  11  24  37  50  75 111 146 180 222 271 320
#     4  11  22  36  58  86 110 138 180 232 279 314
#     4  10  20  34  56  85 114 145 178 214 264 326
#     4   9  17  32  54  77 104 141 182 219 259 313
#     4  11  24  39  54  74 106 149 188 222 268 328
#     4  10  20  34  53  79 110 142 180 225 267 311
#     4  10  18  32  56  81 103 136 182 224 265 317
#
# _framework density 17.920324000000001
#
# number of rings (size 3 to 8) (size 9 to 14) (size 15 to 20)
#    0.000    2.000    2.500    2.625    0.000    5.000 
#    0.000    2.500    0.000    1.125    0.000    3.500 
#    0.000    0.000    0.000    0.000    0.000    0.000 
#
# Total GULP energy -793515.010800 kJ/mol
# GULP energy per Si atom -12398.672044 kJ/mol
# Density = 1.787954 g / cm^3
# Si number density = 17.920324 Si / 1000 Ang^3
#
#
#
# Elastic Constant Matrix: (Units=GPa)
#
#
# Indices 1 2 3 4 5 6 
#
# 1 115.2310 33.0121 45.0240 0.0000 0.0000 0.0000
# 2 33.0121 51.1281 24.0344 0.0000 0.0000 0.0000
# 3 45.0240 24.0344 74.1771 0.0000 0.0000 0.0000
# 4 0.0000 0.0000 0.0000 26.1445 0.0000 0.0000
# 5 0.0000 0.0000 0.0000 0.0000 24.0953 0.0000
# 6 0.0000 0.0000 0.0000 0.0000 0.0000 22.9585
#
#
#
# Elastic Compliance Matrix: (Units=1/GPa)
#
#
# Indices 1 2 3 4 5 6 
#
# 1 0.012489 -0.005309 -0.005860 0.000000 0.000000 0.000000
# 2 -0.005309 0.025330 -0.004985 0.000000 0.000000 0.000000
# 3 -0.005860 -0.004985 0.018654 0.000000 0.000000 0.000000
# 4 0.000000 0.000000 0.000000 0.038249 0.000000 0.000000
# 5 0.000000 0.000000 0.000000 0.000000 0.041502 0.000000
# 6 0.000000 0.000000 0.000000 0.000000 0.000000 0.043557
#
#
# Mechanical properties :
#
#
# Convention : Reuss Voigt Hill
#
# Bulk Modulus (GPa) = 41.38371 49.40856 45.39614
# Shear Modulus (GPa) = 22.71251 23.87071 23.29161
#
# Velocity S-wave (km/s) = 3.56394 3.65368 3.60909
# Velocity P-wave (km/s) = 6.33079 6.74020 6.53870
#
# Compressibility (1/GPa) = 0.02416410
#
# Stress axis : x y z
#
# Youngs Moduli (GPa) = 80.07063 39.47914 53.60916
#
# Poissons Ratio (x) = 0.20959 0.31417
# Poissons Ratio (y) = 0.42509 0.26723
# Poissons Ratio (z) = 0.46924 0.19680
#
# Static dielectric constant tensor:
#      x y z
#    x 3.680320 0.000000 0.000000 
#    y 0.000000 3.231040 0.000000 
#    z 0.000000 0.000000 3.039650 
# 
# 
# High freq. dielectric constant tensor:
#      x y z
#    x 1.702240 0.000000 0.000000 
#    y 0.000000 1.688530 0.000000 
#    z 0.000000 0.000000 1.663740 
# 
# From -- ./inp_files/30599.got.cif
#   From: 2010.03.12/outbox.cif.g09.slc.cpg/sg51_16_cif.got.tgz:30599.got - 2010.04.16 13:43:02.
