data_PCOD8207618
_publ_section_title
;
Structure prediction by ZEFSAII (Michael W. Deem and Ramdas Pophale) SiO2 
 PCOD8207618
Probable space group: P M M A
;
_chemical_formula_sum "Si O2"
_cell_formula_units_Z 48
_cell_length_a 9.236478
_cell_length_b 18.412554
_cell_length_c 19.792650
_cell_angle_alpha 90.000000
_cell_angle_beta 90.000000
_cell_angle_gamma 90.000000
_cell_volume 3366.079575
_symmetry_space_group_name_H-M "P M M A"
_symmetry_group_IT_number 51
_symmetry_cell_setting 'orthorhombic'
loop_
_space_group_symop_operation_xyz
x,y,z
1/2-x,-y,z
1/2+x,-y,-z
-x,y,-z
-x,-y,-z
1/2+x,y,-z
1/2-x,y,z
x,-y,z
loop_
_atom_site_type_symbol
_atom_site_label
_atom_site_fract_x
_atom_site_fract_y
_atom_site_fract_z
Si Si1 0.084750 0.645814 0.836082
Si Si2 0.579831 0.921030 0.928915
Si Si3 0.905541 0.582663 0.942106
Si Si4 0.083512 0.416435 0.695024
Si Si5 0.921894 0.216477 0.072417
Si Si6 0.087151 0.413605 0.436051
O O1 0.250000 0.624370 0.849991
O O2 0.051868 0.639655 0.756365
O O3 0.046403 0.722289 0.871110
O O4 0.985044 0.585300 0.870633
O O5 0.750000 0.902627 0.937817
O O6 0.495226 0.854927 0.892267
O O7 0.562400 0.000000 0.892052
O O8 0.500000 0.926393 0.000000
O O9 0.750000 0.622510 0.938862
O O10 0.881327 0.500000 0.963131
O O11 0.000000 0.622890 0.000000
O O12 0.250000 0.412178 0.672400
O O13 0.045130 0.500000 0.715063
O O14 0.987693 0.387861 0.633075
O O15 0.750000 0.206248 0.061150
O O16 0.000000 0.232481 0.000000
O O17 0.250000 0.382903 0.438009
O O18 0.086577 0.500000 0.439452
O O19 0.000000 0.381538 0.500000
#
# Coordination Sequence:
#
# PCOD8207618 Si02
#       6
#     8   8   8   8   8   8
#     4  10  20  31  42  56  75 100 128 158 194 234
#     4   9  16  26  41  59  76  94 118 150 189 231
#     4  10  20  31  42  54  67  88 122 163 203 238
#     4   9  17  29  43  57  75 100 128 159 195 231
#     4  10  19  29  41  57  76  99 128 160 195 234
#     4   9  16  26  41  60  79  97 120 152 189 229
#
# _framework density 14.259912
#
# number of rings (size 3 to 8) (size 9 to 14) (size 15 to 20)
#    0.000    2.500    0.000    4.000    0.000    8.000 
#    0.000    1.667    0.000    0.000    0.000    0.000 
#    0.000    0.000    0.000    0.000    0.000    0.833 
#
# Total GULP energy -594630.673259 kJ/mol
# GULP energy per Si atom -12388.139026 kJ/mol
# Density = 1.422746 g / cm^3
# Si number density = 14.259912 Si / 1000 Ang^3
#
#
#
# Elastic Constant Matrix: (Units=GPa)
#
#
# Indices 1 2 3 4 5 6 
#
# 1 113.9759 32.3502 61.3060 0.0000 0.0000 0.0000
# 2 32.3502 55.9394 32.0227 0.0000 0.0000 0.0000
# 3 61.3060 32.0227 94.9278 0.0000 0.0000 0.0000
# 4 0.0000 0.0000 0.0000 -59.2021 0.0000 0.0000
# 5 0.0000 0.0000 0.0000 0.0000 22.8599 0.0000
# 6 0.0000 0.0000 0.0000 0.0000 0.0000 14.6859
#
#
#
# Elastic Compliance Matrix: (Units=1/GPa)
#
#
# Indices 1 2 3 4 5 6 
#
# 1 0.014012 -0.003623 -0.007827 0.000000 0.000000 0.000000
# 2 -0.003623 0.023091 -0.005450 0.000000 0.000000 0.000000
# 3 -0.007827 -0.005450 0.017428 0.000000 0.000000 0.000000
# 4 0.000000 0.000000 0.000000 -0.016891 0.000000 0.000000
# 5 0.000000 0.000000 0.000000 0.000000 0.043745 0.000000
# 6 0.000000 0.000000 0.000000 0.000000 0.000000 0.068092
#
#
# Mechanical properties :
#
#
# Convention : Reuss Voigt Hill
#
# Bulk Modulus (GPa) = 48.23575 57.35567 52.79571
# Shear Modulus (GPa) = 26.28985 4.94636 15.61810
#
# Velocity S-wave (km/s) = 4.29840 1.86447 3.31304
# Velocity P-wave (km/s) = 7.65078 6.70402 7.19300
#
# Compressibility (1/GPa) = 0.02073151
#
# Stress axis : x y z
#
# Youngs Moduli (GPa) = 71.36655 43.30625 57.37962
#
# Poissons Ratio (x) = 0.15688 0.44912
# Poissons Ratio (y) = 0.25853 0.31272
# Poissons Ratio (z) = 0.55860 0.23602
#
# Static dielectric constant tensor:
#      x y z
#    x 3.131480 0.000000 0.000000 
#    y 0.000000 2.961020 0.000000 
#    z 0.000000 0.000000 2.610590 
# 
# 
# High freq. dielectric constant tensor:
#      x y z
#    x 1.567260 0.000000 0.000000 
#    y 0.000000 1.510030 0.000000 
#    z 0.000000 0.000000 1.508750 
# 
# From -- ./inp_files/28075.got.cif
#   From: 2010.03.12/outbox.cif.g09.slc.cpg/sg51_15_cif.got.tgz:28075.got - 2010.04.16 13:43:02.
