data_PCOD8207664
_publ_section_title
;
Structure prediction by ZEFSAII (Michael W. Deem and Ramdas Pophale) SiO2 
 PCOD8207664
Probable space group: P M M A
;
_chemical_formula_sum "Si O2"
_cell_formula_units_Z 56
_cell_length_a 9.122576
_cell_length_b 18.545332
_cell_length_c 21.116860
_cell_angle_alpha 90.000000
_cell_angle_beta 90.000000
_cell_angle_gamma 90.000000
_cell_volume 3572.575728
_symmetry_space_group_name_H-M "P M M A"
_symmetry_group_IT_number 51
_symmetry_cell_setting 'orthorhombic'
loop_
_space_group_symop_operation_xyz
x,y,z
1/2-x,-y,z
1/2+x,-y,-z
-x,y,-z
-x,-y,-z
1/2+x,y,-z
1/2-x,y,z
x,-y,z
loop_
_atom_site_type_symbol
_atom_site_label
_atom_site_fract_x
_atom_site_fract_y
_atom_site_fract_z
Si Si1 0.576944 0.418743 0.193121
Si Si2 0.583482 0.654018 0.062473
Si Si3 0.084563 0.218993 0.858046
Si Si4 0.421905 0.844336 0.320073
Si Si5 0.579039 0.082879 0.434305
Si Si6 0.417937 0.919616 0.794492
Si Si7 0.081313 0.294961 0.249533
O O1 0.750000 0.415189 0.199432
O O2 0.518486 0.500000 0.200977
O O3 0.526035 0.388835 0.124393
O O4 0.509731 0.369758 0.249828
O O5 0.750000 0.633087 0.049685
O O6 0.563243 0.740920 0.074364
O O7 0.500000 0.629234 0.000000
O O8 0.250000 0.239046 0.833740
O O9 0.065648 0.131990 0.856995
O O10 0.962667 0.249838 0.811848
O O11 0.250000 0.861114 0.327403
O O12 0.507473 0.864802 0.383121
O O13 0.481528 0.892038 0.262276
O O14 0.449039 0.758407 0.308926
O O15 0.500000 0.099108 0.500000
O O16 0.750000 0.100897 0.441339
O O17 0.554820 0.000000 0.413547
O O18 0.250000 0.918761 0.770296
O O19 0.466149 0.000000 0.814590
O O20 0.250000 0.316306 0.245382
#
# Coordination Sequence:
#
# PCOD8207664 Si02
#       7
#     8   8   8   8   8   8   8
#     4   9  18  32  47  63  86 113 137 165 206 254
#     4   9  17  28  42  59  79 106 139 171 203 245
#     4   8  15  28  42  56  78 106 134 169 213 255
#     4  10  19  29  42  62  89 117 144 176 213 253
#     4  10  20  32  45  62  87 121 158 191 221 252
#     4   9  16  26  42  62  80 102 137 178 217 257
#     4   9  17  28  43  64  86 109 139 173 208 247
#
# _framework density 15.674965
#
# number of rings (size 3 to 8) (size 9 to 14) (size 15 to 20)
#    0.000    2.857    0.000    2.571    0.000    7.429 
#    0.000    0.000    0.000    0.429    0.000    0.000 
#    0.000    0.571    0.000    1.857    0.000    3.571 
#
# Total GULP energy -693800.335098 kJ/mol
# GULP energy per Si atom -12389.291698 kJ/mol
# Density = 1.563929 g / cm^3
# Si number density = 15.674965 Si / 1000 Ang^3
#
#
#
# Elastic Constant Matrix: (Units=GPa)
#
#
# Indices 1 2 3 4 5 6 
#
# 1 67.6532 42.1377 33.8622 0.0000 0.0000 0.0000
# 2 42.1377 125.9374 37.0031 0.0000 0.0000 0.0000
# 3 33.8622 37.0031 46.8015 0.0000 0.0000 0.0000
# 4 0.0000 0.0000 0.0000 17.9913 0.0000 0.0000
# 5 0.0000 0.0000 0.0000 0.0000 22.1897 0.0000
# 6 0.0000 0.0000 0.0000 0.0000 0.0000 20.5114
#
#
#
# Elastic Compliance Matrix: (Units=1/GPa)
#
#
# Indices 1 2 3 4 5 6 
#
# 1 0.024563 -0.003904 -0.014686 0.000000 0.000000 0.000000
# 2 -0.003904 0.010964 -0.005844 0.000000 0.000000 0.000000
# 3 -0.014686 -0.005844 0.036613 0.000000 0.000000 0.000000
# 4 0.000000 0.000000 0.000000 0.055582 0.000000 0.000000
# 5 0.000000 0.000000 0.000000 0.000000 0.045066 0.000000
# 6 0.000000 0.000000 0.000000 0.000000 0.000000 0.048753
#
#
# Mechanical properties :
#
#
# Convention : Reuss Voigt Hill
#
# Bulk Modulus (GPa) = 42.96820 51.82201 47.39511
# Shear Modulus (GPa) = 17.97489 20.63110 19.30299
#
# Velocity S-wave (km/s) = 3.39001 3.63186 3.51301
# Velocity P-wave (km/s) = 6.54174 7.12175 6.83790
#
# Compressibility (1/GPa) = 0.02327302
#
# Stress axis : x y z
#
# Youngs Moduli (GPa) = 40.71114 91.21048 27.31283
#
# Poissons Ratio (x) = 0.35606 0.40111
# Poissons Ratio (y) = 0.15892 0.15961
# Poissons Ratio (z) = 0.59788 0.53302
#
# Static dielectric constant tensor:
#      x y z
#    x 3.040650 0.000000 0.000000 
#    y 0.000000 3.296940 0.000000 
#    z 0.000000 0.000000 2.744090 
# 
# 
# High freq. dielectric constant tensor:
#      x y z
#    x 1.609600 0.000000 0.000000 
#    y 0.000000 1.600020 0.000000 
#    z 0.000000 0.000000 1.556920 
# 
# From -- ./inp_files/32505.got.cif
#   From: 2010.03.12/outbox.cif.g09.slc.cpg/sg51_17_cif.got.tgz:32505.got - 2010.04.16 13:43:02.
