data_PCOD8207320
_publ_section_title
;
Structure prediction by ZEFSAII (Michael W. Deem and Ramdas Pophale) SiO2 
 PCOD8207320
Probable space group: P M M A
;
_chemical_formula_sum "Si O2"
_cell_formula_units_Z 64
_cell_length_a 8.993452
_cell_length_b 19.597827
_cell_length_c 20.560284
_cell_angle_alpha 90.000000
_cell_angle_beta 90.000000
_cell_angle_gamma 90.000000
_cell_volume 3623.793569
_symmetry_space_group_name_H-M "P M M A"
_symmetry_group_IT_number 51
_symmetry_cell_setting 'orthorhombic'
loop_
_space_group_symop_operation_xyz
x,y,z
1/2-x,-y,z
1/2+x,-y,-z
-x,y,-z
-x,-y,-z
1/2+x,y,-z
1/2-x,y,z
x,-y,z
loop_
_atom_site_type_symbol
_atom_site_label
_atom_site_fract_x
_atom_site_fract_y
_atom_site_fract_z
Si Si1 0.073835 0.426103 0.238748
Si Si2 0.578639 0.784758 0.679631
Si Si3 0.924786 0.924953 0.130854
Si Si4 0.574309 0.706495 0.435207
Si Si5 0.923061 0.577492 0.613992
Si Si6 0.925369 0.788944 0.066441
Si Si7 0.078536 0.075640 0.265389
Si Si8 0.423905 0.285965 0.183814
O O1 0.250000 0.427872 0.241843
O O2 0.014326 0.500000 0.213072
O O3 0.018827 0.413745 0.312221
O O4 0.022156 0.364497 0.192629
O O5 0.750000 0.769279 0.661808
O O6 0.473877 0.751253 0.626362
O O7 0.545161 0.866310 0.680842
O O8 0.540870 0.754799 0.750399
O O9 0.750000 0.923882 0.139566
O O10 0.974745 0.867469 0.079533
O O11 0.989548 0.906687 0.200748
O O12 0.979880 0.000000 0.107158
O O13 0.500000 0.738096 0.500000
O O14 0.750000 0.708873 0.442083
O O15 0.520416 0.628289 0.429315
O O16 0.750000 0.597794 0.608002
O O17 0.948969 0.500000 0.590071
O O18 0.750000 0.781313 0.059829
O O19 0.979702 0.742148 0.125077
O O20 0.000000 0.763997 0.000000
O O21 0.250000 0.078833 0.245092
O O22 0.036610 0.000000 0.292618
O O23 0.250000 0.280826 0.166323
#
# Coordination Sequence:
#
# PCOD8207320 Si02
#       8
#     8   8   8   8   8   8   8   8
#     4   8  14  27  51  80 106 134 169 208 253 307
#     4  10  19  34  56  81 109 139 176 219 265 317
#     4   9  18  32  49  72 104 139 174 214 257 306
#     4  12  25  38  54  76 108 145 184 225 269 317
#     4   9  17  33  56  80 109 144 180 216 259 314
#     4  11  23  36  51  73 105 141 180 220 264 313
#     4   9  17  30  52  81 109 138 172 212 259 314
#     4  10  18  32  56  81 106 137 173 215 263 313
#
# _framework density 17.661049999999999
#
# number of rings (size 3 to 8) (size 9 to 14) (size 15 to 20)
#    0.000    2.250    2.500    2.250    0.000    2.250 
#    0.000    0.000    0.000    1.125    0.000    0.000 
#    0.000    0.000    0.000    0.000    0.000    0.000 
#
# Total GULP energy -793377.712812 kJ/mol
# GULP energy per Si atom -12396.526763 kJ/mol
# Density = 1.762085 g / cm^3
# Si number density = 17.661050 Si / 1000 Ang^3
#
#
#
# Elastic Constant Matrix: (Units=GPa)
#
#
# Indices 1 2 3 4 5 6 
#
# 1 51.1144 38.7053 36.2388 0.0000 0.0000 0.0000
# 2 38.7053 111.5613 49.8639 0.0000 0.0000 0.0000
# 3 36.2388 49.8639 87.6919 0.0000 0.0000 0.0000
# 4 0.0000 0.0000 0.0000 18.0810 0.0000 0.0000
# 5 0.0000 0.0000 0.0000 0.0000 26.9125 0.0000
# 6 0.0000 0.0000 0.0000 0.0000 0.0000 23.1514
#
#
#
# Elastic Compliance Matrix: (Units=1/GPa)
#
#
# Indices 1 2 3 4 5 6 
#
# 1 0.031054 -0.006755 -0.008992 0.000000 0.000000 0.000000
# 2 -0.006755 0.013487 -0.004878 0.000000 0.000000 0.000000
# 3 -0.008992 -0.004878 0.017893 0.000000 0.000000 0.000000
# 4 0.000000 0.000000 0.000000 0.055307 0.000000 0.000000
# 5 0.000000 0.000000 0.000000 0.000000 0.037157 0.000000
# 6 0.000000 0.000000 0.000000 0.000000 0.000000 0.043194
#
#
# Mechanical properties :
#
#
# Convention : Reuss Voigt Hill
#
# Bulk Modulus (GPa) = 47.20303 55.55375 51.37839
# Shear Modulus (GPa) = 20.29183 21.99960 21.14571
#
# Velocity S-wave (km/s) = 3.39331 3.53321 3.46397
# Velocity P-wave (km/s) = 6.49137 6.94036 6.71962
#
# Compressibility (1/GPa) = 0.02118508
#
# Stress axis : x y z
#
# Youngs Moduli (GPa) = 32.20185 74.14299 55.88676
#
# Poissons Ratio (x) = 0.50082 0.50255
# Poissons Ratio (y) = 0.21752 0.27261
# Poissons Ratio (z) = 0.28957 0.36166
#
# Static dielectric constant tensor:
#      x y z
#    x 3.104000 0.000000 0.000000 
#    y 0.000000 3.929350 0.000000 
#    z 0.000000 0.000000 3.050510 
# 
# 
# High freq. dielectric constant tensor:
#      x y z
#    x 1.667180 0.000000 0.000000 
#    y 0.000000 1.694370 0.000000 
#    z 0.000000 0.000000 1.655290 
# 
# From -- ./inp_files/28358.got.cif
#   From: 2010.03.12/outbox.cif.g09.slc.cpg/sg51_15_cif.got.tgz:28358.got - 2010.04.16 13:43:02.
