data_PCOD8207585
_publ_section_title
;
Structure prediction by ZEFSAII (Michael W. Deem and Ramdas Pophale) SiO2 
 PCOD8207585
Probable space group: P M M A
;
_chemical_formula_sum "Si O2"
_cell_formula_units_Z 48
_cell_length_a 9.121994
_cell_length_b 23.020322
_cell_length_c 12.951773
_cell_angle_alpha 90.000000
_cell_angle_beta 90.000000
_cell_angle_gamma 90.000000
_cell_volume 2719.758862
_symmetry_space_group_name_H-M "P M M A"
_symmetry_group_IT_number 51
_symmetry_cell_setting 'orthorhombic'
loop_
_space_group_symop_operation_xyz
x,y,z
1/2-x,-y,z
1/2+x,-y,-z
-x,y,-z
-x,-y,-z
1/2+x,y,-z
1/2-x,y,z
x,-y,z
loop_
_atom_site_type_symbol
_atom_site_label
_atom_site_fract_x
_atom_site_fract_y
_atom_site_fract_z
Si Si1 0.092464 0.762564 0.912415
Si Si2 0.579477 0.564632 0.894894
Si Si3 0.418829 0.677727 0.212179
Si Si4 0.424314 0.236750 0.393052
Si Si5 0.913778 0.854098 0.263030
Si Si6 0.918612 0.931435 0.894450
O O1 0.250000 0.744680 0.957064
O O2 0.111280 0.803379 0.816542
O O3 0.006656 0.704694 0.882812
O O4 0.000000 0.796185 0.000000
O O5 0.750000 0.565323 0.921398
O O6 0.528235 0.500000 0.860328
O O7 0.547436 0.608632 0.798263
O O8 0.500000 0.584012 0.000000
O O9 0.250000 0.691801 0.193764
O O10 0.465173 0.708076 0.319967
O O11 0.500000 0.252919 0.500000
O O12 0.250000 0.229123 0.405391
O O13 0.490879 0.174751 0.354800
O O14 0.750000 0.874990 0.300364
O O15 0.002112 0.905841 0.207263
O O16 0.750000 0.909487 0.900351
O O17 0.925032 0.000000 0.880666
O O18 0.000000 0.912603 0.000000
#
# Coordination Sequence:
#
# PCOD8207585 Si02
#       6
#     8   8   8   8   8   8
#     4  10  19  28  41  64  94 125 155 191 234 282
#     4   9  17  29  45  67  96 129 163 196 232 278
#     4   9  18  31  47  67  91 122 158 196 239 287
#     4  10  20  35  54  74  96 122 157 202 252 302
#     4  10  20  33  50  72  97 127 163 201 244 292
#     4  10  20  33  50  74 105 140 174 205 238 280
#
# _framework density 17.648624000000002
#
# number of rings (size 3 to 8) (size 9 to 14) (size 15 to 20)
#    0.000    2.333    0.000    3.000    0.000    7.000 
#    0.000    0.000    0.000    1.000    0.000    0.000 
#    0.000    0.000    0.000    0.000    0.000    0.500 
#
# Total GULP energy -594741.904903 kJ/mol
# GULP energy per Si atom -12390.456352 kJ/mol
# Density = 1.760845 g / cm^3
# Si number density = 17.648624 Si / 1000 Ang^3
#
#
#
# Elastic Constant Matrix: (Units=GPa)
#
#
# Indices 1 2 3 4 5 6 
#
# 1 114.5485 34.8868 46.5000 0.0000 0.0000 0.0000
# 2 34.8868 72.3594 32.0720 0.0000 0.0000 0.0000
# 3 46.5000 32.0720 79.2453 0.0000 0.0000 0.0000
# 4 0.0000 0.0000 0.0000 22.5093 0.0000 0.0000
# 5 0.0000 0.0000 0.0000 0.0000 29.4027 0.0000
# 6 0.0000 0.0000 0.0000 0.0000 0.0000 29.5506
#
#
#
# Elastic Compliance Matrix: (Units=1/GPa)
#
#
# Indices 1 2 3 4 5 6 
#
# 1 0.012061 -0.003263 -0.005756 0.000000 0.000000 0.000000
# 2 -0.003263 0.017724 -0.005258 0.000000 0.000000 0.000000
# 3 -0.005756 -0.005258 0.018125 0.000000 0.000000 0.000000
# 4 0.000000 0.000000 0.000000 0.044426 0.000000 0.000000
# 5 0.000000 0.000000 0.000000 0.000000 0.034010 0.000000
# 6 0.000000 0.000000 0.000000 0.000000 0.000000 0.033840
#
#
# Mechanical properties :
#
#
# Convention : Reuss Voigt Hill
#
# Bulk Modulus (GPa) = 51.67020 54.78565 53.22793
# Shear Modulus (GPa) = 25.61567 26.47214 26.04391
#
# Velocity S-wave (km/s) = 3.81389 3.87713 3.84564
# Velocity P-wave (km/s) = 6.98105 7.15211 7.06710
#
# Compressibility (1/GPa) = 0.01935351
#
# Stress axis : x y z
#
# Youngs Moduli (GPa) = 82.91524 56.42086 55.17303
#
# Poissons Ratio (x) = 0.18413 0.31759
# Poissons Ratio (y) = 0.27059 0.29011
# Poissons Ratio (z) = 0.47727 0.29668
#
# Static dielectric constant tensor:
#      x y z
#    x 3.773390 0.000000 0.000000 
#    y 0.000000 3.362800 0.000000 
#    z 0.000000 0.000000 3.117320 
# 
# 
# High freq. dielectric constant tensor:
#      x y z
#    x 1.700590 0.000000 0.000000 
#    y 0.000000 1.673940 0.000000 
#    z 0.000000 0.000000 1.650450 
# 
# From -- ./inp_files/14409.got.cif
#   From: 2010.03.12/outbox.cif.g09.slc.cpg/sg51_8_cif.got.tgz:14409.got - 2010.04.16 13:43:02.
