data_PCOD8207720
_publ_section_title
;
Structure prediction by ZEFSAII (Michael W. Deem and Ramdas Pophale) SiO2 
 PCOD8207720
Probable space group: P M M A
;
_chemical_formula_sum "Si O2"
_cell_formula_units_Z 64
_cell_length_a 24.872739
_cell_length_b 9.155618
_cell_length_c 16.983551
_cell_angle_alpha 90.000000
_cell_angle_beta 90.000000
_cell_angle_gamma 90.000000
_cell_volume 3867.584194
_symmetry_space_group_name_H-M "P M M A"
_symmetry_group_IT_number 51
_symmetry_cell_setting 'orthorhombic'
loop_
_space_group_symop_operation_xyz
x,y,z
1/2-x,-y,z
1/2+x,-y,-z
-x,y,-z
-x,-y,-z
1/2+x,y,-z
1/2-x,y,z
x,-y,z
loop_
_atom_site_type_symbol
_atom_site_label
_atom_site_fract_x
_atom_site_fract_y
_atom_site_fract_z
Si Si1 0.563878 0.161789 0.491206
Si Si2 0.893554 0.168642 0.823608
Si Si3 0.504078 0.168685 0.091984
Si Si4 0.058159 0.170041 0.338902
Si Si5 0.100007 0.330872 0.823871
Si Si6 0.447791 0.667744 0.657714
Si Si7 0.812277 0.330728 0.926344
Si Si8 0.812384 0.170288 0.085681
O O1 0.500000 0.161494 0.500000
O O2 0.585466 0.215092 0.577175
O O3 0.581266 0.267320 0.420158
O O4 0.585598 0.000000 0.471446
O O5 0.948040 0.212181 0.868152
O O6 0.899733 0.200689 0.730629
O O7 0.845401 0.270362 0.852594
O O8 0.879042 0.000000 0.839576
O O9 0.550165 0.268971 0.127423
O O10 0.518379 0.000000 0.109018
O O11 0.500000 0.200862 0.000000
O O12 0.003649 0.255794 0.321464
O O13 0.041714 0.000000 0.341750
O O14 0.106722 0.500000 0.846110
O O15 0.092025 0.309992 0.730746
O O16 0.154208 0.244212 0.844539
O O17 0.460345 0.500000 0.641036
O O18 0.750000 0.304724 0.907199
O O19 0.825292 0.500000 0.940217
O O20 0.830088 0.242635 0.003634
O O21 0.750000 0.198684 0.103582
O O22 0.826236 0.000000 0.080446
#
# Coordination Sequence:
#
# PCOD8207720 Si02
#       8
#     8   8   8   8   8   8   8   8
#     4   8  15  27  44  64  90 126 164 197 234 280
#     4  10  19  31  49  72  99 130 164 203 242 283
#     4  10  20  32  47  68  95 129 165 197 235 286
#     4   9  17  30  46  67  95 129 164 197 238 284
#     4  11  22  33  48  72 100 130 160 195 241 292
#     4  10  19  29  43  68  99 129 161 194 234 285
#     4  10  21  36  53  73  98 127 160 202 249 291
#     4  10  21  37  56  74  92 121 164 208 246 285
#
# _framework density 16.547798
#
# number of rings (size 3 to 8) (size 9 to 14) (size 15 to 20)
#    0.000    2.250    1.250    3.000    0.000    7.500 
#    0.000    0.000    0.000    0.000    0.000    0.875 
#    0.000    1.000    0.000    0.000    0.000    0.000 
#
# Total GULP energy -793629.112542 kJ/mol
# GULP energy per Si atom -12400.454883 kJ/mol
# Density = 1.651013 g / cm^3
# Si number density = 16.547798 Si / 1000 Ang^3
#
#
#
# Elastic Constant Matrix: (Units=GPa)
#
#
# Indices 1 2 3 4 5 6 
#
# 1 60.9003 48.0338 46.8285 0.0000 0.0000 0.0000
# 2 48.0338 105.0012 62.9857 0.0000 0.0000 0.0000
# 3 46.8285 62.9857 124.9462 0.0000 0.0000 0.0000
# 4 0.0000 0.0000 0.0000 28.2887 0.0000 0.0000
# 5 0.0000 0.0000 0.0000 0.0000 14.9311 0.0000
# 6 0.0000 0.0000 0.0000 0.0000 0.0000 25.8200
#
#
#
# Elastic Compliance Matrix: (Units=1/GPa)
#
#
# Indices 1 2 3 4 5 6 
#
# 1 0.028406 -0.009473 -0.005871 0.000000 0.000000 0.000000
# 2 -0.009473 0.016811 -0.004924 0.000000 0.000000 0.000000
# 3 -0.005871 -0.004924 0.012686 0.000000 0.000000 0.000000
# 4 0.000000 0.000000 0.000000 0.035350 0.000000 0.000000
# 5 0.000000 0.000000 0.000000 0.000000 0.066974 0.000000
# 6 0.000000 0.000000 0.000000 0.000000 0.000000 0.038730
#
#
# Mechanical properties :
#
#
# Convention : Reuss Voigt Hill
#
# Bulk Modulus (GPa) = 57.57982 67.39375 62.48679
# Shear Modulus (GPa) = 20.38468 22.67461 21.52965
#
# Velocity S-wave (km/s) = 3.51360 3.70570 3.61093
# Velocity P-wave (km/s) = 7.16465 7.68926 7.43159
#
# Compressibility (1/GPa) = 0.01736720
#
# Stress axis : x y z
#
# Youngs Moduli (GPa) = 35.20345 59.48513 78.82643
#
# Poissons Ratio (x) = 0.56350 0.46279
# Poissons Ratio (y) = 0.33348 0.38815
# Poissons Ratio (z) = 0.20668 0.29291
#
# Static dielectric constant tensor:
#      x y z
#    x 2.816620 0.000000 0.000000 
#    y 0.000000 3.196340 0.000000 
#    z 0.000000 0.000000 3.492130 
# 
# 
# High freq. dielectric constant tensor:
#      x y z
#    x 1.596690 0.000000 0.000000 
#    y 0.000000 1.645560 0.000000 
#    z 0.000000 0.000000 1.647170 
# 
# From -- ./inp_files/30871.got.cif
#   From: 2010.03.12/outbox.cif.g09.slc.cpg/sg51_16_cif.got.tgz:30871.got - 2010.04.16 13:43:02.
