data_PCOD8207116
_publ_section_title
;
Structure prediction by ZEFSAII (Michael W. Deem and Ramdas Pophale) SiO2 
 PCOD8207116
Probable space group: P M M A
;
_chemical_formula_sum "Si O2"
_cell_formula_units_Z 56
_cell_length_a 19.753390
_cell_length_b 9.034766
_cell_length_c 17.402784
_cell_angle_alpha 90.000000
_cell_angle_beta 90.000000
_cell_angle_gamma 90.000000
_cell_volume 3105.827113
_symmetry_space_group_name_H-M "P M M A"
_symmetry_group_IT_number 51
_symmetry_cell_setting 'orthorhombic'
loop_
_space_group_symop_operation_xyz
x,y,z
1/2-x,-y,z
1/2+x,-y,-z
-x,y,-z
-x,-y,-z
1/2+x,y,-z
1/2-x,y,z
x,-y,z
loop_
_atom_site_type_symbol
_atom_site_label
_atom_site_fract_x
_atom_site_fract_y
_atom_site_fract_z
Si Si1 0.925248 0.670543 0.606514
Si Si2 0.176832 0.326386 0.081987
Si Si3 0.452747 0.827247 0.808573
Si Si4 0.569972 0.324573 0.038415
Si Si5 0.328103 0.826753 0.512226
Si Si6 0.586359 0.331718 0.781487
Si Si7 0.436621 0.172432 0.636643
O O1 0.932648 0.500000 0.582839
O O2 0.868135 0.745300 0.554985
O O3 0.896912 0.690115 0.692429
O O4 0.999796 0.742693 0.598301
O O5 0.250000 0.250706 0.072689
O O6 0.181681 0.500000 0.067810
O O7 0.152509 0.295528 0.168890
O O8 0.127434 0.260015 0.017686
O O9 0.415372 0.743001 0.877587
O O10 0.530988 0.783359 0.810544
O O11 0.423581 0.778763 0.724979
O O12 0.444060 0.000000 0.822376
O O13 0.571327 0.500000 0.046502
O O14 0.500000 0.271589 0.000000
O O15 0.250000 0.770935 0.518266
O O16 0.367348 0.791444 0.591663
O O17 0.329626 0.000000 0.494171
O O18 0.560639 0.500000 0.797626
O O19 0.455571 0.000000 0.632553
#
# Coordination Sequence:
#
# PCOD8207116 Si02
#       7
#     8   8   8   8   8   8   8
#     4  10  20  32  53  82 108 132 165 213 267 313
#     4   9  17  30  49  71  96 130 170 203 237 293
#     4  10  19  31  51  78 102 126 165 215 259 295
#     4  10  18  31  52  74  98 130 168 206 246 296
#     4  10  21  37  55  73  99 140 182 214 253 308
#     4   9  17  32  51  73 101 133 166 201 248 305
#     4   9  19  36  55  75 101 135 176 216 254 306
#
# _framework density 18.030624
#
# number of rings (size 3 to 8) (size 9 to 14) (size 15 to 20)
#    0.000    2.429    1.429    1.286    0.000    4.571 
#    0.000    2.143    0.000    2.571    0.000    0.000 
#    0.000    0.000    0.000    0.000    0.000    0.000 
#
# Total GULP energy -694212.597570 kJ/mol
# GULP energy per Si atom -12396.653528 kJ/mol
# Density = 1.798959 g / cm^3
# Si number density = 18.030624 Si / 1000 Ang^3
#
#
#
# Elastic Constant Matrix: (Units=GPa)
#
#
# Indices 1 2 3 4 5 6 
#
# 1 138.7731 34.9359 74.9856 0.0000 0.0000 0.0000
# 2 34.9359 41.9935 38.1974 0.0000 0.0000 0.0000
# 3 74.9856 38.1974 124.6514 0.0000 0.0000 0.0000
# 4 0.0000 0.0000 0.0000 30.8338 0.0000 0.0000
# 5 0.0000 0.0000 0.0000 0.0000 23.8489 0.0000
# 6 0.0000 0.0000 0.0000 0.0000 0.0000 16.3381
#
#
#
# Elastic Compliance Matrix: (Units=1/GPa)
#
#
# Indices 1 2 3 4 5 6 
#
# 1 0.011243 -0.004439 -0.005403 0.000000 0.000000 0.000000
# 2 -0.004439 0.034768 -0.007984 0.000000 0.000000 0.000000
# 3 -0.005403 -0.007984 0.013719 0.000000 0.000000 0.000000
# 4 0.000000 0.000000 0.000000 0.032432 0.000000 0.000000
# 5 0.000000 0.000000 0.000000 0.000000 0.041931 0.000000
# 6 0.000000 0.000000 0.000000 0.000000 0.000000 0.061207
#
#
# Mechanical properties :
#
#
# Convention : Reuss Voigt Hill
#
# Bulk Modulus (GPa) = 41.53051 66.85067 54.19059
# Shear Modulus (GPa) = 20.92243 24.69076 22.80660
#
# Velocity S-wave (km/s) = 3.41013 3.70453 3.56038
# Velocity P-wave (km/s) = 6.21198 7.44679 6.85724
#
# Compressibility (1/GPa) = 0.02407868
#
# Stress axis : x y z
#
# Youngs Moduli (GPa) = 88.94372 28.76194 72.88990
#
# Poissons Ratio (x) = 0.12767 0.39384
# Poissons Ratio (y) = 0.39480 0.58195
# Poissons Ratio (z) = 0.48058 0.22964
#
# Static dielectric constant tensor:
#      x y z
#    x 3.382450 0.000000 0.000000 
#    y 0.000000 3.197390 0.000000 
#    z 0.000000 0.000000 3.578930 
# 
# 
# High freq. dielectric constant tensor:
#      x y z
#    x 1.678490 0.000000 0.000000 
#    y 0.000000 1.680220 0.000000 
#    z 0.000000 0.000000 1.713680 
# 
# From -- ./inp_files/30488.got.cif
#   From: 2010.03.12/outbox.cif.g09.slc.cpg/sg51_16_cif.got.tgz:30488.got - 2010.04.16 13:43:02.
