data_PCOD8207699
_publ_section_title
;
Structure prediction by ZEFSAII (Michael W. Deem and Ramdas Pophale) SiO2 
 PCOD8207699
Probable space group: P M M A
;
_chemical_formula_sum "Si O2"
_cell_formula_units_Z 56
_cell_length_a 18.595358
_cell_length_b 10.042707
_cell_length_c 18.124403
_cell_angle_alpha 90.000000
_cell_angle_beta 90.000000
_cell_angle_gamma 90.000000
_cell_volume 3384.691153
_symmetry_space_group_name_H-M "P M M A"
_symmetry_group_IT_number 51
_symmetry_cell_setting 'orthorhombic'
loop_
_space_group_symop_operation_xyz
x,y,z
1/2-x,-y,z
1/2+x,-y,-z
-x,y,-z
-x,-y,-z
1/2+x,y,-z
1/2-x,y,z
x,-y,z
loop_
_atom_site_type_symbol
_atom_site_label
_atom_site_fract_x
_atom_site_fract_y
_atom_site_fract_z
Si Si1 0.056543 0.650229 0.213686
Si Si2 0.665951 0.852478 0.566524
Si Si3 0.962715 0.650650 0.070875
Si Si4 0.333233 0.849511 0.264324
Si Si5 0.421177 0.657877 0.698494
Si Si6 0.668530 0.659288 0.164662
Si Si7 0.578831 0.655353 0.468519
O O1 0.081172 0.500000 0.233337
O O2 0.124640 0.746834 0.212895
O O3 0.022052 0.654142 0.133697
O O4 0.998972 0.705462 0.272927
O O5 0.750000 0.854187 0.552192
O O6 0.649270 0.816675 0.650924
O O7 0.633813 0.738346 0.516334
O O8 0.634737 0.000000 0.547804
O O9 0.944210 0.500000 0.047455
O O10 0.887055 0.713921 0.101403
O O11 0.000000 0.724016 0.000000
O O12 0.250000 0.829610 0.246992
O O13 0.356798 0.000000 0.245404
O O14 0.420796 0.500000 0.699832
O O15 0.358584 0.709409 0.754311
O O16 0.411881 0.709335 0.615137
O O17 0.750000 0.711811 0.150653
O O18 0.666328 0.500000 0.163737
O O19 0.500000 0.682098 0.500000
O O20 0.598912 0.500000 0.474077
#
# Coordination Sequence:
#
# PCOD8207699 Si02
#       7
#     8   8   8   8   8   8   8
#     4   9  16  28  47  67  88 115 145 178 216 259
#     4   9  19  34  47  60  83 116 151 185 224 270
#     4   8  14  25  41  63  92 120 142 172 217 259
#     4   9  18  32  47  62  84 115 148 183 222 262
#     4   8  15  26  39  59  86 112 140 178 220 259
#     4   8  13  22  37  56  80 114 150 176 205 254
#     4  10  19  29  43  65  90 113 142 184 230 272
#
# _framework density 16.545083999999999
#
# number of rings (size 3 to 8) (size 9 to 14) (size 15 to 20)
#    0.000    3.286    0.000    3.429    0.000    3.143 
#    0.000    4.286    0.000    3.000    0.000    0.000 
#    0.000    5.143    0.000    0.857    0.000    0.000 
#
# Total GULP energy -693886.661935 kJ/mol
# GULP energy per Si atom -12390.833249 kJ/mol
# Density = 1.650743 g / cm^3
# Si number density = 16.545084 Si / 1000 Ang^3
#
#
#
# Elastic Constant Matrix: (Units=GPa)
#
#
# Indices 1 2 3 4 5 6 
#
# 1 93.5100 35.4530 56.4846 0.0000 0.0000 0.0000
# 2 35.4530 42.4578 25.3953 0.0000 0.0000 0.0000
# 3 56.4846 25.3953 67.9436 0.0000 0.0000 0.0000
# 4 0.0000 0.0000 0.0000 19.8120 0.0000 0.0000
# 5 0.0000 0.0000 0.0000 0.0000 21.8560 0.0000
# 6 0.0000 0.0000 0.0000 0.0000 0.0000 15.3225
#
#
#
# Elastic Compliance Matrix: (Units=1/GPa)
#
#
# Indices 1 2 3 4 5 6 
#
# 1 0.024806 -0.010791 -0.016589 0.000000 0.000000 0.000000
# 2 -0.010791 0.035029 -0.004122 0.000000 0.000000 0.000000
# 3 -0.016589 -0.004122 0.030050 0.000000 0.000000 0.000000
# 4 0.000000 0.000000 0.000000 0.050474 0.000000 0.000000
# 5 0.000000 0.000000 0.000000 0.000000 0.045754 0.000000
# 6 0.000000 0.000000 0.000000 0.000000 0.000000 0.065263
#
#
# Mechanical properties :
#
#
# Convention : Reuss Voigt Hill
#
# Bulk Modulus (GPa) = 37.20067 48.73081 42.96574
# Shear Modulus (GPa) = 15.46364 17.17001 16.31682
#
# Velocity S-wave (km/s) = 3.06050 3.22494 3.14379
# Velocity P-wave (km/s) = 5.91795 6.58667 6.26125
#
# Compressibility (1/GPa) = 0.02688124
#
# Stress axis : x y z
#
# Youngs Moduli (GPa) = 40.31331 28.54803 33.27820
#
# Poissons Ratio (x) = 0.30806 0.55205
# Poissons Ratio (y) = 0.43502 0.13716
# Poissons Ratio (z) = 0.66875 0.11767
#
# Static dielectric constant tensor:
#      x y z
#    x 2.800030 0.000000 0.000000 
#    y 0.000000 2.821090 0.000000 
#    z 0.000000 0.000000 3.286580 
# 
# 
# High freq. dielectric constant tensor:
#      x y z
#    x 1.636930 0.000000 0.000000 
#    y 0.000000 1.589000 0.000000 
#    z 0.000000 0.000000 1.634340 
# 
# From -- ./inp_files/30362.got.cif
#   From: 2010.03.12/outbox.cif.g09.slc.cpg/sg51_16_cif.got.tgz:30362.got - 2010.04.16 13:43:02.
