data_PCOD8207890
_publ_section_title
;
Structure prediction by ZEFSAII (Michael W. Deem and Ramdas Pophale) SiO2 
 PCOD8207890
Probable space group: P M M A
;
_chemical_formula_sum "Si O2"
_cell_formula_units_Z 56
_cell_length_a 9.308893
_cell_length_b 13.199488
_cell_length_c 30.064075
_cell_angle_alpha 90.000000
_cell_angle_beta 90.000000
_cell_angle_gamma 90.000000
_cell_volume 3694.051707
_symmetry_space_group_name_H-M "P M M A"
_symmetry_group_IT_number 51
_symmetry_cell_setting 'orthorhombic'
loop_
_space_group_symop_operation_xyz
x,y,z
1/2-x,-y,z
1/2+x,-y,-z
-x,y,-z
-x,-y,-z
1/2+x,y,-z
1/2-x,y,z
x,-y,z
loop_
_atom_site_type_symbol
_atom_site_label
_atom_site_fract_x
_atom_site_fract_y
_atom_site_fract_z
Si Si1 0.594483 0.115881 0.961635
Si Si2 0.912152 0.120308 0.712969
Si Si3 0.083189 0.614385 0.955706
Si Si4 0.413578 0.120668 0.457209
Si Si5 0.585013 0.793489 0.108411
Si Si6 0.413320 0.120790 0.628448
Si Si7 0.414888 0.116815 0.798901
O O1 0.750000 0.170017 0.959505
O O2 0.513669 0.122816 0.914888
O O3 0.617384 0.000000 0.974257
O O4 0.500000 0.170270 0.000000
O O5 0.750000 0.163628 0.710461
O O6 0.006213 0.163340 0.672153
O O7 0.984761 0.154755 0.758962
O O8 0.909404 0.000000 0.710162
O O9 0.250000 0.622563 0.967088
O O10 0.039509 0.500000 0.942375
O O11 0.044113 0.684141 0.912761
O O12 0.000000 0.649366 0.000000
O O13 0.500000 0.161503 0.500000
O O14 0.250000 0.162582 0.457460
O O15 0.497850 0.161003 0.413959
O O16 0.409985 0.000000 0.457413
O O17 0.750000 0.820598 0.098541
O O18 0.554220 0.804715 0.160855
O O19 0.250000 0.162569 0.626958
O O20 0.410570 0.000000 0.628753
O O21 0.250000 0.124601 0.783247
O O22 0.449145 0.000000 0.812575
#
# Coordination Sequence:
#
# PCOD8207890 Si02
#       7
#     8   8   8   8   8   8   8
#     4  10  20  31  42  57  78 102 125 148 174 207
#     4   9  16  25  36  49  65  86 113 144 176 211
#     4   9  18  32  48  65  83 101 122 149 181 217
#     4   9  15  21  28  39  56  77 103 138 181 226
#     4  10  19  30  45  62  79 100 124 150 181 216
#     4   9  15  22  32  44  58  79 108 141 178 219
#     4   9  17  28  40  54  73  96 120 146 177 214
#
# _framework density 15.159506
#
# number of rings (size 3 to 8) (size 9 to 14) (size 15 to 20)
#    0.000    2.714    0.000    2.571    0.000    8.857 
#    0.000    1.429    0.000    0.000    0.000    0.000 
#    0.000    0.000    0.000    0.000    0.000    0.000 
#
# Total GULP energy -694087.032217 kJ/mol
# GULP energy per Si atom -12394.411290 kJ/mol
# Density = 1.512500 g / cm^3
# Si number density = 15.159506 Si / 1000 Ang^3
#
#
#
# Elastic Constant Matrix: (Units=GPa)
#
#
# Indices 1 2 3 4 5 6 
#
# 1 127.2726 17.2345 78.9494 0.0000 0.0000 0.0000
# 2 17.2345 31.8154 25.1221 0.0000 0.0000 0.0000
# 3 78.9494 25.1221 134.4448 0.0000 0.0000 0.0000
# 4 0.0000 0.0000 0.0000 6.5044 0.0000 0.0000
# 5 0.0000 0.0000 0.0000 0.0000 31.6590 0.0000
# 6 0.0000 0.0000 0.0000 0.0000 0.0000 6.8565
#
#
#
# Elastic Compliance Matrix: (Units=1/GPa)
#
#
# Indices 1 2 3 4 5 6 
#
# 1 0.012394 -0.001134 -0.007066 0.000000 0.000000 0.000000
# 2 -0.001134 0.036975 -0.006243 0.000000 0.000000 0.000000
# 3 -0.007066 -0.006243 0.012754 0.000000 0.000000 0.000000
# 4 0.000000 0.000000 0.000000 0.153743 0.000000 0.000000
# 5 0.000000 0.000000 0.000000 0.000000 0.031587 0.000000
# 6 0.000000 0.000000 0.000000 0.000000 0.000000 0.145848
#
#
# Mechanical properties :
#
#
# Convention : Reuss Voigt Hill
#
# Bulk Modulus (GPa) = 30.08745 59.57162 44.82954
# Shear Modulus (GPa) = 11.54024 20.48575 16.01299
#
# Velocity S-wave (km/s) = 2.76208 3.68005 3.25360
# Velocity P-wave (km/s) = 5.48292 7.57885 6.61443
#
# Compressibility (1/GPa) = 0.03323645
#
# Stress axis : x y z
#
# Youngs Moduli (GPa) = 80.68438 27.04497 78.40704
#
# Poissons Ratio (x) = 0.03068 0.55403
# Poissons Ratio (y) = 0.09152 0.48950
# Poissons Ratio (z) = 0.57012 0.16884
#
# Static dielectric constant tensor:
#      x y z
#    x 3.220260 0.000000 0.000000 
#    y 0.000000 2.409910 0.000000 
#    z 0.000000 0.000000 2.985490 
# 
# 
# High freq. dielectric constant tensor:
#      x y z
#    x 1.600080 0.000000 0.000000 
#    y 0.000000 1.500710 0.000000 
#    z 0.000000 0.000000 1.581200 
# 
# From -- ./inp_files/37471.got.cif
#   From: 2010.03.12/outbox.cif.g09.slc.cpg/sg51_19_cif.got.tgz:37471.got - 2010.04.16 13:43:02.
