data_PCOD8207034
_publ_section_title
;
Structure prediction by ZEFSAII (Michael W. Deem and Ramdas Pophale) SiO2 
 PCOD8207034
Probable space group: P M M A
;
_chemical_formula_sum "Si O2"
_cell_formula_units_Z 56
_cell_length_a 27.967273
_cell_length_b 13.086970
_cell_length_c 10.353841
_cell_angle_alpha 90.000000
_cell_angle_beta 90.000000
_cell_angle_gamma 90.000000
_cell_volume 3789.576862
_symmetry_space_group_name_H-M "P M M A"
_symmetry_group_IT_number 51
_symmetry_cell_setting 'orthorhombic'
loop_
_space_group_symop_operation_xyz
x,y,z
1/2-x,-y,z
1/2+x,-y,-z
-x,y,-z
-x,-y,-z
1/2+x,y,-z
1/2-x,y,z
x,-y,z
loop_
_atom_site_type_symbol
_atom_site_label
_atom_site_fract_x
_atom_site_fract_y
_atom_site_fract_z
Si Si1 0.301805 0.378913 0.898863
Si Si2 0.948180 0.694322 0.730219
Si Si3 0.552041 0.616773 0.238308
Si Si4 0.451864 0.114898 0.417665
Si Si5 0.897245 0.712406 0.479517
Si Si6 0.602204 0.379406 0.976587
Si Si7 0.195712 0.619495 0.605279
O O1 0.250000 0.337609 0.947686
O O2 0.301004 0.500000 0.896118
O O3 0.343908 0.341221 0.992378
O O4 0.310924 0.342978 0.752380
O O5 0.960322 0.815327 0.710497
O O6 0.922275 0.652519 0.599754
O O7 0.995407 0.628731 0.752965
O O8 0.913483 0.683127 0.851706
O O9 0.566829 0.500000 0.260918
O O10 0.579203 0.681557 0.344985
O O11 0.568337 0.651087 0.095962
O O12 0.500000 0.116291 0.500000
O O13 0.408177 0.166257 0.500020
O O14 0.437563 0.000000 0.378070
O O15 0.840799 0.686784 0.480442
O O16 0.599771 0.500000 0.948014
O O17 0.250000 0.640040 0.558229
O O18 0.183002 0.500000 0.590512
#
# Coordination Sequence:
#
# PCOD8207034 Si02
#       7
#     8   8   8   8   8   8   8
#     4   8  14  26  43  62  87 128 168 184 208 261
#     4  10  20  31  43  70  92 127 156 193 234 281
#     4  11  19  29  43  67 101 133 159 180 217 278
#     4   9  18  35  53  68  89 120 161 205 250 285
#     4  10  18  31  48  72  87 125 162 195 232 281
#     4  10  19  29  43  65 100 135 155 185 224 273
#     4   9  16  27  45  70 100 127 154 191 228 271
#
# _framework density 14.777374999999999
#
# number of rings (size 3 to 8) (size 9 to 14) (size 15 to 20)
#    0.857    1.571    2.857    2.571    0.000    4.000 
#    0.000    0.714    0.000    4.714    0.000    0.000 
#    0.000    0.000    0.000    0.000    0.000    0.000 
#
# Total GULP energy -693888.563832 kJ/mol
# GULP energy per Si atom -12390.867211 kJ/mol
# Density = 1.474374 g / cm^3
# Si number density = 14.777375 Si / 1000 Ang^3
#
#
#
# Elastic Constant Matrix: (Units=GPa)
#
#
# Indices 1 2 3 4 5 6 
#
# 1 110.1262 22.6265 35.3274 0.0000 0.0000 0.0000
# 2 22.6265 55.7943 26.9606 0.0000 0.0000 0.0000
# 3 35.3274 26.9606 76.0704 0.0000 0.0000 0.0000
# 4 0.0000 0.0000 0.0000 3.9107 0.0000 0.0000
# 5 0.0000 0.0000 0.0000 0.0000 22.0623 0.0000
# 6 0.0000 0.0000 0.0000 0.0000 0.0000 11.7811
#
#
#
# Elastic Compliance Matrix: (Units=1/GPa)
#
#
# Indices 1 2 3 4 5 6 
#
# 1 0.010928 -0.002388 -0.004228 0.000000 0.000000 0.000000
# 2 -0.002388 0.022149 -0.006741 0.000000 0.000000 0.000000
# 3 -0.004228 -0.006741 0.017498 0.000000 0.000000 0.000000
# 4 0.000000 0.000000 0.000000 0.255710 0.000000 0.000000
# 5 0.000000 0.000000 0.000000 0.000000 0.045326 0.000000
# 6 0.000000 0.000000 0.000000 0.000000 0.000000 0.084881
#
#
# Mechanical properties :
#
#
# Convention : Reuss Voigt Hill
#
# Bulk Modulus (GPa) = 41.91125 45.75774 43.83449
# Shear Modulus (GPa) = 10.61209 18.02259 14.31734
#
# Velocity S-wave (km/s) = 2.68270 3.49608 3.11604
# Velocity P-wave (km/s) = 6.16597 6.87958 6.53253
#
# Compressibility (1/GPa) = 0.02385994
#
# Stress axis : x y z
#
# Youngs Moduli (GPa) = 91.51130 45.14935 57.14812
#
# Poissons Ratio (x) = 0.10783 0.24164
# Poissons Ratio (y) = 0.21856 0.38522
# Poissons Ratio (z) = 0.38694 0.30434
#
# Static dielectric constant tensor:
#      x y z
#    x 3.250640 0.000000 0.000000 
#    y 0.000000 2.578190 0.000000 
#    z 0.000000 0.000000 2.753880 
# 
# 
# High freq. dielectric constant tensor:
#      x y z
#    x 1.574970 0.000000 0.000000 
#    y 0.000000 1.516480 0.000000 
#    z 0.000000 0.000000 1.555830 
# 
# From -- ./inp_files/13205.got.cif
#   From: 2010.03.12/outbox.cif.g09.slc.cpg/sg51_7_cif.got.tgz:13205.got - 2010.04.16 13:43:02.
