data_PCOD8207602
_publ_section_title
;
Structure prediction by ZEFSAII (Michael W. Deem and Ramdas Pophale) SiO2 
 PCOD8207602
Probable space group: P M M A
;
_chemical_formula_sum "Si O2"
_cell_formula_units_Z 56
_cell_length_a 9.077032
_cell_length_b 15.751810
_cell_length_c 29.912020
_cell_angle_alpha 90.000000
_cell_angle_beta 90.000000
_cell_angle_gamma 90.000000
_cell_volume 4276.811150
_symmetry_space_group_name_H-M "P M M A"
_symmetry_group_IT_number 51
_symmetry_cell_setting 'orthorhombic'
loop_
_space_group_symop_operation_xyz
x,y,z
1/2-x,-y,z
1/2+x,-y,-z
-x,y,-z
-x,-y,-z
1/2+x,y,-z
1/2-x,y,z
x,-y,z
loop_
_atom_site_type_symbol
_atom_site_label
_atom_site_fract_x
_atom_site_fract_y
_atom_site_fract_z
Si Si1 0.923175 0.401425 0.192233
Si Si2 0.916594 0.601190 0.543743
Si Si3 0.577707 0.500000 0.952864
Si Si4 0.077479 0.183542 0.047555
Si Si5 0.419648 0.000000 0.046069
Si Si6 0.923766 0.340342 0.893849
Si Si7 0.416303 0.399058 0.281545
Si Si8 0.416668 0.398743 0.631337
O O1 0.750000 0.386546 0.195787
O O2 0.961800 0.500000 0.183892
O O3 0.989561 0.345927 0.152427
O O4 0.996857 0.368106 0.237791
O O5 0.750000 0.636121 0.543833
O O6 0.916234 0.500000 0.543649
O O7 0.000000 0.636089 0.500000
O O8 0.000391 0.635820 0.587447
O O9 0.750000 0.500000 0.961912
O O10 0.528041 0.582514 0.925544
O O11 0.500000 0.500000 0.000000
O O12 0.250000 0.195335 0.038622
O O13 0.041266 0.090161 0.069846
O O14 0.023388 0.253636 0.082661
O O15 0.000000 0.196468 0.000000
O O16 0.250000 0.000000 0.034052
O O17 0.500000 0.000000 0.000000
O O18 0.750000 0.342479 0.883888
O O19 0.250000 0.363281 0.280446
O O20 0.414749 0.500000 0.283515
O O21 0.499167 0.362955 0.325174
O O22 0.250000 0.363968 0.631378
O O23 0.416521 0.500000 0.631626
#
# Coordination Sequence:
#
# PCOD8207602 Si02
#       8
#     8   8   4   8   4   8   8   8
#     4  10  19  29  40  53  67  86 112 141 170 200
#     4   9  15  21  28  38  53  73  96 122 157 201
#     4  10  20  30  40  52  70  92 116 140 163 192
#     4   9  17  28  43  60  77  95 115 138 166 199
#     4   8  14  26  42  60  78  94 112 136 164 196
#     4  10  19  30  41  54  72  95 117 139 167 201
#     4   9  16  25  37  49  61  79 102 131 165 200
#     4   9  15  22  31  43  58  74  96 127 160 197
#
# _framework density 13.093869
#
# number of rings (size 3 to 8) (size 9 to 14) (size 15 to 20)
#    0.000    2.714    0.714    2.143    0.000    6.857 
#    0.000    0.000    0.000    0.000    0.000    0.000 
#    0.000    0.000    0.000    0.000    0.000    0.000 
#
# Total GULP energy -694133.033649 kJ/mol
# GULP energy per Si atom -12395.232744 kJ/mol
# Density = 1.306407 g / cm^3
# Si number density = 13.093869 Si / 1000 Ang^3
#
#
#
# Elastic Constant Matrix: (Units=GPa)
#
#
# Indices 1 2 3 4 5 6 
#
# 1 83.8243 22.0830 58.7296 0.0000 0.0000 0.0000
# 2 22.0830 58.5380 34.6286 0.0000 0.0000 0.0000
# 3 58.7296 34.6286 125.4873 0.0000 0.0000 0.0000
# 4 0.0000 0.0000 0.0000 3.9618 0.0000 0.0000
# 5 0.0000 0.0000 0.0000 0.0000 29.2065 0.0000
# 6 0.0000 0.0000 0.0000 0.0000 0.0000 5.9996
#
#
#
# Elastic Compliance Matrix: (Units=1/GPa)
#
#
# Indices 1 2 3 4 5 6 
#
# 1 0.017975 -0.002156 -0.007817 0.000000 0.000000 0.000000
# 2 -0.002156 0.020674 -0.004696 0.000000 0.000000 0.000000
# 3 -0.007817 -0.004696 0.012923 0.000000 0.000000 0.000000
# 4 0.000000 0.000000 0.000000 0.252412 0.000000 0.000000
# 5 0.000000 0.000000 0.000000 0.000000 0.034239 0.000000
# 6 0.000000 0.000000 0.000000 0.000000 0.000000 0.166678
#
#
# Mechanical properties :
#
#
# Convention : Reuss Voigt Hill
#
# Bulk Modulus (GPa) = 44.97789 55.41467 50.19628
# Shear Modulus (GPa) = 9.23101 17.99412 13.61257
#
# Velocity S-wave (km/s) = 2.65804 3.71110 3.22780
# Velocity P-wave (km/s) = 6.62157 7.79589 7.23260
#
# Compressibility (1/GPa) = 0.02223315
#
# Stress axis : x y z
#
# Youngs Moduli (GPa) = 55.63307 48.36924 77.37884
#
# Poissons Ratio (x) = 0.10431 0.60490
# Poissons Ratio (y) = 0.11997 0.36336
# Poissons Ratio (z) = 0.43491 0.22714
#
# Static dielectric constant tensor:
#      x y z
#    x 2.748540 0.000000 0.000000 
#    y 0.000000 2.460570 0.000000 
#    z 0.000000 0.000000 2.669380 
# 
# 
# High freq. dielectric constant tensor:
#      x y z
#    x 1.513730 0.000000 0.000000 
#    y 0.000000 1.430240 0.000000 
#    z 0.000000 0.000000 1.497150 
# 
# From -- ./inp_files/37504.got.cif
#   From: 2010.03.12/outbox.cif.g09.slc.cpg/sg51_19_cif.got.tgz:37504.got - 2010.04.16 13:43:02.
