data_PCOD8207532
_publ_section_title
;
Structure prediction by ZEFSAII (Michael W. Deem and Ramdas Pophale) SiO2 
 PCOD8207532
Probable space group: P M M A
;
_chemical_formula_sum "Si O2"
_cell_formula_units_Z 64
_cell_length_a 18.094843
_cell_length_b 9.231030
_cell_length_c 26.902236
_cell_angle_alpha 90.000000
_cell_angle_beta 90.000000
_cell_angle_gamma 90.000000
_cell_volume 4493.589126
_symmetry_space_group_name_H-M "P M M A"
_symmetry_group_IT_number 51
_symmetry_cell_setting 'orthorhombic'
loop_
_space_group_symop_operation_xyz
x,y,z
1/2-x,-y,z
1/2+x,-y,-z
-x,y,-z
-x,-y,-z
1/2+x,y,-z
1/2-x,y,z
x,-y,z
loop_
_atom_site_type_symbol
_atom_site_label
_atom_site_fract_x
_atom_site_fract_y
_atom_site_fract_z
Si Si1 0.052497 0.660214 0.452532
Si Si2 0.046871 0.836465 0.050035
Si Si3 0.925432 0.669453 0.101166
Si Si4 0.663976 0.167857 0.490025
Si Si5 0.667099 0.672224 0.193246
Si Si6 0.332584 0.328151 0.697067
Si Si7 0.411222 0.671811 0.599654
Si Si8 0.834674 0.667978 0.003114
O O1 0.085273 0.500000 0.441873
O O2 0.119631 0.770759 0.461953
O O3 0.000000 0.654334 0.500000
O O4 0.998233 0.711065 0.407614
O O5 0.002188 0.753655 0.093158
O O6 0.061991 0.000000 0.067443
O O7 0.124629 0.757723 0.040134
O O8 0.000000 0.830618 0.000000
O O9 0.943839 0.500000 0.104607
O O10 0.889075 0.731682 0.151725
O O11 0.868135 0.701963 0.057047
O O12 0.750000 0.192554 0.500404
O O13 0.641136 0.250607 0.440175
O O14 0.644125 0.000000 0.483675
O O15 0.750000 0.730907 0.183029
O O16 0.668686 0.500000 0.189865
O O17 0.640657 0.723886 0.248208
O O18 0.250000 0.268559 0.686416
O O19 0.330393 0.500000 0.696449
O O20 0.387970 0.271938 0.654357
O O21 0.399095 0.500000 0.592943
O O22 0.750000 0.716954 0.004008
O O23 0.843842 0.500000 0.989957
#
# Coordination Sequence:
#
# PCOD8207532 Si02
#       8
#     8   8   8   8   8   8   8   8
#     4   8  15  26  38  53  72  95 124 154 182 216
#     4   9  17  27  37  51  73 100 128 156 185 220
#     4   9  15  24  39  56  75 100 128 156 185 216
#     4  10  19  27  36  53  75  98 125 155 186 221
#     4   8  13  21  35  57  80  99 124 157 187 215
#     4   8  13  21  35  56  79 100 123 153 185 214
#     4   9  16  26  40  56  74  99 129 155 182 218
#     4   9  16  25  38  56  76  98 125 156 188 221
#
# _framework density 14.242513000000001
#
# number of rings (size 3 to 8) (size 9 to 14) (size 15 to 20)
#    0.000    3.250    0.000    3.000    0.000    7.000 
#    0.000    0.000    0.000    1.875    0.000    1.750 
#    0.000    1.000    0.000    8.250    0.000    2.000 
#
# Total GULP energy -793169.612782 kJ/mol
# GULP energy per Si atom -12393.275200 kJ/mol
# Density = 1.421010 g / cm^3
# Si number density = 14.242513 Si / 1000 Ang^3
#
#
#
# Elastic Constant Matrix: (Units=GPa)
#
#
# Indices 1 2 3 4 5 6 
#
# 1 90.8578 43.2180 57.1858 0.0000 0.0000 0.0000
# 2 43.2180 52.0912 30.6477 0.0000 0.0000 0.0000
# 3 57.1858 30.6477 94.7948 0.0000 0.0000 0.0000
# 4 0.0000 0.0000 0.0000 6.0064 0.0000 0.0000
# 5 0.0000 0.0000 0.0000 0.0000 27.9613 0.0000
# 6 0.0000 0.0000 0.0000 0.0000 0.0000 15.7482
#
#
#
# Elastic Compliance Matrix: (Units=1/GPa)
#
#
# Indices 1 2 3 4 5 6 
#
# 1 0.023888 -0.014004 -0.009883 0.000000 0.000000 0.000000
# 2 -0.014004 0.031916 -0.001871 0.000000 0.000000 0.000000
# 3 -0.009883 -0.001871 0.017116 0.000000 0.000000 0.000000
# 4 0.000000 0.000000 0.000000 0.166490 0.000000 0.000000
# 5 0.000000 0.000000 0.000000 0.000000 0.035764 0.000000
# 6 0.000000 0.000000 0.000000 0.000000 0.000000 0.063499
#
#
# Mechanical properties :
#
#
# Convention : Reuss Voigt Hill
#
# Bulk Modulus (GPa) = 46.71884 55.53853 51.12868
# Shear Modulus (GPa) = 12.58423 17.05601 14.82012
#
# Velocity S-wave (km/s) = 2.97571 3.46431 3.22926
# Velocity P-wave (km/s) = 6.68432 7.42169 7.06263
#
# Compressibility (1/GPa) = 0.02140464
#
# Stress axis : x y z
#
# Youngs Moduli (GPa) = 41.86233 31.33190 58.42542
#
# Poissons Ratio (x) = 0.43878 0.57741
# Poissons Ratio (y) = 0.58625 0.10929
# Poissons Ratio (z) = 0.41372 0.05861
#
# Static dielectric constant tensor:
#      x y z
#    x 2.884870 0.000000 0.000000 
#    y 0.000000 2.647620 0.000000 
#    z 0.000000 0.000000 2.906600 
# 
# 
# High freq. dielectric constant tensor:
#      x y z
#    x 1.531310 0.000000 0.000000 
#    y 0.000000 1.525690 0.000000 
#    z 0.000000 0.000000 1.516800 
# 
# From -- ./inp_files/36709.got.cif
#   From: 2010.03.12/outbox.cif.g09.slc.cpg/sg51_19_cif.got.tgz:36709.got - 2010.04.16 13:43:02.
