data_PCOD8207102
_publ_section_title
;
Structure prediction by ZEFSAII (Michael W. Deem and Ramdas Pophale) SiO2 
 PCOD8207102
Probable space group: P M M A
;
_chemical_formula_sum "Si O2"
_cell_formula_units_Z 64
_cell_length_a 19.086582
_cell_length_b 9.024854
_cell_length_c 19.827066
_cell_angle_alpha 90.000000
_cell_angle_beta 90.000000
_cell_angle_gamma 90.000000
_cell_volume 3415.283811
_symmetry_space_group_name_H-M "P M M A"
_symmetry_group_IT_number 51
_symmetry_cell_setting 'orthorhombic'
loop_
_space_group_symop_operation_xyz
x,y,z
1/2-x,-y,z
1/2+x,-y,-z
-x,y,-z
-x,-y,-z
1/2+x,y,-z
1/2-x,y,z
x,-y,z
loop_
_atom_site_type_symbol
_atom_site_label
_atom_site_fract_x
_atom_site_fract_y
_atom_site_fract_z
Si Si1 0.413150 0.829162 0.845885
Si Si2 0.170741 0.676818 0.465666
Si Si3 0.090606 0.675198 0.596456
Si Si4 0.827040 0.324375 0.886603
Si Si5 0.831034 0.672345 0.039241
Si Si6 0.830112 0.169306 0.286960
Si Si7 0.449646 0.323231 0.208262
Si Si8 0.940914 0.324064 0.639504
O O1 0.381862 0.770027 0.915360
O O2 0.354390 0.806491 0.789247
O O3 0.481327 0.737759 0.826408
O O4 0.433968 0.000000 0.854464
O O5 0.250000 0.739653 0.462664
O O6 0.172005 0.500000 0.468070
O O7 0.131431 0.741061 0.531833
O O8 0.128017 0.733069 0.400023
O O9 0.093554 0.500000 0.593219
O O10 0.126524 0.724637 0.665040
O O11 0.009833 0.729373 0.598385
O O12 0.750000 0.260202 0.868239
O O13 0.824069 0.500000 0.882153
O O14 0.883360 0.261830 0.833727
O O15 0.847641 0.279266 0.962588
O O16 0.750000 0.704987 0.056423
O O17 0.848031 0.500000 0.050950
O O18 0.750000 0.217863 0.291472
O O19 0.841192 0.000000 0.309893
O O20 0.453445 0.500000 0.207508
O O21 0.441958 0.260814 0.284464
O O22 0.940074 0.500000 0.642799
#
# Coordination Sequence:
#
# PCOD8207102 Si02
#       8
#     8   8   8   8   8   8   8   8
#     4  11  22  35  51  73 106 140 171 210 257 308
#     4   9  17  28  45  74 107 135 166 209 259 302
#     4  10  18  31  51  75 102 132 167 207 252 303
#     4   8  16  32  54  79 104 131 168 216 265 306
#     4   9  18  34  55  77 102 134 172 213 257 307
#     4  10  21  35  50  70  99 134 168 204 249 297
#     4  10  19  33  54  78 103 135 175 215 255 303
#     4   9  17  29  47  72 103 136 169 208 252 300
#
# _framework density 18.739291999999999
#
# number of rings (size 3 to 8) (size 9 to 14) (size 15 to 20)
#    0.000    2.500    1.250    2.250    0.000    4.500 
#    0.000    5.625    0.000    3.375    0.000    0.000 
#    0.000    0.000    0.000    0.000    0.000    0.000 
#
# Total GULP energy -793490.531657 kJ/mol
# GULP energy per Si atom -12398.289557 kJ/mol
# Density = 1.869664 g / cm^3
# Si number density = 18.739292 Si / 1000 Ang^3
#
#
#
# Elastic Constant Matrix: (Units=GPa)
#
#
# Indices 1 2 3 4 5 6 
#
# 1 143.5973 20.8072 80.4759 0.0000 0.0000 0.0000
# 2 20.8072 15.7362 21.4659 0.0000 0.0000 0.0000
# 3 80.4759 21.4659 122.2135 0.0000 0.0000 0.0000
# 4 0.0000 0.0000 0.0000 9.7491 0.0000 0.0000
# 5 0.0000 0.0000 0.0000 0.0000 39.6917 0.0000
# 6 0.0000 0.0000 0.0000 0.0000 0.0000 7.5888
#
#
#
# Elastic Compliance Matrix: (Units=1/GPa)
#
#
# Indices 1 2 3 4 5 6 
#
# 1 0.011510 -0.006418 -0.006452 0.000000 0.000000 0.000000
# 2 -0.006418 0.087150 -0.011081 0.000000 0.000000 0.000000
# 3 -0.006452 -0.011081 0.014377 0.000000 0.000000 0.000000
# 4 0.000000 0.000000 0.000000 0.102574 0.000000 0.000000
# 5 0.000000 0.000000 0.000000 0.000000 0.025194 0.000000
# 6 0.000000 0.000000 0.000000 0.000000 0.000000 0.131773
#
#
# Mechanical properties :
#
#
# Convention : Reuss Voigt Hill
#
# Bulk Modulus (GPa) = 15.35269 58.56056 36.95662
# Shear Modulus (GPa) = 11.30735 21.99245 16.64990
#
# Velocity S-wave (km/s) = 2.45909 3.42950 2.98401
# Velocity P-wave (km/s) = 4.03403 6.85565 5.62465
#
# Compressibility (1/GPa) = 0.06513517
#
# Stress axis : x y z
#
# Youngs Moduli (GPa) = 86.88462 11.47449 69.55531
#
# Poissons Ratio (x) = 0.07364 0.44874
# Poissons Ratio (y) = 0.55760 0.77076
# Poissons Ratio (z) = 0.56055 0.12715
#
# Static dielectric constant tensor:
#      x y z
#    x 3.787070 0.000000 0.000000 
#    y 0.000000 2.966810 0.000000 
#    z 0.000000 0.000000 3.628730 
# 
# 
# High freq. dielectric constant tensor:
#      x y z
#    x 1.739070 0.000000 0.000000 
#    y 0.000000 1.676420 0.000000 
#    z 0.000000 0.000000 1.736560 
# 
# From -- ./inp_files/33977.got.cif
#   From: 2010.03.12/outbox.cif.g09.slc.cpg/sg51_17_cif.got.tgz:33977.got - 2010.04.16 13:43:02.
