data_PCOD8207797
_publ_section_title
;
Structure prediction by ZEFSAII (Michael W. Deem and Ramdas Pophale) SiO2 
 PCOD8207797
Probable space group: P M M A
;
_chemical_formula_sum "Si O2"
_cell_formula_units_Z 52
_cell_length_a 8.912512
_cell_length_b 18.437380
_cell_length_c 24.746615
_cell_angle_alpha 90.000000
_cell_angle_beta 90.000000
_cell_angle_gamma 90.000000
_cell_volume 4066.447185
_symmetry_space_group_name_H-M "P M M A"
_symmetry_group_IT_number 51
_symmetry_cell_setting 'orthorhombic'
loop_
_space_group_symop_operation_xyz
x,y,z
1/2-x,-y,z
1/2+x,-y,-z
-x,y,-z
-x,-y,-z
1/2+x,y,-z
1/2-x,y,z
x,-y,z
loop_
_atom_site_type_symbol
_atom_site_label
_atom_site_fract_x
_atom_site_fract_y
_atom_site_fract_z
Si Si1 0.925733 0.415404 0.769523
Si Si2 0.418822 0.586195 0.660360
Si Si3 0.427732 0.234262 0.058959
Si Si4 0.073356 0.500000 0.942021
Si Si5 0.924477 0.923521 0.942748
Si Si6 0.919316 0.586512 0.553685
Si Si7 0.927943 0.639292 0.125280
O O1 0.750000 0.399922 0.773472
O O2 0.963043 0.500000 0.777790
O O3 0.984554 0.387948 0.711604
O O4 0.012774 0.369412 0.814177
O O5 0.250000 0.616741 0.665032
O O6 0.416769 0.500000 0.657509
O O7 0.494586 0.617426 0.606065
O O8 0.250000 0.247765 0.054109
O O9 0.466823 0.153935 0.084162
O O10 0.499303 0.289360 0.100744
O O11 0.500000 0.245081 0.000000
O O12 0.250000 0.500000 0.949535
O O13 0.018694 0.570591 0.909803
O O14 0.000000 0.500000 0.000000
O O15 0.750000 0.922267 0.954190
O O16 0.966781 0.000000 0.911165
O O17 0.000000 0.926196 0.000000
O O18 0.750000 0.616059 0.554584
O O19 0.920725 0.500000 0.554053
O O20 0.000000 0.616310 0.500000
O O21 0.750000 0.646752 0.126085
#
# Coordination Sequence:
#
# PCOD8207797 Si02
#       7
#     8   8   8   4   8   8   8
#     4  10  19  30  43  56  68  86 114 149 184 218
#     4   9  16  25  37  51  67  87 110 139 174 213
#     4  10  19  30  43  60  78  95 116 141 174 214
#     4  10  22  34  44  54  66  86 113 144 179 220
#     4   8  14  25  41  59  78  97 114 133 160 200
#     4   9  15  22  32  47  67  88 110 136 169 211
#     4  11  21  33  44  55  71  93 119 148 183 219
#
# _framework density 12.787576
#
# number of rings (size 3 to 8) (size 9 to 14) (size 15 to 20)
#    0.000    2.462    0.769    2.769    0.000    7.385 
#    0.000    0.000    0.000    0.000    0.000    0.000 
#    0.000    0.000    0.000    0.000    0.000    0.000 
#
# Total GULP energy -644389.174257 kJ/mol
# GULP energy per Si atom -12392.099505 kJ/mol
# Density = 1.275847 g / cm^3
# Si number density = 12.787576 Si / 1000 Ang^3
#
#
#
# Elastic Constant Matrix: (Units=GPa)
#
#
# Indices 1 2 3 4 5 6 
#
# 1 69.1340 30.1429 36.3155 0.0000 0.0000 0.0000
# 2 30.1429 75.9232 35.8623 0.0000 0.0000 0.0000
# 3 36.3155 35.8623 93.3346 0.0000 0.0000 0.0000
# 4 0.0000 0.0000 0.0000 2.5457 0.0000 0.0000
# 5 0.0000 0.0000 0.0000 0.0000 25.6289 0.0000
# 6 0.0000 0.0000 0.0000 0.0000 0.0000 10.2956
#
#
#
# Elastic Compliance Matrix: (Units=1/GPa)
#
#
# Indices 1 2 3 4 5 6 
#
# 1 0.019690 -0.005130 -0.005690 0.000000 0.000000 0.000000
# 2 -0.005130 0.017428 -0.004701 0.000000 0.000000 0.000000
# 3 -0.005690 -0.004701 0.014734 0.000000 0.000000 0.000000
# 4 0.000000 0.000000 0.000000 0.392813 0.000000 0.000000
# 5 0.000000 0.000000 0.000000 0.000000 0.039018 0.000000
# 6 0.000000 0.000000 0.000000 0.000000 0.000000 0.097129
#
#
# Mechanical properties :
#
#
# Convention : Reuss Voigt Hill
#
# Bulk Modulus (GPa) = 48.04992 49.22589 48.63790
# Shear Modulus (GPa) = 8.08027 16.76545 12.42286
#
# Velocity S-wave (km/s) = 2.51646 3.62480 3.12024
# Velocity P-wave (km/s) = 6.78973 7.48983 7.14836
#
# Compressibility (1/GPa) = 0.02081169
#
# Stress axis : x y z
#
# Youngs Moduli (GPa) = 50.78651 57.37876 67.86890
#
# Poissons Ratio (x) = 0.29433 0.38619
# Poissons Ratio (y) = 0.26051 0.31902
# Poissons Ratio (z) = 0.28899 0.26971
#
# Static dielectric constant tensor:
#      x y z
#    x 2.755940 0.000000 0.000000 
#    y 0.000000 2.650100 0.000000 
#    z 0.000000 0.000000 2.505420 
# 
# 
# High freq. dielectric constant tensor:
#      x y z
#    x 1.506140 0.000000 0.000000 
#    y 0.000000 1.440410 0.000000 
#    z 0.000000 0.000000 1.469050 
# 
# From -- ./inp_files/35056.got.cif
#   From: 2010.03.12/outbox.cif.g09.slc.cpg/sg51_18_cif.got.tgz:35056.got - 2010.04.16 13:43:02.
