data_PCOD8207905
_publ_section_title
;
Structure prediction by ZEFSAII (Michael W. Deem and Ramdas Pophale) SiO2 
 PCOD8207905
Probable space group: P M M A
;
_chemical_formula_sum "Si O2"
_cell_formula_units_Z 52
_cell_length_a 9.208349
_cell_length_b 26.531503
_cell_length_c 13.573892
_cell_angle_alpha 90.000000
_cell_angle_beta 90.000000
_cell_angle_gamma 90.000000
_cell_volume 3316.255732
_symmetry_space_group_name_H-M "P M M A"
_symmetry_group_IT_number 51
_symmetry_cell_setting 'orthorhombic'
loop_
_space_group_symop_operation_xyz
x,y,z
1/2-x,-y,z
1/2+x,-y,-z
-x,y,-z
-x,-y,-z
1/2+x,y,-z
1/2-x,y,z
x,-y,z
loop_
_atom_site_type_symbol
_atom_site_label
_atom_site_fract_x
_atom_site_fract_y
_atom_site_fract_z
Si Si1 0.919803 0.109019 0.603667
Si Si2 0.918945 0.443128 0.098448
Si Si3 0.419332 0.254670 0.897226
Si Si4 0.917599 0.351664 0.230027
Si Si5 0.918389 0.699178 0.602162
Si Si6 0.416186 0.000000 0.400268
Si Si7 0.081646 0.202994 0.271826
O O1 0.750000 0.116980 0.582263
O O2 0.951870 0.053449 0.653343
O O3 0.973086 0.150398 0.681837
O O4 0.000000 0.115892 0.500000
O O5 0.750000 0.438276 0.074643
O O6 0.961828 0.500000 0.129682
O O7 0.962501 0.405989 0.186925
O O8 0.000000 0.426257 0.000000
O O9 0.250000 0.243603 0.912388
O O10 0.447637 0.310032 0.853523
O O11 0.484673 0.212799 0.824013
O O12 0.500000 0.250374 0.000000
O O13 0.750000 0.350021 0.263250
O O14 0.017579 0.342796 0.324568
O O15 0.750000 0.687648 0.585496
O O16 0.945074 0.754365 0.646439
O O17 0.000000 0.695278 0.500000
O O18 0.500000 0.000000 0.500000
O O19 0.250000 0.000000 0.430759
O O20 0.250000 0.201256 0.240023
#
# Coordination Sequence:
#
# PCOD8207905 Si02
#       7
#     8   8   8   8   8   4   8
#     4   9  16  26  41  61  87 116 144 175 209 248
#     4   9  17  29  46  68  92 116 141 172 211 253
#     4  10  19  30  45  64  87 114 142 174 211 252
#     4   9  18  31  46  65  89 116 144 173 208 251
#     4  10  19  30  45  64  87 115 146 179 213 250
#     4   8  14  24  38  58  83 112 143 172 207 248
#     4   9  18  30  43  62  87 115 145 175 210 252
#
# _framework density 15.680334999999999
#
# number of rings (size 3 to 8) (size 9 to 14) (size 15 to 20)
#    0.000    2.769    0.000    1.846    0.000    2.462 
#    0.000    0.000    0.000    0.462    0.000    0.538 
#    0.000    0.000    0.000    0.000    0.000    0.000 
#
# Total GULP energy -644613.770843 kJ/mol
# GULP energy per Si atom -12396.418670 kJ/mol
# Density = 1.564465 g / cm^3
# Si number density = 15.680335 Si / 1000 Ang^3
#
#
#
# Elastic Constant Matrix: (Units=GPa)
#
#
# Indices 1 2 3 4 5 6 
#
# 1 76.6884 45.1259 65.0673 0.0000 0.0000 0.0000
# 2 45.1259 108.4593 58.5811 0.0000 0.0000 0.0000
# 3 65.0673 58.5811 114.1462 0.0000 0.0000 0.0000
# 4 0.0000 0.0000 0.0000 20.3054 0.0000 0.0000
# 5 0.0000 0.0000 0.0000 0.0000 30.3407 0.0000
# 6 0.0000 0.0000 0.0000 0.0000 0.0000 19.1443
#
#
#
# Elastic Compliance Matrix: (Units=1/GPa)
#
#
# Indices 1 2 3 4 5 6 
#
# 1 0.026426 -0.003955 -0.013034 0.000000 0.000000 0.000000
# 2 -0.003955 0.013348 -0.004596 0.000000 0.000000 0.000000
# 3 -0.013034 -0.004596 0.018549 0.000000 0.000000 0.000000
# 4 0.000000 0.000000 0.000000 0.049248 0.000000 0.000000
# 5 0.000000 0.000000 0.000000 0.000000 0.032959 0.000000
# 6 0.000000 0.000000 0.000000 0.000000 0.000000 0.052235
#
#
# Mechanical properties :
#
#
# Convention : Reuss Voigt Hill
#
# Bulk Modulus (GPa) = 65.99164 70.76030 68.37597
# Shear Modulus (GPa) = 20.74818 22.65939 21.70378
#
# Velocity S-wave (km/s) = 3.64152 3.80555 3.72444
# Velocity P-wave (km/s) = 7.73679 8.03333 7.88645
#
# Compressibility (1/GPa) = 0.01515343
#
# Stress axis : x y z
#
# Youngs Moduli (GPa) = 37.84190 74.91844 53.91096
#
# Poissons Ratio (x) = 0.29629 0.70267
# Poissons Ratio (y) = 0.14966 0.24777
# Poissons Ratio (z) = 0.49323 0.34431
#
# Static dielectric constant tensor:
#      x y z
#    x 3.022640 0.000000 0.000000 
#    y 0.000000 3.349680 0.000000 
#    z 0.000000 0.000000 2.756890 
# 
# 
# High freq. dielectric constant tensor:
#      x y z
#    x 1.609510 0.000000 0.000000 
#    y 0.000000 1.601300 0.000000 
#    z 0.000000 0.000000 1.576970 
# 
# From -- ./inp_files/22114.got.cif
#   From: 2010.03.12/outbox.cif.g09.slc.cpg/sg51_12_cif.got.tgz:22114.got - 2010.04.16 13:43:02.
