data_PCOD8207841
_publ_section_title
;
Structure prediction by ZEFSAII (Michael W. Deem and Ramdas Pophale) SiO2 
 PCOD8207841
Probable space group: P M M A
;
_chemical_formula_sum "Si O2"
_cell_formula_units_Z 64
_cell_length_a 9.145755
_cell_length_b 18.523765
_cell_length_c 26.615122
_cell_angle_alpha 90.000000
_cell_angle_beta 90.000000
_cell_angle_gamma 90.000000
_cell_volume 4508.969391
_symmetry_space_group_name_H-M "P M M A"
_symmetry_group_IT_number 51
_symmetry_cell_setting 'orthorhombic'
loop_
_space_group_symop_operation_xyz
x,y,z
1/2-x,-y,z
1/2+x,-y,-z
-x,y,-z
-x,-y,-z
1/2+x,y,-z
1/2-x,y,z
x,-y,z
loop_
_atom_site_type_symbol
_atom_site_label
_atom_site_fract_x
_atom_site_fract_y
_atom_site_fract_z
Si Si1 0.085157 0.914066 0.048270
Si Si2 0.581393 0.715709 0.702785
Si Si3 0.922749 0.166383 0.246014
Si Si4 0.580306 0.078588 0.342544
Si Si5 0.918146 0.350394 0.449400
Si Si6 0.418894 0.581991 0.356090
Si Si7 0.083332 0.219236 0.612254
Si Si8 0.078828 0.083368 0.852617
O O1 0.250000 0.884045 0.047595
O O2 0.005764 0.887315 0.098710
O O3 0.083785 0.000000 0.046335
O O4 0.000000 0.882602 0.000000
O O5 0.750000 0.730757 0.713908
O O6 0.490426 0.752919 0.748034
O O7 0.549384 0.630186 0.694086
O O8 0.535980 0.750864 0.650235
O O9 0.750000 0.173984 0.246919
O O10 0.980671 0.116360 0.291870
O O11 0.976012 0.130695 0.194289
O O12 0.750000 0.065057 0.334046
O O13 0.554694 0.132343 0.390623
O O14 0.504659 0.000000 0.351578
O O15 0.750000 0.372172 0.455843
O O16 0.935089 0.263477 0.439631
O O17 0.000000 0.371908 0.500000
O O18 0.981513 0.395233 0.402950
O O19 0.250000 0.591890 0.372392
O O20 0.455087 0.500000 0.341265
O O21 0.250000 0.231437 0.632935
O O22 0.250000 0.093022 0.862762
O O23 0.041407 0.000000 0.841195
#
# Coordination Sequence:
#
# PCOD8207841 Si02
#       8
#     8   8   8   8   8   8   8   8
#     4   9  16  25  36  49  67  94 129 169 210 247
#     4   9  16  26  41  58  75  97 122 147 177 215
#     4   9  16  25  37  54  77 102 126 153 186 225
#     4   8  12  20  37  57  72  89 118 153 183 213
#     4  10  19  30  44  61  79  99 122 147 178 215
#     4   9  18  32  47  62  80 100 122 148 177 211
#     4   8  15  27  41  56  73  94 121 149 176 213
#     4   9  16  25  37  53  73  99 133 170 203 232
#
# _framework density 14.19393
#
# number of rings (size 3 to 8) (size 9 to 14) (size 15 to 20)
#    0.000    3.125    0.000    2.250    0.000    5.000 
#    0.000    0.000    0.000    9.375    0.000    0.000 
#    0.000    0.000    0.000    0.000    0.000    1.750 
#
# Total GULP energy -792858.444600 kJ/mol
# GULP energy per Si atom -12388.413197 kJ/mol
# Density = 1.416162 g / cm^3
# Si number density = 14.193930 Si / 1000 Ang^3
#
#
#
# Elastic Constant Matrix: (Units=GPa)
#
#
# Indices 1 2 3 4 5 6 
#
# 1 53.4931 30.4157 30.1489 0.0000 0.0000 0.0000
# 2 30.4157 93.0096 34.8813 0.0000 0.0000 0.0000
# 3 30.1489 34.8813 58.7213 0.0000 0.0000 0.0000
# 4 0.0000 0.0000 0.0000 12.5255 0.0000 0.0000
# 5 0.0000 0.0000 0.0000 0.0000 20.3395 0.0000
# 6 0.0000 0.0000 0.0000 0.0000 0.0000 15.0183
#
#
#
# Elastic Compliance Matrix: (Units=1/GPa)
#
#
# Indices 1 2 3 4 5 6 
#
# 1 0.027894 -0.004826 -0.011455 0.000000 0.000000 0.000000
# 2 -0.004826 0.014668 -0.006235 0.000000 0.000000 0.000000
# 3 -0.011455 -0.006235 0.026615 0.000000 0.000000 0.000000
# 4 0.000000 0.000000 0.000000 0.079837 0.000000 0.000000
# 5 0.000000 0.000000 0.000000 0.000000 0.049165 0.000000
# 6 0.000000 0.000000 0.000000 0.000000 0.000000 0.066585
#
#
# Mechanical properties :
#
#
# Convention : Reuss Voigt Hill
#
# Bulk Modulus (GPa) = 41.41699 44.01287 42.71493
# Shear Modulus (GPa) = 15.73093 16.89519 16.31306
#
# Velocity S-wave (km/s) = 3.33270 3.45383 3.39381
# Velocity P-wave (km/s) = 6.63716 6.85425 6.74658
#
# Compressibility (1/GPa) = 0.02414468
#
# Stress axis : x y z
#
# Youngs Moduli (GPa) = 35.85007 68.17482 37.57331
#
# Poissons Ratio (x) = 0.32901 0.43039
# Poissons Ratio (y) = 0.17301 0.23428
# Poissons Ratio (z) = 0.41065 0.42509
#
# Static dielectric constant tensor:
#      x y z
#    x 2.773180 0.000000 0.000000 
#    y 0.000000 2.943420 0.000000 
#    z 0.000000 0.000000 2.661440 
# 
# 
# High freq. dielectric constant tensor:
#      x y z
#    x 1.541390 0.000000 0.000000 
#    y 0.000000 1.520140 0.000000 
#    z 0.000000 0.000000 1.509670 
# 
# From -- ./inp_files/36423.got.cif
#   From: 2010.03.12/outbox.cif.g09.slc.cpg/sg51_19_cif.got.tgz:36423.got - 2010.04.16 13:43:02.
