data_PCOD8207450
_publ_section_title
;
Structure prediction by ZEFSAII (Michael W. Deem and Ramdas Pophale) SiO2 
 PCOD8207450
Probable space group: P M M A
;
_chemical_formula_sum "Si O2"
_cell_formula_units_Z 64
_cell_length_a 18.906598
_cell_length_b 8.686624
_cell_length_c 20.187985
_cell_angle_alpha 90.000000
_cell_angle_beta 90.000000
_cell_angle_gamma 90.000000
_cell_volume 3315.563783
_symmetry_space_group_name_H-M "P M M A"
_symmetry_group_IT_number 51
_symmetry_cell_setting 'orthorhombic'
loop_
_space_group_symop_operation_xyz
x,y,z
1/2-x,-y,z
1/2+x,-y,-z
-x,y,-z
-x,-y,-z
1/2+x,y,-z
1/2-x,y,z
x,-y,z
loop_
_atom_site_type_symbol
_atom_site_label
_atom_site_fract_x
_atom_site_fract_y
_atom_site_fract_z
Si Si1 0.577230 0.321208 0.159468
Si Si2 0.934877 0.183266 0.637427
Si Si3 0.829487 0.183303 0.896360
Si Si4 0.420069 0.179433 0.979305
Si Si5 0.934726 0.817452 0.786001
Si Si6 0.411035 0.817155 0.601856
Si Si7 0.670091 0.816298 0.526306
Si Si8 0.832385 0.822322 0.267308
O O1 0.559998 0.500000 0.163610
O O2 0.599047 0.275814 0.085428
O O3 0.509168 0.227862 0.182991
O O4 0.643512 0.279260 0.205427
O O5 0.925922 0.250005 0.711783
O O6 0.869965 0.241829 0.592405
O O7 0.008226 0.242632 0.605085
O O8 0.936427 0.000000 0.640224
O O9 0.750000 0.250087 0.894964
O O10 0.871387 0.246587 0.832055
O O11 0.828880 0.000000 0.895032
O O12 0.868717 0.239731 0.962670
O O13 0.408108 0.000000 0.964341
O O14 0.500000 0.212871 0.000000
O O15 0.932311 0.000000 0.784079
O O16 0.371632 0.749399 0.537324
O O17 0.371046 0.759543 0.667265
O O18 0.408821 0.000000 0.598027
O O19 0.750000 0.751330 0.527110
O O20 0.671078 0.000000 0.523872
O O21 0.750000 0.799955 0.278668
O O22 0.852201 0.000000 0.253901
#
# Coordination Sequence:
#
# PCOD8207450 Si02
#       8
#     8   8   8   8   8   8   8   8
#     4  12  24  36  54  80 111 141 176 222 273 323
#     4   9  16  25  44  69  98 136 176 216 257 315
#     4   9  18  32  54  83 108 133 174 225 269 309
#     4  10  19  35  59  81 105 140 180 219 263 319
#     4  10  18  34  56  78 106 143 184 222 264 319
#     4   9  15  26  45  69 100 136 175 216 262 319
#     4   9  16  24  36  66 110 142 164 207 276 331
#     4  10  20  35  56  79 103 138 182 222 264 319
#
# _framework density 19.302900000000001
#
# number of rings (size 3 to 8) (size 9 to 14) (size 15 to 20)
#    0.000    2.250    2.500    1.875    0.000    4.500 
#    0.000    3.750    0.000    1.125    0.000    1.750 
#    0.000    1.000    0.000    0.000    0.000    0.000 
#
# Total GULP energy -793597.452341 kJ/mol
# GULP energy per Si atom -12399.960193 kJ/mol
# Density = 1.925897 g / cm^3
# Si number density = 19.302900 Si / 1000 Ang^3
#
#
#
# Elastic Constant Matrix: (Units=GPa)
#
#
# Indices 1 2 3 4 5 6 
#
# 1 143.2416 6.4363 80.2964 0.0000 0.0000 0.0000
# 2 6.4363 10.1000 13.2276 0.0000 0.0000 0.0000
# 3 80.2964 13.2276 171.3153 0.0000 0.0000 0.0000
# 4 0.0000 0.0000 0.0000 -1.0513 0.0000 0.0000
# 5 0.0000 0.0000 0.0000 0.0000 38.7773 0.0000
# 6 0.0000 0.0000 0.0000 0.0000 0.0000 4.0714
#
#
#
# Elastic Compliance Matrix: (Units=1/GPa)
#
#
# Indices 1 2 3 4 5 6 
#
# 1 0.009470 -0.000247 -0.004419 0.000000 0.000000 0.000000
# 2 -0.000247 0.110154 -0.008390 0.000000 0.000000 0.000000
# 3 -0.004419 -0.008390 0.008556 0.000000 0.000000 0.000000
# 4 0.000000 0.000000 0.000000 -0.951242 0.000000 0.000000
# 5 0.000000 0.000000 0.000000 0.000000 0.025788 0.000000
# 6 0.000000 0.000000 0.000000 0.000000 0.000000 0.245618
#
#
# Mechanical properties :
#
#
# Convention : Reuss Voigt Hill
#
# Bulk Modulus (GPa) = 9.79730 58.28638 34.04184
# Shear Modulus (GPa) = -10.17252 23.33926 6.58337
#
# Velocity S-wave (km/s) = -2.29813 3.48099 1.84877
# Velocity P-wave (km/s) = 1.39831 6.81305 4.71500
#
# Compressibility (1/GPa) = 0.10206898
#
# Stress axis : x y z
#
# Youngs Moduli (GPa) = 105.60009 9.07818 116.87176
#
# Poissons Ratio (x) = 0.00224 0.51651
# Poissons Ratio (y) = 0.02604 0.98051
# Poissons Ratio (z) = 0.46669 0.07616
#
# Static dielectric constant tensor:
#      x y z
#    x 3.676890 0.000000 0.000000 
#    y 0.000000 2.858880 0.000000 
#    z 0.000000 0.000000 3.885950 
# 
# 
# High freq. dielectric constant tensor:
#      x y z
#    x 1.757540 0.000000 0.000000 
#    y 0.000000 1.680800 0.000000 
#    z 0.000000 0.000000 1.769120 
# 
# From -- ./inp_files/30638.got.cif
#   From: 2010.03.12/outbox.cif.g09.slc.cpg/sg51_16_cif.got.tgz:30638.got - 2010.04.16 13:43:02.
