data_PCOD8207859
_publ_section_title
;
Structure prediction by ZEFSAII (Michael W. Deem and Ramdas Pophale) SiO2 
 PCOD8207859
Probable space group: P M M A
;
_chemical_formula_sum "Si O2"
_cell_formula_units_Z 56
_cell_length_a 18.424767
_cell_length_b 9.645623
_cell_length_c 19.017773
_cell_angle_alpha 90.000000
_cell_angle_beta 90.000000
_cell_angle_gamma 90.000000
_cell_volume 3379.807359
_symmetry_space_group_name_H-M "P M M A"
_symmetry_group_IT_number 51
_symmetry_cell_setting 'orthorhombic'
loop_
_space_group_symop_operation_xyz
x,y,z
1/2-x,-y,z
1/2+x,-y,-z
-x,y,-z
-x,-y,-z
1/2+x,y,-z
1/2-x,y,z
x,-y,z
loop_
_atom_site_type_symbol
_atom_site_label
_atom_site_fract_x
_atom_site_fract_y
_atom_site_fract_z
Si Si1 0.574329 0.840832 0.587551
Si Si2 0.592752 0.840027 0.428616
Si Si3 0.666812 0.662510 0.314678
Si Si4 0.526033 0.333859 0.925251
Si Si5 0.453164 0.341113 0.787590
Si Si6 0.397054 0.341205 0.287452
Si Si7 0.329717 0.664911 0.144237
O O1 0.608499 0.814934 0.510936
O O2 0.489885 0.798735 0.588006
O O3 0.618517 0.748810 0.643346
O O4 0.582889 0.000000 0.609631
O O5 0.647408 0.743308 0.385719
O O6 0.606899 0.000000 0.408862
O O7 0.750000 0.689487 0.294774
O O8 0.650837 0.500000 0.327369
O O9 0.618236 0.722668 0.249839
O O10 0.524594 0.500000 0.924946
O O11 0.472823 0.274517 0.863778
O O12 0.608372 0.281298 0.909663
O O13 0.500000 0.273578 0.000000
O O14 0.436773 0.500000 0.802947
O O15 0.519492 0.322738 0.734347
O O16 0.379161 0.500000 0.305543
O O17 0.346907 0.286156 0.223701
O O18 0.250000 0.720778 0.121660
O O19 0.331527 0.500000 0.143885
#
# Coordination Sequence:
#
# PCOD8207859 Si02
#       7
#     8   8   8   8   8   8   8
#     4   9  17  29  45  65  86 108 141 187 228 260
#     4   9  18  31  45  62  86 114 144 182 227 269
#     4  10  19  30  44  62  87 118 150 186 223 257
#     4   8  13  22  38  59  85 118 149 175 209 259
#     4   8  14  25  39  58  84 111 144 179 212 252
#     4   9  15  25  44  64  83 114 148 177 215 262
#     4   8  14  24  38  59  86 113 144 183 221 257
#
# _framework density 16.568991
#
# number of rings (size 3 to 8) (size 9 to 14) (size 15 to 20)
#    0.000    3.286    1.429    2.571    0.000    0.857 
#    0.000    2.857    0.000    7.286    0.000    0.000 
#    0.000   14.286    0.000    1.143    0.000    0.571 
#
# Total GULP energy -693942.756076 kJ/mol
# GULP energy per Si atom -12391.834930 kJ/mol
# Density = 1.653128 g / cm^3
# Si number density = 16.568991 Si / 1000 Ang^3
#
#
#
# Elastic Constant Matrix: (Units=GPa)
#
#
# Indices 1 2 3 4 5 6 
#
# 1 103.1162 20.3058 55.0681 0.0000 0.0000 0.0000
# 2 20.3058 28.6502 32.5860 0.0000 0.0000 0.0000
# 3 55.0681 32.5860 121.6531 0.0000 0.0000 0.0000
# 4 0.0000 0.0000 0.0000 2.6271 0.0000 0.0000
# 5 0.0000 0.0000 0.0000 0.0000 20.9508 0.0000
# 6 0.0000 0.0000 0.0000 0.0000 0.0000 12.8915
#
#
#
# Elastic Compliance Matrix: (Units=1/GPa)
#
#
# Indices 1 2 3 4 5 6 
#
# 1 0.013048 -0.003639 -0.004932 0.000000 0.000000 0.000000
# 2 -0.003639 0.051211 -0.012070 0.000000 0.000000 0.000000
# 3 -0.004932 -0.012070 0.013686 0.000000 0.000000 0.000000
# 4 0.000000 0.000000 0.000000 0.380649 0.000000 0.000000
# 5 0.000000 0.000000 0.000000 0.000000 0.047731 0.000000
# 6 0.000000 0.000000 0.000000 0.000000 0.000000 0.077571
#
#
# Mechanical properties :
#
#
# Convention : Reuss Voigt Hill
#
# Bulk Modulus (GPa) = 27.27506 52.14880 39.71193
# Shear Modulus (GPa) = 7.84439 16.99119 12.41779
#
# Velocity S-wave (km/s) = 2.17822 3.20579 2.74060
# Velocity P-wave (km/s) = 4.77739 6.72643 5.83388
#
# Compressibility (1/GPa) = 0.03666353
#
# Stress axis : x y z
#
# Youngs Moduli (GPa) = 76.63974 19.52701 73.06898
#
# Poissons Ratio (x) = 0.07105 0.36036
# Poissons Ratio (y) = 0.27886 0.88197
# Poissons Ratio (z) = 0.37797 0.23570
#
# Static dielectric constant tensor:
#      x y z
#    x 3.161190 0.000000 0.000000 
#    y 0.000000 2.661770 0.000000 
#    z 0.000000 0.000000 3.244390 
# 
# 
# High freq. dielectric constant tensor:
#      x y z
#    x 1.626110 0.000000 0.000000 
#    y 0.000000 1.586820 0.000000 
#    z 0.000000 0.000000 1.636190 
# 
# From -- ./inp_files/33661.got.cif
#   From: 2010.03.12/outbox.cif.g09.slc.cpg/sg51_17_cif.got.tgz:33661.got - 2010.04.16 13:43:02.
