data_PCOD8207299
_publ_section_title
;
Structure prediction by ZEFSAII (Michael W. Deem and Ramdas Pophale) SiO2 
 PCOD8207299
Probable space group: P M M A
;
_chemical_formula_sum "Si O2"
_cell_formula_units_Z 64
_cell_length_a 23.794528
_cell_length_b 9.121808
_cell_length_c 15.484265
_cell_angle_alpha 90.000000
_cell_angle_beta 90.000000
_cell_angle_gamma 90.000000
_cell_volume 3360.846028
_symmetry_space_group_name_H-M "P M M A"
_symmetry_group_IT_number 51
_symmetry_cell_setting 'orthorhombic'
loop_
_space_group_symop_operation_xyz
x,y,z
1/2-x,-y,z
1/2+x,-y,-z
-x,y,-z
-x,-y,-z
1/2+x,y,-z
1/2-x,y,z
x,-y,z
loop_
_atom_site_type_symbol
_atom_site_label
_atom_site_fract_x
_atom_site_fract_y
_atom_site_fract_z
Si Si1 0.385983 0.174204 0.906463
Si Si2 0.686617 0.174746 0.251831
Si Si3 0.621060 0.169658 0.419754
Si Si4 0.122112 0.173832 0.099511
Si Si5 0.497513 0.173229 0.161516
Si Si6 0.314633 0.670460 0.247202
Si Si7 0.503452 0.169089 0.641356
Si Si8 0.886956 0.673406 0.589366
O O1 0.343781 0.237373 0.833969
O O2 0.448957 0.236729 0.890574
O O3 0.388292 0.000000 0.898721
O O4 0.364527 0.221139 0.001114
O O5 0.750000 0.235196 0.253415
O O6 0.654148 0.231572 0.336616
O O7 0.685360 0.000000 0.249979
O O8 0.554732 0.192452 0.407740
O O9 0.641267 0.259513 0.503429
O O10 0.635744 0.000000 0.434308
O O11 0.168670 0.243873 0.160857
O O12 0.060456 0.236761 0.123516
O O13 0.124547 0.000000 0.111364
O O14 0.504064 0.220588 0.260461
O O15 0.496639 0.000000 0.151866
O O16 0.250000 0.703454 0.268488
O O17 0.325488 0.500000 0.230467
O O18 0.351307 0.726965 0.327987
O O19 0.549697 0.269000 0.596148
O O20 0.523001 0.000000 0.636190
O O21 0.886758 0.500000 0.581262
#
# Coordination Sequence:
#
# PCOD8207299 Si02
#       8
#     8   8   8   8   8   8   8   8
#     4   9  16  28  49  81 115 142 169 208 261 313
#     4   9  17  30  48  73 107 141 172 211 257 303
#     4  10  20  34  54  79 106 138 174 209 256 317
#     4  10  19  31  55  86 110 133 173 223 261 300
#     4   9  15  27  49  78 111 142 168 204 257 312
#     4  10  23  42  57  70  99 144 183 215 263 323
#     4  10  18  32  55  79 107 141 172 206 256 318
#     4  11  23  37  55  78 103 133 173 220 267 311
#
# _framework density 19.042824
#
# number of rings (size 3 to 8) (size 9 to 14) (size 15 to 20)
#    0.000    2.250    2.500    1.125    0.000    5.250 
#    0.000    1.250    0.000    3.000    0.000    0.000 
#    0.000    0.000    0.000    0.000    0.000    0.000 
#
# Total GULP energy -793617.887100 kJ/mol
# GULP energy per Si atom -12400.279486 kJ/mol
# Density = 1.899948 g / cm^3
# Si number density = 19.042824 Si / 1000 Ang^3
#
#
#
# Elastic Constant Matrix: (Units=GPa)
#
#
# Indices 1 2 3 4 5 6 
#
# 1 97.0146 24.5589 47.8754 0.0000 0.0000 0.0000
# 2 24.5589 31.9079 39.5043 0.0000 0.0000 0.0000
# 3 47.8754 39.5043 151.6163 0.0000 0.0000 0.0000
# 4 0.0000 0.0000 0.0000 14.1101 0.0000 0.0000
# 5 0.0000 0.0000 0.0000 0.0000 15.1671 0.0000
# 6 0.0000 0.0000 0.0000 0.0000 0.0000 13.3108
#
#
#
# Elastic Compliance Matrix: (Units=1/GPa)
#
#
# Indices 1 2 3 4 5 6 
#
# 1 0.013308 -0.007441 -0.002264 0.000000 0.000000 0.000000
# 2 -0.007441 0.050424 -0.010789 0.000000 0.000000 0.000000
# 3 -0.002264 -0.010789 0.010121 0.000000 0.000000 0.000000
# 4 0.000000 0.000000 0.000000 0.070871 0.000000 0.000000
# 5 0.000000 0.000000 0.000000 0.000000 0.065932 0.000000
# 6 0.000000 0.000000 0.000000 0.000000 0.000000 0.075127
#
#
# Mechanical properties :
#
#
# Convention : Reuss Voigt Hill
#
# Bulk Modulus (GPa) = 30.42465 56.04623 43.23544
# Shear Modulus (GPa) = 14.80487 19.75762 17.28125
#
# Velocity S-wave (km/s) = 2.79131 3.22458 3.01573
# Velocity P-wave (km/s) = 5.13811 6.58479 5.90591
#
# Compressibility (1/GPa) = 0.03286808
#
# Stress axis : x y z
#
# Youngs Moduli (GPa) = 75.14064 19.83167 98.80007
#
# Poissons Ratio (x) = 0.14756 0.22365
# Poissons Ratio (y) = 0.55909 1.06593
# Poissons Ratio (z) = 0.17009 0.21396
#
# Static dielectric constant tensor:
#      x y z
#    x 3.545810 0.000000 0.000000 
#    y 0.000000 2.967790 0.000000 
#    z 0.000000 0.000000 3.721200 
# 
# 
# High freq. dielectric constant tensor:
#      x y z
#    x 1.739820 0.000000 0.000000 
#    y 0.000000 1.683470 0.000000 
#    z 0.000000 0.000000 1.759280 
# 
# From -- ./inp_files/26310.got.cif
#   From: 2010.03.12/outbox.cif.g09.slc.cpg/sg51_14_cif.got.tgz:26310.got - 2010.04.16 13:43:02.
