data_PCOD8207530
_publ_section_title
;
Structure prediction by ZEFSAII (Michael W. Deem and Ramdas Pophale) SiO2 
 PCOD8207530
Probable space group: P M M A
;
_chemical_formula_sum "Si O2"
_cell_formula_units_Z 64
_cell_length_a 9.143622
_cell_length_b 18.544193
_cell_length_c 26.278175
_cell_angle_alpha 90.000000
_cell_angle_beta 90.000000
_cell_angle_gamma 90.000000
_cell_volume 4455.756025
_symmetry_space_group_name_H-M "P M M A"
_symmetry_group_IT_number 51
_symmetry_cell_setting 'orthorhombic'
loop_
_space_group_symop_operation_xyz
x,y,z
1/2-x,-y,z
1/2+x,-y,-z
-x,y,-z
-x,-y,-z
1/2+x,y,-z
1/2-x,y,z
x,-y,z
loop_
_atom_site_type_symbol
_atom_site_label
_atom_site_fract_x
_atom_site_fract_y
_atom_site_fract_z
Si Si1 0.920171 0.419394 0.152706
Si Si2 0.417731 0.080578 0.856961
Si Si3 0.084411 0.654906 0.739850
Si Si4 0.418365 0.704116 0.109141
Si Si5 0.084999 0.585782 0.548944
Si Si6 0.578801 0.416726 0.649767
Si Si7 0.421503 0.157407 0.051745
Si Si8 0.584906 0.780688 0.195104
O O1 0.750000 0.420406 0.141409
O O2 0.985527 0.500000 0.150202
O O3 0.954173 0.387083 0.208265
O O4 0.992965 0.371049 0.108058
O O5 0.250000 0.081579 0.875537
O O6 0.515789 0.108314 0.903212
O O7 0.435609 0.132365 0.806798
O O8 0.466572 0.000000 0.841180
O O9 0.250000 0.636488 0.722423
O O10 0.066071 0.741705 0.749890
O O11 0.971960 0.631269 0.696935
O O12 0.250000 0.683572 0.112629
O O13 0.450899 0.757106 0.061580
O O14 0.462893 0.748337 0.158812
O O15 0.250000 0.616161 0.549110
O O16 0.085724 0.500000 0.546471
O O17 0.000000 0.617239 0.500000
O O18 0.002957 0.611908 0.599641
O O19 0.750000 0.406319 0.641027
O O20 0.539414 0.500000 0.660820
O O21 0.250000 0.141494 0.047446
O O22 0.500000 0.134526 0.000000
O O23 0.750000 0.760826 0.175416
#
# Coordination Sequence:
#
# PCOD8207530 Si02
#       8
#     8   8   8   8   8   8   8   8
#     4   9  17  28  42  59  78 101 127 155 192 237
#     4   9  17  30  48  67  85 105 129 156 185 220
#     4   9  16  26  39  54  75 102 129 157 190 229
#     4   9  17  28  42  60  78  97 124 156 188 223
#     4   9  16  26  39  52  68  94 129 168 208 247
#     4  10  19  27  35  51  75 101 132 171 209 239
#     4  10  20  32  46  63  82 104 128 154 186 224
#     4   8  15  28  43  58  78 104 130 154 184 227
#
# _framework density 14.363443999999999
#
# number of rings (size 3 to 8) (size 9 to 14) (size 15 to 20)
#    0.000    2.875    0.000    2.625    0.000    7.000 
#    0.000    0.000    0.000    0.375    0.000    0.000 
#    0.000    0.000    0.000    0.000    0.000    0.625 
#
# Total GULP energy -793046.220023 kJ/mol
# GULP energy per Si atom -12391.347188 kJ/mol
# Density = 1.433075 g / cm^3
# Si number density = 14.363444 Si / 1000 Ang^3
#
#
#
# Elastic Constant Matrix: (Units=GPa)
#
#
# Indices 1 2 3 4 5 6 
#
# 1 66.0582 33.3331 31.8861 0.0000 0.0000 0.0000
# 2 33.3331 98.8885 34.3352 0.0000 0.0000 0.0000
# 3 31.8861 34.3352 51.5742 0.0000 0.0000 0.0000
# 4 0.0000 0.0000 0.0000 10.0006 0.0000 0.0000
# 5 0.0000 0.0000 0.0000 0.0000 23.0771 0.0000
# 6 0.0000 0.0000 0.0000 0.0000 0.0000 16.5839
#
#
#
# Elastic Compliance Matrix: (Units=1/GPa)
#
#
# Indices 1 2 3 4 5 6 
#
# 1 0.022514 -0.003585 -0.011533 0.000000 0.000000 0.000000
# 2 -0.003585 0.013723 -0.006920 0.000000 0.000000 0.000000
# 3 -0.011533 -0.006920 0.031127 0.000000 0.000000 0.000000
# 4 0.000000 0.000000 0.000000 0.099994 0.000000 0.000000
# 5 0.000000 0.000000 0.000000 0.000000 0.043333 0.000000
# 6 0.000000 0.000000 0.000000 0.000000 0.000000 0.060299
#
#
# Mechanical properties :
#
#
# Convention : Reuss Voigt Hill
#
# Bulk Modulus (GPa) = 42.93886 46.18108 44.55997
# Shear Modulus (GPa) = 15.48808 17.73009 16.60909
#
# Velocity S-wave (km/s) = 3.28731 3.51720 3.40420
# Velocity P-wave (km/s) = 6.66093 6.97968 6.82216
#
# Compressibility (1/GPa) = 0.02328893
#
# Stress axis : x y z
#
# Youngs Moduli (GPa) = 44.41714 72.86824 32.12659
#
# Poissons Ratio (x) = 0.26120 0.37051
# Poissons Ratio (y) = 0.15921 0.22232
# Poissons Ratio (z) = 0.51226 0.50426
#
# Static dielectric constant tensor:
#      x y z
#    x 2.880900 0.000000 0.000000 
#    y 0.000000 2.913130 0.000000 
#    z 0.000000 0.000000 2.631330 
# 
# 
# High freq. dielectric constant tensor:
#      x y z
#    x 1.560480 0.000000 0.000000 
#    y 0.000000 1.525120 0.000000 
#    z 0.000000 0.000000 1.513770 
# 
# From -- ./inp_files/36407.got.cif
#   From: 2010.03.12/outbox.cif.g09.slc.cpg/sg51_19_cif.got.tgz:36407.got - 2010.04.16 13:43:02.
