data_PCOD8207636
_publ_section_title
;
Structure prediction by ZEFSAII (Michael W. Deem and Ramdas Pophale) SiO2 
 PCOD8207636
Probable space group: P M M A
;
_chemical_formula_sum "Si O2"
_cell_formula_units_Z 64
_cell_length_a 26.256413
_cell_length_b 8.924443
_cell_length_c 17.073135
_cell_angle_alpha 90.000000
_cell_angle_beta 90.000000
_cell_angle_gamma 90.000000
_cell_volume 4000.642916
_symmetry_space_group_name_H-M "P M M A"
_symmetry_group_IT_number 51
_symmetry_cell_setting 'orthorhombic'
loop_
_space_group_symop_operation_xyz
x,y,z
1/2-x,-y,z
1/2+x,-y,-z
-x,y,-z
-x,-y,-z
1/2+x,y,-z
1/2-x,y,z
x,-y,z
loop_
_atom_site_type_symbol
_atom_site_label
_atom_site_fract_x
_atom_site_fract_y
_atom_site_fract_z
Si Si1 0.627973 0.669722 0.277464
Si Si2 0.807510 0.825008 0.401427
Si Si3 0.430217 0.823614 0.853188
Si Si4 0.396570 0.826962 0.486327
Si Si5 0.560234 0.827684 0.672391
Si Si6 0.535538 0.669710 0.396486
Si Si7 0.461589 0.676719 0.174871
Si Si8 0.060290 0.334663 0.007134
O O1 0.641117 0.500000 0.253739
O O2 0.676032 0.739683 0.322616
O O3 0.616257 0.763481 0.199150
O O4 0.579603 0.678086 0.333021
O O5 0.750000 0.778647 0.422881
O O6 0.842609 0.779205 0.475781
O O7 0.812260 0.000000 0.383611
O O8 0.483139 0.753042 0.824139
O O9 0.434319 0.000000 0.845596
O O10 0.417583 0.780360 0.943443
O O11 0.395056 0.801882 0.392158
O O12 0.442430 0.726414 0.520657
O O13 0.408718 0.000000 0.505903
O O14 0.507852 0.780453 0.632114
O O15 0.571000 0.731062 0.750369
O O16 0.556602 0.000000 0.697644
O O17 0.515128 0.500000 0.405799
O O18 0.471262 0.500000 0.179689
O O19 0.429147 0.718532 0.096708
O O20 0.083728 0.500000 0.991874
O O21 0.000000 0.344143 0.000000
#
# Coordination Sequence:
#
# PCOD8207636 Si02
#       8
#     8   8   8   8   8   8   8   8
#     4  10  19  30  45  65  90 118 148 184 222 264
#     4   9  18  34  53  68  86 113 145 184 228 273
#     4  11  19  27  43  64  87 115 150 186 218 258
#     4   9  19  32  44  62  86 111 144 182 225 270
#     4  11  20  28  41  60  86 118 148 185 224 260
#     4  10  19  29  42  59  83 116 150 182 217 259
#     4  10  19  30  42  58  84 120 155 186 220 257
#     4   8  16  29  42  56  81 116 150 183 218 253
#
# _framework density 15.997429
#
# number of rings (size 3 to 8) (size 9 to 14) (size 15 to 20)
#    0.000    2.250    1.250    3.750    0.000    6.500 
#    0.000    0.000    0.000    0.000    0.000    0.000 
#    0.000    1.000    0.000    9.250    0.000    2.500 
#
# Total GULP energy -793421.970231 kJ/mol
# GULP energy per Si atom -12397.218285 kJ/mol
# Density = 1.596102 g / cm^3
# Si number density = 15.997429 Si / 1000 Ang^3
#
#
#
# Elastic Constant Matrix: (Units=GPa)
#
#
# Indices 1 2 3 4 5 6 
#
# 1 41.1849 22.9954 29.9930 0.0000 0.0000 0.0000
# 2 22.9954 87.8774 51.1634 0.0000 0.0000 0.0000
# 3 29.9930 51.1634 131.6129 0.0000 0.0000 0.0000
# 4 0.0000 0.0000 0.0000 28.4792 0.0000 0.0000
# 5 0.0000 0.0000 0.0000 0.0000 13.2286 0.0000
# 6 0.0000 0.0000 0.0000 0.0000 0.0000 12.4112
#
#
#
# Elastic Compliance Matrix: (Units=1/GPa)
#
#
# Indices 1 2 3 4 5 6 
#
# 1 0.030807 -0.005137 -0.005024 0.000000 0.000000 0.000000
# 2 -0.005137 0.015565 -0.004880 0.000000 0.000000 0.000000
# 3 -0.005024 -0.004880 0.010640 0.000000 0.000000 0.000000
# 4 0.000000 0.000000 0.000000 0.035113 0.000000 0.000000
# 5 0.000000 0.000000 0.000000 0.000000 0.075594 0.000000
# 6 0.000000 0.000000 0.000000 0.000000 0.000000 0.080572
#
#
# Mechanical properties :
#
#
# Convention : Reuss Voigt Hill
#
# Bulk Modulus (GPa) = 37.13174 52.10877 44.62026
# Shear Modulus (GPa) = 17.40039 21.25870 19.32955
#
# Velocity S-wave (km/s) = 3.30161 3.64934 3.47982
# Velocity P-wave (km/s) = 6.14781 7.09935 6.64065
#
# Compressibility (1/GPa) = 0.02693114
#
# Stress axis : x y z
#
# Youngs Moduli (GPa) = 32.45976 64.24705 93.98470
#
# Poissons Ratio (x) = 0.33001 0.47216
# Poissons Ratio (y) = 0.16673 0.45866
# Poissons Ratio (z) = 0.16307 0.31354
#
# Static dielectric constant tensor:
#      x y z
#    x 2.638720 0.000000 0.000000 
#    y 0.000000 3.153080 0.000000 
#    z 0.000000 0.000000 3.474050 
# 
# 
# High freq. dielectric constant tensor:
#      x y z
#    x 1.546920 0.000000 0.000000 
#    y 0.000000 1.626100 0.000000 
#    z 0.000000 0.000000 1.624930 
# 
# From -- ./inp_files/30805.got.cif
#   From: 2010.03.12/outbox.cif.g09.slc.cpg/sg51_16_cif.got.tgz:30805.got - 2010.04.16 13:43:02.
