data_PCOD8207324
_publ_section_title
;
Structure prediction by ZEFSAII (Michael W. Deem and Ramdas Pophale) SiO2 
 PCOD8207324
Probable space group: P M M A
;
_chemical_formula_sum "Si O2"
_cell_formula_units_Z 48
_cell_length_a 8.780426
_cell_length_b 14.495222
_cell_length_c 20.808199
_cell_angle_alpha 90.000000
_cell_angle_beta 90.000000
_cell_angle_gamma 90.000000
_cell_volume 2648.347383
_symmetry_space_group_name_H-M "P M M A"
_symmetry_group_IT_number 51
_symmetry_cell_setting 'orthorhombic'
loop_
_space_group_symop_operation_xyz
x,y,z
1/2-x,-y,z
1/2+x,-y,-z
-x,y,-z
-x,-y,-z
1/2+x,y,-z
1/2-x,y,z
x,-y,z
loop_
_atom_site_type_symbol
_atom_site_label
_atom_site_fract_x
_atom_site_fract_y
_atom_site_fract_z
Si Si1 0.069214 0.600553 0.880498
Si Si2 0.929533 0.894958 0.434498
Si Si3 0.569413 0.790747 0.066355
Si Si4 0.069005 0.206533 0.692393
Si Si5 0.569533 0.400315 0.263925
Si Si6 0.926749 0.108168 0.814425
O O1 0.250000 0.603569 0.878872
O O2 0.014127 0.500000 0.907264
O O3 0.008584 0.685502 0.923164
O O4 0.006201 0.614039 0.808206
O O5 0.750000 0.888575 0.440277
O O6 0.989559 0.835238 0.374667
O O7 0.000000 0.854385 0.500000
O O8 0.984245 0.000000 0.423857
O O9 0.750000 0.795061 0.062678
O O10 0.515767 0.855420 0.123793
O O11 0.500000 0.828185 0.000000
O O12 0.250000 0.195472 0.700285
O O13 0.016894 0.314134 0.692569
O O14 0.990686 0.153714 0.750331
O O15 0.750000 0.402239 0.260934
O O16 0.510795 0.500000 0.291078
O O17 0.750000 0.132621 0.821932
O O18 0.955491 0.000000 0.809013
#
# Coordination Sequence:
#
# PCOD8207324 Si02
#       6
#     8   8   8   8   8   8
#     4   8  14  27  49  76 103 130 162 202 250 303
#     4   9  18  31  48  73 105 138 173 211 252 301
#     4  11  22  37  56  76 101 135 171 212 258 305
#     4  10  18  32  56  82 104 133 172 213 254 297
#     4   8  13  24  47  78 105 128 161 205 251 301
#     4  11  24  39  54  75 102 132 169 213 260 310
#
# _framework density 18.124510000000001
#
# number of rings (size 3 to 8) (size 9 to 14) (size 15 to 20)
#    0.000    2.500    1.667    2.500    0.000    3.333 
#    0.000    1.667    0.000    3.500    0.000    0.000 
#    0.000    0.000    0.000    0.000    0.000    0.000 
#
# Total GULP energy -594933.608003 kJ/mol
# GULP energy per Si atom -12394.450167 kJ/mol
# Density = 1.808326 g / cm^3
# Si number density = 18.124510 Si / 1000 Ang^3
#
#
#
# Elastic Constant Matrix: (Units=GPa)
#
#
# Indices 1 2 3 4 5 6 
#
# 1 41.8086 36.6925 33.7146 0.0000 0.0000 0.0000
# 2 36.6925 119.9937 73.1888 0.0000 0.0000 0.0000
# 3 33.7146 73.1888 142.8309 0.0000 0.0000 0.0000
# 4 0.0000 0.0000 0.0000 1.2913 0.0000 0.0000
# 5 0.0000 0.0000 0.0000 0.0000 25.8860 0.0000
# 6 0.0000 0.0000 0.0000 0.0000 0.0000 2.4760
#
#
#
# Elastic Compliance Matrix: (Units=1/GPa)
#
#
# Indices 1 2 3 4 5 6 
#
# 1 0.034153 -0.008039 -0.003942 0.000000 0.000000 0.000000
# 2 -0.008039 0.014015 -0.005284 0.000000 0.000000 0.000000
# 3 -0.003942 -0.005284 0.010639 0.000000 0.000000 0.000000
# 4 0.000000 0.000000 0.000000 0.774419 0.000000 0.000000
# 5 0.000000 0.000000 0.000000 0.000000 0.038631 0.000000
# 6 0.000000 0.000000 0.000000 0.000000 0.000000 0.403880
#
#
# Mechanical properties :
#
#
# Convention : Reuss Voigt Hill
#
# Bulk Modulus (GPa) = 41.19164 65.75835 53.47500
# Shear Modulus (GPa) = 3.79259 16.66648 10.22953
#
# Velocity S-wave (km/s) = 1.44812 3.03571 2.37829
# Velocity P-wave (km/s) = 5.05692 6.97478 6.09180
#
# Compressibility (1/GPa) = 0.02427677
#
# Stress axis : x y z
#
# Youngs Moduli (GPa) = 29.28018 71.35320 93.99021
#
# Poissons Ratio (x) = 0.57360 0.37055
# Poissons Ratio (y) = 0.23538 0.49663
# Poissons Ratio (z) = 0.11543 0.37702
#
# Static dielectric constant tensor:
#      x y z
#    x 3.033020 0.000000 0.000000 
#    y 0.000000 3.872520 0.000000 
#    z 0.000000 0.000000 3.330430 
# 
# 
# High freq. dielectric constant tensor:
#      x y z
#    x 1.671250 0.000000 0.000000 
#    y 0.000000 1.713360 0.000000 
#    z 0.000000 0.000000 1.687960 
# 
# From -- ./inp_files/31614.got.cif
#   From: 2010.03.12/outbox.cif.g09.slc.cpg/sg51_16_cif.got.tgz:31614.got - 2010.04.16 13:43:02.
