data_PCOD8207976
_publ_section_title
;
Structure prediction by ZEFSAII (Michael W. Deem and Ramdas Pophale) SiO2 
 PCOD8207976
Probable space group: P M M A
;
_chemical_formula_sum "Si O2"
_cell_formula_units_Z 64
_cell_length_a 30.410955
_cell_length_b 9.219726
_cell_length_c 14.357898
_cell_angle_alpha 90.000000
_cell_angle_beta 90.000000
_cell_angle_gamma 90.000000
_cell_volume 4025.677097
_symmetry_space_group_name_H-M "P M M A"
_symmetry_group_IT_number 51
_symmetry_cell_setting 'orthorhombic'
loop_
_space_group_symop_operation_xyz
x,y,z
1/2-x,-y,z
1/2+x,-y,-z
-x,y,-z
-x,-y,-z
1/2+x,y,-z
1/2-x,y,z
x,-y,z
loop_
_atom_site_type_symbol
_atom_site_label
_atom_site_fract_x
_atom_site_fract_y
_atom_site_fract_z
Si Si1 0.928373 0.334740 0.741796
Si Si2 0.543840 0.168054 0.051700
Si Si3 0.298266 0.327424 0.146362
Si Si4 0.879124 0.172231 0.586814
Si Si5 0.613342 0.664957 0.940603
Si Si6 0.955350 0.832137 0.456734
Si Si7 0.200181 0.332855 0.357972
Si Si8 0.483703 0.165681 0.742689
O O1 0.925425 0.500000 0.705641
O O2 0.895762 0.232349 0.685320
O O3 0.915935 0.324795 0.849004
O O4 0.977333 0.277781 0.730035
O O5 0.541863 0.196703 0.162005
O O6 0.548258 0.000000 0.026514
O O7 0.500000 0.229943 0.000000
O O8 0.588594 0.244437 0.019507
O O9 0.250000 0.277149 0.108830
O O10 0.300785 0.500000 0.149516
O O11 0.337664 0.269877 0.079936
O O12 0.304595 0.273085 0.252211
O O13 0.911728 0.231920 0.505829
O O14 0.830552 0.239217 0.572796
O O15 0.875854 0.000000 0.589004
O O16 0.617155 0.500000 0.975740
O O17 0.951607 0.808476 0.345550
O O18 0.000000 0.761063 0.500000
O O19 0.956549 0.000000 0.483787
O O20 0.250000 0.314019 0.392963
O O21 0.185483 0.500000 0.362460
O O22 0.501861 0.000000 0.741913
#
# Coordination Sequence:
#
# PCOD8207976 Si02
#       8
#     8   8   8   8   8   8   8   8
#     4  11  20  29  44  68  96 124 158 192 230 272
#     4  10  20  31  46  68  91 118 155 194 231 272
#     4   8  14  27  46  66  89 119 152 181 216 271
#     4  11  20  30  47  69  94 126 161 196 226 269
#     4  10  19  30  46  67  92 124 156 185 221 274
#     4   9  17  30  48  67  89 123 159 188 228 275
#     4   9  17  31  49  68  95 126 153 186 232 284
#     4  10  19  34  49  63  90 125 160 193 230 276
#
# _framework density 15.897948
#
# number of rings (size 3 to 8) (size 9 to 14) (size 15 to 20)
#    0.000    2.250    3.750    1.500    0.000    1.500 
#    0.000    1.875    0.000    0.375    0.000    0.875 
#    0.000    5.000    0.000    0.000    0.000    0.000 
#
# Total GULP energy -793275.218209 kJ/mol
# GULP energy per Si atom -12394.925285 kJ/mol
# Density = 1.586176 g / cm^3
# Si number density = 15.897948 Si / 1000 Ang^3
#
#
#
# Elastic Constant Matrix: (Units=GPa)
#
#
# Indices 1 2 3 4 5 6 
#
# 1 124.7141 39.8702 44.4747 0.0000 0.0000 0.0000
# 2 39.8702 48.7908 24.6851 0.0000 0.0000 0.0000
# 3 44.4747 24.6851 79.1585 0.0000 0.0000 0.0000
# 4 0.0000 0.0000 0.0000 14.7577 0.0000 0.0000
# 5 0.0000 0.0000 0.0000 0.0000 25.6060 0.0000
# 6 0.0000 0.0000 0.0000 0.0000 0.0000 24.8487
#
#
#
# Elastic Compliance Matrix: (Units=1/GPa)
#
#
# Indices 1 2 3 4 5 6 
#
# 1 0.012008 -0.007598 -0.004377 0.000000 0.000000 0.000000
# 2 -0.007598 0.029143 -0.004819 0.000000 0.000000 0.000000
# 3 -0.004377 -0.004819 0.016595 0.000000 0.000000 0.000000
# 4 0.000000 0.000000 0.000000 0.067761 0.000000 0.000000
# 5 0.000000 0.000000 0.000000 0.000000 0.039053 0.000000
# 6 0.000000 0.000000 0.000000 0.000000 0.000000 0.040244
#
#
# Mechanical properties :
#
#
# Convention : Reuss Voigt Hill
#
# Bulk Modulus (GPa) = 41.39577 52.30260 46.84919
# Shear Modulus (GPa) = 20.28840 22.61804 21.45322
#
# Velocity S-wave (km/s) = 3.57622 3.77596 3.67745
# Velocity P-wave (km/s) = 6.56867 7.20978 6.89668
#
# Compressibility (1/GPa) = 0.02415706
#
# Stress axis : x y z
#
# Youngs Moduli (GPa) = 83.27448 34.31384 60.25881
#
# Poissons Ratio (x) = 0.26072 0.26378
# Poissons Ratio (y) = 0.63274 0.29039
# Poissons Ratio (z) = 0.36453 0.16536
#
# Static dielectric constant tensor:
#      x y z
#    x 3.251250 0.000000 0.000000 
#    y 0.000000 2.886200 0.000000 
#    z 0.000000 0.000000 2.883500 
# 
# 
# High freq. dielectric constant tensor:
#      x y z
#    x 1.608720 0.000000 0.000000 
#    y 0.000000 1.591630 0.000000 
#    z 0.000000 0.000000 1.582440 
# 
# From -- ./inp_files/26718.got.cif
#   From: 2010.03.12/outbox.cif.g09.slc.cpg/sg51_14_cif.got.tgz:26718.got - 2010.04.16 13:43:02.
