data_PCOD8207640
_publ_section_title
;
Structure prediction by ZEFSAII (Michael W. Deem and Ramdas Pophale) SiO2 
 PCOD8207640
Probable space group: P M M A
;
_chemical_formula_sum "Si O2"
_cell_formula_units_Z 64
_cell_length_a 13.882605
_cell_length_b 18.629391
_cell_length_c 15.775420
_cell_angle_alpha 90.000000
_cell_angle_beta 90.000000
_cell_angle_gamma 90.000000
_cell_volume 4079.909741
_symmetry_space_group_name_H-M "P M M A"
_symmetry_group_IT_number 51
_symmetry_cell_setting 'orthorhombic'
loop_
_space_group_symop_operation_xyz
x,y,z
1/2-x,-y,z
1/2+x,-y,-z
-x,y,-z
-x,-y,-z
1/2+x,y,-z
1/2-x,y,z
x,-y,z
loop_
_atom_site_type_symbol
_atom_site_label
_atom_site_fract_x
_atom_site_fract_y
_atom_site_fract_z
Si Si1 0.502464 0.920866 0.899142
Si Si2 0.636071 0.580106 0.045746
Si Si3 0.135574 0.193933 0.865866
Si Si4 0.454070 0.584983 0.631472
Si Si5 0.143983 0.584808 0.458300
Si Si6 0.356955 0.653261 0.125324
Si Si7 0.447678 0.664703 0.798635
Si Si8 0.854735 0.191281 0.943424
O O1 0.406933 0.886937 0.853895
O O2 0.588381 0.864576 0.883982
O O3 0.519602 0.000000 0.858821
O O4 0.500000 0.929561 0.000000
O O5 0.750000 0.581094 0.041979
O O6 0.594853 0.500000 0.056987
O O7 0.606432 0.628287 0.123906
O O8 0.599565 0.611549 0.956139
O O9 0.250000 0.196162 0.849203
O O10 0.081335 0.251050 0.804634
O O11 0.103421 0.210660 0.963214
O O12 0.449410 0.500000 0.651613
O O13 0.563414 0.610150 0.609006
O O14 0.385742 0.606423 0.553447
O O15 0.413313 0.630347 0.710475
O O16 0.250000 0.617528 0.437126
O O17 0.147974 0.500000 0.454047
O O18 0.250000 0.623616 0.152629
O O19 0.437614 0.647235 0.198002
O O20 0.346419 0.736429 0.107692
O O21 0.750000 0.156470 0.958560
#
# Coordination Sequence:
#
# PCOD8207640 Si02
#       8
#     8   8   8   8   8   8   8   8
#     4   9  17  28  44  64  81 105 146 194 234 264
#     4  10  21  33  43  58  80 112 156 197 228 258
#     4  10  19  29  42  60  84 116 147 180 225 269
#     4   9  19  31  45  70  91 107 144 187 223 271
#     4   8  15  32  53  66  84 113 137 170 228 283
#     4  10  20  32  44  57  80 119 158 188 223 264
#     4  12  20  29  46  64  88 116 147 187 229 265
#     4   9  16  29  45  59  79 111 152 188 223 267
#
# _framework density 15.686622
#
# number of rings (size 3 to 8) (size 9 to 14) (size 15 to 20)
#    0.000    2.375    2.500    1.875    0.000    3.500 
#    0.000    3.750    0.000    0.000    0.000    0.000 
#    0.000    0.000    0.000    2.250    0.000    2.000 
#
# Total GULP energy -792885.846644 kJ/mol
# GULP energy per Si atom -12388.841354 kJ/mol
# Density = 1.565092 g / cm^3
# Si number density = 15.686622 Si / 1000 Ang^3
#
#
#
# Elastic Constant Matrix: (Units=GPa)
#
#
# Indices 1 2 3 4 5 6 
#
# 1 43.3356 10.2431 9.7716 0.0000 0.0000 0.0000
# 2 10.2431 74.4837 15.8570 0.0000 0.0000 0.0000
# 3 9.7716 15.8570 35.6633 0.0000 0.0000 0.0000
# 4 0.0000 0.0000 0.0000 7.2842 0.0000 0.0000
# 5 0.0000 0.0000 0.0000 0.0000 9.3991 0.0000
# 6 0.0000 0.0000 0.0000 0.0000 0.0000 16.9715
#
#
#
# Elastic Compliance Matrix: (Units=1/GPa)
#
#
# Indices 1 2 3 4 5 6 
#
# 1 0.024911 -0.002179 -0.005857 0.000000 0.000000 0.000000
# 2 -0.002179 0.015020 -0.006081 0.000000 0.000000 0.000000
# 3 -0.005857 -0.006081 0.032349 0.000000 0.000000 0.000000
# 4 0.000000 0.000000 0.000000 0.137284 0.000000 0.000000
# 5 0.000000 0.000000 0.000000 0.000000 0.106393 0.000000
# 6 0.000000 0.000000 0.000000 0.000000 0.000000 0.058922
#
#
# Mechanical properties :
#
#
# Convention : Reuss Voigt Hill
#
# Bulk Modulus (GPa) = 22.70355 25.02510 23.86433
# Shear Modulus (GPa) = 11.96757 14.57168 13.26963
#
# Velocity S-wave (km/s) = 2.76509 3.05113 2.91163
# Velocity P-wave (km/s) = 4.96980 5.32920 5.15263
#
# Compressibility (1/GPa) = 0.04404597
#
# Stress axis : x y z
#
# Youngs Moduli (GPa) = 40.14233 66.57752 30.91312
#
# Poissons Ratio (x) = 0.14507 0.18105
# Poissons Ratio (y) = 0.08747 0.18799
# Poissons Ratio (z) = 0.23510 0.40488
#
# Static dielectric constant tensor:
#      x y z
#    x 3.561310 0.000000 0.000000 
#    y 0.000000 3.007180 0.000000 
#    z 0.000000 0.000000 2.559560 
# 
# 
# High freq. dielectric constant tensor:
#      x y z
#    x 1.622580 0.000000 0.000000 
#    y 0.000000 1.578750 0.000000 
#    z 0.000000 0.000000 1.546090 
# 
# From -- ./inp_files/24441.got.cif
#   From: 2010.03.12/outbox.cif.g09.slc.cpg/sg51_13_cif.got.tgz:24441.got - 2010.04.16 13:43:02.
