data_PCOD8207475
_publ_section_title
;
Structure prediction by ZEFSAII (Michael W. Deem and Ramdas Pophale) SiO2 
 PCOD8207475
Probable space group: P M M A
;
_chemical_formula_sum "Si O2"
_cell_formula_units_Z 40
_cell_length_a 25.633048
_cell_length_b 7.781703
_cell_length_c 10.004633
_cell_angle_alpha 90.000000
_cell_angle_beta 90.000000
_cell_angle_gamma 90.000000
_cell_volume 1995.611804
_symmetry_space_group_name_H-M "P M M A"
_symmetry_group_IT_number 51
_symmetry_cell_setting 'orthorhombic'
loop_
_space_group_symop_operation_xyz
x,y,z
1/2-x,-y,z
1/2+x,-y,-z
-x,y,-z
-x,-y,-z
1/2+x,y,-z
1/2-x,y,z
x,-y,z
loop_
_atom_site_type_symbol
_atom_site_label
_atom_site_fract_x
_atom_site_fract_y
_atom_site_fract_z
Si Si1 0.448101 0.000000 0.088289
Si Si2 0.550419 0.000000 0.590912
Si Si3 0.689944 0.805119 0.730837
Si Si4 0.376710 0.694320 0.494984
Si Si5 0.191607 0.695162 0.734147
Si Si6 0.647165 0.811516 0.000471
O O1 0.460364 0.000000 0.247977
O O2 0.413957 0.169015 0.044558
O O3 0.500000 0.000000 0.000000
O O4 0.500000 0.000000 0.500000
O O5 0.578240 0.176044 0.547831
O O6 0.750000 0.811255 0.696850
O O7 0.663512 0.678848 0.626652
O O8 0.679461 0.729588 0.878110
O O9 0.665548 0.000000 0.722428
O O10 0.398166 0.500000 0.524379
O O11 0.344955 0.778213 0.619848
O O12 0.250000 0.780281 0.745114
O O13 0.199711 0.500000 0.691632
O O14 0.158053 0.697673 0.870337
O O15 0.670453 0.000000 0.034570
#
# Coordination Sequence:
#
# PCOD8207475 Si02
#       6
#     4   4   8   8   8   8
#     4  10  22  42  65  94 114 150 209 262 319 376
#     4  12  26  46  71  90 120 160 207 262 329 376
#     4  10  18  34  59  88 124 166 204 244 301 371
#     4  11  23  42  63  92 128 160 207 259 303 366
#     4  10  22  37  55  89 132 168 203 242 294 365
#     4   9  19  36  58  86 123 153 203 252 299 362
#
# _framework density 20.043977999999999
#
# number of rings (size 3 to 8) (size 9 to 14) (size 15 to 20)
#    0.600    1.200    3.000    1.200    4.200    3.600 
#    0.000    0.000    0.000    1.200    0.000    0.000 
#    0.000    0.000    0.000    0.000    0.000    0.000 
#
# Total GULP energy -495565.452241 kJ/mol
# GULP energy per Si atom -12389.136306 kJ/mol
# Density = 1.999836 g / cm^3
# Si number density = 20.043978 Si / 1000 Ang^3
#
#
#
# Elastic Constant Matrix: (Units=GPa)
#
#
# Indices 1 2 3 4 5 6 
#
# 1 113.1467 33.5584 61.9525 0.0000 0.0000 0.0000
# 2 33.5584 54.9114 29.7301 0.0000 0.0000 0.0000
# 3 61.9525 29.7301 158.1706 0.0000 0.0000 0.0000
# 4 0.0000 0.0000 0.0000 28.0219 0.0000 0.0000
# 5 0.0000 0.0000 0.0000 0.0000 41.6474 0.0000
# 6 0.0000 0.0000 0.0000 0.0000 0.0000 0.6610
#
#
#
# Elastic Compliance Matrix: (Units=1/GPa)
#
#
# Indices 1 2 3 4 5 6 
#
# 1 0.012635 -0.005614 -0.003894 0.000000 0.000000 0.000000
# 2 -0.005614 0.022768 -0.002081 0.000000 0.000000 0.000000
# 3 -0.003894 -0.002081 0.008239 0.000000 0.000000 0.000000
# 4 0.000000 0.000000 0.000000 0.035686 0.000000 0.000000
# 5 0.000000 0.000000 0.000000 0.000000 0.024011 0.000000
# 6 0.000000 0.000000 0.000000 0.000000 0.000000 1.512925
#
#
# Mechanical properties :
#
#
# Convention : Reuss Voigt Hill
#
# Bulk Modulus (GPa) = 48.86256 64.07899 56.47077
# Shear Modulus (GPa) = 3.03718 27.46523 15.25121
#
# Velocity S-wave (km/s) = 1.23229 3.70570 2.76141
# Velocity P-wave (km/s) = 5.14347 7.09565 6.19692
#
# Compressibility (1/GPa) = 0.02046557
#
# Stress axis : x y z
#
# Youngs Moduli (GPa) = 79.14506 43.92043 121.38092
#
# Poissons Ratio (x) = 0.24655 0.47263
# Poissons Ratio (y) = 0.44429 0.25258
# Poissons Ratio (z) = 0.30817 0.09139
#
# Static dielectric constant tensor:
#      x y z
#    x 3.711500 0.000000 0.000000 
#    y 0.000000 3.308330 0.000000 
#    z 0.000000 0.000000 3.750760 
# 
# 
# High freq. dielectric constant tensor:
#      x y z
#    x 1.766810 0.000000 0.000000 
#    y 0.000000 1.753840 0.000000 
#    z 0.000000 0.000000 1.800170 
# 
# From -- ./inp_files/12205.got.cif
#   From: 2010.03.12/outbox.cif.g09.slc.cpg/sg51_7_cif.got.tgz:12205.got - 2010.04.16 13:43:02.
