data_PCOD8207267
_publ_section_title
;
Structure prediction by ZEFSAII (Michael W. Deem and Ramdas Pophale) SiO2 
 PCOD8207267
Probable space group: P M M A
;
_chemical_formula_sum "Si O2"
_cell_formula_units_Z 56
_cell_length_a 16.080752
_cell_length_b 9.072929
_cell_length_c 19.552790
_cell_angle_alpha 90.000000
_cell_angle_beta 90.000000
_cell_angle_gamma 90.000000
_cell_volume 2852.742698
_symmetry_space_group_name_H-M "P M M A"
_symmetry_group_IT_number 51
_symmetry_cell_setting 'orthorhombic'
loop_
_space_group_symop_operation_xyz
x,y,z
1/2-x,-y,z
1/2+x,-y,-z
-x,y,-z
-x,-y,-z
1/2+x,y,-z
1/2-x,y,z
x,-y,z
loop_
_atom_site_type_symbol
_atom_site_label
_atom_site_fract_x
_atom_site_fract_y
_atom_site_fract_z
Si Si1 0.499608 0.175762 0.922703
Si Si2 0.593910 0.673681 0.288986
Si Si3 0.348831 0.834534 0.579959
Si Si4 0.927267 0.829084 0.705722
Si Si5 0.657735 0.829233 0.163458
Si Si6 0.341033 0.171180 0.157610
Si Si7 0.341723 0.174542 0.429633
O O1 0.414354 0.232080 0.886826
O O2 0.582114 0.241093 0.885256
O O3 0.500855 0.000000 0.920608
O O4 0.500000 0.235399 0.000000
O O5 0.597792 0.500000 0.284127
O O6 0.614814 0.721336 0.365942
O O7 0.503752 0.732760 0.268153
O O8 0.658292 0.742113 0.235081
O O9 0.250000 0.832392 0.580774
O O10 0.379771 0.785342 0.504100
O O11 0.381056 0.000000 0.596563
O O12 0.854662 0.807111 0.761261
O O13 0.899152 0.766636 0.631827
O O14 0.954249 0.000000 0.701826
O O15 0.750000 0.807710 0.130438
O O16 0.641272 0.000000 0.180015
O O17 0.250000 0.240874 0.139172
O O18 0.338156 0.000000 0.139109
O O19 0.250000 0.244933 0.421761
O O20 0.333805 0.000000 0.422970
#
# Coordination Sequence:
#
# PCOD8207267 Si02
#       7
#     8   8   8   8   8   8   8
#     4   9  17  30  50  82 121 147 168 209 265 322
#     4  12  24  35  50  74 106 142 184 229 272 316
#     4   9  18  34  54  75 101 134 174 222 276 329
#     4  10  18  32  54  77 104 136 177 224 272 322
#     4  10  20  36  58  82 109 145 184 221 266 318
#     4   9  16  27  49  80 109 138 175 218 263 310
#     4   8  15  29  52  80 103 128 172 227 275 323
#
# _framework density 19.630230999999998
#
# number of rings (size 3 to 8) (size 9 to 14) (size 15 to 20)
#    0.000    2.429    1.429    3.000    0.000    5.143 
#    0.000    6.429    0.000    3.000    0.000    0.000 
#    0.000    0.000    0.000    0.000    0.000    0.000 
#
# Total GULP energy -694112.458353 kJ/mol
# GULP energy per Si atom -12394.865328 kJ/mol
# Density = 1.958555 g / cm^3
# Si number density = 19.630231 Si / 1000 Ang^3
#
#
#
# Elastic Constant Matrix: (Units=GPa)
#
#
# Indices 1 2 3 4 5 6 
#
# 1 134.2029 25.5086 62.9456 0.0000 0.0000 0.0000
# 2 25.5086 52.4798 25.9173 0.0000 0.0000 0.0000
# 3 62.9456 25.9173 131.5716 0.0000 0.0000 0.0000
# 4 0.0000 0.0000 0.0000 1.7272 0.0000 0.0000
# 5 0.0000 0.0000 0.0000 0.0000 28.1216 0.0000
# 6 0.0000 0.0000 0.0000 0.0000 0.0000 1.3725
#
#
#
# Elastic Compliance Matrix: (Units=1/GPa)
#
#
# Indices 1 2 3 4 5 6 
#
# 1 0.009954 -0.002754 -0.004220 0.000000 0.000000 0.000000
# 2 -0.002754 0.021871 -0.002990 0.000000 0.000000 0.000000
# 3 -0.004220 -0.002990 0.010208 0.000000 0.000000 0.000000
# 4 0.000000 0.000000 0.000000 0.578961 0.000000 0.000000
# 5 0.000000 0.000000 0.000000 0.000000 0.035560 0.000000
# 6 0.000000 0.000000 0.000000 0.000000 0.000000 0.728622
#
#
# Mechanical properties :
#
#
# Convention : Reuss Voigt Hill
#
# Bulk Modulus (GPa) = 45.24059 60.77748 53.00903
# Shear Modulus (GPa) = 3.53989 19.83643 11.68816
#
# Velocity S-wave (km/s) = 1.34432 3.18229 2.44276
# Velocity P-wave (km/s) = 5.05035 6.67316 5.91764
#
# Compressibility (1/GPa) = 0.02210405
#
# Stress axis : x y z
#
# Youngs Moduli (GPa) = 100.46128 45.72346 97.96078
#
# Poissons Ratio (x) = 0.12594 0.41335
# Poissons Ratio (y) = 0.27672 0.29294
# Poissons Ratio (z) = 0.42390 0.13673
#
# Static dielectric constant tensor:
#      x y z
#    x 3.776750 0.000000 0.000000 
#    y 0.000000 2.920720 0.000000 
#    z 0.000000 0.000000 3.816810 
# 
# 
# High freq. dielectric constant tensor:
#      x y z
#    x 1.774480 0.000000 0.000000 
#    y 0.000000 1.689860 0.000000 
#    z 0.000000 0.000000 1.770110 
# 
# From -- ./inp_files/33490.got.cif
#   From: 2010.03.12/outbox.cif.g09.slc.cpg/sg51_17_cif.got.tgz:33490.got - 2010.04.16 13:43:02.
