data_PCOD8207940
_publ_section_title
;
Structure prediction by ZEFSAII (Michael W. Deem and Ramdas Pophale) SiO2 
 PCOD8207940
Probable space group: P M M A
;
_chemical_formula_sum "Si O2"
_cell_formula_units_Z 36
_cell_length_a 8.883332
_cell_length_b 12.451461
_cell_length_c 19.643312
_cell_angle_alpha 90.000000
_cell_angle_beta 90.000000
_cell_angle_gamma 90.000000
_cell_volume 2172.755815
_symmetry_space_group_name_H-M "P M M A"
_symmetry_group_IT_number 51
_symmetry_cell_setting 'orthorhombic'
loop_
_space_group_symop_operation_xyz
x,y,z
1/2-x,-y,z
1/2+x,-y,-z
-x,y,-z
-x,-y,-z
1/2+x,y,-z
1/2-x,y,z
x,-y,z
loop_
_atom_site_type_symbol
_atom_site_label
_atom_site_fract_x
_atom_site_fract_y
_atom_site_fract_z
Si Si1 0.080281 0.872218 0.567297
Si Si2 0.073995 0.125343 0.294845
Si Si3 0.075070 0.374819 0.070316
Si Si4 0.427639 0.000000 0.926420
Si Si5 0.071633 0.203692 0.839050
O O1 0.250000 0.827386 0.571033
O O2 0.000000 0.825312 0.500000
O O3 0.988028 0.832867 0.632997
O O4 0.081296 0.000000 0.564071
O O5 0.250000 0.149414 0.291126
O O6 0.988796 0.190884 0.236931
O O7 0.038045 0.000000 0.285130
O O8 0.250000 0.345610 0.066557
O O9 0.047352 0.500000 0.083488
O O10 0.997269 0.312936 0.131963
O O11 0.000000 0.337224 0.000000
O O12 0.483113 0.104331 0.885369
O O13 0.250000 0.000000 0.935035
O O14 0.500000 0.000000 0.000000
O O15 0.250000 0.211951 0.837090
#
# Coordination Sequence:
#
# PCOD8207940 Si02
#       5
#     8   8   8   4   8
#     4   9  16  26  41  61  88 123 162 201 236 278
#     4  10  19  30  45  66  94 129 164 198 239 287
#     4  10  21  37  55  74  95 121 158 203 249 294
#     4  10  22  34  46  66  93 124 157 194 234 282
#     4  11  21  34  50  70  97 128 162 199 242 291
#
# _framework density 16.568821
#
# number of rings (size 3 to 8) (size 9 to 14) (size 15 to 20)
#    0.000    2.000    1.111    3.333    0.000    8.444 
#    0.000    0.000    0.000    0.000    0.000    0.000 
#    0.000    0.889    0.000    3.333    0.000    5.111 
#
# Total GULP energy -446543.050136 kJ/mol
# GULP energy per Si atom -12403.973615 kJ/mol
# Density = 1.653111 g / cm^3
# Si number density = 16.568821 Si / 1000 Ang^3
#
#
#
# Elastic Constant Matrix: (Units=GPa)
#
#
# Indices 1 2 3 4 5 6 
#
# 1 104.8773 36.9119 61.2305 0.0000 0.0000 0.0000
# 2 36.9119 44.8091 44.0542 0.0000 0.0000 0.0000
# 3 61.2305 44.0542 150.6127 0.0000 0.0000 0.0000
# 4 0.0000 0.0000 0.0000 30.9326 0.0000 0.0000
# 5 0.0000 0.0000 0.0000 0.0000 38.6523 0.0000
# 6 0.0000 0.0000 0.0000 0.0000 0.0000 20.6259
#
#
#
# Elastic Compliance Matrix: (Units=1/GPa)
#
#
# Indices 1 2 3 4 5 6 
#
# 1 0.014562 -0.008668 -0.003385 0.000000 0.000000 0.000000
# 2 -0.008668 0.036484 -0.007148 0.000000 0.000000 0.000000
# 3 -0.003385 -0.007148 0.010106 0.000000 0.000000 0.000000
# 4 0.000000 0.000000 0.000000 0.032328 0.000000 0.000000
# 5 0.000000 0.000000 0.000000 0.000000 0.025872 0.000000
# 6 0.000000 0.000000 0.000000 0.000000 0.000000 0.048483
#
#
# Mechanical properties :
#
#
# Convention : Reuss Voigt Hill
#
# Bulk Modulus (GPa) = 43.95228 64.96579 54.45903
# Shear Modulus (GPa) = 23.38424 28.58235 25.98329
#
# Velocity S-wave (km/s) = 3.76086 4.15790 3.96435
# Velocity P-wave (km/s) = 6.74117 7.89592 7.34129
#
# Compressibility (1/GPa) = 0.02275195
#
# Stress axis : x y z
#
# Youngs Moduli (GPa) = 68.67377 27.40900 98.94815
#
# Poissons Ratio (x) = 0.23757 0.33490
# Poissons Ratio (y) = 0.59524 0.70727
# Poissons Ratio (z) = 0.23244 0.19592
#
# Static dielectric constant tensor:
#      x y z
#    x 3.262720 0.000000 0.000000 
#    y 0.000000 2.780150 0.000000 
#    z 0.000000 0.000000 3.214730 
# 
# 
# High freq. dielectric constant tensor:
#      x y z
#    x 1.657570 0.000000 0.000000 
#    y 0.000000 1.586210 0.000000 
#    z 0.000000 0.000000 1.647700 
# 
# From -- ./inp_files/27009.got.cif
#   From: 2010.03.12/outbox.cif.g09.slc.cpg/sg51_14_cif.got.tgz:27009.got - 2010.04.16 13:43:02.
