data_PCOD8207575
_publ_section_title
;
Structure prediction by ZEFSAII (Michael W. Deem and Ramdas Pophale) SiO2 
 PCOD8207575
Probable space group: P M M A
;
_chemical_formula_sum "Si O2"
_cell_formula_units_Z 64
_cell_length_a 18.271014
_cell_length_b 9.151515
_cell_length_c 21.522568
_cell_angle_alpha 90.000000
_cell_angle_beta 90.000000
_cell_angle_gamma 90.000000
_cell_volume 3598.733900
_symmetry_space_group_name_H-M "P M M A"
_symmetry_group_IT_number 51
_symmetry_cell_setting 'orthorhombic'
loop_
_space_group_symop_operation_xyz
x,y,z
1/2-x,-y,z
1/2+x,-y,-z
-x,y,-z
-x,-y,-z
1/2+x,y,-z
1/2-x,y,z
x,-y,z
loop_
_atom_site_type_symbol
_atom_site_label
_atom_site_fract_x
_atom_site_fract_y
_atom_site_fract_z
Si Si1 0.960135 0.328947 0.810261
Si Si2 0.667216 0.829243 0.120115
Si Si3 0.836225 0.169568 0.749368
Si Si4 0.591602 0.828222 0.247779
Si Si5 0.962853 0.670541 0.062659
Si Si6 0.336661 0.667309 0.638372
Si Si7 0.829947 0.172882 0.614330
Si Si8 0.662535 0.164213 0.481523
O O1 0.963218 0.500000 0.796494
O O2 0.878493 0.267809 0.799685
O O3 0.013572 0.246952 0.762623
O O4 0.982659 0.292983 0.880816
O O5 0.750000 0.774925 0.109516
O O6 0.644918 0.790564 0.190492
O O7 0.615119 0.748142 0.071366
O O8 0.659570 0.000000 0.107662
O O9 0.750000 0.202221 0.754736
O O10 0.867393 0.214620 0.680234
O O11 0.852050 0.000000 0.763139
O O12 0.627458 0.765401 0.309234
O O13 0.579683 0.000000 0.255721
O O14 0.946421 0.500000 0.057516
O O15 0.000000 0.730671 0.000000
O O16 0.250000 0.684428 0.643650
O O17 0.361372 0.500000 0.645724
O O18 0.364841 0.726121 0.571758
O O19 0.750000 0.247007 0.615144
O O20 0.869947 0.217630 0.549221
O O21 0.820196 0.000000 0.613087
O O22 0.750000 0.164832 0.486532
O O23 0.635264 0.000000 0.465719
#
# Coordination Sequence:
#
# PCOD8207575 Si02
#       8
#     8   8   8   8   8   8   8   8
#     4  10  20  34  52  74  99 125 156 196 242 289
#     4   9  18  32  51  77 104 127 159 205 248 284
#     4   9  17  31  52  76 100 126 159 198 239 287
#     4  10  19  32  50  69  93 128 166 201 240 288
#     4   9  19  36  55  74  99 134 171 200 231 281
#     4  10  19  28  40  64  98 130 160 198 243 287
#     4   7  11  22  42  66  89 116 154 198 237 277
#     4   8  13  23  40  61  86 119 159 198 236 280
#
# _framework density 17.784032
#
# number of rings (size 3 to 8) (size 9 to 14) (size 15 to 20)
#    0.000    3.000    0.000    3.000    0.000    3.000 
#    0.000    1.250    0.000    6.750    0.000    5.250 
#    0.000    0.000    0.000    0.000    0.000    0.000 
#
# Total GULP energy -793155.321190 kJ/mol
# GULP energy per Si atom -12393.051894 kJ/mol
# Density = 1.774355 g / cm^3
# Si number density = 17.784032 Si / 1000 Ang^3
#
#
#
# Elastic Constant Matrix: (Units=GPa)
#
#
# Indices 1 2 3 4 5 6 
#
# 1 82.4889 44.2404 56.9037 0.0000 0.0000 0.0000
# 2 44.2404 72.5038 46.2834 0.0000 0.0000 0.0000
# 3 56.9037 46.2834 108.5564 0.0000 0.0000 0.0000
# 4 0.0000 0.0000 0.0000 25.0083 0.0000 0.0000
# 5 0.0000 0.0000 0.0000 0.0000 19.5450 0.0000
# 6 0.0000 0.0000 0.0000 0.0000 0.0000 26.3457
#
#
#
# Elastic Compliance Matrix: (Units=1/GPa)
#
#
# Indices 1 2 3 4 5 6 
#
# 1 0.022175 -0.008395 -0.008044 0.000000 0.000000 0.000000
# 2 -0.008395 0.022129 -0.005034 0.000000 0.000000 0.000000
# 3 -0.008044 -0.005034 0.015575 0.000000 0.000000 0.000000
# 4 0.000000 0.000000 0.000000 0.039987 0.000000 0.000000
# 5 0.000000 0.000000 0.000000 0.000000 0.051164 0.000000
# 6 0.000000 0.000000 0.000000 0.000000 0.000000 0.037957
#
#
# Mechanical properties :
#
#
# Convention : Reuss Voigt Hill
#
# Bulk Modulus (GPa) = 59.06365 62.04490 60.55428
# Shear Modulus (GPa) = 21.04590 21.92123 21.48357
#
# Velocity S-wave (km/s) = 3.44381 3.51470 3.47944
# Velocity P-wave (km/s) = 7.00691 7.17179 7.08983
#
# Compressibility (1/GPa) = 0.01693089
#
# Stress axis : x y z
#
# Youngs Moduli (GPa) = 45.09651 45.19058 64.20702
#
# Poissons Ratio (x) = 0.37940 0.51649
# Poissons Ratio (y) = 0.37861 0.32320
# Poissons Ratio (z) = 0.36277 0.22748
#
# Static dielectric constant tensor:
#      x y z
#    x 3.071530 0.000000 0.000000 
#    y 0.000000 3.170030 0.000000 
#    z 0.000000 0.000000 3.513800 
# 
# 
# High freq. dielectric constant tensor:
#      x y z
#    x 1.657200 0.000000 0.000000 
#    y 0.000000 1.676010 0.000000 
#    z 0.000000 0.000000 1.691620 
# 
# From -- ./inp_files/33946.got.cif
#   From: 2010.03.12/outbox.cif.g09.slc.cpg/sg51_17_cif.got.tgz:33946.got - 2010.04.16 13:43:02.
