data_PCOD8207819
_publ_section_title
;
Structure prediction by ZEFSAII (Michael W. Deem and Ramdas Pophale) SiO2 
 PCOD8207819
Probable space group: P M M A
;
_chemical_formula_sum "Si O2"
_cell_formula_units_Z 64
_cell_length_a 8.943136
_cell_length_b 30.911417
_cell_length_c 14.413975
_cell_angle_alpha 90.000000
_cell_angle_beta 90.000000
_cell_angle_gamma 90.000000
_cell_volume 3984.671408
_symmetry_space_group_name_H-M "P M M A"
_symmetry_group_IT_number 51
_symmetry_cell_setting 'orthorhombic'
loop_
_space_group_symop_operation_xyz
x,y,z
1/2-x,-y,z
1/2+x,-y,-z
-x,y,-z
-x,-y,-z
1/2+x,y,-z
1/2-x,y,z
x,-y,z
loop_
_atom_site_type_symbol
_atom_site_label
_atom_site_fract_x
_atom_site_fract_y
_atom_site_fract_z
Si Si1 0.574852 0.953056 0.599686
Si Si2 0.576369 0.291795 0.597221
Si Si3 0.926096 0.548587 0.596157
Si Si4 0.575340 0.239272 0.908132
Si Si5 0.573280 0.337987 0.906967
Si Si6 0.576883 0.205937 0.711176
Si Si7 0.072783 0.131114 0.601077
Si Si8 0.927559 0.628119 0.714007
O O1 0.500000 0.956141 0.500000
O O2 0.750000 0.942600 0.589678
O O3 0.492022 0.912867 0.649861
O O4 0.551732 0.000000 0.650153
O O5 0.500000 0.282945 0.500000
O O6 0.750000 0.298052 0.577781
O O7 0.545102 0.251611 0.663726
O O8 0.508707 0.334482 0.646471
O O9 0.750000 0.551667 0.581784
O O10 0.975328 0.500000 0.624539
O O11 0.980270 0.581328 0.676510
O O12 0.000000 0.562826 0.500000
O O13 0.750000 0.238992 0.924908
O O14 0.520845 0.288497 0.892065
O O15 0.533249 0.210282 0.819320
O O16 0.500000 0.219159 0.000000
O O17 0.750000 0.341543 0.916554
O O18 0.513173 0.365412 0.818847
O O19 0.500000 0.357478 0.000000
O O20 0.750000 0.192393 0.698534
O O21 0.469225 0.170476 0.667262
O O22 0.250000 0.128195 0.590559
O O23 0.000000 0.138195 0.500000
O O24 0.750000 0.632457 0.715477
#
# Coordination Sequence:
#
# PCOD8207819 Si02
#       8
#     8   8   8   8   8   8   8   8
#     4   9  16  27  44  64  86 115 153 195 234 270
#     4  10  19  30  43  60  84 116 149 180 215 257
#     4   9  17  29  46  67  89 115 146 180 219 264
#     4   9  17  30  48  66  85 112 145 185 229 269
#     4   9  16  29  47  66  86 111 142 180 223 265
#     4  10  19  32  46  61  87 120 151 182 223 270
#     4  11  21  31  44  63  90 125 160 192 227 268
#     4   9  16  29  47  64  86 115 146 178 218 268
#
# _framework density 16.061551000000001
#
# number of rings (size 3 to 8) (size 9 to 14) (size 15 to 20)
#    0.000    2.500    1.250    3.000    0.000    2.750 
#    0.000    1.250    0.000    0.375    0.000    0.000 
#    0.000    0.500    0.000    1.625    0.000    2.250 
#
# Total GULP energy -793288.977388 kJ/mol
# GULP energy per Si atom -12395.140272 kJ/mol
# Density = 1.602499 g / cm^3
# Si number density = 16.061551 Si / 1000 Ang^3
#
#
#
# Elastic Constant Matrix: (Units=GPa)
#
#
# Indices 1 2 3 4 5 6 
#
# 1 57.5485 39.9318 38.5122 0.0000 0.0000 0.0000
# 2 39.9318 91.0886 43.8196 0.0000 0.0000 0.0000
# 3 38.5122 43.8196 104.5338 0.0000 0.0000 0.0000
# 4 0.0000 0.0000 0.0000 95.4812 0.0000 0.0000
# 5 0.0000 0.0000 0.0000 0.0000 23.4937 0.0000
# 6 0.0000 0.0000 0.0000 0.0000 0.0000 17.5047
#
#
#
# Elastic Compliance Matrix: (Units=1/GPa)
#
#
# Indices 1 2 3 4 5 6 
#
# 1 0.028107 -0.009194 -0.006501 0.000000 0.000000 0.000000
# 2 -0.009194 0.016759 -0.003638 0.000000 0.000000 0.000000
# 3 -0.006501 -0.003638 0.013486 0.000000 0.000000 0.000000
# 4 0.000000 0.000000 0.000000 0.010473 0.000000 0.000000
# 5 0.000000 0.000000 0.000000 0.000000 0.042565 0.000000
# 6 0.000000 0.000000 0.000000 0.000000 0.000000 0.057127
#
#
# Mechanical properties :
#
#
# Convention : Reuss Voigt Hill
#
# Bulk Modulus (GPa) = 50.79741 55.29978 53.04859
# Shear Modulus (GPa) = 23.39228 36.02306 29.70767
#
# Velocity S-wave (km/s) = 3.82044 4.74097 4.30538
# Velocity P-wave (km/s) = 7.15237 8.02956 7.60362
#
# Compressibility (1/GPa) = 0.01968604
#
# Stress axis : x y z
#
# Youngs Moduli (GPa) = 35.57844 59.66942 74.14912
#
# Poissons Ratio (x) = 0.54862 0.48204
# Poissons Ratio (y) = 0.32712 0.26975
# Poissons Ratio (z) = 0.23129 0.21707
#
# Static dielectric constant tensor:
#      x y z
#    x 2.846970 0.000000 0.000000 
#    y 0.000000 3.386600 0.000000 
#    z 0.000000 0.000000 3.014430 
# 
# 
# High freq. dielectric constant tensor:
#      x y z
#    x 1.607920 0.000000 0.000000 
#    y 0.000000 1.611050 0.000000 
#    z 0.000000 0.000000 1.596010 
# 
# From -- ./inp_files/22573.got.cif
#   From: 2010.03.12/outbox.cif.g09.slc.cpg/sg51_12_cif.got.tgz:22573.got - 2010.04.16 13:43:02.
