data_PCOD8207991
_publ_section_title
;
Structure prediction by ZEFSAII (Michael W. Deem and Ramdas Pophale) SiO2 
 PCOD8207991
Probable space group: P M M A
;
_chemical_formula_sum "Si O2"
_cell_formula_units_Z 64
_cell_length_a 18.109216
_cell_length_b 9.251186
_cell_length_c 20.878291
_cell_angle_alpha 90.000000
_cell_angle_beta 90.000000
_cell_angle_gamma 90.000000
_cell_volume 3497.776117
_symmetry_space_group_name_H-M "P M M A"
_symmetry_group_IT_number 51
_symmetry_cell_setting 'orthorhombic'
loop_
_space_group_symop_operation_xyz
x,y,z
1/2-x,-y,z
1/2+x,-y,-z
-x,y,-z
-x,-y,-z
1/2+x,y,-z
1/2-x,y,z
x,-y,z
loop_
_atom_site_type_symbol
_atom_site_label
_atom_site_fract_x
_atom_site_fract_y
_atom_site_fract_z
Si Si1 0.165042 0.166121 0.367615
Si Si2 0.835591 0.669994 0.389498
Si Si3 0.415117 0.830462 0.496795
Si Si4 0.077366 0.671882 0.734661
Si Si5 0.332794 0.327355 0.129260
Si Si6 0.410967 0.328439 0.255925
Si Si7 0.833164 0.673240 0.145027
Si Si8 0.162232 0.341478 0.992286
O O1 0.250000 0.192811 0.385807
O O2 0.115468 0.214045 0.427548
O O3 0.144509 0.262891 0.307271
O O4 0.150168 0.000000 0.349814
O O5 0.750000 0.709444 0.381317
O O6 0.847472 0.500000 0.398070
O O7 0.867568 0.747477 0.451190
O O8 0.878383 0.728823 0.327011
O O9 0.500000 0.781171 0.500000
O O10 0.406147 0.000000 0.509758
O O11 0.080313 0.500000 0.737142
O O12 0.114325 0.734890 0.799244
O O13 0.993543 0.727941 0.730747
O O14 0.250000 0.272191 0.144897
O O15 0.332448 0.500000 0.124258
O O16 0.387036 0.274331 0.185331
O O17 0.360419 0.263689 0.059703
O O18 0.405435 0.500000 0.261038
O O19 0.750000 0.724959 0.160302
O O20 0.835434 0.500000 0.142254
O O21 0.860244 0.735805 0.075168
O O22 0.250000 0.357423 0.992366
O O23 0.125386 0.500000 0.992057
#
# Coordination Sequence:
#
# PCOD8207991 Si02
#       8
#     8   8   8   8   8   8   8   8
#     4  10  21  36  52  70  93 120 151 188 224 261
#     4  10  20  33  50  72  97 126 159 195 234 274
#     4  10  21  37  56  76  98 124 152 186 233 284
#     4   9  17  28  41  62  93 123 153 192 233 272
#     4   8  13  22  36  56  84 116 150 188 228 270
#     4  10  19  30  46  68  94 124 154 187 232 279
#     4   8  12  20  36  56  82 121 160 187 221 274
#     4   7  10  17  31  52  79 114 153 187 221 266
#
# _framework density 18.297342
#
# number of rings (size 3 to 8) (size 9 to 14) (size 15 to 20)
#    0.000    3.000    0.000    3.375    0.000    3.750 
#    0.000    0.625    0.000    3.750    0.000    0.000 
#    0.000    3.000    0.000    8.000    0.000    6.250 
#
# Total GULP energy -793113.174758 kJ/mol
# GULP energy per Si atom -12392.393356 kJ/mol
# Density = 1.825570 g / cm^3
# Si number density = 18.297342 Si / 1000 Ang^3
#
#
#
# Elastic Constant Matrix: (Units=GPa)
#
#
# Indices 1 2 3 4 5 6 
#
# 1 73.0836 16.6100 35.7872 0.0000 0.0000 0.0000
# 2 16.6100 15.3294 24.7314 0.0000 0.0000 0.0000
# 3 35.7872 24.7314 133.6811 0.0000 0.0000 0.0000
# 4 0.0000 0.0000 0.0000 1.9899 0.0000 0.0000
# 5 0.0000 0.0000 0.0000 0.0000 23.3492 0.0000
# 6 0.0000 0.0000 0.0000 0.0000 0.0000 14.0669
#
#
#
# Elastic Compliance Matrix: (Units=1/GPa)
#
#
# Indices 1 2 3 4 5 6 
#
# 1 0.018442 -0.017130 -0.001768 0.000000 0.000000 0.000000
# 2 -0.017130 0.108901 -0.015561 0.000000 0.000000 0.000000
# 3 -0.001768 -0.015561 0.010833 0.000000 0.000000 0.000000
# 4 0.000000 0.000000 0.000000 0.502527 0.000000 0.000000
# 5 0.000000 0.000000 0.000000 0.000000 0.042828 0.000000
# 6 0.000000 0.000000 0.000000 0.000000 0.000000 0.071089
#
#
# Mechanical properties :
#
#
# Convention : Reuss Voigt Hill
#
# Bulk Modulus (GPa) = 14.43904 41.81682 28.12793
# Shear Modulus (GPa) = 5.90581 17.54556 11.72569
#
# Velocity S-wave (km/s) = 1.79853 3.09999 2.53423
# Velocity P-wave (km/s) = 3.49591 5.97636 4.89583
#
# Compressibility (1/GPa) = 0.06925667
#
# Stress axis : x y z
#
# Youngs Moduli (GPa) = 54.22425 9.18266 92.31395
#
# Poissons Ratio (x) = 0.15730 0.16319
# Poissons Ratio (y) = 0.92889 1.43651
# Poissons Ratio (z) = 0.09586 0.14289
#
# Static dielectric constant tensor:
#      x y z
#    x 3.407450 0.000000 0.000000 
#    y 0.000000 2.750430 0.000000 
#    z 0.000000 0.000000 3.813660 
# 
# 
# High freq. dielectric constant tensor:
#      x y z
#    x 1.703330 0.000000 0.000000 
#    y 0.000000 1.637280 0.000000 
#    z 0.000000 0.000000 1.735510 
# 
# From -- ./inp_files/33764.got.cif
#   From: 2010.03.12/outbox.cif.g09.slc.cpg/sg51_17_cif.got.tgz:33764.got - 2010.04.16 13:43:02.
