data_PCOD8207524
_publ_section_title
;
Structure prediction by ZEFSAII (Michael W. Deem and Ramdas Pophale) SiO2 
 PCOD8207524
Probable space group: P M M A
;
_chemical_formula_sum "Si O2"
_cell_formula_units_Z 56
_cell_length_a 14.628896
_cell_length_b 8.807791
_cell_length_c 22.350755
_cell_angle_alpha 90.000000
_cell_angle_beta 90.000000
_cell_angle_gamma 90.000000
_cell_volume 2879.855859
_symmetry_space_group_name_H-M "P M M A"
_symmetry_group_IT_number 51
_symmetry_cell_setting 'orthorhombic'
loop_
_space_group_symop_operation_xyz
x,y,z
1/2-x,-y,z
1/2+x,-y,-z
-x,y,-z
-x,-y,-z
1/2+x,y,-z
1/2-x,y,z
x,-y,z
loop_
_atom_site_type_symbol
_atom_site_label
_atom_site_fract_x
_atom_site_fract_y
_atom_site_fract_z
Si Si1 0.647043 0.678688 0.892969
Si Si2 0.641574 0.832202 0.011359
Si Si3 0.944925 0.179628 0.443565
Si Si4 0.644332 0.821133 0.143539
Si Si5 0.986177 0.320815 0.788569
Si Si6 0.250000 0.820253 0.515860
Si Si7 0.068033 0.180042 0.335413
Si Si8 0.250000 0.319896 0.385177
O O1 0.750000 0.743296 0.884120
O O2 0.648602 0.500000 0.893576
O O3 0.604455 0.730941 0.956650
O O4 0.585103 0.737644 0.838679
O O5 0.750000 0.837566 0.010504
O O6 0.601168 0.000000 0.001900
O O7 0.612700 0.769677 0.076682
O O8 0.839105 0.231921 0.446731
O O9 0.000000 0.249102 0.500000
O O10 0.991114 0.237003 0.382481
O O11 0.950384 0.000000 0.446711
O O12 0.750000 0.782505 0.154768
O O13 0.587831 0.722736 0.190848
O O14 0.626532 0.000000 0.152206
O O15 0.978634 0.500000 0.776971
O O16 0.965089 0.228583 0.729287
O O17 0.250000 0.740691 0.452162
O O18 0.250000 0.000000 0.503960
O O19 0.162596 0.261148 0.349597
O O20 0.081930 0.000000 0.338808
O O21 0.250000 0.500000 0.385441
#
# Coordination Sequence:
#
# PCOD8207524 Si02
#       8
#     8   8   8   8   8   4   8   4
#     4   9  19  35  53  76 111 152 186 225 287 358
#     4   8  15  30  54  82 108 137 182 242 295 338
#     4   9  17  33  61  92 119 147 190 243 284 331
#     4   9  19  38  61  82 108 146 193 244 295 348
#     4  11  24  39  56  82 116 155 195 240 293 348
#     4  10  18  36  64  92 120 154 193 236 289 346
#     4  11  23  41  62  87 117 157 202 241 284 344
#     4  12  24  38  60  92 124 156 189 232 291 346
#
# _framework density 19.445416999999999
#
# number of rings (size 3 to 8) (size 9 to 14) (size 15 to 20)
#    0.000    2.286    1.429    2.357    1.000    2.571 
#    1.286    6.429    0.000    0.000    0.000    0.000 
#    0.000    0.000    0.000    0.000    0.000    0.000 
#
# Total GULP energy -694299.689317 kJ/mol
# GULP energy per Si atom -12398.208738 kJ/mol
# Density = 1.940116 g / cm^3
# Si number density = 19.445417 Si / 1000 Ang^3
#
#
#
# Elastic Constant Matrix: (Units=GPa)
#
#
# Indices 1 2 3 4 5 6 
#
# 1 126.0397 27.5503 65.6111 0.0000 0.0000 0.0000
# 2 27.5503 42.1270 27.4611 0.0000 0.0000 0.0000
# 3 65.6111 27.4611 135.4851 0.0000 0.0000 0.0000
# 4 0.0000 0.0000 0.0000 7.0694 0.0000 0.0000
# 5 0.0000 0.0000 0.0000 0.0000 4.4622 0.0000
# 6 0.0000 0.0000 0.0000 0.0000 0.0000 18.1703
#
#
#
# Elastic Compliance Matrix: (Units=1/GPa)
#
#
# Indices 1 2 3 4 5 6 
#
# 1 0.011273 -0.004394 -0.004568 0.000000 0.000000 0.000000
# 2 -0.004394 0.029064 -0.003763 0.000000 0.000000 0.000000
# 3 -0.004568 -0.003763 0.010356 0.000000 0.000000 0.000000
# 4 0.000000 0.000000 0.000000 0.141454 0.000000 0.000000
# 5 0.000000 0.000000 0.000000 0.000000 0.224106 0.000000
# 6 0.000000 0.000000 0.000000 0.000000 0.000000 0.055035
#
#
# Mechanical properties :
#
#
# Convention : Reuss Voigt Hill
#
# Bulk Modulus (GPa) = 39.61664 60.54406 50.08035
# Shear Modulus (GPa) = 9.89798 18.14233 14.02016
#
# Velocity S-wave (km/s) = 2.25858 3.05780 2.68806
# Velocity P-wave (km/s) = 5.21719 6.60831 5.95352
#
# Compressibility (1/GPa) = 0.02524192
#
# Stress axis : x y z
#
# Youngs Moduli (GPa) = 88.71088 34.40629 96.56334
#
# Poissons Ratio (x) = 0.15119 0.44113
# Poissons Ratio (y) = 0.38981 0.36337
# Poissons Ratio (z) = 0.40526 0.12947
#
# Static dielectric constant tensor:
#      x y z
#    x 3.922500 0.000000 0.000000 
#    y 0.000000 3.354880 0.000000 
#    z 0.000000 0.000000 3.677820 
# 
# 
# High freq. dielectric constant tensor:
#      x y z
#    x 1.764470 0.000000 0.000000 
#    y 0.000000 1.734570 0.000000 
#    z 0.000000 0.000000 1.758180 
# 
# From -- ./inp_files/33588.got.cif
#   From: 2010.03.12/outbox.cif.g09.slc.cpg/sg51_17_cif.got.tgz:33588.got - 2010.04.16 13:43:02.
