data_PCOD8207328
_publ_section_title
;
Structure prediction by ZEFSAII (Michael W. Deem and Ramdas Pophale) SiO2 
 PCOD8207328
Probable space group: P M M A
;
_chemical_formula_sum "Si O2"
_cell_formula_units_Z 56
_cell_length_a 8.842788
_cell_length_b 15.451737
_cell_length_c 20.420290
_cell_angle_alpha 90.000000
_cell_angle_beta 90.000000
_cell_angle_gamma 90.000000
_cell_volume 2790.155618
_symmetry_space_group_name_H-M "P M M A"
_symmetry_group_IT_number 51
_symmetry_cell_setting 'orthorhombic'
loop_
_space_group_symop_operation_xyz
x,y,z
1/2-x,-y,z
1/2+x,-y,-z
-x,y,-z
-x,-y,-z
1/2+x,y,-z
1/2-x,y,z
x,-y,z
loop_
_atom_site_type_symbol
_atom_site_label
_atom_site_fract_x
_atom_site_fract_y
_atom_site_fract_z
Si Si1 0.579476 0.347612 0.260236
Si Si2 0.928967 0.766958 0.932295
Si Si3 0.923361 0.591512 0.399604
Si Si4 0.924768 0.596747 0.116954
Si Si5 0.574392 0.180458 0.697144
Si Si6 0.070750 0.904652 0.172724
Si Si7 0.429702 0.221465 0.565990
O O1 0.750000 0.308097 0.259688
O O2 0.562245 0.411978 0.321146
O O3 0.545124 0.399832 0.194538
O O4 0.458230 0.271733 0.268365
O O5 0.750000 0.772367 0.937071
O O6 0.994918 0.830566 0.875615
O O7 0.974984 0.667646 0.919694
O O8 0.000000 0.799656 0.000000
O O9 0.750000 0.592876 0.421301
O O10 0.997158 0.500000 0.425145
O O11 0.996459 0.679813 0.427929
O O12 0.750000 0.615716 0.100765
O O13 0.970158 0.500000 0.093281
O O14 0.750000 0.173296 0.679521
O O15 0.523743 0.110109 0.751391
O O16 0.481909 0.167313 0.629595
O O17 0.250000 0.900292 0.167623
O O18 0.011245 0.000000 0.151841
O O19 0.500000 0.180468 0.500000
O O20 0.250000 0.218801 0.562890
#
# Coordination Sequence:
#
# PCOD8207328 Si02
#       7
#     8   8   8   8   8   8   8
#     4   9  16  28  49  75 106 141 181 228 277 329
#     4  11  23  40  60  84 116 154 191 235 285 339
#     4   8  14  25  42  66  97 134 176 222 271 320
#     4  10  20  34  55  82 113 152 196 240 286 335
#     4  10  18  32  56  82 109 142 180 225 277 334
#     4   9  19  37  62  90 117 146 182 226 284 350
#     4  10  20  33  50  74 105 145 187 231 278 334
#
# _framework density 20.070564999999998
#
# number of rings (size 3 to 8) (size 9 to 14) (size 15 to 20)
#    0.000    2.429    1.429    2.571    0.000    2.857 
#    0.000    0.000    0.000   20.571    0.000    0.000 
#    0.000    0.000    0.000    0.000    0.000    0.000 
#
# Total GULP energy -693962.197458 kJ/mol
# GULP energy per Si atom -12392.182097 kJ/mol
# Density = 2.002488 g / cm^3
# Si number density = 20.070565 Si / 1000 Ang^3
#
#
#
# Elastic Constant Matrix: (Units=GPa)
#
#
# Indices 1 2 3 4 5 6 
#
# 1 57.7145 21.7999 41.4252 0.0000 0.0000 0.0000
# 2 21.7999 95.5527 45.2992 0.0000 0.0000 0.0000
# 3 41.4252 45.2992 129.1806 0.0000 0.0000 0.0000
# 4 0.0000 0.0000 0.0000 8.9314 0.0000 0.0000
# 5 0.0000 0.0000 0.0000 0.0000 29.5352 0.0000
# 6 0.0000 0.0000 0.0000 0.0000 0.0000 15.0556
#
#
#
# Elastic Compliance Matrix: (Units=1/GPa)
#
#
# Indices 1 2 3 4 5 6 
#
# 1 0.022849 -0.002086 -0.006596 0.000000 0.000000 0.000000
# 2 -0.002086 0.012743 -0.003799 0.000000 0.000000 0.000000
# 3 -0.006596 -0.003799 0.011188 0.000000 0.000000 0.000000
# 4 0.000000 0.000000 0.000000 0.111964 0.000000 0.000000
# 5 0.000000 0.000000 0.000000 0.000000 0.033858 0.000000
# 6 0.000000 0.000000 0.000000 0.000000 0.000000 0.066420
#
#
# Mechanical properties :
#
#
# Convention : Reuss Voigt Hill
#
# Bulk Modulus (GPa) = 45.83443 55.49961 50.66702
# Shear Modulus (GPa) = 17.16701 22.29935 19.73318
#
# Velocity S-wave (km/s) = 2.92778 3.33685 3.13899
# Velocity P-wave (km/s) = 5.85794 6.52368 6.19975
#
# Compressibility (1/GPa) = 0.02181766
#
# Stress axis : x y z
#
# Youngs Moduli (GPa) = 43.76636 78.47714 89.37773
#
# Poissons Ratio (x) = 0.16371 0.58949
# Poissons Ratio (y) = 0.09130 0.33959
# Poissons Ratio (z) = 0.28866 0.29817
#
# Static dielectric constant tensor:
#      x y z
#    x 3.319570 0.000000 0.000000 
#    y 0.000000 3.618730 0.000000 
#    z 0.000000 0.000000 3.786980 
# 
# 
# High freq. dielectric constant tensor:
#      x y z
#    x 1.751950 0.000000 0.000000 
#    y 0.000000 1.761200 0.000000 
#    z 0.000000 0.000000 1.790810 
# 
# From -- ./inp_files/31925.got.cif
#   From: 2010.03.12/outbox.cif.g09.slc.cpg/sg51_16_cif.got.tgz:31925.got - 2010.04.16 13:43:02.
