data_PCOD8207368
_publ_section_title
;
Structure prediction by ZEFSAII (Michael W. Deem and Ramdas Pophale) SiO2 
 PCOD8207368
Probable space group: P M M A
;
_chemical_formula_sum "Si O2"
_cell_formula_units_Z 40
_cell_length_a 23.222608
_cell_length_b 8.348721
_cell_length_c 10.374185
_cell_angle_alpha 90.000000
_cell_angle_beta 90.000000
_cell_angle_gamma 90.000000
_cell_volume 2011.337393
_symmetry_space_group_name_H-M "P M M A"
_symmetry_group_IT_number 51
_symmetry_cell_setting 'orthorhombic'
loop_
_space_group_symop_operation_xyz
x,y,z
1/2-x,-y,z
1/2+x,-y,-z
-x,y,-z
-x,-y,-z
1/2+x,y,-z
1/2-x,y,z
x,-y,z
loop_
_atom_site_type_symbol
_atom_site_label
_atom_site_fract_x
_atom_site_fract_y
_atom_site_fract_z
Si Si1 0.250000 0.187359 0.397824
Si Si2 0.250000 0.314986 0.114741
Si Si3 0.555563 0.809548 0.747672
Si Si4 0.133205 0.809681 0.015743
Si Si5 0.426203 0.809321 0.754532
Si Si6 0.129027 0.808706 0.492056
O O1 0.250000 0.213715 0.245348
O O2 0.307191 0.261384 0.463502
O O3 0.250000 0.000000 0.422675
O O4 0.250000 0.500000 0.151976
O O5 0.305105 0.272059 0.029269
O O6 0.591322 0.749079 0.870794
O O7 0.491007 0.739717 0.754594
O O8 0.585840 0.745012 0.618170
O O9 0.553561 0.000000 0.747375
O O10 0.140713 0.000000 0.019430
O O11 0.106574 0.749366 0.881403
O O12 0.392455 0.743364 0.629574
O O13 0.428533 0.000000 0.751501
O O14 0.129989 0.000000 0.489552
#
# Coordination Sequence:
#
# PCOD8207368 Si02
#       6
#     4   4   8   8   8   8
#     4  10  18  33  54  76 100 132 174 214 255 299
#     4  12  24  37  54  74  98 132 176 218 259 309
#     4   9  15  26  47  76 111 142 166 201 251 301
#     4  10  19  33  54  79 105 135 170 211 253 299
#     4   9  17  27  45  80 115 137 163 205 256 304
#     4   9  16  26  46  76 110 138 165 206 253 297
#
# _framework density 19.887266
#
# number of rings (size 3 to 8) (size 9 to 14) (size 15 to 20)
#    0.000    2.400    2.000    2.100    0.000    5.600 
#    0.000    3.000    0.000    4.800    0.000    1.400 
#    0.000    0.000    0.000    0.000    0.000    0.000 
#
# Total GULP energy -495995.052513 kJ/mol
# GULP energy per Si atom -12399.876313 kJ/mol
# Density = 1.984200 g / cm^3
# Si number density = 19.887266 Si / 1000 Ang^3
#
#
#
# Elastic Constant Matrix: (Units=GPa)
#
#
# Indices 1 2 3 4 5 6 
#
# 1 211.3868 8.0272 104.1910 0.0000 0.0000 0.0000
# 2 8.0272 9.1571 2.3217 0.0000 0.0000 0.0000
# 3 104.1910 2.3217 192.4424 0.0000 0.0000 0.0000
# 4 0.0000 0.0000 0.0000 1.6867 0.0000 0.0000
# 5 0.0000 0.0000 0.0000 0.0000 33.8529 0.0000
# 6 0.0000 0.0000 0.0000 0.0000 0.0000 0.0055
#
#
#
# Elastic Compliance Matrix: (Units=1/GPa)
#
#
# Indices 1 2 3 4 5 6 
#
# 1 0.006669 -0.004946 -0.003551 0.000000 0.000000 0.000000
# 2 -0.004946 0.113208 0.001312 0.000000 0.000000 0.000000
# 3 -0.003551 0.001312 0.007103 0.000000 0.000000 0.000000
# 4 0.000000 0.000000 0.000000 0.592873 0.000000 0.000000
# 5 0.000000 0.000000 0.000000 0.000000 0.029540 0.000000
# 6 0.000000 0.000000 0.000000 0.000000 0.000000181.584743
#
#
# Mechanical properties :
#
#
# Convention : Reuss Voigt Hill
#
# Bulk Modulus (GPa) = 8.88019 71.34066 40.11043
# Shear Modulus (GPa) = 0.02741 27.00545 13.51643
#
# Velocity S-wave (km/s) = 0.11754 3.68900 2.60984
# Velocity P-wave (km/s) = 2.11976 7.35496 5.41243
#
# Compressibility (1/GPa) = 0.11261020
#
# Stress axis : x y z
#
# Youngs Moduli (GPa) = 149.95549 8.83333 140.78549
#
# Poissons Ratio (x) = 0.04369 0.49991
# Poissons Ratio (y) = 0.74161 -0.18468
# Poissons Ratio (z) = 0.53247 -0.01159
#
# Static dielectric constant tensor:
#      x y z
#    x 3.983320 0.000000 0.000000 
#    y 0.000000 2.823050 0.000000 
#    z 0.000000 0.000000 3.763160 
# 
# 
# High freq. dielectric constant tensor:
#      x y z
#    x 1.795430 0.000000 0.000000 
#    y 0.000000 1.701830 0.000000 
#    z 0.000000 0.000000 1.783360 
# 
# From -- ./inp_files/12161.got.cif
#   From: 2010.03.12/outbox.cif.g09.slc.cpg/sg51_7_cif.got.tgz:12161.got - 2010.04.16 13:43:02.
