data_PCOD8207701
_publ_section_title
;
Structure prediction by ZEFSAII (Michael W. Deem and Ramdas Pophale) SiO2 
 PCOD8207701
Probable space group: P M M A
;
_chemical_formula_sum "Si O2"
_cell_formula_units_Z 56
_cell_length_a 8.998928
_cell_length_b 20.981082
_cell_length_c 18.222698
_cell_angle_alpha 90.000000
_cell_angle_beta 90.000000
_cell_angle_gamma 90.000000
_cell_volume 3440.577429
_symmetry_space_group_name_H-M "P M M A"
_symmetry_group_IT_number 51
_symmetry_cell_setting 'orthorhombic'
loop_
_space_group_symop_operation_xyz
x,y,z
1/2-x,-y,z
1/2+x,-y,-z
-x,y,-z
-x,-y,-z
1/2+x,y,-z
1/2-x,y,z
x,-y,z
loop_
_atom_site_type_symbol
_atom_site_label
_atom_site_fract_x
_atom_site_fract_y
_atom_site_fract_z
Si Si1 0.419825 0.827882 0.327888
Si Si2 0.913977 0.760434 0.209416
Si Si3 0.420660 0.426736 0.172719
Si Si4 0.922009 0.298221 0.577396
Si Si5 0.583367 0.367898 0.301658
Si Si6 0.426333 0.677609 0.922664
Si Si7 0.422843 0.926210 0.574838
O O1 0.250000 0.849105 0.323725
O O2 0.473276 0.810930 0.245359
O O3 0.444198 0.768160 0.380873
O O4 0.514547 0.887113 0.356781
O O5 0.750000 0.791558 0.207121
O O6 0.908999 0.697288 0.257590
O O7 0.965019 0.738931 0.128174
O O8 0.250000 0.403585 0.176937
O O9 0.431338 0.500000 0.148933
O O10 0.494055 0.418930 0.252996
O O11 0.506258 0.386793 0.111021
O O12 0.750000 0.314782 0.566633
O O13 0.000000 0.291038 0.500000
O O14 0.997857 0.356062 0.621964
O O15 0.750000 0.393261 0.317684
O O16 0.250000 0.668093 0.929770
O O17 0.500000 0.692259 0.000000
O O18 0.500000 0.903211 0.500000
O O19 0.250000 0.912072 0.565947
O O20 0.456598 0.000000 0.590304
#
# Coordination Sequence:
#
# PCOD8207701 Si02
#       7
#     8   8   8   8   8   8   8
#     4  10  19  29  45  67  90 119 153 190 227 265
#     4   8  16  30  46  65  89 117 148 182 221 265
#     4  10  20  33  49  68  90 118 151 184 218 262
#     4  10  19  29  43  65  90 115 146 185 230 275
#     4   9  17  30  47  65  86 113 145 183 226 269
#     4  10  20  33  50  71  96 124 150 181 222 266
#     4  10  20  32  45  62  89 126 163 198 234 270
#
# _framework density 16.276337999999999
#
# number of rings (size 3 to 8) (size 9 to 14) (size 15 to 20)
#    0.000    2.429    0.000    3.857    0.000    9.143 
#    0.000    0.000    0.000    0.429    0.000    0.000 
#    0.000    0.571    0.000    1.857    0.000    2.286 
#
# Total GULP energy -694393.432500 kJ/mol
# GULP energy per Si atom -12399.882723 kJ/mol
# Density = 1.623929 g / cm^3
# Si number density = 16.276338 Si / 1000 Ang^3
#
#
#
# Elastic Constant Matrix: (Units=GPa)
#
#
# Indices 1 2 3 4 5 6 
#
# 1 127.7937 41.4724 67.7801 0.0000 0.0000 0.0000
# 2 41.4724 49.6653 38.9614 0.0000 0.0000 0.0000
# 3 67.7801 38.9614 98.6033 0.0000 0.0000 0.0000
# 4 0.0000 0.0000 0.0000 19.2806 0.0000 0.0000
# 5 0.0000 0.0000 0.0000 0.0000 31.6107 0.0000
# 6 0.0000 0.0000 0.0000 0.0000 0.0000 23.7471
#
#
#
# Elastic Compliance Matrix: (Units=1/GPa)
#
#
# Indices 1 2 3 4 5 6 
#
# 1 0.013350 -0.005723 -0.006916 0.000000 0.000000 0.000000
# 2 -0.005723 0.031633 -0.008565 0.000000 0.000000 0.000000
# 3 -0.006916 -0.008565 0.018280 0.000000 0.000000 0.000000
# 4 0.000000 0.000000 0.000000 0.051866 0.000000 0.000000
# 5 0.000000 0.000000 0.000000 0.000000 0.031635 0.000000
# 6 0.000000 0.000000 0.000000 0.000000 0.000000 0.042110
#
#
# Mechanical properties :
#
#
# Convention : Reuss Voigt Hill
#
# Bulk Modulus (GPa) = 47.94917 63.61002 55.77960
# Shear Modulus (GPa) = 20.98781 23.45091 22.21936
#
# Velocity S-wave (km/s) = 3.59481 3.79990 3.69878
# Velocity P-wave (km/s) = 6.83766 7.64320 7.25162
#
# Compressibility (1/GPa) = 0.02085542
#
# Stress axis : x y z
#
# Youngs Moduli (GPa) = 74.90436 31.61277 54.70455
#
# Poissons Ratio (x) = 0.18091 0.37833
# Poissons Ratio (y) = 0.42866 0.46856
# Poissons Ratio (z) = 0.51802 0.27077
#
# Static dielectric constant tensor:
#      x y z
#    x 3.341110 0.000000 0.000000 
#    y 0.000000 2.811550 0.000000 
#    z 0.000000 0.000000 3.129290 
# 
# 
# High freq. dielectric constant tensor:
#      x y z
#    x 1.647520 0.000000 0.000000 
#    y 0.000000 1.588000 0.000000 
#    z 0.000000 0.000000 1.614550 
# 
# From -- ./inp_files/28215.got.cif
#   From: 2010.03.12/outbox.cif.g09.slc.cpg/sg51_15_cif.got.tgz:28215.got - 2010.04.16 13:43:02.
