data_PCOD8207173
_publ_section_title
;
Structure prediction by ZEFSAII (Michael W. Deem and Ramdas Pophale) SiO2 
 PCOD8207173
Probable space group: P M M A
;
_chemical_formula_sum "Si O2"
_cell_formula_units_Z 40
_cell_length_a 9.063796
_cell_length_b 11.792969
_cell_length_c 20.561179
_cell_angle_alpha 90.000000
_cell_angle_beta 90.000000
_cell_angle_gamma 90.000000
_cell_volume 2197.765204
_symmetry_space_group_name_H-M "P M M A"
_symmetry_group_IT_number 51
_symmetry_cell_setting 'orthorhombic'
loop_
_space_group_symop_operation_xyz
x,y,z
1/2-x,-y,z
1/2+x,-y,-z
-x,y,-z
-x,-y,-z
1/2+x,y,-z
1/2-x,y,z
x,-y,z
loop_
_atom_site_type_symbol
_atom_site_label
_atom_site_fract_x
_atom_site_fract_y
_atom_site_fract_z
Si Si1 0.923883 0.762244 0.567453
Si Si2 0.076889 0.630940 0.934618
Si Si3 0.075412 0.757933 0.808734
Si Si4 0.578262 0.000000 0.628260
Si Si5 0.920514 0.633052 0.319777
Si Si6 0.923889 0.000000 0.234226
O O1 0.750000 0.747130 0.560114
O O2 0.000000 0.731270 0.500000
O O3 0.982195 0.673794 0.620222
O O4 0.967384 0.890085 0.587048
O O5 0.250000 0.650176 0.942728
O O6 0.038507 0.500000 0.921643
O O7 0.010515 0.702184 0.874219
O O8 0.000000 0.675456 0.000000
O O9 0.250000 0.744553 0.810554
O O10 0.016405 0.692982 0.745055
O O11 0.025107 0.889154 0.805712
O O12 0.750000 0.000000 0.645361
O O13 0.491337 0.000000 0.694857
O O14 0.750000 0.666187 0.332084
O O15 0.939830 0.500000 0.310441
O O16 0.750000 0.000000 0.244521
#
# Coordination Sequence:
#
# PCOD8207173 Si02
#       6
#     8   8   8   4   8   4
#     4  11  23  38  56  78 106 138 174 217 265 317
#     4   9  17  31  51  75 105 139 175 214 255 302
#     4   9  17  31  53  80 105 134 173 217 260 307
#     4  10  21  37  55  79 107 135 169 217 269 312
#     4  10  20  35  56  80 105 136 176 219 265 316
#     4  10  18  31  56  81 102 133 174 215 260 318
#
# _framework density 18.200308
#
# number of rings (size 3 to 8) (size 9 to 14) (size 15 to 20)
#    0.000    2.200    2.000    1.500    0.000    4.000 
#    0.000    2.500    0.000    2.400    0.000    0.000 
#    0.000    0.000    0.000    0.000    0.000    0.000 
#
# Total GULP energy -496080.986203 kJ/mol
# GULP energy per Si atom -12402.024655 kJ/mol
# Density = 1.815888 g / cm^3
# Si number density = 18.200308 Si / 1000 Ang^3
#
#
#
# Elastic Constant Matrix: (Units=GPa)
#
#
# Indices 1 2 3 4 5 6 
#
# 1 38.4697 28.6518 42.0802 0.0000 0.0000 0.0000
# 2 28.6518 109.0388 72.4297 0.0000 0.0000 0.0000
# 3 42.0802 72.4297 178.1599 0.0000 0.0000 0.0000
# 4 0.0000 0.0000 0.0000 40.7104 0.0000 0.0000
# 5 0.0000 0.0000 0.0000 0.0000 30.2566 0.0000
# 6 0.0000 0.0000 0.0000 0.0000 0.0000 19.1404
#
#
#
# Elastic Compliance Matrix: (Units=1/GPa)
#
#
# Indices 1 2 3 4 5 6 
#
# 1 0.037235 -0.005401 -0.006599 0.000000 0.000000 0.000000
# 2 -0.005401 0.013347 -0.004151 0.000000 0.000000 0.000000
# 3 -0.006599 -0.004151 0.008859 0.000000 0.000000 0.000000
# 4 0.000000 0.000000 0.000000 0.024564 0.000000 0.000000
# 5 0.000000 0.000000 0.000000 0.000000 0.033051 0.000000
# 6 0.000000 0.000000 0.000000 0.000000 0.000000 0.052245
#
#
# Mechanical properties :
#
#
# Convention : Reuss Voigt Hill
#
# Bulk Modulus (GPa) = 36.84503 67.99910 52.42207
# Shear Modulus (GPa) = 23.73614 30.18860 26.96237
#
# Velocity S-wave (km/s) = 3.61524 4.07712 3.85310
# Velocity P-wave (km/s) = 6.14123 7.72052 6.97571
#
# Compressibility (1/GPa) = 0.02714070
#
# Stress axis : x y z
#
# Youngs Moduli (GPa) = 26.85619 74.92175 112.87942
#
# Poissons Ratio (x) = 0.40463 0.74490
# Poissons Ratio (y) = 0.14504 0.46852
# Poissons Ratio (z) = 0.17723 0.31097
#
# Static dielectric constant tensor:
#      x y z
#    x 3.046100 0.000000 0.000000 
#    y 0.000000 3.602710 0.000000 
#    z 0.000000 0.000000 3.499240 
# 
# 
# High freq. dielectric constant tensor:
#      x y z
#    x 1.680150 0.000000 0.000000 
#    y 0.000000 1.710690 0.000000 
#    z 0.000000 0.000000 1.711110 
# 
# From -- ./inp_files/31394.got.cif
#   From: 2010.03.12/outbox.cif.g09.slc.cpg/sg51_16_cif.got.tgz:31394.got - 2010.04.16 13:43:02.
