data_PCOD8207214
_publ_section_title
;
Structure prediction by ZEFSAII (Michael W. Deem and Ramdas Pophale) SiO2 
 PCOD8207214
Probable space group: P M M A
;
_chemical_formula_sum "Si O2"
_cell_formula_units_Z 48
_cell_length_a 8.743369
_cell_length_b 20.668025
_cell_length_c 14.504130
_cell_angle_alpha 90.000000
_cell_angle_beta 90.000000
_cell_angle_gamma 90.000000
_cell_volume 2621.014776
_symmetry_space_group_name_H-M "P M M A"
_symmetry_group_IT_number 51
_symmetry_cell_setting 'orthorhombic'
loop_
_space_group_symop_operation_xyz
x,y,z
1/2-x,-y,z
1/2+x,-y,-z
-x,y,-z
-x,-y,-z
1/2+x,y,-z
1/2-x,y,z
x,-y,z
loop_
_atom_site_type_symbol
_atom_site_label
_atom_site_fract_x
_atom_site_fract_y
_atom_site_fract_z
Si Si1 0.431481 0.928763 0.214732
Si Si2 0.570186 0.427445 0.904154
Si Si3 0.069057 0.268736 0.593912
Si Si4 0.931372 0.872166 0.593860
Si Si5 0.431009 0.192048 0.100129
Si Si6 0.930362 0.312744 0.774594
O O1 0.250000 0.926413 0.210323
O O2 0.482758 0.915835 0.319954
O O3 0.496770 0.874219 0.145576
O O4 0.492480 0.000000 0.185459
O O5 0.750000 0.425108 0.916665
O O6 0.513766 0.500000 0.879054
O O7 0.518091 0.378628 0.824552
O O8 0.500000 0.403552 0.000000
O O9 0.250000 0.263550 0.585376
O O10 0.000000 0.298894 0.500000
O O11 0.997478 0.198656 0.611043
O O12 0.021092 0.313905 0.678755
O O13 0.750000 0.867108 0.584959
O O14 0.000000 0.902714 0.500000
O O15 0.250000 0.189529 0.091111
O O16 0.482033 0.251728 0.163854
O O17 0.500000 0.201540 0.000000
O O18 0.750000 0.310211 0.755194
#
# Coordination Sequence:
#
# PCOD8207214 Si02
#       6
#     8   8   8   8   8   8
#     4   9  18  33  51  69  96 135 171 205 255 310
#     4   9  18  32  52  79 112 146 177 211 254 304
#     4  11  21  33  53  79 106 134 169 210 257 306
#     4  10  18  32  52  74 101 131 166 206 258 309
#     4  10  20  34  51  72  98 130 169 213 256 299
#     4  10  19  34  54  77 106 138 172 210 255 302
#
# _framework density 18.313517999999998
#
# number of rings (size 3 to 8) (size 9 to 14) (size 15 to 20)
#    0.000    2.167    1.667    3.500    0.000    2.000 
#    0.000    0.000    0.000    4.000    0.000    0.000 
#    0.000    0.000    0.000    0.000    0.000    0.000 
#
# Total GULP energy -595160.501006 kJ/mol
# GULP energy per Si atom -12399.177104 kJ/mol
# Density = 1.827184 g / cm^3
# Si number density = 18.313518 Si / 1000 Ang^3
#
#
#
# Elastic Constant Matrix: (Units=GPa)
#
#
# Indices 1 2 3 4 5 6 
#
# 1 55.6022 23.9712 37.9868 0.0000 0.0000 0.0000
# 2 23.9712 101.1406 62.5851 0.0000 0.0000 0.0000
# 3 37.9868 62.5851 141.3154 0.0000 0.0000 0.0000
# 4 0.0000 0.0000 0.0000 20.8361 0.0000 0.0000
# 5 0.0000 0.0000 0.0000 0.0000 34.1928 0.0000
# 6 0.0000 0.0000 0.0000 0.0000 0.0000 9.5180
#
#
#
# Elastic Compliance Matrix: (Units=1/GPa)
#
#
# Indices 1 2 3 4 5 6 
#
# 1 0.022374 -0.002178 -0.005050 0.000000 0.000000 0.000000
# 2 -0.002178 0.013832 -0.005540 0.000000 0.000000 0.000000
# 3 -0.005050 -0.005540 0.010887 0.000000 0.000000 0.000000
# 4 0.000000 0.000000 0.000000 0.047994 0.000000 0.000000
# 5 0.000000 0.000000 0.000000 0.000000 0.029246 0.000000
# 6 0.000000 0.000000 0.000000 0.000000 0.000000 0.105064
#
#
# Mechanical properties :
#
#
# Convention : Reuss Voigt Hill
#
# Bulk Modulus (GPa) = 46.38879 60.79384 53.59131
# Shear Modulus (GPa) = 19.07540 24.47706 21.77623
#
# Velocity S-wave (km/s) = 3.23089 3.65986 3.45204
# Velocity P-wave (km/s) = 6.26925 7.15036 6.72425
#
# Compressibility (1/GPa) = 0.02155693
#
# Stress axis : x y z
#
# Youngs Moduli (GPa) = 44.69517 72.29768 91.84938
#
# Poissons Ratio (x) = 0.15747 0.46381
# Poissons Ratio (y) = 0.09735 0.50887
# Poissons Ratio (z) = 0.22569 0.40055
#
# Static dielectric constant tensor:
#      x y z
#    x 3.208890 0.000000 0.000000 
#    y 0.000000 3.532470 0.000000 
#    z 0.000000 0.000000 3.571360 
# 
# 
# High freq. dielectric constant tensor:
#      x y z
#    x 1.692920 0.000000 0.000000 
#    y 0.000000 1.696390 0.000000 
#    z 0.000000 0.000000 1.718100 
# 
# From -- ./inp_files/21128.got.cif
#   From: 2010.03.12/outbox.cif.g09.slc.cpg/sg51_11_cif.got.tgz:21128.got - 2010.04.16 13:43:02.
