data_PCOD8207868
_publ_section_title
;
Structure prediction by ZEFSAII (Michael W. Deem and Ramdas Pophale) SiO2 
 PCOD8207868
Probable space group: P M M A
;
_chemical_formula_sum "Si O2"
_cell_formula_units_Z 56
_cell_length_a 18.284903
_cell_length_b 9.190966
_cell_length_c 20.395220
_cell_angle_alpha 90.000000
_cell_angle_beta 90.000000
_cell_angle_gamma 90.000000
_cell_volume 3427.537497
_symmetry_space_group_name_H-M "P M M A"
_symmetry_group_IT_number 51
_symmetry_cell_setting 'orthorhombic'
loop_
_space_group_symop_operation_xyz
x,y,z
1/2-x,-y,z
1/2+x,-y,-z
-x,y,-z
-x,-y,-z
1/2+x,y,-z
1/2-x,y,z
x,-y,z
loop_
_atom_site_type_symbol
_atom_site_label
_atom_site_fract_x
_atom_site_fract_y
_atom_site_fract_z
Si Si1 0.167589 0.170479 0.993271
Si Si2 0.464272 0.839239 0.071265
Si Si3 0.536885 0.664796 0.570600
Si Si4 0.333940 0.169436 0.484091
Si Si5 0.408995 0.669657 0.876571
Si Si6 0.594506 0.829832 0.377651
Si Si7 0.334617 0.666439 0.740241
O O1 0.250000 0.212137 0.011283
O O2 0.144399 0.255353 0.928312
O O3 0.157656 0.000000 0.977743
O O4 0.119067 0.213170 0.057380
O O5 0.507871 0.729238 0.118161
O O6 0.466165 0.000000 0.103472
O O7 0.500000 0.843785 0.000000
O O8 0.500000 0.670182 0.500000
O O9 0.547042 0.500000 0.595514
O O10 0.616226 0.741164 0.567105
O O11 0.484147 0.750176 0.620600
O O12 0.250000 0.217723 0.474779
O O13 0.357784 0.205091 0.558128
O O14 0.344759 0.000000 0.468819
O O15 0.409380 0.500000 0.891804
O O16 0.380616 0.705442 0.804457
O O17 0.640891 0.773453 0.316851
O O18 0.579568 0.000000 0.370075
O O19 0.250000 0.693588 0.756334
O O20 0.348297 0.500000 0.718364
#
# Coordination Sequence:
#
# PCOD8207868 Si02
#       7
#     8   8   8   8   8   8   8
#     4   9  17  29  45  65  89 116 145 180 222 264
#     4   8  15  28  44  62  85 113 145 180 219 263
#     4   9  17  29  45  65  89 118 150 182 221 268
#     4   9  17  29  45  67  94 119 145 183 226 263
#     4  10  19  30  44  63  89 120 151 182 218 260
#     4  10  19  31  47  66  89 119 154 187 220 260
#     4  10  21  34  45  61  89 122 152 183 219 258
#
# _framework density 16.338259999999998
#
# number of rings (size 3 to 8) (size 9 to 14) (size 15 to 20)
#    0.000    2.714    0.000    3.000    0.000    8.000 
#    0.000    0.000    0.000    0.000    0.000    1.000 
#    0.000    3.429    0.000    0.000    0.000    0.000 
#
# Total GULP energy -694295.157213 kJ/mol
# GULP energy per Si atom -12398.127807 kJ/mol
# Density = 1.630107 g / cm^3
# Si number density = 16.338260 Si / 1000 Ang^3
#
#
#
# Elastic Constant Matrix: (Units=GPa)
#
#
# Indices 1 2 3 4 5 6 
#
# 1 118.1720 44.9068 25.7086 0.0000 0.0000 0.0000
# 2 44.9068 76.0560 26.7196 0.0000 0.0000 0.0000
# 3 25.7086 26.7196 37.2603 0.0000 0.0000 0.0000
# 4 0.0000 0.0000 0.0000 23.2524 0.0000 0.0000
# 5 0.0000 0.0000 0.0000 0.0000 25.2727 0.0000
# 6 0.0000 0.0000 0.0000 0.0000 0.0000 27.3602
#
#
#
# Elastic Compliance Matrix: (Units=1/GPa)
#
#
# Indices 1 2 3 4 5 6 
#
# 1 0.011348 -0.005280 -0.004044 0.000000 0.000000 0.000000
# 2 -0.005280 0.020033 -0.010723 0.000000 0.000000 0.000000
# 3 -0.004044 -0.010723 0.037318 0.000000 0.000000 0.000000
# 4 0.000000 0.000000 0.000000 0.043006 0.000000 0.000000
# 5 0.000000 0.000000 0.000000 0.000000 0.039568 0.000000
# 6 0.000000 0.000000 0.000000 0.000000 0.000000 0.036549
#
#
# Mechanical properties :
#
#
# Convention : Reuss Voigt Hill
#
# Bulk Modulus (GPa) = 34.95763 47.35091 41.15427
# Shear Modulus (GPa) = 21.05699 24.12062 22.58880
#
# Velocity S-wave (km/s) = 3.59390 3.84647 3.72233
# Velocity P-wave (km/s) = 6.21805 6.98367 6.61195
#
# Compressibility (1/GPa) = 0.02860606
#
# Stress axis : x y z
#
# Youngs Moduli (GPa) = 88.11790 49.91836 26.79702
#
# Poissons Ratio (x) = 0.26357 0.10836
# Poissons Ratio (y) = 0.46526 0.28733
# Poissons Ratio (z) = 0.35633 0.53525
#
# Static dielectric constant tensor:
#      x y z
#    x 3.566970 0.000000 0.000000 
#    y 0.000000 3.160470 0.000000 
#    z 0.000000 0.000000 2.729000 
# 
# 
# High freq. dielectric constant tensor:
#      x y z
#    x 1.635880 0.000000 0.000000 
#    y 0.000000 1.635890 0.000000 
#    z 0.000000 0.000000 1.582530 
# 
# From -- ./inp_files/33680.got.cif
#   From: 2010.03.12/outbox.cif.g09.slc.cpg/sg51_17_cif.got.tgz:33680.got - 2010.04.16 13:43:02.
