data_PCOD8207850
_publ_section_title
;
Structure prediction by ZEFSAII (Michael W. Deem and Ramdas Pophale) SiO2 
 PCOD8207850
Probable space group: P M M A
;
_chemical_formula_sum "Si O2"
_cell_formula_units_Z 56
_cell_length_a 8.879282
_cell_length_b 13.731959
_cell_length_c 29.147489
_cell_angle_alpha 90.000000
_cell_angle_beta 90.000000
_cell_angle_gamma 90.000000
_cell_volume 3553.951479
_symmetry_space_group_name_H-M "P M M A"
_symmetry_group_IT_number 51
_symmetry_cell_setting 'orthorhombic'
loop_
_space_group_symop_operation_xyz
x,y,z
1/2-x,-y,z
1/2+x,-y,-z
-x,y,-z
-x,-y,-z
1/2+x,y,-z
1/2-x,y,z
x,-y,z
loop_
_atom_site_type_symbol
_atom_site_label
_atom_site_fract_x
_atom_site_fract_y
_atom_site_fract_z
Si Si1 0.071981 0.110655 0.769184
Si Si2 0.573478 0.205966 0.137998
Si Si3 0.928053 0.288610 0.724636
Si Si4 0.425939 0.386311 0.638647
Si Si5 0.427163 0.887632 0.953453
Si Si6 0.074454 0.390475 0.808816
Si Si7 0.919451 0.615647 0.545244
O O1 0.250000 0.127345 0.765381
O O2 0.014908 0.138523 0.820304
O O3 0.991055 0.180028 0.732633
O O4 0.026223 0.000000 0.758475
O O5 0.750000 0.190051 0.133401
O O6 0.502594 0.172572 0.089527
O O7 0.532332 0.318552 0.149085
O O8 0.750000 0.285762 0.724850
O O9 0.985060 0.324754 0.675902
O O10 0.983049 0.363182 0.763553
O O11 0.250000 0.363602 0.642163
O O12 0.459689 0.500000 0.646597
O O13 0.485050 0.351292 0.589265
O O14 0.250000 0.873329 0.957727
O O15 0.470830 0.000000 0.945892
O O16 0.500000 0.846550 0.000000
O O17 0.250000 0.379241 0.796264
O O18 0.034179 0.500000 0.824126
O O19 0.750000 0.657486 0.548542
O O20 0.914662 0.500000 0.542098
O O21 0.000000 0.658752 0.500000
#
# Coordination Sequence:
#
# PCOD8207850 Si02
#       7
#     8   8   8   8   8   8   8
#     4   9  17  31  50  67  84 110 144 179 213 253
#     4   8  14  26  45  66  84 106 139 175 210 249
#     4  11  21  30  42  63  91 118 143 175 217 264
#     4  10  19  30  44  61  84 117 155 191 222 254
#     4   9  16  26  41  61  84 108 134 167 209 257
#     4   9  17  30  47  64  82 108 145 184 215 249
#     4   9  16  26  40  59  84 114 148 184 223 266
#
# _framework density 15.757109
#
# number of rings (size 3 to 8) (size 9 to 14) (size 15 to 20)
#    0.000    2.714    0.000    3.857    0.000    6.571 
#    0.000    2.857    0.000    3.857    0.000    0.000 
#    0.000    0.571    0.000    2.143    0.000    3.286 
#
# Total GULP energy -694273.176387 kJ/mol
# GULP energy per Si atom -12397.735293 kJ/mol
# Density = 1.572125 g / cm^3
# Si number density = 15.757109 Si / 1000 Ang^3
#
#
#
# Elastic Constant Matrix: (Units=GPa)
#
#
# Indices 1 2 3 4 5 6 
#
# 1 66.0942 39.7764 40.3554 0.0000 0.0000 0.0000
# 2 39.7764 97.8536 58.7360 0.0000 0.0000 0.0000
# 3 40.3554 58.7360 127.1143 0.0000 0.0000 0.0000
# 4 0.0000 0.0000 0.0000 17.7632 0.0000 0.0000
# 5 0.0000 0.0000 0.0000 0.0000 25.5451 0.0000
# 6 0.0000 0.0000 0.0000 0.0000 0.0000 13.1127
#
#
#
# Elastic Compliance Matrix: (Units=1/GPa)
#
#
# Indices 1 2 3 4 5 6 
#
# 1 0.021291 -0.006362 -0.003820 0.000000 0.000000 0.000000
# 2 -0.006362 0.016043 -0.005393 0.000000 0.000000 0.000000
# 3 -0.003820 -0.005393 0.011572 0.000000 0.000000 0.000000
# 4 0.000000 0.000000 0.000000 0.056296 0.000000 0.000000
# 5 0.000000 0.000000 0.000000 0.000000 0.039146 0.000000
# 6 0.000000 0.000000 0.000000 0.000000 0.000000 0.076262
#
#
# Mechanical properties :
#
#
# Convention : Reuss Voigt Hill
#
# Bulk Modulus (GPa) = 56.31964 63.19972 59.75968
# Shear Modulus (GPa) = 19.40414 21.43049 20.41732
#
# Velocity S-wave (km/s) = 3.51301 3.69189 3.60356
# Velocity P-wave (km/s) = 7.23014 7.63997 7.43788
#
# Compressibility (1/GPa) = 0.01775580
#
# Stress axis : x y z
#
# Youngs Moduli (GPa) = 46.96897 62.33441 86.41859
#
# Poissons Ratio (x) = 0.39655 0.33009
# Poissons Ratio (y) = 0.29880 0.46607
# Poissons Ratio (z) = 0.17940 0.33618
#
# Static dielectric constant tensor:
#      x y z
#    x 2.924840 0.000000 0.000000 
#    y 0.000000 2.915500 0.000000 
#    z 0.000000 0.000000 3.120410 
# 
# 
# High freq. dielectric constant tensor:
#      x y z
#    x 1.597610 0.000000 0.000000 
#    y 0.000000 1.575250 0.000000 
#    z 0.000000 0.000000 1.603200 
# 
# From -- ./inp_files/37497.got.cif
#   From: 2010.03.12/outbox.cif.g09.slc.cpg/sg51_19_cif.got.tgz:37497.got - 2010.04.16 13:43:02.
