data_PCOD8207087
_publ_section_title
;
Structure prediction by ZEFSAII (Michael W. Deem and Ramdas Pophale) SiO2 
 PCOD8207087
Probable space group: P M M A
;
_chemical_formula_sum "Si O2"
_cell_formula_units_Z 40
_cell_length_a 20.355279
_cell_length_b 8.984512
_cell_length_c 12.656357
_cell_angle_alpha 90.000000
_cell_angle_beta 90.000000
_cell_angle_gamma 90.000000
_cell_volume 2314.623025
_symmetry_space_group_name_H-M "P M M A"
_symmetry_group_IT_number 51
_symmetry_cell_setting 'orthorhombic'
loop_
_space_group_symop_operation_xyz
x,y,z
1/2-x,-y,z
1/2+x,-y,-z
-x,y,-z
-x,-y,-z
1/2+x,y,-z
1/2-x,y,z
x,-y,z
loop_
_atom_site_type_symbol
_atom_site_label
_atom_site_fract_x
_atom_site_fract_y
_atom_site_fract_z
Si Si1 0.569188 0.323993 0.551700
Si Si2 0.544714 0.824453 0.765100
Si Si3 0.407141 0.324837 0.806319
Si Si4 0.177291 0.676117 0.612678
Si Si5 0.575435 0.664810 0.966112
O O1 0.500000 0.277791 0.500000
O O2 0.572289 0.500000 0.569737
O O3 0.580005 0.242609 0.662682
O O4 0.627376 0.264644 0.476168
O O5 0.471118 0.764068 0.770633
O O6 0.586626 0.777002 0.868988
O O7 0.543788 0.000000 0.757653
O O8 0.424362 0.500000 0.796353
O O9 0.348112 0.278037 0.729119
O O10 0.385637 0.285792 0.927161
O O11 0.250000 0.745171 0.595961
O O12 0.180638 0.500000 0.604536
O O13 0.597737 0.500000 0.929805
O O14 0.500000 0.662606 0.000000
#
# Coordination Sequence:
#
# PCOD8207087 Si02
#       5
#     8   8   8   8   8
#     4  10  18  31  51  71  96 129 162 198 245 293
#     4  11  20  28  44  71 101 128 161 202 239 279
#     4   9  16  30  49  70  97 126 157 195 245 294
#     4   9  17  30  51  76  97 121 159 204 246 290
#     4   8  15  27  45  67  94 126 156 189 236 289
#
# _framework density 17.281431000000001
#
# number of rings (size 3 to 8) (size 9 to 14) (size 15 to 20)
#    0.000    2.600    2.000    3.000    0.000    4.000 
#    0.000    0.000    0.000    3.600    0.000    5.600 
#    0.000    0.000    0.000    0.000    0.000    0.000 
#
# Total GULP energy -495789.314324 kJ/mol
# GULP energy per Si atom -12394.732858 kJ/mol
# Density = 1.724210 g / cm^3
# Si number density = 17.281431 Si / 1000 Ang^3
#
#
#
# Elastic Constant Matrix: (Units=GPa)
#
#
# Indices 1 2 3 4 5 6 
#
# 1 94.9305 23.8491 68.0779 0.0000 0.0000 0.0000
# 2 23.8491 58.4875 50.5917 0.0000 0.0000 0.0000
# 3 68.0779 50.5917 170.6487 0.0000 0.0000 0.0000
# 4 0.0000 0.0000 0.0000 7.5857 0.0000 0.0000
# 5 0.0000 0.0000 0.0000 0.0000 19.9493 0.0000
# 6 0.0000 0.0000 0.0000 0.0000 0.0000 5.0893
#
#
#
# Elastic Compliance Matrix: (Units=1/GPa)
#
#
# Indices 1 2 3 4 5 6 
#
# 1 0.014823 -0.001250 -0.005543 0.000000 0.000000 0.000000
# 2 -0.001250 0.023100 -0.006350 0.000000 0.000000 0.000000
# 3 -0.005543 -0.006350 0.009954 0.000000 0.000000 0.000000
# 4 0.000000 0.000000 0.000000 0.131827 0.000000 0.000000
# 5 0.000000 0.000000 0.000000 0.000000 0.050127 0.000000
# 6 0.000000 0.000000 0.000000 0.000000 0.000000 0.196491
#
#
# Mechanical properties :
#
#
# Convention : Reuss Voigt Hill
#
# Bulk Modulus (GPa) = 46.31382 67.67821 56.99601
# Shear Modulus (GPa) = 10.87420 18.62806 14.75113
#
# Velocity S-wave (km/s) = 2.51119 3.28674 2.92478
# Velocity P-wave (km/s) = 5.93852 7.32468 6.66772
#
# Compressibility (1/GPa) = 0.02159183
#
# Stress axis : x y z
#
# Youngs Moduli (GPa) = 67.46273 43.29037 100.46429
#
# Poissons Ratio (x) = 0.05410 0.55687
# Poissons Ratio (y) = 0.08430 0.63793
# Poissons Ratio (z) = 0.37394 0.27489
#
# Static dielectric constant tensor:
#      x y z
#    x 3.080180 0.000000 0.000000 
#    y 0.000000 2.904860 0.000000 
#    z 0.000000 0.000000 3.728570 
# 
# 
# High freq. dielectric constant tensor:
#      x y z
#    x 1.617190 0.000000 0.000000 
#    y 0.000000 1.635960 0.000000 
#    z 0.000000 0.000000 1.689790 
# 
# From -- ./inp_files/17877.got.cif
#   From: 2010.03.12/outbox.cif.g09.slc.cpg/sg51_9_cif.got.tgz:17877.got - 2010.04.16 13:43:02.
