data_PCOD8207913
_publ_section_title
;
Structure prediction by ZEFSAII (Michael W. Deem and Ramdas Pophale) SiO2 
 PCOD8207913
Probable space group: P M M A
;
_chemical_formula_sum "Si O2"
_cell_formula_units_Z 48
_cell_length_a 9.717008
_cell_length_b 17.368691
_cell_length_c 19.029271
_cell_angle_alpha 90.000000
_cell_angle_beta 90.000000
_cell_angle_gamma 90.000000
_cell_volume 3211.602595
_symmetry_space_group_name_H-M "P M M A"
_symmetry_group_IT_number 51
_symmetry_cell_setting 'orthorhombic'
loop_
_space_group_symop_operation_xyz
x,y,z
1/2-x,-y,z
1/2+x,-y,-z
-x,y,-z
-x,-y,-z
1/2+x,y,-z
1/2-x,y,z
x,-y,z
loop_
_atom_site_type_symbol
_atom_site_label
_atom_site_fract_x
_atom_site_fract_y
_atom_site_fract_z
Si Si1 0.909508 0.341347 0.839697
Si Si2 0.250000 0.084020 0.077448
Si Si3 0.496381 0.811737 0.083444
Si Si4 0.595077 0.588573 0.692040
Si Si5 0.903007 0.412157 0.058812
Si Si6 0.593364 0.591221 0.436822
Si Si7 0.250000 0.913198 0.911929
O O1 0.750000 0.349299 0.864849
O O2 0.918897 0.351347 0.756141
O O3 0.978041 0.263593 0.868997
O O4 0.008994 0.407968 0.869789
O O5 0.378011 0.130644 0.104382
O O6 0.250000 0.000000 0.112827
O O7 0.250000 0.074651 0.994524
O O8 0.624509 0.860082 0.111139
O O9 0.500000 0.791425 0.000000
O O10 0.750000 0.594893 0.660382
O O11 0.569794 0.500000 0.716383
O O12 0.482312 0.614567 0.635287
O O13 0.750000 0.372550 0.063337
O O14 0.878694 0.500000 0.038285
O O15 0.000000 0.371012 0.000000
O O16 0.500000 0.625356 0.500000
O O17 0.750000 0.624610 0.438335
O O18 0.600136 0.500000 0.444072
O O19 0.250000 0.000000 0.877899
#
# Coordination Sequence:
#
# PCOD8207913 Si02
#       7
#     8   4   8   8   8   8   4
#     4  11  21  32  45  62  87 116 147 183 224 266
#     4   9  16  30  48  64  83 105 136 179 223 271
#     4  10  19  30  45  65  86 111 144 184 227 272
#     4   9  18  31  45  61  84 117 152 184 220 259
#     4  10  21  34  47  60  75 103 145 191 233 267
#     4   9  16  27  45  67  88 109 139 180 218 255
#     4   9  18  30  46  66  85 107 138 179 227 273
#
# _framework density 14.94581
#
# number of rings (size 3 to 8) (size 9 to 14) (size 15 to 20)
#    0.000    2.333    0.833    2.500    1.167    6.333 
#    0.000    1.667    0.000    0.000    0.000    0.000 
#    0.000    0.000    0.000    0.000    0.000    5.000 
#
# Total GULP energy -594650.490389 kJ/mol
# GULP energy per Si atom -12388.551883 kJ/mol
# Density = 1.491179 g / cm^3
# Si number density = 14.945810 Si / 1000 Ang^3
#
#
#
# Elastic Constant Matrix: (Units=GPa)
#
#
# Indices 1 2 3 4 5 6 
#
# 1 151.2329 32.6727 52.3890 0.0000 0.0000 0.0000
# 2 32.6727 61.9324 25.3223 0.0000 0.0000 0.0000
# 3 52.3890 25.3223 67.8964 0.0000 0.0000 0.0000
# 4 0.0000 0.0000 0.0000 6.3394 0.0000 0.0000
# 5 0.0000 0.0000 0.0000 0.0000 23.4824 0.0000
# 6 0.0000 0.0000 0.0000 0.0000 0.0000 26.6220
#
#
#
# Elastic Compliance Matrix: (Units=1/GPa)
#
#
# Indices 1 2 3 4 5 6 
#
# 1 0.009300 -0.002327 -0.006308 0.000000 0.000000 0.000000
# 2 -0.002327 0.019634 -0.005527 0.000000 0.000000 0.000000
# 3 -0.006308 -0.005527 0.021657 0.000000 0.000000 0.000000
# 4 0.000000 0.000000 0.000000 0.157743 0.000000 0.000000
# 5 0.000000 0.000000 0.000000 0.000000 0.042585 0.000000
# 6 0.000000 0.000000 0.000000 0.000000 0.000000 0.037563
#
#
# Mechanical properties :
#
#
# Convention : Reuss Voigt Hill
#
# Bulk Modulus (GPa) = 44.90995 55.75885 50.33440
# Shear Modulus (GPa) = 15.42118 22.66727 19.04422
#
# Velocity S-wave (km/s) = 3.21566 3.89862 3.57349
# Velocity P-wave (km/s) = 6.62579 7.59302 7.12583
#
# Compressibility (1/GPa) = 0.02226678
#
# Stress axis : x y z
#
# Youngs Moduli (GPa) = 107.52290 50.93158 46.17431
#
# Poissons Ratio (x) = 0.11853 0.29128
# Poissons Ratio (y) = 0.25023 0.25520
# Poissons Ratio (z) = 0.67828 0.28150
#
# Static dielectric constant tensor:
#      x y z
#    x 3.521970 0.000000 0.000000 
#    y 0.000000 2.712820 0.000000 
#    z 0.000000 0.000000 2.610270 
# 
# 
# High freq. dielectric constant tensor:
#      x y z
#    x 1.600140 0.000000 0.000000 
#    y 0.000000 1.538570 0.000000 
#    z 0.000000 0.000000 1.529760 
# 
# From -- ./inp_files/32198.got.cif
#   From: 2010.03.12/outbox.cif.g09.slc.cpg/sg51_17_cif.got.tgz:32198.got - 2010.04.16 13:43:02.
