data_PCOD8207962
_publ_section_title
;
Structure prediction by ZEFSAII (Michael W. Deem and Ramdas Pophale) SiO2 
 PCOD8207962
Probable space group: P M M A
;
_chemical_formula_sum "Si O2"
_cell_formula_units_Z 56
_cell_length_a 9.188213
_cell_length_b 13.636627
_cell_length_c 29.250997
_cell_angle_alpha 90.000000
_cell_angle_beta 90.000000
_cell_angle_gamma 90.000000
_cell_volume 3665.039750
_symmetry_space_group_name_H-M "P M M A"
_symmetry_group_IT_number 51
_symmetry_cell_setting 'orthorhombic'
loop_
_space_group_symop_operation_xyz
x,y,z
1/2-x,-y,z
1/2+x,-y,-z
-x,y,-z
-x,-y,-z
1/2+x,y,-z
1/2-x,y,z
x,-y,z
loop_
_atom_site_type_symbol
_atom_site_label
_atom_site_fract_x
_atom_site_fract_y
_atom_site_fract_z
Si Si1 0.576523 0.109740 0.858330
Si Si2 0.082914 0.109830 0.685738
Si Si3 0.411375 0.883045 0.042467
Si Si4 0.919720 0.613209 0.547049
Si Si5 0.582926 0.389972 0.712692
Si Si6 0.419917 0.203462 0.233025
Si Si7 0.079181 0.298205 0.630902
O O1 0.750000 0.108166 0.861277
O O2 0.518926 0.146658 0.908098
O O3 0.520149 0.181439 0.817986
O O4 0.519071 0.000000 0.847794
O O5 0.250000 0.122566 0.699980
O O6 0.044673 0.186124 0.645380
O O7 0.990918 0.129897 0.730951
O O8 0.049542 0.000000 0.667859
O O9 0.250000 0.839437 0.038019
O O10 0.407536 0.000000 0.039832
O O11 0.500000 0.837958 0.000000
O O12 0.750000 0.638992 0.542064
O O13 0.941807 0.500000 0.561197
O O14 0.000000 0.636579 0.500000
O O15 0.992340 0.682321 0.584667
O O16 0.750000 0.374617 0.696540
O O17 0.557416 0.500000 0.730832
O O18 0.544547 0.316214 0.754142
O O19 0.478033 0.371231 0.669981
O O20 0.250000 0.181058 0.234737
O O21 0.250000 0.317305 0.623295
#
# Coordination Sequence:
#
# PCOD8207962 Si02
#       7
#     8   8   8   8   8   8   8
#     4   8  13  21  34  52  73  97 126 161 197 231
#     4   9  18  31  44  60  85 113 138 168 204 235
#     4   8  13  21  32  46  66  92 121 153 190 232
#     4  10  20  33  49  69  92 114 135 164 203 243
#     4   9  17  28  41  59  84 110 134 164 201 237
#     4   9  16  26  41  59  78 104 138 169 197 236
#     4  10  19  30  46  66  86 111 141 168 196 235
#
# _framework density 15.279506
#
# number of rings (size 3 to 8) (size 9 to 14) (size 15 to 20)
#    0.000    3.000    0.000    2.571    0.000    4.286 
#    0.000    0.714    0.000    3.000    0.000    0.000 
#    0.000    0.571    0.000    0.429    0.000    0.857 
#
# Total GULP energy -694110.604941 kJ/mol
# GULP energy per Si atom -12394.832231 kJ/mol
# Density = 1.524473 g / cm^3
# Si number density = 15.279506 Si / 1000 Ang^3
#
#
#
# Elastic Constant Matrix: (Units=GPa)
#
#
# Indices 1 2 3 4 5 6 
#
# 1 60.0924 30.1721 53.1801 0.0000 0.0000 0.0000
# 2 30.1721 84.0670 57.2553 0.0000 0.0000 0.0000
# 3 53.1801 57.2553 141.0533 0.0000 0.0000 0.0000
# 4 0.0000 0.0000 0.0000 18.8554 0.0000 0.0000
# 5 0.0000 0.0000 0.0000 0.0000 23.0954 0.0000
# 6 0.0000 0.0000 0.0000 0.0000 0.0000 16.0112
#
#
#
# Elastic Compliance Matrix: (Units=1/GPa)
#
#
# Indices 1 2 3 4 5 6 
#
# 1 0.025753 -0.003635 -0.008234 0.000000 0.000000 0.000000
# 2 -0.003635 0.016953 -0.005511 0.000000 0.000000 0.000000
# 3 -0.008234 -0.005511 0.012431 0.000000 0.000000 0.000000
# 4 0.000000 0.000000 0.000000 0.053035 0.000000 0.000000
# 5 0.000000 0.000000 0.000000 0.000000 0.043299 0.000000
# 6 0.000000 0.000000 0.000000 0.000000 0.000000 0.062456
#
#
# Mechanical properties :
#
#
# Convention : Reuss Voigt Hill
#
# Bulk Modulus (GPa) = 49.07462 62.93642 56.00552
# Shear Modulus (GPa) = 19.57102 21.23275 20.40188
#
# Velocity S-wave (km/s) = 3.58280 3.73181 3.65806
# Velocity P-wave (km/s) = 7.02161 7.73615 7.38752
#
# Compressibility (1/GPa) = 0.02037713
#
# Stress axis : x y z
#
# Youngs Moduli (GPa) = 38.83043 58.98549 80.44477
#
# Poissons Ratio (x) = 0.21442 0.66238
# Poissons Ratio (y) = 0.14115 0.44334
# Poissons Ratio (z) = 0.31973 0.32507
#
# Static dielectric constant tensor:
#      x y z
#    x 2.934350 0.000000 0.000000 
#    y 0.000000 2.837060 0.000000 
#    z 0.000000 0.000000 3.114280 
# 
# 
# High freq. dielectric constant tensor:
#      x y z
#    x 1.579360 0.000000 0.000000 
#    y 0.000000 1.555200 0.000000 
#    z 0.000000 0.000000 1.583000 
# 
# From -- ./inp_files/37466.got.cif
#   From: 2010.03.12/outbox.cif.g09.slc.cpg/sg51_19_cif.got.tgz:37466.got - 2010.04.16 13:43:02.
