data_PCOD8207080
_publ_section_title
;
Structure prediction by ZEFSAII (Michael W. Deem and Ramdas Pophale) SiO2 
 PCOD8207080
Probable space group: P M M A
;
_chemical_formula_sum "Si O2"
_cell_formula_units_Z 48
_cell_length_a 25.032536
_cell_length_b 8.739455
_cell_length_c 11.932280
_cell_angle_alpha 90.000000
_cell_angle_beta 90.000000
_cell_angle_gamma 90.000000
_cell_volume 2610.433510
_symmetry_space_group_name_H-M "P M M A"
_symmetry_group_IT_number 51
_symmetry_cell_setting 'orthorhombic'
loop_
_space_group_symop_operation_xyz
x,y,z
1/2-x,-y,z
1/2+x,-y,-z
-x,y,-z
-x,-y,-z
1/2+x,y,-z
1/2-x,y,z
x,-y,z
loop_
_atom_site_type_symbol
_atom_site_label
_atom_site_fract_x
_atom_site_fract_y
_atom_site_fract_z
Si Si1 0.593251 0.677278 0.726021
Si Si2 0.190589 0.819564 0.375107
Si Si3 0.439329 0.834481 0.488552
Si Si4 0.000863 0.179282 0.130270
Si Si5 0.400906 0.179629 0.728714
Si Si6 0.311708 0.678428 0.611955
O O1 0.600624 0.500000 0.750910
O O2 0.651893 0.756845 0.723651
O O3 0.568187 0.705254 0.604408
O O4 0.553890 0.744890 0.819647
O O5 0.250000 0.750108 0.357089
O O6 0.168659 0.766942 0.498187
O O7 0.193320 0.000000 0.368660
O O8 0.500000 0.874574 0.500000
O O9 0.421795 0.771616 0.607669
O O10 0.411276 0.000000 0.456462
O O11 0.944692 0.241856 0.182095
O O12 0.004975 0.000000 0.156089
O O13 0.000000 0.218031 0.000000
O O14 0.343218 0.264836 0.724971
O O15 0.391911 0.000000 0.746709
O O16 0.250000 0.717117 0.634299
O O17 0.321158 0.500000 0.591733
#
# Coordination Sequence:
#
# PCOD8207080 Si02
#       6
#     8   8   8   8   8   8
#     4  12  23  33  52  80 113 144 173 215 268 325
#     4  10  20  34  53  77 108 146 183 218 258 310
#     4  10  18  31  50  74 107 141 176 214 257 316
#     4  10  22  41  61  78 101 138 184 230 273 316
#     4  10  19  32  54  80 106 139 177 219 264 313
#     4  10  20  32  48  76 113 147 176 210 259 318
#
# _framework density 18.38775
#
# number of rings (size 3 to 8) (size 9 to 14) (size 15 to 20)
#    0.000    1.667    3.333    2.500    0.000    3.333 
#    0.000    0.000    0.000    1.000    0.000    2.333 
#    0.000    0.000    0.000    0.000    0.000    0.000 
#
# Total GULP energy -594798.138662 kJ/mol
# GULP energy per Si atom -12391.627889 kJ/mol
# Density = 1.834590 g / cm^3
# Si number density = 18.387750 Si / 1000 Ang^3
#
#
#
# Elastic Constant Matrix: (Units=GPa)
#
#
# Indices 1 2 3 4 5 6 
#
# 1 124.1194 42.5336 53.9453 0.0000 0.0000 0.0000
# 2 42.5336 77.5135 39.6697 0.0000 0.0000 0.0000
# 3 53.9453 39.6697 82.8575 0.0000 0.0000 0.0000
# 4 0.0000 0.0000 0.0000 12.9564 0.0000 0.0000
# 5 0.0000 0.0000 0.0000 0.0000 17.5923 0.0000
# 6 0.0000 0.0000 0.0000 0.0000 0.0000 27.0140
#
#
#
# Elastic Compliance Matrix: (Units=1/GPa)
#
#
# Indices 1 2 3 4 5 6 
#
# 1 0.011872 -0.003389 -0.006107 0.000000 0.000000 0.000000
# 2 -0.003389 0.018055 -0.006438 0.000000 0.000000 0.000000
# 3 -0.006107 -0.006438 0.019127 0.000000 0.000000 0.000000
# 4 0.000000 0.000000 0.000000 0.077182 0.000000 0.000000
# 5 0.000000 0.000000 0.000000 0.000000 0.056843 0.000000
# 6 0.000000 0.000000 0.000000 0.000000 0.000000 0.037018
#
#
# Mechanical properties :
#
#
# Convention : Reuss Voigt Hill
#
# Bulk Modulus (GPa) = 58.18370 61.86527 60.02449
# Shear Modulus (GPa) = 19.40281 21.40201 20.40241
#
# Velocity S-wave (km/s) = 3.25191 3.41534 3.33463
# Velocity P-wave (km/s) = 6.76840 7.01930 6.89499
#
# Compressibility (1/GPa) = 0.01718694
#
# Stress axis : x y z
#
# Youngs Moduli (GPa) = 84.22854 55.38489 52.28170
#
# Poissons Ratio (x) = 0.18772 0.31928
# Poissons Ratio (y) = 0.28547 0.33658
# Poissons Ratio (z) = 0.51438 0.35656
#
# Static dielectric constant tensor:
#      x y z
#    x 3.817470 0.000000 0.000000 
#    y 0.000000 3.255920 0.000000 
#    z 0.000000 0.000000 3.059790 
# 
# 
# High freq. dielectric constant tensor:
#      x y z
#    x 1.740010 0.000000 0.000000 
#    y 0.000000 1.708530 0.000000 
#    z 0.000000 0.000000 1.661620 
# 
# From -- ./inp_files/19000.got.cif
#   From: 2010.03.12/outbox.cif.g09.slc.cpg/sg51_10_cif.got.tgz:19000.got - 2010.04.16 13:43:02.
