data_PCOD8207594
_publ_section_title
;
Structure prediction by ZEFSAII (Michael W. Deem and Ramdas Pophale) SiO2 
 PCOD8207594
Probable space group: P M M A
;
_chemical_formula_sum "Si O2"
_cell_formula_units_Z 48
_cell_length_a 29.444977
_cell_length_b 9.327295
_cell_length_c 10.249051
_cell_angle_alpha 90.000000
_cell_angle_beta 90.000000
_cell_angle_gamma 90.000000
_cell_volume 2814.819729
_symmetry_space_group_name_H-M "P M M A"
_symmetry_group_IT_number 51
_symmetry_cell_setting 'orthorhombic'
loop_
_space_group_symop_operation_xyz
x,y,z
1/2-x,-y,z
1/2+x,-y,-z
-x,y,-z
-x,-y,-z
1/2+x,y,-z
1/2-x,y,z
x,-y,z
loop_
_atom_site_type_symbol
_atom_site_label
_atom_site_fract_x
_atom_site_fract_y
_atom_site_fract_z
Si Si1 0.032007 0.166331 0.619228
Si Si2 0.887083 0.668412 0.783869
Si Si3 0.526446 0.833414 0.868616
Si Si4 0.300124 0.838782 0.209443
Si Si5 0.114913 0.332727 0.521063
Si Si6 0.799901 0.839792 0.480912
O O1 0.077138 0.259613 0.610182
O O2 0.000000 0.208505 0.500000
O O3 0.006748 0.208791 0.751302
O O4 0.045666 0.000000 0.614930
O O5 0.887031 0.500000 0.810186
O O6 0.928024 0.740125 0.862996
O O7 0.839624 0.731938 0.839399
O O8 0.893195 0.704476 0.630883
O O9 0.540366 0.000000 0.860763
O O10 0.500000 0.796028 0.000000
O O11 0.250000 0.790182 0.157707
O O12 0.299023 0.836809 0.364214
O O13 0.310808 0.000000 0.159951
O O14 0.114049 0.500000 0.547389
O O15 0.163159 0.272426 0.571166
O O16 0.750000 0.795966 0.427449
O O17 0.812517 0.000000 0.432899
#
# Coordination Sequence:
#
# PCOD8207594 Si02
#       6
#     8   8   8   8   8   8
#     4  10  19  32  51  71  91 122 161 198 236 279
#     4  10  19  29  44  68  98 129 158 193 239 286
#     4  10  21  36  52  70  93 124 163 204 242 283
#     4   8  14  25  42  64  91 124 160 196 234 278
#     4  10  19  28  43  69  98 127 158 196 238 282
#     4   8  14  25  41  62  91 126 160 194 234 281
#
# _framework density 17.052602
#
# number of rings (size 3 to 8) (size 9 to 14) (size 15 to 20)
#    0.000    2.667    1.667    2.000    0.000    3.333 
#    0.000    3.333    0.000    0.000    0.000    1.167 
#    0.000    9.333    0.000    0.000    0.000    0.000 
#
# Total GULP energy -595083.689348 kJ/mol
# GULP energy per Si atom -12397.576861 kJ/mol
# Density = 1.701379 g / cm^3
# Si number density = 17.052602 Si / 1000 Ang^3
#
#
#
# Elastic Constant Matrix: (Units=GPa)
#
#
# Indices 1 2 3 4 5 6 
#
# 1 167.3604 88.1284 42.9750 0.0000 0.0000 0.0000
# 2 88.1284 93.0816 28.7302 0.0000 0.0000 0.0000
# 3 42.9750 28.7302 59.8794 0.0000 0.0000 0.0000
# 4 0.0000 0.0000 0.0000 -1.1546 0.0000 0.0000
# 5 0.0000 0.0000 0.0000 0.0000 13.3511 0.0000
# 6 0.0000 0.0000 0.0000 0.0000 0.0000 14.5615
#
#
#
# Elastic Compliance Matrix: (Units=1/GPa)
#
#
# Indices 1 2 3 4 5 6 
#
# 1 0.012651 -0.010770 -0.003912 0.000000 0.000000 0.000000
# 2 -0.010770 0.021780 -0.002720 0.000000 0.000000 0.000000
# 3 -0.003912 -0.002720 0.020813 0.000000 0.000000 0.000000
# 4 0.000000 0.000000 0.000000 -0.866123 0.000000 0.000000
# 5 0.000000 0.000000 0.000000 0.000000 0.074900 0.000000
# 6 0.000000 0.000000 0.000000 0.000000 0.000000 0.068674
#
#
# Mechanical properties :
#
#
# Convention : Reuss Voigt Hill
#
# Bulk Modulus (GPa) = 48.92618 71.10984 60.01801
# Shear Modulus (GPa) = -7.99123 16.05080 4.02979
#
# Velocity S-wave (km/s) = -2.16712 3.07131 1.53892
# Velocity P-wave (km/s) = 4.74255 7.37347 6.19919
#
# Compressibility (1/GPa) = 0.02043895
#
# Stress axis : x y z
#
# Youngs Moduli (GPa) = 79.04425 45.91321 48.04687
#
# Poissons Ratio (x) = 0.49451 0.18796
# Poissons Ratio (y) = 0.85134 0.13070
# Poissons Ratio (z) = 0.30922 0.12490
#
# Static dielectric constant tensor:
#      x y z
#    x 3.495470 0.000000 0.000000 
#    y 0.000000 3.173310 0.000000 
#    z 0.000000 0.000000 1.826840 
# 
# 
# High freq. dielectric constant tensor:
#      x y z
#    x 1.674940 0.000000 0.000000 
#    y 0.000000 1.657750 0.000000 
#    z 0.000000 0.000000 1.594740 
# 
# From -- ./inp_files/12802.got.cif
#   From: 2010.03.12/outbox.cif.g09.slc.cpg/sg51_7_cif.got.tgz:12802.got - 2010.04.16 13:43:02.
