data_PCOD8207067
_publ_section_title
;
Structure prediction by ZEFSAII (Michael W. Deem and Ramdas Pophale) SiO2 
 PCOD8207067
Probable space group: P M M A
;
_chemical_formula_sum "Si O2"
_cell_formula_units_Z 56
_cell_length_a 19.714408
_cell_length_b 8.667073
_cell_length_c 17.737863
_cell_angle_alpha 90.000000
_cell_angle_beta 90.000000
_cell_angle_gamma 90.000000
_cell_volume 3030.801483
_symmetry_space_group_name_H-M "P M M A"
_symmetry_group_IT_number 51
_symmetry_cell_setting 'orthorhombic'
loop_
_space_group_symop_operation_xyz
x,y,z
1/2-x,-y,z
1/2+x,-y,-z
-x,y,-z
-x,-y,-z
1/2+x,y,-z
1/2-x,y,z
x,-y,z
loop_
_atom_site_type_symbol
_atom_site_label
_atom_site_fract_x
_atom_site_fract_y
_atom_site_fract_z
Si Si1 0.824826 0.816569 0.420327
Si Si2 0.461877 0.679576 0.306766
Si Si3 0.933055 0.680005 0.858794
Si Si4 0.172735 0.315902 0.021382
Si Si5 0.584291 0.317621 0.118417
Si Si6 0.930152 0.818571 0.541082
Si Si7 0.397638 0.180356 0.726144
O O1 0.750000 0.755397 0.437420
O O2 0.872199 0.752225 0.486467
O O3 0.846122 0.758385 0.337504
O O4 0.830061 0.000000 0.420519
O O5 0.482353 0.500000 0.310003
O O6 0.419664 0.712650 0.229879
O O7 0.419727 0.728899 0.380152
O O8 0.528096 0.784998 0.305772
O O9 0.936095 0.500000 0.876045
O O10 0.869929 0.748292 0.906584
O O11 0.006702 0.748723 0.884827
O O12 0.250000 0.249927 0.022894
O O13 0.176086 0.500000 0.020983
O O14 0.131709 0.253436 0.948472
O O15 0.581143 0.500000 0.114527
O O16 0.618765 0.269090 0.196853
O O17 0.000000 0.777164 0.500000
O O18 0.923940 0.000000 0.556830
O O19 0.390010 0.000000 0.741466
#
# Coordination Sequence:
#
# PCOD8207067 Si02
#       7
#     8   8   8   8   8   8   8
#     4   9  18  32  49  69  96 130 165 197 235 289
#     4  10  19  31  50  76 100 124 159 205 255 294
#     4   8  15  28  45  66  94 126 159 193 235 288
#     4   9  16  27  46  70  94 125 165 203 240 286
#     4   9  17  29  47  72  98 123 156 201 248 290
#     4  10  18  32  53  75  96 125 167 207 238 284
#     4  10  18  31  50  72  97 127 164 200 239 292
#
# _framework density 18.476959999999998
#
# number of rings (size 3 to 8) (size 9 to 14) (size 15 to 20)
#    0.000    2.714    1.429    2.143    0.000    2.571 
#    0.000    0.714    0.000   12.000    0.000    0.000 
#    0.000    0.000    0.000    0.000    0.000    0.000 
#
# Total GULP energy -694077.597282 kJ/mol
# GULP energy per Si atom -12394.242809 kJ/mol
# Density = 1.843491 g / cm^3
# Si number density = 18.476960 Si / 1000 Ang^3
#
#
#
# Elastic Constant Matrix: (Units=GPa)
#
#
# Indices 1 2 3 4 5 6 
#
# 1 134.6542 9.1885 91.1572 0.0000 0.0000 0.0000
# 2 9.1885 9.0710 14.4780 0.0000 0.0000 0.0000
# 3 91.1572 14.4780 167.2026 0.0000 0.0000 0.0000
# 4 0.0000 0.0000 0.0000 19.4798 0.0000 0.0000
# 5 0.0000 0.0000 0.0000 0.0000 28.8456 0.0000
# 6 0.0000 0.0000 0.0000 0.0000 0.0000 10.6523
#
#
#
# Elastic Compliance Matrix: (Units=1/GPa)
#
#
# Indices 1 2 3 4 5 6 
#
# 1 0.011801 -0.001955 -0.006264 0.000000 0.000000 0.000000
# 2 -0.001955 0.128245 -0.010039 0.000000 0.000000 0.000000
# 3 -0.006264 -0.010039 0.010265 0.000000 0.000000 0.000000
# 4 0.000000 0.000000 0.000000 0.051335 0.000000 0.000000
# 5 0.000000 0.000000 0.000000 0.000000 0.034667 0.000000
# 6 0.000000 0.000000 0.000000 0.000000 0.000000 0.093876
#
#
# Mechanical properties :
#
#
# Convention : Reuss Voigt Hill
#
# Bulk Modulus (GPa) = 8.78778 60.06395 34.42586
# Shear Modulus (GPa) = 12.35674 24.86914 18.61294
#
# Velocity S-wave (km/s) = 2.58885 3.67270 3.17734
# Velocity P-wave (km/s) = 3.70171 7.11077 5.66858
#
# Compressibility (1/GPa) = 0.11379437
#
# Stress axis : x y z
#
# Youngs Moduli (GPa) = 84.74159 7.79757 97.41622
#
# Poissons Ratio (x) = 0.01525 0.61024
# Poissons Ratio (y) = 0.16569 0.97794
# Poissons Ratio (z) = 0.53084 0.07828
#
# Static dielectric constant tensor:
#      x y z
#    x 3.514210 0.000000 0.000000 
#    y 0.000000 2.934510 0.000000 
#    z 0.000000 0.000000 3.675380 
# 
# 
# High freq. dielectric constant tensor:
#      x y z
#    x 1.698620 0.000000 0.000000 
#    y 0.000000 1.670960 0.000000 
#    z 0.000000 0.000000 1.733150 
# 
# From -- ./inp_files/30342.got.cif
#   From: 2010.03.12/outbox.cif.g09.slc.cpg/sg51_16_cif.got.tgz:30342.got - 2010.04.16 13:43:02.
