data_PCOD8207770
_publ_section_title
;
Structure prediction by ZEFSAII (Michael W. Deem and Ramdas Pophale) SiO2 
 PCOD8207770
Probable space group: P M M A
;
_chemical_formula_sum "Si O2"
_cell_formula_units_Z 64
_cell_length_a 14.680187
_cell_length_b 9.200272
_cell_length_c 26.156906
_cell_angle_alpha 90.000000
_cell_angle_beta 90.000000
_cell_angle_gamma 90.000000
_cell_volume 3532.796542
_symmetry_space_group_name_H-M "P M M A"
_symmetry_group_IT_number 51
_symmetry_cell_setting 'orthorhombic'
loop_
_space_group_symop_operation_xyz
x,y,z
1/2-x,-y,z
1/2+x,-y,-z
-x,y,-z
-x,-y,-z
1/2+x,y,-z
1/2-x,y,z
x,-y,z
loop_
_atom_site_type_symbol
_atom_site_label
_atom_site_fract_x
_atom_site_fract_y
_atom_site_fract_z
Si Si1 0.145952 0.331842 0.772286
Si Si2 0.852527 0.327153 0.500269
Si Si3 0.503710 0.331291 0.059936
Si Si4 0.143930 0.831243 0.873883
Si Si5 0.005276 0.670974 0.306454
Si Si6 0.644008 0.165366 0.761612
Si Si7 0.999209 0.672888 0.420699
Si Si8 0.144493 0.832185 0.121869
O O1 0.250000 0.297384 0.757989
O O2 0.132269 0.500000 0.787058
O O3 0.112800 0.236495 0.820051
O O4 0.086858 0.287011 0.723303
O O5 0.750000 0.260630 0.500576
O O6 0.846503 0.500000 0.499705
O O7 0.908553 0.272289 0.450434
O O8 0.908665 0.275176 0.550400
O O9 0.513211 0.500000 0.073740
O O10 0.591385 0.246394 0.080459
O O11 0.411733 0.270570 0.084634
O O12 0.500000 0.304262 0.000000
O O13 0.250000 0.804105 0.883641
O O14 0.118401 0.000000 0.872950
O O15 0.018748 0.500000 0.309324
O O16 0.998840 0.737610 0.363457
O O17 0.092206 0.732840 0.277616
O O18 0.750000 0.184842 0.750514
O O19 0.621784 0.210979 0.819794
O O20 0.613600 0.000000 0.752584
O O21 0.996997 0.500000 0.419518
O O22 0.250000 0.805840 0.109810
O O23 0.118547 0.000000 0.112227
#
# Coordination Sequence:
#
# PCOD8207770 Si02
#       8
#     8   8   8   8   8   8   8   8
#     4   9  18  32  49  71 101 134 163 194 241 299
#     4   8  13  23  39  56  81 122 163 198 240 285
#     4  11  24  38  53  77 107 136 165 201 250 304
#     4  10  21  37  57  78  99 129 171 213 249 290
#     4  10  19  29  45  72 103 130 158 199 246 289
#     4   9  19  35  52  71  97 129 162 195 238 292
#     4   8  15  25  36  59  92 120 154 198 240 284
#     4   9  19  37  59  79 100 130 169 211 249 288
#
# _framework density 18.115960000000001
#
# number of rings (size 3 to 8) (size 9 to 14) (size 15 to 20)
#    0.000    2.750    0.000    3.000    0.000    6.750 
#    0.000    7.500    0.000    0.000    0.000    1.750 
#    0.000    1.000    0.000    0.000    0.000    0.000 
#
# Total GULP energy -793542.646433 kJ/mol
# GULP energy per Si atom -12399.103851 kJ/mol
# Density = 1.807473 g / cm^3
# Si number density = 18.115960 Si / 1000 Ang^3
#
#
#
# Elastic Constant Matrix: (Units=GPa)
#
#
# Indices 1 2 3 4 5 6 
#
# 1 118.0304 39.0726 74.1919 0.0000 0.0000 0.0000
# 2 39.0726 54.9505 55.6181 0.0000 0.0000 0.0000
# 3 74.1919 55.6181 146.7106 0.0000 0.0000 0.0000
# 4 0.0000 0.0000 0.0000 7.4852 0.0000 0.0000
# 5 0.0000 0.0000 0.0000 0.0000 12.6637 0.0000
# 6 0.0000 0.0000 0.0000 0.0000 0.0000 24.2017
#
#
#
# Elastic Compliance Matrix: (Units=1/GPa)
#
#
# Indices 1 2 3 4 5 6 
#
# 1 0.012992 -0.004199 -0.004978 0.000000 0.000000 0.000000
# 2 -0.004199 0.030886 -0.009585 0.000000 0.000000 0.000000
# 3 -0.004978 -0.009585 0.012967 0.000000 0.000000 0.000000
# 4 0.000000 0.000000 0.000000 0.133597 0.000000 0.000000
# 5 0.000000 0.000000 0.000000 0.000000 0.078966 0.000000
# 6 0.000000 0.000000 0.000000 0.000000 0.000000 0.041319
#
#
# Mechanical properties :
#
#
# Convention : Reuss Voigt Hill
#
# Bulk Modulus (GPa) = 51.76048 73.05072 62.40560
# Shear Modulus (GPa) = 14.09674 18.92404 16.51039
#
# Velocity S-wave (km/s) = 2.79254 3.23554 3.02217
# Velocity P-wave (km/s) = 6.24752 7.37359 6.83379
#
# Compressibility (1/GPa) = 0.01931976
#
# Stress axis : x y z
#
# Youngs Moduli (GPa) = 76.97316 32.37733 77.11733
#
# Poissons Ratio (x) = 0.13596 0.38388
# Poissons Ratio (y) = 0.32323 0.73919
# Poissons Ratio (z) = 0.38317 0.31034
#
# Static dielectric constant tensor:
#      x y z
#    x 3.525500 0.000000 0.000000 
#    y 0.000000 3.090950 0.000000 
#    z 0.000000 0.000000 3.477740 
# 
# 
# High freq. dielectric constant tensor:
#      x y z
#    x 1.713120 0.000000 0.000000 
#    y 0.000000 1.671010 0.000000 
#    z 0.000000 0.000000 1.701760 
# 
# From -- ./inp_files/35644.got.cif
#   From: 2010.03.12/outbox.cif.g09.slc.cpg/sg51_18_cif.got.tgz:35644.got - 2010.04.16 13:43:02.
