data_PCOD8207253
_publ_section_title
;
Structure prediction by ZEFSAII (Michael W. Deem and Ramdas Pophale) SiO2 
 PCOD8207253
Probable space group: P M M A
;
_chemical_formula_sum "Si O2"
_cell_formula_units_Z 44
_cell_length_a 8.689711
_cell_length_b 27.991404
_cell_length_c 9.972726
_cell_angle_alpha 90.000000
_cell_angle_beta 90.000000
_cell_angle_gamma 90.000000
_cell_volume 2425.738061
_symmetry_space_group_name_H-M "P M M A"
_symmetry_group_IT_number 51
_symmetry_cell_setting 'orthorhombic'
loop_
_space_group_symop_operation_xyz
x,y,z
1/2-x,-y,z
1/2+x,-y,-z
-x,y,-z
-x,-y,-z
1/2+x,y,-z
1/2-x,y,z
x,-y,z
loop_
_atom_site_type_symbol
_atom_site_label
_atom_site_fract_x
_atom_site_fract_y
_atom_site_fract_z
Si Si1 0.433332 0.500000 0.851421
Si Si2 0.572270 0.777645 0.361024
Si Si3 0.069148 0.050406 0.145865
Si Si4 0.070622 0.665942 0.640793
Si Si5 0.568373 0.153667 0.852792
Si Si6 0.432424 0.596726 0.147659
O O1 0.250000 0.500000 0.849621
O O2 0.498221 0.548402 0.783800
O O3 0.500000 0.500000 0.000000
O O4 0.500000 0.795317 0.500000
O O5 0.750000 0.790494 0.364825
O O6 0.542234 0.721868 0.338755
O O7 0.494696 0.804799 0.239365
O O8 0.250000 0.050858 0.129423
O O9 0.020098 0.101366 0.211269
O O10 0.019482 0.000000 0.220958
O O11 0.000000 0.049151 0.000000
O O12 0.250000 0.652552 0.644848
O O13 0.000000 0.648647 0.500000
O O14 0.980200 0.640834 0.760629
O O15 0.750000 0.158988 0.863089
O O16 0.500000 0.160187 0.000000
O O17 0.250000 0.592500 0.137457
O O18 0.500000 0.605244 0.000000
#
# Coordination Sequence:
#
# PCOD8207253 Si02
#       6
#     4   8   8   8   8   8
#     4  10  18  32  53  78 109 142 175 212 254 304
#     4  10  21  37  56  75 100 134 172 211 256 311
#     4   8  14  25  42  66  96 129 163 201 247 298
#     4  10  21  38  57  78 103 135 172 212 259 310
#     4  10  19  31  50  76 105 134 168 211 256 301
#     4  11  21  35  56  82 110 141 176 215 256 301
#
# _framework density 18.138809999999999
#
# number of rings (size 3 to 8) (size 9 to 14) (size 15 to 20)
#    0.000    2.182    0.000    5.182    0.000    3.636 
#    0.000    0.455    0.000    0.545    0.000    0.000 
#    0.000    0.000    0.000    0.000    0.000    0.000 
#
# Total GULP energy -545197.387316 kJ/mol
# GULP energy per Si atom -12390.849712 kJ/mol
# Density = 1.809753 g / cm^3
# Si number density = 18.138810 Si / 1000 Ang^3
#
#
#
# Elastic Constant Matrix: (Units=GPa)
#
#
# Indices 1 2 3 4 5 6 
#
# 1 123.1761 56.1001 48.8732 0.0000 0.0000 0.0000
# 2 56.1001 87.8773 57.6887 0.0000 0.0000 0.0000
# 3 48.8732 57.6887 88.7070 0.0000 0.0000 0.0000
# 4 0.0000 0.0000 0.0000 -0.7755 0.0000 0.0000
# 5 0.0000 0.0000 0.0000 0.0000 30.1152 0.0000
# 6 0.0000 0.0000 0.0000 0.0000 0.0000 173.4248
#
#
#
# Elastic Compliance Matrix: (Units=1/GPa)
#
#
# Indices 1 2 3 4 5 6 
#
# 1 0.011833 -0.005714 -0.002804 0.000000 0.000000 0.000000
# 2 -0.005714 0.022616 -0.011560 0.000000 0.000000 0.000000
# 3 -0.002804 -0.011560 0.020335 0.000000 0.000000 0.000000
# 4 0.000000 0.000000 0.000000 -1.289523 0.000000 0.000000
# 5 0.000000 0.000000 0.000000 0.000000 0.033206 0.000000
# 6 0.000000 0.000000 0.000000 0.000000 0.000000 0.005766
#
#
# Mechanical properties :
#
#
# Convention : Reuss Voigt Hill
#
# Bulk Modulus (GPa) = 68.35231 69.45380 68.90306
# Shear Modulus (GPa) = -4.34504 49.69279 22.67388
#
# Velocity S-wave (km/s) = -1.54940 5.23978 3.53940
# Velocity P-wave (km/s) = 5.87910 8.65912 7.40082
#
# Compressibility (1/GPa) = 0.01463008
#
# Stress axis : x y z
#
# Youngs Moduli (GPa) = 84.50834 44.21741 49.17540
#
# Poissons Ratio (x) = 0.25264 0.13788
# Poissons Ratio (y) = 0.48285 0.56845
# Poissons Ratio (z) = 0.23694 0.51114
#
# Static dielectric constant tensor:
#      x y z
#    x 3.524120 0.000000 0.000000 
#    y 0.000000 4.104090 0.000000 
#    z 0.000000 0.000000 3.020720 
# 
# 
# High freq. dielectric constant tensor:
#      x y z
#    x 1.720590 0.000000 0.000000 
#    y 0.000000 1.724810 0.000000 
#    z 0.000000 0.000000 1.661910 
# 
# From -- ./inp_files/5844.got.cif
#   From: 2010.03.12/outbox.cif.g09.slc.cpg/sg51_3_cif.got.tgz:5844.got - 2010.04.16 13:43:02.
