data_PCOD8207791
_publ_section_title
;
Structure prediction by ZEFSAII (Michael W. Deem and Ramdas Pophale) SiO2 
 PCOD8207791
Probable space group: P M M A
;
_chemical_formula_sum "Si O2"
_cell_formula_units_Z 40
_cell_length_a 9.395170
_cell_length_b 7.835608
_cell_length_c 29.179455
_cell_angle_alpha 90.000000
_cell_angle_beta 90.000000
_cell_angle_gamma 90.000000
_cell_volume 2148.100122
_symmetry_space_group_name_H-M "P M M A"
_symmetry_group_IT_number 51
_symmetry_cell_setting 'orthorhombic'
loop_
_space_group_symop_operation_xyz
x,y,z
1/2-x,-y,z
1/2+x,-y,-z
-x,y,-z
-x,-y,-z
1/2+x,y,-z
1/2-x,y,z
x,-y,z
loop_
_atom_site_type_symbol
_atom_site_label
_atom_site_fract_x
_atom_site_fract_y
_atom_site_fract_z
Si Si1 0.087314 0.809927 0.110628
Si Si2 0.919650 0.809265 0.389097
Si Si3 0.085740 0.305832 0.806406
Si Si4 0.591792 0.799777 0.289362
Si Si5 0.080779 0.500000 0.547453
Si Si6 0.917963 0.500000 0.952800
O O1 0.250000 0.769451 0.123585
O O2 0.033035 0.669469 0.074488
O O3 0.997991 0.807460 0.157282
O O4 0.071466 0.000000 0.089162
O O5 0.750000 0.811061 0.385197
O O6 0.982767 0.759941 0.338588
O O7 0.970485 0.669126 0.425574
O O8 0.972149 0.000000 0.403724
O O9 0.250000 0.245339 0.805893
O O10 0.070514 0.500000 0.822039
O O11 0.016775 0.282551 0.755373
O O12 0.750000 0.721350 0.291462
O O13 0.596633 0.000000 0.281773
O O14 0.250000 0.500000 0.539686
O O15 0.000000 0.500000 0.500000
O O16 0.750000 0.500000 0.962362
O O17 0.000000 0.500000 0.000000
#
# Coordination Sequence:
#
# PCOD8207791 Si02
#       6
#     8   8   8   8   4   4
#     4  10  21  38  58  78 105 143 178 207 248 303
#     4   8  15  28  46  69  96 126 160 198 243 294
#     4  10  19  29  48  80 112 139 169 207 251 295
#     4   8  14  25  42  68 101 131 161 201 244 285
#     4  10  20  32  49  70  92 120 159 204 249 298
#     4  10  22  40  59  80 106 132 169 218 261 306
#
# _framework density 18.621106999999999
#
# number of rings (size 3 to 8) (size 9 to 14) (size 15 to 20)
#    0.000    2.800    1.000    1.800    1.400    2.800 
#    0.000    0.000    0.000    1.200    0.000    2.800 
#    0.000    0.000    0.000    0.000    0.000    0.000 
#
# Total GULP energy -495688.770318 kJ/mol
# GULP energy per Si atom -12392.219258 kJ/mol
# Density = 1.857872 g / cm^3
# Si number density = 18.621107 Si / 1000 Ang^3
#
#
#
# Elastic Constant Matrix: (Units=GPa)
#
#
# Indices 1 2 3 4 5 6 
#
# 1 28.4180 25.1959 38.2298 0.0000 0.0000 0.0000
# 2 25.1959 121.3328 78.8393 0.0000 0.0000 0.0000
# 3 38.2298 78.8393 157.6662 0.0000 0.0000 0.0000
# 4 0.0000 0.0000 0.0000 28.1948 0.0000 0.0000
# 5 0.0000 0.0000 0.0000 0.0000 24.2332 0.0000
# 6 0.0000 0.0000 0.0000 0.0000 0.0000 13.5939
#
#
#
# Elastic Compliance Matrix: (Units=1/GPa)
#
#
# Indices 1 2 3 4 5 6 
#
# 1 0.053484 -0.003970 -0.010984 0.000000 0.000000 0.000000
# 2 -0.003970 0.012503 -0.005290 0.000000 0.000000 0.000000
# 3 -0.010984 -0.005290 0.011651 0.000000 0.000000 0.000000
# 4 0.000000 0.000000 0.000000 0.035468 0.000000 0.000000
# 5 0.000000 0.000000 0.000000 0.000000 0.041266 0.000000
# 6 0.000000 0.000000 0.000000 0.000000 0.000000 0.073562
#
#
# Mechanical properties :
#
#
# Convention : Reuss Voigt Hill
#
# Bulk Modulus (GPa) = 26.91590 65.77188 46.34389
# Shear Modulus (GPa) = 17.80605 24.21451 21.01028
#
# Velocity S-wave (km/s) = 3.09565 3.60999 3.36267
# Velocity P-wave (km/s) = 5.22143 7.26456 6.32602
#
# Compressibility (1/GPa) = 0.03715275
#
# Stress axis : x y z
#
# Youngs Moduli (GPa) = 18.69706 79.97982 85.83179
#
# Poissons Ratio (x) = 0.31749 0.94273
# Poissons Ratio (y) = 0.07422 0.45401
# Poissons Ratio (z) = 0.20536 0.42306
#
# Static dielectric constant tensor:
#      x y z
#    x 2.901570 0.000000 0.000000 
#    y 0.000000 3.630660 0.000000 
#    z 0.000000 0.000000 3.476120 
# 
# 
# High freq. dielectric constant tensor:
#      x y z
#    x 1.658630 0.000000 0.000000 
#    y 0.000000 1.736060 0.000000 
#    z 0.000000 0.000000 1.726310 
# 
# From -- ./inp_files/36078.got.cif
#   From: 2010.03.12/outbox.cif.g09.slc.cpg/sg51_19_cif.got.tgz:36078.got - 2010.04.16 13:43:02.
