data_PCOD8207667
_publ_section_title
;
Structure prediction by ZEFSAII (Michael W. Deem and Ramdas Pophale) SiO2 
 PCOD8207667
Probable space group: P M M A
;
_chemical_formula_sum "Si O2"
_cell_formula_units_Z 52
_cell_length_a 9.066513
_cell_length_b 22.906779
_cell_length_c 14.937461
_cell_angle_alpha 90.000000
_cell_angle_beta 90.000000
_cell_angle_gamma 90.000000
_cell_volume 3102.280756
_symmetry_space_group_name_H-M "P M M A"
_symmetry_group_IT_number 51
_symmetry_cell_setting 'orthorhombic'
loop_
_space_group_symop_operation_xyz
x,y,z
1/2-x,-y,z
1/2+x,-y,-z
-x,y,-z
-x,-y,-z
1/2+x,y,-z
1/2-x,y,z
x,-y,z
loop_
_atom_site_type_symbol
_atom_site_label
_atom_site_fract_x
_atom_site_fract_y
_atom_site_fract_z
Si Si1 0.577235 0.903902 0.264892
Si Si2 0.923855 0.674615 0.404605
Si Si3 0.579057 0.770875 0.261902
Si Si4 0.916081 0.093825 0.913399
Si Si5 0.084592 0.767238 0.085975
Si Si6 0.576962 0.563470 0.595770
Si Si7 0.577176 0.000000 0.404997
O O1 0.750000 0.910371 0.245779
O O2 0.532461 0.837084 0.285772
O O3 0.495256 0.927824 0.176823
O O4 0.528861 0.942540 0.349741
O O5 0.750000 0.665049 0.416302
O O6 0.960188 0.731461 0.346687
O O7 0.000000 0.684747 0.500000
O O8 0.995770 0.617598 0.354640
O O9 0.750000 0.767949 0.236571
O O10 0.492286 0.745714 0.176733
O O11 0.750000 0.069613 0.913920
O O12 0.918476 0.163300 0.917243
O O13 0.000000 0.068143 0.000000
O O14 0.250000 0.742737 0.084214
O O15 0.000000 0.741292 0.000000
O O16 0.500000 0.560637 0.500000
O O17 0.750000 0.576946 0.585100
O O18 0.553924 0.500000 0.643747
O O19 0.500000 0.000000 0.500000
O O20 0.750000 0.000000 0.422681
#
# Coordination Sequence:
#
# PCOD8207667 Si02
#       7
#     8   8   8   8   8   8   4
#     4   9  18  34  51  67  89 116 148 187 228 270
#     4  10  19  29  42  62  89 121 153 186 224 264
#     4   9  18  31  46  65  91 120 149 184 226 269
#     4   9  16  27  46  72  96 118 142 171 214 268
#     4   9  16  26  43  66  91 118 147 179 218 265
#     4   9  16  26  41  60  83 114 150 185 220 259
#     4  10  22  38  55  70  85 112 151 194 236 272
#
# _framework density 16.761861
#
# number of rings (size 3 to 8) (size 9 to 14) (size 15 to 20)
#    0.000    2.769    0.000    2.769    0.000    7.077 
#    0.000    0.385    0.000    0.000    0.000    0.000 
#    0.000    0.615    0.000    2.000    0.000    3.231 
#
# Total GULP energy -644531.136621 kJ/mol
# GULP energy per Si atom -12394.829550 kJ/mol
# Density = 1.672371 g / cm^3
# Si number density = 16.761861 Si / 1000 Ang^3
#
#
#
# Elastic Constant Matrix: (Units=GPa)
#
#
# Indices 1 2 3 4 5 6 
#
# 1 103.3636 44.1303 65.8890 0.0000 0.0000 0.0000
# 2 44.1303 87.2423 54.4142 0.0000 0.0000 0.0000
# 3 65.8890 54.4142 123.6061 0.0000 0.0000 0.0000
# 4 0.0000 0.0000 0.0000 0.4567 0.0000 0.0000
# 5 0.0000 0.0000 0.0000 0.0000 31.8540 0.0000
# 6 0.0000 0.0000 0.0000 0.0000 0.0000 16.5589
#
#
#
# Elastic Compliance Matrix: (Units=1/GPa)
#
#
# Indices 1 2 3 4 5 6 
#
# 1 0.015474 -0.003698 -0.006620 0.000000 0.000000 0.000000
# 2 -0.003698 0.016685 -0.005374 0.000000 0.000000 0.000000
# 3 -0.006620 -0.005374 0.013985 0.000000 0.000000 0.000000
# 4 0.000000 0.000000 0.000000 2.189435 0.000000 0.000000
# 5 0.000000 0.000000 0.000000 0.000000 0.031393 0.000000
# 6 0.000000 0.000000 0.000000 0.000000 0.000000 0.060390
#
#
# Mechanical properties :
#
#
# Convention : Reuss Voigt Hill
#
# Bulk Modulus (GPa) = 67.75532 71.45322 69.60427
# Shear Modulus (GPa) = 2.11536 19.75915 10.93725
#
# Velocity S-wave (km/s) = 1.12461 3.43711 2.55720
# Velocity P-wave (km/s) = 6.49588 7.64674 7.09468
#
# Compressibility (1/GPa) = 0.01475899
#
# Stress axis : x y z
#
# Youngs Moduli (GPa) = 64.62655 59.93584 71.50568
#
# Poissons Ratio (x) = 0.22163 0.47340
# Poissons Ratio (y) = 0.23898 0.38425
# Poissons Ratio (z) = 0.42785 0.32208
#
# Static dielectric constant tensor:
#      x y z
#    x 3.298370 0.000000 0.000000 
#    y 0.000000 3.432430 0.000000 
#    z 0.000000 0.000000 2.990420 
# 
# 
# High freq. dielectric constant tensor:
#      x y z
#    x 1.658360 0.000000 0.000000 
#    y 0.000000 1.625190 0.000000 
#    z 0.000000 0.000000 1.621100 
# 
# From -- ./inp_files/22063.got.cif
#   From: 2010.03.12/outbox.cif.g09.slc.cpg/sg51_12_cif.got.tgz:22063.got - 2010.04.16 13:43:02.
