data_PCOD8207893
_publ_section_title
;
Structure prediction by ZEFSAII (Michael W. Deem and Ramdas Pophale) SiO2 
 PCOD8207893
Probable space group: P M M A
;
_chemical_formula_sum "Si O2"
_cell_formula_units_Z 44
_cell_length_a 9.312535
_cell_length_b 18.056589
_cell_length_c 15.891691
_cell_angle_alpha 90.000000
_cell_angle_beta 90.000000
_cell_angle_gamma 90.000000
_cell_volume 2672.229431
_symmetry_space_group_name_H-M "P M M A"
_symmetry_group_IT_number 51
_symmetry_cell_setting 'orthorhombic'
loop_
_space_group_symop_operation_xyz
x,y,z
1/2-x,-y,z
1/2+x,-y,-z
-x,y,-z
-x,-y,-z
1/2+x,y,-z
1/2-x,y,z
x,-y,z
loop_
_atom_site_type_symbol
_atom_site_label
_atom_site_fract_x
_atom_site_fract_y
_atom_site_fract_z
Si Si1 0.000000 0.195149 0.000000
Si Si2 0.582482 0.914950 0.586332
Si Si3 0.584517 0.583408 0.913711
Si Si4 0.417622 0.154333 0.735701
Si Si5 0.094310 0.081980 0.126588
Si Si6 0.090253 0.709158 0.847268
O O1 0.105274 0.141320 0.051476
O O2 0.913155 0.246404 0.064707
O O3 0.500000 0.901270 0.500000
O O4 0.750000 0.895466 0.574800
O O5 0.511037 0.859423 0.652896
O O6 0.562856 0.000000 0.616188
O O7 0.750000 0.602588 0.930649
O O8 0.566426 0.500000 0.878707
O O9 0.521169 0.640858 0.845770
O O10 0.500000 0.593528 0.000000
O O11 0.250000 0.140439 0.717236
O O12 0.467487 0.098042 0.808085
O O13 0.446903 0.237723 0.768609
O O14 0.250000 0.085452 0.172962
O O15 0.067901 0.000000 0.089274
O O16 0.250000 0.676838 0.836833
#
# Coordination Sequence:
#
# PCOD8207893 Si02
#       6
#     4   8   8   8   8   8
#     4  10  19  30  45  62  84 116 160 200 239 280
#     4  10  20  34  53  75  98 126 160 197 240 288
#     4  10  20  32  48  69  93 122 157 197 239 283
#     4  10  21  34  48  69  95 122 155 195 240 284
#     4  10  20  32  45  61  84 117 158 201 242 283
#     4  10  20  32  47  67  92 123 159 197 237 280
#
# _framework density 16.465651999999999
#
# number of rings (size 3 to 8) (size 9 to 14) (size 15 to 20)
#    0.000    2.000    0.909    3.000    0.000    9.091 
#    0.000    0.000    0.000    0.000    0.000    0.000 
#    0.000    0.727    0.000    2.364    0.000    3.455 
#
# Total GULP energy -545457.288341 kJ/mol
# GULP energy per Si atom -12396.756553 kJ/mol
# Density = 1.642817 g / cm^3
# Si number density = 16.465652 Si / 1000 Ang^3
#
#
#
# Elastic Constant Matrix: (Units=GPa)
#
#
# Indices 1 2 3 4 5 6 
#
# 1 134.4779 62.0076 48.4986 0.0000 0.0000 0.0000
# 2 62.0076 102.6076 37.4801 0.0000 0.0000 0.0000
# 3 48.4986 37.4801 74.9128 0.0000 0.0000 0.0000
# 4 0.0000 0.0000 0.0000 17.8518 0.0000 0.0000
# 5 0.0000 0.0000 0.0000 0.0000 26.4342 0.0000
# 6 0.0000 0.0000 0.0000 0.0000 0.0000 -4.2653
#
#
#
# Elastic Compliance Matrix: (Units=1/GPa)
#
#
# Indices 1 2 3 4 5 6 
#
# 1 0.011615 -0.005228 -0.004904 0.000000 0.000000 0.000000
# 2 -0.005228 0.014278 -0.003759 0.000000 0.000000 0.000000
# 3 -0.004904 -0.003759 0.018405 0.000000 0.000000 0.000000
# 4 0.000000 0.000000 0.000000 0.056017 0.000000 0.000000
# 5 0.000000 0.000000 0.000000 0.000000 0.037830 0.000000
# 6 0.000000 0.000000 0.000000 0.000000 0.000000 -0.234453
#
#
# Mechanical properties :
#
#
# Convention : Reuss Voigt Hill
#
# Bulk Modulus (GPa) = 60.54809 67.55232 64.05021
# Shear Modulus (GPa) = -79.33994 18.93828 -30.20083
#
# Velocity S-wave (km/s) = -6.94908 3.39509 -4.28737
# Velocity P-wave (km/s) = 5.24730 7.51559 3.80460
#
# Compressibility (1/GPa) = 0.01651580
#
# Stress axis : x y z
#
# Youngs Moduli (GPa) = 86.09191 70.03597 54.33444
#
# Poissons Ratio (x) = 0.36615 0.26647
# Poissons Ratio (y) = 0.45009 0.20425
# Poissons Ratio (z) = 0.42221 0.26327
#
# Static dielectric constant tensor:
#      x y z
#    x 3.222320 0.000000 0.000000 
#    y 0.000000 3.183330 0.000000 
#    z 0.000000 0.000000 2.860330 
# 
# 
# High freq. dielectric constant tensor:
#      x y z
#    x 1.651910 0.000000 0.000000 
#    y 0.000000 1.623590 0.000000 
#    z 0.000000 0.000000 1.594760 
# 
# From -- ./inp_files/20880.got.cif
#   From: 2010.03.12/outbox.cif.g09.slc.cpg/sg51_11_cif.got.tgz:20880.got - 2010.04.16 13:43:02.
