data_PCOD8207544
_publ_section_title
;
Structure prediction by ZEFSAII (Michael W. Deem and Ramdas Pophale) SiO2 
 PCOD8207544
Probable space group: P M M A
;
_chemical_formula_sum "Si O2"
_cell_formula_units_Z 56
_cell_length_a 9.039442
_cell_length_b 13.893642
_cell_length_c 29.159029
_cell_angle_alpha 90.000000
_cell_angle_beta 90.000000
_cell_angle_gamma 90.000000
_cell_volume 3662.104935
_symmetry_space_group_name_H-M "P M M A"
_symmetry_group_IT_number 51
_symmetry_cell_setting 'orthorhombic'
loop_
_space_group_symop_operation_xyz
x,y,z
1/2-x,-y,z
1/2+x,-y,-z
-x,y,-z
-x,-y,-z
1/2+x,y,-z
1/2-x,y,z
x,-y,z
loop_
_atom_site_type_symbol
_atom_site_label
_atom_site_fract_x
_atom_site_fract_y
_atom_site_fract_z
Si Si1 0.076013 0.707422 0.720824
Si Si2 0.916612 0.614446 0.455490
Si Si3 0.426385 0.208576 0.862460
Si Si4 0.923812 0.111028 0.046072
Si Si5 0.074642 0.605792 0.813820
Si Si6 0.924109 0.610827 0.636504
Si Si7 0.925252 0.106022 0.227683
O O1 0.250000 0.697088 0.710366
O O2 0.027929 0.640056 0.763207
O O3 0.031673 0.817641 0.732871
O O4 0.982826 0.676895 0.677138
O O5 0.750000 0.655295 0.454426
O O6 0.915195 0.500000 0.458046
O O7 0.000000 0.656821 0.500000
O O8 0.001895 0.648766 0.410156
O O9 0.250000 0.203940 0.862862
O O10 0.487974 0.172538 0.911289
O O11 0.481202 0.317902 0.852133
O O12 0.487053 0.140001 0.821822
O O13 0.750000 0.125199 0.040540
O O14 0.964943 0.000000 0.054870
O O15 0.000000 0.149953 0.000000
O O16 0.250000 0.601282 0.815820
O O17 0.006083 0.500000 0.823632
O O18 0.750000 0.623124 0.631473
O O19 0.967818 0.500000 0.646157
O O20 0.750000 0.102209 0.223977
O O21 0.989751 0.000000 0.239503
#
# Coordination Sequence:
#
# PCOD8207544 Si02
#       7
#     8   8   8   8   8   8   8
#     4   9  16  25  39  59  80 102 129 162 199 235
#     4   9  16  26  40  57  78 105 137 171 205 240
#     4   8  13  21  35  55  76  99 126 155 189 229
#     4   9  16  25  38  56  76  96 119 150 189 232
#     4   8  13  21  35  56  78  97 123 161 196 224
#     4  10  19  28  38  54  79 111 142 169 197 231
#     4   8  13  22  38  60  82 101 125 160 198 235
#
# _framework density 15.291752000000001
#
# number of rings (size 3 to 8) (size 9 to 14) (size 15 to 20)
#    0.000    3.286    0.000    3.429    0.000    4.857 
#    0.000    0.000    0.000    4.286    0.000    0.000 
#    0.000    0.571    0.000    1.571    0.000    2.286 
#
# Total GULP energy -694032.450367 kJ/mol
# GULP energy per Si atom -12393.436614 kJ/mol
# Density = 1.525695 g / cm^3
# Si number density = 15.291752 Si / 1000 Ang^3
#
#
#
# Elastic Constant Matrix: (Units=GPa)
#
#
# Indices 1 2 3 4 5 6 
#
# 1 42.1081 22.3938 40.4549 0.0000 0.0000 0.0000
# 2 22.3938 106.5962 63.3440 0.0000 0.0000 0.0000
# 3 40.4549 63.3440 139.6793 0.0000 0.0000 0.0000
# 4 0.0000 0.0000 0.0000 19.8674 0.0000 0.0000
# 5 0.0000 0.0000 0.0000 0.0000 23.5374 0.0000
# 6 0.0000 0.0000 0.0000 0.0000 0.0000 9.1244
#
#
#
# Elastic Compliance Matrix: (Units=1/GPa)
#
#
# Indices 1 2 3 4 5 6 
#
# 1 0.033134 -0.001722 -0.008815 0.000000 0.000000 0.000000
# 2 -0.001722 0.012931 -0.005366 0.000000 0.000000 0.000000
# 3 -0.008815 -0.005366 0.012146 0.000000 0.000000 0.000000
# 4 0.000000 0.000000 0.000000 0.050334 0.000000 0.000000
# 5 0.000000 0.000000 0.000000 0.000000 0.042486 0.000000
# 6 0.000000 0.000000 0.000000 0.000000 0.000000 0.109596
#
#
# Mechanical properties :
#
#
# Convention : Reuss Voigt Hill
#
# Bulk Modulus (GPa) = 37.87255 60.08545 48.97900
# Shear Modulus (GPa) = 16.59839 21.31857 18.95848
#
# Velocity S-wave (km/s) = 3.29819 3.73785 3.52488
# Velocity P-wave (km/s) = 6.27092 7.61621 6.97607
#
# Compressibility (1/GPa) = 0.02640435
#
# Stress axis : x y z
#
# Youngs Moduli (GPa) = 30.18093 77.33084 82.33397
#
# Poissons Ratio (x) = 0.13319 0.72580
# Poissons Ratio (y) = 0.05198 0.44177
# Poissons Ratio (z) = 0.26605 0.41492
#
# Static dielectric constant tensor:
#      x y z
#    x 2.643680 0.000000 0.000000 
#    y 0.000000 3.159820 0.000000 
#    z 0.000000 0.000000 2.999770 
# 
# 
# High freq. dielectric constant tensor:
#      x y z
#    x 1.551800 0.000000 0.000000 
#    y 0.000000 1.561020 0.000000 
#    z 0.000000 0.000000 1.584470 
# 
# From -- ./inp_files/37503.got.cif
#   From: 2010.03.12/outbox.cif.g09.slc.cpg/sg51_19_cif.got.tgz:37503.got - 2010.04.16 13:43:02.
