data_PCOD8207183
_publ_section_title
;
Structure prediction by ZEFSAII (Michael W. Deem and Ramdas Pophale) SiO2 
 PCOD8207183
Probable space group: P M M A
;
_chemical_formula_sum "Si O2"
_cell_formula_units_Z 64
_cell_length_a 8.794763
_cell_length_b 20.237481
_cell_length_c 20.224095
_cell_angle_alpha 90.000000
_cell_angle_beta 90.000000
_cell_angle_gamma 90.000000
_cell_volume 3599.562273
_symmetry_space_group_name_H-M "P M M A"
_symmetry_group_IT_number 51
_symmetry_cell_setting 'orthorhombic'
loop_
_space_group_symop_operation_xyz
x,y,z
1/2-x,-y,z
1/2+x,-y,-z
-x,y,-z
-x,-y,-z
1/2+x,y,-z
1/2-x,y,z
x,-y,z
loop_
_atom_site_type_symbol
_atom_site_label
_atom_site_fract_x
_atom_site_fract_y
_atom_site_fract_z
Si Si1 0.428748 0.607171 0.066599
Si Si2 0.923065 0.292427 0.250139
Si Si3 0.927522 0.876820 0.935506
Si Si4 0.575594 0.740570 0.099822
Si Si5 0.923166 0.074484 0.793798
Si Si6 0.570180 0.163469 0.311305
Si Si7 0.428293 0.572237 0.798070
Si Si8 0.430203 0.075226 0.569358
O O1 0.250000 0.596869 0.065282
O O2 0.471156 0.684086 0.068852
O O3 0.494158 0.570245 0.130624
O O4 0.500000 0.575616 0.000000
O O5 0.750000 0.301056 0.271777
O O6 0.939971 0.259119 0.178804
O O7 0.996405 0.238942 0.301950
O O8 0.995229 0.367209 0.247537
O O9 0.750000 0.864013 0.945954
O O10 0.958694 0.921808 0.871715
O O11 0.015298 0.808352 0.928443
O O12 0.000000 0.912596 0.000000
O O13 0.750000 0.728901 0.078480
O O14 0.750000 0.096381 0.779831
O O15 0.033732 0.121689 0.753702
O O16 0.952231 0.000000 0.770132
O O17 0.750000 0.167307 0.317105
O O18 0.503556 0.126060 0.375739
O O19 0.250000 0.586335 0.809867
O O20 0.454800 0.500000 0.764325
O O21 0.500000 0.097714 0.500000
O O22 0.250000 0.079820 0.564729
O O23 0.480418 0.000000 0.586867
#
# Coordination Sequence:
#
# PCOD8207183 Si02
#       8
#     8   8   8   8   8   8   8   8
#     4  11  21  32  46  65  89 117 153 195 242 298
#     4   8  15  28  49  73  94 117 150 195 240 281
#     4  11  22  34  48  65  87 117 156 202 255 305
#     4  10  18  32  50  68  90 116 150 194 249 302
#     4  10  22  37  50  68  95 124 158 203 253 300
#     4  10  18  32  54  78 100 127 166 206 242 286
#     4   9  18  33  50  68  93 124 154 190 241 299
#     4   9  18  31  48  73 106 141 172 201 236 284
#
# _framework density 17.779938999999999
#
# number of rings (size 3 to 8) (size 9 to 14) (size 15 to 20)
#    0.000    2.250    1.250    3.375    0.000    2.500 
#    0.000    1.250    0.000    0.000    0.000    0.000 
#    0.000    0.500    0.000    0.375    0.000    0.750 
#
# Total GULP energy -793095.972882 kJ/mol
# GULP energy per Si atom -12392.124576 kJ/mol
# Density = 1.773947 g / cm^3
# Si number density = 17.779939 Si / 1000 Ang^3
#
#
#
# Elastic Constant Matrix: (Units=GPa)
#
#
# Indices 1 2 3 4 5 6 
#
# 1 42.2204 18.7208 21.1789 0.0000 0.0000 0.0000
# 2 18.7208 119.1158 59.5942 0.0000 0.0000 0.0000
# 3 21.1789 59.5942 82.5448 0.0000 0.0000 0.0000
# 4 0.0000 0.0000 0.0000 15.5395 0.0000 0.0000
# 5 0.0000 0.0000 0.0000 0.0000 20.4006 0.0000
# 6 0.0000 0.0000 0.0000 0.0000 0.0000 13.3485
#
#
#
# Elastic Compliance Matrix: (Units=1/GPa)
#
#
# Indices 1 2 3 4 5 6 
#
# 1 0.027299 -0.001231 -0.006116 0.000000 0.000000 0.000000
# 2 -0.001231 0.013198 -0.009212 0.000000 0.000000 0.000000
# 3 -0.006116 -0.009212 0.020335 0.000000 0.000000 0.000000
# 4 0.000000 0.000000 0.000000 0.064352 0.000000 0.000000
# 5 0.000000 0.000000 0.000000 0.000000 0.049018 0.000000
# 6 0.000000 0.000000 0.000000 0.000000 0.000000 0.074915
#
#
# Mechanical properties :
#
#
# Convention : Reuss Voigt Hill
#
# Bulk Modulus (GPa) = 36.08337 49.20764 42.64550
# Shear Modulus (GPa) = 17.15434 19.48354 18.31894
#
# Velocity S-wave (km/s) = 3.10952 3.31390 3.21333
# Velocity P-wave (km/s) = 5.76460 6.50989 6.14855
#
# Compressibility (1/GPa) = 0.02771360
#
# Stress axis : x y z
#
# Youngs Moduli (GPa) = 36.63176 75.77108 49.17684
#
# Poissons Ratio (x) = 0.09325 0.30075
# Poissons Ratio (y) = 0.04508 0.45304
# Poissons Ratio (z) = 0.22403 0.69804
#
# Static dielectric constant tensor:
#      x y z
#    x 3.154010 0.000000 0.000000 
#    y 0.000000 3.571080 0.000000 
#    z 0.000000 0.000000 3.218770 
# 
# 
# High freq. dielectric constant tensor:
#      x y z
#    x 1.673800 0.000000 0.000000 
#    y 0.000000 1.691910 0.000000 
#    z 0.000000 0.000000 1.648800 
# 
# From -- ./inp_files/28374.got.cif
#   From: 2010.03.12/outbox.cif.g09.slc.cpg/sg51_15_cif.got.tgz:28374.got - 2010.04.16 13:43:02.
