data_PCOD8207882
_publ_section_title
;
Structure prediction by ZEFSAII (Michael W. Deem and Ramdas Pophale) SiO2 
 PCOD8207882
Probable space group: P M M A
;
_chemical_formula_sum "Si O2"
_cell_formula_units_Z 64
_cell_length_a 31.393573
_cell_length_b 8.715304
_cell_length_c 12.588453
_cell_angle_alpha 90.000000
_cell_angle_beta 90.000000
_cell_angle_gamma 90.000000
_cell_volume 3444.257796
_symmetry_space_group_name_H-M "P M M A"
_symmetry_group_IT_number 51
_symmetry_cell_setting 'orthorhombic'
loop_
_space_group_symop_operation_xyz
x,y,z
1/2-x,-y,z
1/2+x,-y,-z
-x,y,-z
-x,-y,-z
1/2+x,y,-z
1/2-x,y,z
x,-y,z
loop_
_atom_site_type_symbol
_atom_site_label
_atom_site_fract_x
_atom_site_fract_y
_atom_site_fract_z
Si Si1 0.035864 0.830589 0.922867
Si Si2 0.430641 0.318808 0.328171
Si Si3 0.388199 0.683023 0.688712
Si Si4 0.136250 0.821061 0.481312
Si Si5 0.520397 0.170704 0.314494
Si Si6 0.298338 0.821855 0.303704
Si Si7 0.864854 0.682077 0.847566
Si Si8 0.119769 0.674979 0.921638
O O1 0.013925 0.842129 0.810010
O O2 0.069330 0.693835 0.930208
O O3 0.054669 0.000000 0.953457
O O4 0.000000 0.773294 0.000000
O O5 0.434682 0.500000 0.324097
O O6 0.402363 0.269682 0.427846
O O7 0.477310 0.252249 0.353410
O O8 0.406426 0.259180 0.219891
O O9 0.387256 0.500000 0.687913
O O10 0.357175 0.753970 0.599748
O O11 0.436295 0.736738 0.661344
O O12 0.370036 0.745908 0.803854
O O13 0.179787 0.790288 0.417276
O O14 0.125004 0.000000 0.485391
O O15 0.523895 0.000000 0.365399
O O16 0.250000 0.763001 0.311088
O O17 0.321661 0.730054 0.210454
O O18 0.300779 0.000000 0.274039
O O19 0.867382 0.500000 0.854743
O O20 0.862086 0.751071 0.968928
O O21 0.133876 0.500000 0.919786
#
# Coordination Sequence:
#
# PCOD8207882 Si02
#       8
#     8   8   8   8   8   8   8   8
#     4   9  17  27  40  61  90 125 166 209 246 281
#     4  10  19  31  48  71  99 130 168 212 256 299
#     4  10  20  34  50  69  97 134 175 213 247 286
#     4  10  20  35  54  74  98 128 163 204 250 298
#     4  10  19  30  44  65  95 131 173 215 254 294
#     4   9  19  36  58  83 106 126 151 190 243 299
#     4   9  18  32  51  77 105 132 162 197 242 296
#     4   9  18  31  47  68  96 130 164 198 237 281
#
# _framework density 18.581651999999998
#
# number of rings (size 3 to 8) (size 9 to 14) (size 15 to 20)
#    0.000    2.500    0.000    2.250    0.000    3.500 
#    0.000    2.500    0.000    0.750    0.000    3.500 
#    0.000    0.000    0.000    0.000    0.000    0.000 
#
# Total GULP energy -792844.737292 kJ/mol
# GULP energy per Si atom -12388.199020 kJ/mol
# Density = 1.853936 g / cm^3
# Si number density = 18.581652 Si / 1000 Ang^3
#
#
#
# Elastic Constant Matrix: (Units=GPa)
#
#
# Indices 1 2 3 4 5 6 
#
# 1 61.4619 13.6571 33.8465 0.0000 0.0000 0.0000
# 2 13.6571 36.6306 13.3791 0.0000 0.0000 0.0000
# 3 33.8465 13.3791 124.5947 0.0000 0.0000 0.0000
# 4 0.0000 0.0000 0.0000 21.7820 0.0000 0.0000
# 5 0.0000 0.0000 0.0000 0.0000 16.6795 0.0000
# 6 0.0000 0.0000 0.0000 0.0000 0.0000 22.2253
#
#
#
# Elastic Compliance Matrix: (Units=1/GPa)
#
#
# Indices 1 2 3 4 5 6 
#
# 1 0.020238 -0.005763 -0.004879 0.000000 0.000000 0.000000
# 2 -0.005763 0.030055 -0.001662 0.000000 0.000000 0.000000
# 3 -0.004879 -0.001662 0.009530 0.000000 0.000000 0.000000
# 4 0.000000 0.000000 0.000000 0.045909 0.000000 0.000000
# 5 0.000000 0.000000 0.000000 0.000000 0.059954 0.000000
# 6 0.000000 0.000000 0.000000 0.000000 0.000000 0.044994
#
#
# Mechanical properties :
#
#
# Convention : Reuss Voigt Hill
#
# Bulk Modulus (GPa) = 28.39695 38.27250 33.33472
# Shear Modulus (GPa) = 20.24085 22.92435 21.58260
#
# Velocity S-wave (km/s) = 3.30402 3.51623 3.41178
# Velocity P-wave (km/s) = 5.46542 6.09318 5.78782
#
# Compressibility (1/GPa) = 0.03521505
#
# Stress axis : x y z
#
# Youngs Moduli (GPa) = 49.41320 33.27208 104.93425
#
# Poissons Ratio (x) = 0.19176 0.51194
# Poissons Ratio (y) = 0.28478 0.17437
# Poissons Ratio (z) = 0.24107 0.05529
#
# Static dielectric constant tensor:
#      x y z
#    x 2.955280 0.000000 0.000000 
#    y 0.000000 3.390110 0.000000 
#    z 0.000000 0.000000 3.714630 
# 
# 
# High freq. dielectric constant tensor:
#      x y z
#    x 1.677980 0.000000 0.000000 
#    y 0.000000 1.717080 0.000000 
#    z 0.000000 0.000000 1.735130 
# 
# From -- ./inp_files/19451.got.cif
#   From: 2010.03.12/outbox.cif.g09.slc.cpg/sg51_10_cif.got.tgz:19451.got - 2010.04.16 13:43:02.
