data_PCOD8207325
_publ_section_title
;
Structure prediction by ZEFSAII (Michael W. Deem and Ramdas Pophale) SiO2 
 PCOD8207325
Probable space group: P M M A
;
_chemical_formula_sum "Si O2"
_cell_formula_units_Z 32
_cell_length_a 19.363505
_cell_length_b 9.099650
_cell_length_c 10.080906
_cell_angle_alpha 90.000000
_cell_angle_beta 90.000000
_cell_angle_gamma 90.000000
_cell_volume 1776.266910
_symmetry_space_group_name_H-M "P M M A"
_symmetry_group_IT_number 51
_symmetry_cell_setting 'orthorhombic'
loop_
_space_group_symop_operation_xyz
x,y,z
1/2-x,-y,z
1/2+x,-y,-z
-x,y,-z
-x,-y,-z
1/2+x,y,-z
1/2-x,y,z
x,-y,z
loop_
_atom_site_type_symbol
_atom_site_label
_atom_site_fract_x
_atom_site_fract_y
_atom_site_fract_z
Si Si1 0.325242 0.674569 0.516580
Si Si2 0.541407 0.826817 0.870133
Si Si3 0.671664 0.328133 0.783149
Si Si4 0.537278 0.332789 0.359906
O O1 0.250000 0.730027 0.567118
O O2 0.326306 0.500000 0.508321
O O3 0.338405 0.731379 0.366979
O O4 0.384496 0.727630 0.617785
O O5 0.617948 0.757194 0.876761
O O6 0.499948 0.772255 0.742551
O O7 0.549282 0.000000 0.861985
O O8 0.500000 0.776671 0.000000
O O9 0.750000 0.297210 0.831487
O O10 0.654522 0.500000 0.791484
O O11 0.500000 0.326341 0.500000
O O12 0.536885 0.500000 0.305598
#
# Coordination Sequence:
#
# PCOD8207325 Si02
#       4
#     8   8   8   8
#     4   8  14  27  50  80 109 132 162 215 277 325
#     4  11  24  38  51  74 112 153 185 216 262 318
#     4   9  17  33  58  83 105 133 175 225 271 318
#     4  10  18  32  56  82 105 134 176 225 277 319
#
# _framework density 18.015309999999999
#
# number of rings (size 3 to 8) (size 9 to 14) (size 15 to 20)
#    0.000    2.500    2.500    2.250    0.000    3.000 
#    0.000    1.250    0.000    5.250    0.000    0.000 
#    0.000    0.000    0.000    0.000    0.000    0.000 
#
# Total GULP energy -396661.990006 kJ/mol
# GULP energy per Si atom -12395.687188 kJ/mol
# Density = 1.797431 g / cm^3
# Si number density = 18.015310 Si / 1000 Ang^3
#
#
#
# Elastic Constant Matrix: (Units=GPa)
#
#
# Indices 1 2 3 4 5 6 
#
# 1 161.4380 44.0306 47.0007 0.0000 0.0000 0.0000
# 2 44.0306 47.2023 29.2246 0.0000 0.0000 0.0000
# 3 47.0007 29.2246 58.9740 0.0000 0.0000 0.0000
# 4 0.0000 0.0000 0.0000 29.5564 0.0000 0.0000
# 5 0.0000 0.0000 0.0000 0.0000 27.6859 0.0000
# 6 0.0000 0.0000 0.0000 0.0000 0.0000 -2.6919
#
#
#
# Elastic Compliance Matrix: (Units=1/GPa)
#
#
# Indices 1 2 3 4 5 6 
#
# 1 0.009022 -0.005719 -0.004357 0.000000 0.000000 0.000000
# 2 -0.005719 0.034187 -0.012384 0.000000 0.000000 0.000000
# 3 -0.004357 -0.012384 0.026566 0.000000 0.000000 0.000000
# 4 0.000000 0.000000 0.000000 0.033834 0.000000 0.000000
# 5 0.000000 0.000000 0.000000 0.000000 0.036119 0.000000
# 6 0.000000 0.000000 0.000000 0.000000 0.000000 -0.371481
#
#
# Mechanical properties :
#
#
# Convention : Reuss Voigt Hill
#
# Bulk Modulus (GPa) = 40.23058 56.45845 48.34452
# Shear Modulus (GPa) = -28.00356 20.73399 -3.63479
#
# Velocity S-wave (km/s) = -3.94690 3.39619 -1.42197
# Velocity P-wave (km/s) = 1.26849 6.84003 4.91910
#
# Compressibility (1/GPa) = 0.02485671
#
# Stress axis : x y z
#
# Youngs Moduli (GPa) = 110.83422 29.25080 37.64274
#
# Poissons Ratio (x) = 0.16728 0.16400
# Poissons Ratio (y) = 0.63384 0.46616
# Poissons Ratio (z) = 0.48287 0.36223
#
# Static dielectric constant tensor:
#      x y z
#    x 4.197620 0.000000 0.000000 
#    y 0.000000 3.006030 0.000000 
#    z 0.000000 0.000000 3.253420 
# 
# 
# High freq. dielectric constant tensor:
#      x y z
#    x 1.723890 0.000000 0.000000 
#    y 0.000000 1.663720 0.000000 
#    z 0.000000 0.000000 1.664700 
# 
# From -- ./inp_files/10268.got.cif
#   From: 2010.03.12/outbox.cif.g09.slc.cpg/sg51_6_cif.got.tgz:10268.got - 2010.04.16 13:43:02.
