data_PCOD8207678
_publ_section_title
;
Structure prediction by ZEFSAII (Michael W. Deem and Ramdas Pophale) SiO2 
 PCOD8207678
Probable space group: P M M A
;
_chemical_formula_sum "Si O2"
_cell_formula_units_Z 64
_cell_length_a 9.340192
_cell_length_b 28.349991
_cell_length_c 14.849471
_cell_angle_alpha 90.000000
_cell_angle_beta 90.000000
_cell_angle_gamma 90.000000
_cell_volume 3932.056157
_symmetry_space_group_name_H-M "P M M A"
_symmetry_group_IT_number 51
_symmetry_cell_setting 'orthorhombic'
loop_
_space_group_symop_operation_xyz
x,y,z
1/2-x,-y,z
1/2+x,-y,-z
-x,y,-z
-x,-y,-z
1/2+x,y,-z
1/2-x,y,z
x,-y,z
loop_
_atom_site_type_symbol
_atom_site_label
_atom_site_fract_x
_atom_site_fract_y
_atom_site_fract_z
Si Si1 0.081513 0.870711 0.411135
Si Si2 0.917922 0.088954 0.913702
Si Si3 0.583074 0.762851 0.589307
Si Si4 0.915425 0.723545 0.779287
Si Si5 0.919605 0.347157 0.095883
Si Si6 0.587118 0.196563 0.916519
Si Si7 0.086278 0.450262 0.909769
Si Si8 0.580120 0.948111 0.726506
O O1 0.250000 0.877087 0.426038
O O2 0.043689 0.816823 0.385590
O O3 0.020211 0.906185 0.335592
O O4 0.000000 0.886265 0.500000
O O5 0.750000 0.082915 0.929931
O O6 0.960695 0.143329 0.896137
O O7 0.973318 0.059691 0.828226
O O8 0.000000 0.068653 0.000000
O O9 0.500000 0.745678 0.500000
O O10 0.750000 0.758415 0.567700
O O11 0.541288 0.729970 0.674406
O O12 0.750000 0.707400 0.788065
O O13 0.938980 0.773926 0.826390
O O14 0.017904 0.686021 0.826698
O O15 0.750000 0.337300 0.082256
O O16 0.949150 0.400048 0.136813
O O17 0.000000 0.339509 0.000000
O O18 0.750000 0.198659 0.947756
O O19 0.500000 0.218692 0.000000
O O20 0.250000 0.448807 0.939124
O O21 0.056024 0.500000 0.854300
O O22 0.000000 0.453066 0.000000
O O23 0.750000 0.945015 0.725535
O O24 0.528124 0.000000 0.693727
#
# Coordination Sequence:
#
# PCOD8207678 Si02
#       8
#     8   8   8   8   8   8   8   8
#     4   9  17  31  50  69  88 110 137 169 207 253
#     4   9  17  30  46  62  81 107 141 176 206 241
#     4   9  18  32  49  67  86 111 143 179 217 259
#     4  10  19  30  44  62  87 117 146 178 219 263
#     4  10  19  29  42  63  92 124 156 188 221 257
#     4   9  17  28  42  60  82 110 142 173 205 245
#     4   8  14  25  40  57  80 114 154 190 220 251
#     4   9  17  29  46  66  86 110 138 166 203 254
#
# _framework density 16.276471999999998
#
# number of rings (size 3 to 8) (size 9 to 14) (size 15 to 20)
#    0.000    2.875    0.000    1.500    0.000    6.000 
#    0.000    0.625    0.000    6.750    0.000    0.000 
#    0.000    0.500    0.000    1.125    0.000    2.000 
#
# Total GULP energy -792971.625680 kJ/mol
# GULP energy per Si atom -12390.181651 kJ/mol
# Density = 1.623943 g / cm^3
# Si number density = 16.276472 Si / 1000 Ang^3
#
#
#
# Elastic Constant Matrix: (Units=GPa)
#
#
# Indices 1 2 3 4 5 6 
#
# 1 44.5963 32.2766 38.9666 0.0000 0.0000 0.0000
# 2 32.2766 85.7863 50.6438 0.0000 0.0000 0.0000
# 3 38.9666 50.6438 106.4581 0.0000 0.0000 0.0000
# 4 0.0000 0.0000 0.0000 10.6666 0.0000 0.0000
# 5 0.0000 0.0000 0.0000 0.0000 26.0765 0.0000
# 6 0.0000 0.0000 0.0000 0.0000 0.0000 11.5312
#
#
#
# Elastic Compliance Matrix: (Units=1/GPa)
#
#
# Indices 1 2 3 4 5 6 
#
# 1 0.036665 -0.008166 -0.009536 0.000000 0.000000 0.000000
# 2 -0.008166 0.018027 -0.005587 0.000000 0.000000 0.000000
# 3 -0.009536 -0.005587 0.015542 0.000000 0.000000 0.000000
# 4 0.000000 0.000000 0.000000 0.093751 0.000000 0.000000
# 5 0.000000 0.000000 0.000000 0.000000 0.038349 0.000000
# 6 0.000000 0.000000 0.000000 0.000000 0.000000 0.086721
#
#
# Mechanical properties :
#
#
# Convention : Reuss Voigt Hill
#
# Bulk Modulus (GPa) = 42.27057 53.40163 47.83610
# Shear Modulus (GPa) = 14.55525 17.31843 15.93684
#
# Velocity S-wave (km/s) = 2.99365 3.26546 3.13251
# Velocity P-wave (km/s) = 6.16246 6.86280 6.52204
#
# Compressibility (1/GPa) = 0.02365712
#
# Stress axis : x y z
#
# Youngs Moduli (GPa) = 27.27360 55.47088 64.34291
#
# Poissons Ratio (x) = 0.45295 0.61358
# Poissons Ratio (y) = 0.22270 0.35949
# Poissons Ratio (z) = 0.26008 0.30992
#
# Static dielectric constant tensor:
#      x y z
#    x 3.006310 0.000000 0.000000 
#    y 0.000000 3.455760 0.000000 
#    z 0.000000 0.000000 2.990140 
# 
# 
# High freq. dielectric constant tensor:
#      x y z
#    x 1.615330 0.000000 0.000000 
#    y 0.000000 1.623990 0.000000 
#    z 0.000000 0.000000 1.601250 
# 
# From -- ./inp_files/22568.got.cif
#   From: 2010.03.12/outbox.cif.g09.slc.cpg/sg51_12_cif.got.tgz:22568.got - 2010.04.16 13:43:02.
