data_PCOD8207228
_publ_section_title
;
Structure prediction by ZEFSAII (Michael W. Deem and Ramdas Pophale) SiO2 
 PCOD8207228
Probable space group: P M M A
;
_chemical_formula_sum "Si O2"
_cell_formula_units_Z 64
_cell_length_a 8.571306
_cell_length_b 31.813241
_cell_length_c 14.440781
_cell_angle_alpha 90.000000
_cell_angle_beta 90.000000
_cell_angle_gamma 90.000000
_cell_volume 3937.726943
_symmetry_space_group_name_H-M "P M M A"
_symmetry_group_IT_number 51
_symmetry_cell_setting 'orthorhombic'
loop_
_space_group_symop_operation_xyz
x,y,z
1/2-x,-y,z
1/2+x,-y,-z
-x,y,-z
-x,-y,-z
1/2+x,y,-z
1/2-x,y,z
x,-y,z
loop_
_atom_site_type_symbol
_atom_site_label
_atom_site_fract_x
_atom_site_fract_y
_atom_site_fract_z
Si Si1 0.434850 0.124959 0.101472
Si Si2 0.064530 0.953650 0.215195
Si Si3 0.566163 0.177658 0.404186
Si Si4 0.065885 0.204811 0.219403
Si Si5 0.433459 0.455555 0.101900
Si Si6 0.434200 0.280768 0.896444
Si Si7 0.065025 0.634203 0.102879
Si Si8 0.434459 0.914707 0.404415
O O1 0.250000 0.124134 0.096703
O O2 0.501169 0.081276 0.144118
O O3 0.492432 0.163315 0.165226
O O4 0.500000 0.131755 0.000000
O O5 0.250000 0.952695 0.212086
O O6 0.009110 0.943707 0.319661
O O7 0.001471 0.000000 0.187263
O O8 0.500000 0.196792 0.500000
O O9 0.750000 0.174802 0.411360
O O10 0.515376 0.207227 0.319500
O O11 0.497137 0.131720 0.386728
O O12 0.250000 0.203985 0.233021
O O13 0.015915 0.245396 0.163339
O O14 0.250000 0.455028 0.091143
O O15 0.485140 0.500000 0.152441
O O16 0.479488 0.411043 0.152020
O O17 0.500000 0.456040 0.000000
O O18 0.250000 0.274159 0.896915
O O19 0.479677 0.325888 0.849916
O O20 0.500000 0.278064 0.000000
O O21 0.250000 0.642383 0.102408
O O22 0.000000 0.631278 0.000000
O O23 0.500000 0.933995 0.500000
O O24 0.250000 0.912183 0.410444
#
# Coordination Sequence:
#
# PCOD8207228 Si02
#       8
#     8   8   8   8   8   8   8   8
#     4  10  21  36  53  72  93 119 151 187 226 266
#     4   9  18  34  53  71  95 126 153 180 222 271
#     4  11  21  34  54  78 101 124 148 179 218 266
#     4  11  21  36  54  73  95 120 152 190 230 275
#     4   8  13  20  31  48  70  99 140 188 235 279
#     4  11  21  32  45  65  91 123 159 197 239 282
#     4   9  15  24  37  53  77 111 148 191 238 280
#     4  10  18  32  52  75  99 125 151 179 218 263
#
# _framework density 16.253032000000001
#
# number of rings (size 3 to 8) (size 9 to 14) (size 15 to 20)
#    0.000    2.125    1.250    5.250    0.000    3.000 
#    0.000    0.000    0.000    2.625    0.000    0.000 
#    0.000    0.000    0.000    0.000    0.000    0.625 
#
# Total GULP energy -792972.900521 kJ/mol
# GULP energy per Si atom -12390.201571 kJ/mol
# Density = 1.621604 g / cm^3
# Si number density = 16.253032 Si / 1000 Ang^3
#
#
#
# Elastic Constant Matrix: (Units=GPa)
#
#
# Indices 1 2 3 4 5 6 
#
# 1 42.4690 3.6942 16.4888 0.0000 0.0000 0.0000
# 2 3.6942 116.1975 38.1398 0.0000 0.0000 0.0000
# 3 16.4888 38.1398 79.2042 0.0000 0.0000 0.0000
# 4 0.0000 0.0000 0.0000 -3.6715 0.0000 0.0000
# 5 0.0000 0.0000 0.0000 0.0000 22.0443 0.0000
# 6 0.0000 0.0000 0.0000 0.0000 0.0000 12.0396
#
#
#
# Elastic Compliance Matrix: (Units=1/GPa)
#
#
# Indices 1 2 3 4 5 6 
#
# 1 0.025739 0.001117 -0.005896 0.000000 0.000000 0.000000
# 2 0.001117 0.010270 -0.005178 0.000000 0.000000 0.000000
# 3 -0.005896 -0.005178 0.016346 0.000000 0.000000 0.000000
# 4 0.000000 0.000000 0.000000 -0.272368 0.000000 0.000000
# 5 0.000000 0.000000 0.000000 0.000000 0.045363 0.000000
# 6 0.000000 0.000000 0.000000 0.000000 0.000000 0.083059
#
#
# Mechanical properties :
#
#
# Convention : Reuss Voigt Hill
#
# Bulk Modulus (GPa) = 30.82527 39.39072 35.10799
# Shear Modulus (GPa) = -82.15275 18.05232 -32.05021
#
# Velocity S-wave (km/s) = -7.11729 3.33634 -4.44549
# Velocity P-wave (km/s) = 6.96664 6.25540 2.16841
#
# Compressibility (1/GPa) = 0.03244092
#
# Stress axis : x y z
#
# Youngs Moduli (GPa) = 38.85205 97.36995 61.17527
#
# Poissons Ratio (x) = -0.10877 0.36070
# Poissons Ratio (y) = -0.04340 0.31677
# Poissons Ratio (z) = 0.22908 0.50418
#
# Static dielectric constant tensor:
#      x y z
#    x 2.983890 0.000000 0.000000 
#    y 0.000000 3.825710 0.000000 
#    z 0.000000 0.000000 2.971820 
# 
# 
# High freq. dielectric constant tensor:
#      x y z
#    x 1.628400 0.000000 0.000000 
#    y 0.000000 1.631190 0.000000 
#    z 0.000000 0.000000 1.581750 
# 
# From -- ./inp_files/22602.got.cif
#   From: 2010.03.12/outbox.cif.g09.slc.cpg/sg51_12_cif.got.tgz:22602.got - 2010.04.16 13:43:02.
