data_PCOD8207545
_publ_section_title
;
Structure prediction by ZEFSAII (Michael W. Deem and Ramdas Pophale) SiO2 
 PCOD8207545
Probable space group: P M M A
;
_chemical_formula_sum "Si O2"
_cell_formula_units_Z 64
_cell_length_a 9.019587
_cell_length_b 17.960476
_cell_length_c 26.727547
_cell_angle_alpha 90.000000
_cell_angle_beta 90.000000
_cell_angle_gamma 90.000000
_cell_volume 4329.757731
_symmetry_space_group_name_H-M "P M M A"
_symmetry_group_IT_number 51
_symmetry_cell_setting 'orthorhombic'
loop_
_space_group_symop_operation_xyz
x,y,z
1/2-x,-y,z
1/2+x,-y,-z
-x,y,-z
-x,-y,-z
1/2+x,y,-z
1/2-x,y,z
x,-y,z
loop_
_atom_site_type_symbol
_atom_site_label
_atom_site_fract_x
_atom_site_fract_y
_atom_site_fract_z
Si Si1 0.576007 0.913381 0.850500
Si Si2 0.413069 0.799971 0.604508
Si Si3 0.087152 0.700205 0.702511
Si Si4 0.080246 0.414134 0.355578
Si Si5 0.074417 0.343480 0.551337
Si Si6 0.425518 0.843682 0.755953
Si Si7 0.417094 0.088494 0.951264
Si Si8 0.919944 0.914100 0.662487
O O1 0.750000 0.898224 0.852192
O O2 0.502958 0.865523 0.807113
O O3 0.505949 0.885416 0.902382
O O4 0.541056 0.000000 0.840914
O O5 0.250000 0.832699 0.591934
O O6 0.402353 0.750601 0.653724
O O7 0.467201 0.743641 0.560918
O O8 0.526312 0.867703 0.613729
O O9 0.250000 0.666771 0.714435
O O10 0.035624 0.756290 0.746633
O O11 0.973548 0.632776 0.692974
O O12 0.250000 0.393499 0.366728
O O13 0.060259 0.500000 0.341623
O O14 0.985131 0.395872 0.404570
O O15 0.250000 0.354399 0.548376
O O16 0.000000 0.369778 0.500000
O O17 0.250000 0.856357 0.759483
O O18 0.485166 0.895523 0.711412
O O19 0.250000 0.120253 0.949350
O O20 0.413977 0.000000 0.954208
O O21 0.500000 0.121129 0.000000
O O22 0.750000 0.893863 0.673844
O O23 0.940052 0.000000 0.648795
#
# Coordination Sequence:
#
# PCOD8207545 Si02
#       8
#     8   8   8   8   8   8   8   8
#     4  10  19  28  38  55  79 106 139 179 219 255
#     4   8  16  30  45  61  79 101 130 159 190 232
#     4   8  16  30  45  61  81 106 135 163 193 233
#     4  10  20  32  47  68  90 110 133 159 187 223
#     4  10  20  33  49  67  85 106 131 158 191 230
#     4  10  19  29  41  58  80 106 136 168 204 245
#     4   9  16  26  39  53  71  99 136 177 219 259
#     4  10  19  28  40  60  82 103 129 162 200 240
#
# _framework density 14.781427000000001
#
# number of rings (size 3 to 8) (size 9 to 14) (size 15 to 20)
#    0.000    2.625    0.000    4.125    0.000   11.500 
#    0.000    0.000    0.000    0.375    0.000    0.000 
#    0.000    0.000    0.000    0.000    0.000    0.625 
#
# Total GULP energy -793369.689474 kJ/mol
# GULP energy per Si atom -12396.401398 kJ/mol
# Density = 1.474778 g / cm^3
# Si number density = 14.781427 Si / 1000 Ang^3
#
#
#
# Elastic Constant Matrix: (Units=GPa)
#
#
# Indices 1 2 3 4 5 6 
#
# 1 103.3002 46.5956 40.2520 0.0000 0.0000 0.0000
# 2 46.5956 65.9358 31.1440 0.0000 0.0000 0.0000
# 3 40.2520 31.1440 61.8166 0.0000 0.0000 0.0000
# 4 0.0000 0.0000 0.0000 12.8005 0.0000 0.0000
# 5 0.0000 0.0000 0.0000 0.0000 25.9202 0.0000
# 6 0.0000 0.0000 0.0000 0.0000 0.0000 21.9183
#
#
#
# Elastic Compliance Matrix: (Units=1/GPa)
#
#
# Indices 1 2 3 4 5 6 
#
# 1 0.015796 -0.008273 -0.006117 0.000000 0.000000 0.000000
# 2 -0.008273 0.024236 -0.006823 0.000000 0.000000 0.000000
# 3 -0.006117 -0.006823 0.023598 0.000000 0.000000 0.000000
# 4 0.000000 0.000000 0.000000 0.078122 0.000000 0.000000
# 5 0.000000 0.000000 0.000000 0.000000 0.038580 0.000000
# 6 0.000000 0.000000 0.000000 0.000000 0.000000 0.045624
#
#
# Mechanical properties :
#
#
# Convention : Reuss Voigt Hill
#
# Bulk Modulus (GPa) = 47.16552 51.89286 49.52919
# Shear Modulus (GPa) = 18.15208 19.66520 18.90864
#
# Velocity S-wave (km/s) = 3.50813 3.65142 3.58049
# Velocity P-wave (km/s) = 6.95609 7.27737 7.11855
#
# Compressibility (1/GPa) = 0.02120193
#
# Stress axis : x y z
#
# Youngs Moduli (GPa) = 63.30678 41.26154 42.37681
#
# Poissons Ratio (x) = 0.34137 0.25924
# Poissons Ratio (y) = 0.52376 0.28914
# Poissons Ratio (z) = 0.38728 0.28153
#
# Static dielectric constant tensor:
#      x y z
#    x 3.059530 0.000000 0.000000 
#    y 0.000000 2.785800 0.000000 
#    z 0.000000 0.000000 2.844300 
# 
# 
# High freq. dielectric constant tensor:
#      x y z
#    x 1.584570 0.000000 0.000000 
#    y 0.000000 1.531830 0.000000 
#    z 0.000000 0.000000 1.539510 
# 
# From -- ./inp_files/36404.got.cif
#   From: 2010.03.12/outbox.cif.g09.slc.cpg/sg51_19_cif.got.tgz:36404.got - 2010.04.16 13:43:02.
