data_PCOD8207623
_publ_section_title
;
Structure prediction by ZEFSAII (Michael W. Deem and Ramdas Pophale) SiO2 
 PCOD8207623
Probable space group: P M M A
;
_chemical_formula_sum "Si O2"
_cell_formula_units_Z 56
_cell_length_a 9.038850
_cell_length_b 13.582325
_cell_length_c 29.109526
_cell_angle_alpha 90.000000
_cell_angle_beta 90.000000
_cell_angle_gamma 90.000000
_cell_volume 3573.735705
_symmetry_space_group_name_H-M "P M M A"
_symmetry_group_IT_number 51
_symmetry_cell_setting 'orthorhombic'
loop_
_space_group_symop_operation_xyz
x,y,z
1/2-x,-y,z
1/2+x,-y,-z
-x,y,-z
-x,-y,-z
1/2+x,y,-z
1/2-x,y,z
x,-y,z
loop_
_atom_site_type_symbol
_atom_site_label
_atom_site_fract_x
_atom_site_fract_y
_atom_site_fract_z
Si Si1 0.083450 0.383041 0.365203
Si Si2 0.422139 0.796824 0.952444
Si Si3 0.082836 0.617431 0.545170
Si Si4 0.077425 0.297886 0.186835
Si Si5 0.080592 0.389673 0.896082
Si Si6 0.424134 0.613890 0.727116
Si Si7 0.580673 0.889440 0.869592
O O1 0.250000 0.340919 0.363719
O O2 0.085943 0.500000 0.367761
O O3 0.000859 0.340701 0.410046
O O4 0.996068 0.348466 0.320114
O O5 0.250000 0.814841 0.959247
O O6 0.458682 0.684790 0.937260
O O7 0.479356 0.871448 0.913807
O O8 0.500000 0.820689 0.000000
O O9 0.250000 0.657786 0.545117
O O10 0.082572 0.500000 0.545609
O O11 0.000000 0.657387 0.500000
O O12 0.250000 0.315517 0.196047
O O13 0.041668 0.185949 0.171412
O O14 0.024833 0.372274 0.147263
O O15 0.987745 0.318170 0.232884
O O16 0.250000 0.373737 0.879847
O O17 0.054837 0.500000 0.914624
O O18 0.250000 0.628742 0.723434
O O19 0.464749 0.500000 0.736915
O O20 0.750000 0.873418 0.885025
O O21 0.553010 0.000000 0.851327
#
# Coordination Sequence:
#
# PCOD8207623 Si02
#       7
#     8   8   8   8   8   8   8
#     4   9  16  25  36  51  72  99 135 178 217 250
#     4  10  20  33  49  69  91 113 138 167 199 237
#     4   9  15  22  32  46  66  95 133 176 219 258
#     4  10  19  30  46  67  86 105 134 170 205 243
#     4   9  18  32  47  63  86 115 142 167 197 235
#     4  10  19  29  41  58  83 114 142 169 205 248
#     4   9  19  36  54  69  86 108 134 166 204 245
#
# _framework density 15.669877
#
# number of rings (size 3 to 8) (size 9 to 14) (size 15 to 20)
#    0.000    2.571    0.000    2.571    0.000    8.286 
#    0.000    0.000    0.000    0.000    0.000    0.000 
#    0.000    0.000    0.000    0.000    0.000    0.714 
#
# Total GULP energy -694431.357714 kJ/mol
# GULP energy per Si atom -12400.559959 kJ/mol
# Density = 1.563421 g / cm^3
# Si number density = 15.669877 Si / 1000 Ang^3
#
#
#
# Elastic Constant Matrix: (Units=GPa)
#
#
# Indices 1 2 3 4 5 6 
#
# 1 106.1828 24.1206 65.3467 0.0000 0.0000 0.0000
# 2 24.1206 59.0975 27.5610 0.0000 0.0000 0.0000
# 3 65.3467 27.5610 124.2887 0.0000 0.0000 0.0000
# 4 0.0000 0.0000 0.0000 9.7394 0.0000 0.0000
# 5 0.0000 0.0000 0.0000 0.0000 33.6700 0.0000
# 6 0.0000 0.0000 0.0000 0.0000 0.0000 14.8082
#
#
#
# Elastic Compliance Matrix: (Units=1/GPa)
#
#
# Indices 1 2 3 4 5 6 
#
# 1 0.014270 -0.002594 -0.006928 0.000000 0.000000 0.000000
# 2 -0.002594 0.019344 -0.002926 0.000000 0.000000 0.000000
# 3 -0.006928 -0.002926 0.012337 0.000000 0.000000 0.000000
# 4 0.000000 0.000000 0.000000 0.102676 0.000000 0.000000
# 5 0.000000 0.000000 0.000000 0.000000 0.029700 0.000000
# 6 0.000000 0.000000 0.000000 0.000000 0.000000 0.067530
#
#
# Mechanical properties :
#
#
# Convention : Reuss Voigt Hill
#
# Bulk Modulus (GPa) = 47.49004 58.18065 52.83534
# Shear Modulus (GPa) = 18.00042 23.14623 20.57332
#
# Velocity S-wave (km/s) = 3.39297 3.84750 3.62736
# Velocity P-wave (km/s) = 6.76180 7.54634 7.16482
#
# Compressibility (1/GPa) = 0.02105705
#
# Stress axis : x y z
#
# Youngs Moduli (GPa) = 70.07552 51.69475 81.05716
#
# Poissons Ratio (x) = 0.13407 0.56154
# Poissons Ratio (y) = 0.18175 0.23717
# Poissons Ratio (z) = 0.48546 0.15126
#
# Static dielectric constant tensor:
#      x y z
#    x 3.170600 0.000000 0.000000 
#    y 0.000000 2.663410 0.000000 
#    z 0.000000 0.000000 2.995010 
# 
# 
# High freq. dielectric constant tensor:
#      x y z
#    x 1.620080 0.000000 0.000000 
#    y 0.000000 1.547470 0.000000 
#    z 0.000000 0.000000 1.598950 
# 
# From -- ./inp_files/37484.got.cif
#   From: 2010.03.12/outbox.cif.g09.slc.cpg/sg51_19_cif.got.tgz:37484.got - 2010.04.16 13:43:02.
