data_PCOD8207015
_publ_section_title
;
Structure prediction by ZEFSAII (Michael W. Deem and Ramdas Pophale) SiO2 
 PCOD8207015
Probable space group: P M M A
;
_chemical_formula_sum "Si O2"
_cell_formula_units_Z 36
_cell_length_a 8.664780
_cell_length_b 22.827909
_cell_length_c 9.206601
_cell_angle_alpha 90.000000
_cell_angle_beta 90.000000
_cell_angle_gamma 90.000000
_cell_volume 1821.054716
_symmetry_space_group_name_H-M "P M M A"
_symmetry_group_IT_number 51
_symmetry_cell_setting 'orthorhombic'
loop_
_space_group_symop_operation_xyz
x,y,z
1/2-x,-y,z
1/2+x,-y,-z
-x,y,-z
-x,-y,-z
1/2+x,y,-z
1/2-x,y,z
x,-y,z
loop_
_atom_site_type_symbol
_atom_site_label
_atom_site_fract_x
_atom_site_fract_y
_atom_site_fract_z
Si Si1 0.569464 0.067956 0.347061
Si Si2 0.430632 0.382508 0.842080
Si Si3 0.567336 0.500000 0.838802
Si Si4 0.431433 0.731325 0.657872
Si Si5 0.067758 0.164797 0.157439
O O1 0.500000 0.089523 0.500000
O O2 0.750000 0.081243 0.348848
O O3 0.490698 0.102251 0.215155
O O4 0.532484 0.000000 0.321341
O O5 0.250000 0.392781 0.858863
O O6 0.504725 0.440266 0.765086
O O7 0.471664 0.327505 0.743565
O O8 0.500000 0.370459 0.000000
O O9 0.750000 0.500000 0.837885
O O10 0.500000 0.500000 0.000000
O O11 0.500000 0.723369 0.500000
O O12 0.250000 0.743700 0.651566
O O13 0.513843 0.785491 0.733059
O O14 0.250000 0.164155 0.146204
O O15 0.000000 0.177957 0.000000
#
# Coordination Sequence:
#
# PCOD8207015 Si02
#       5
#     8   8   4   8   8
#     4  10  21  39  63  90 121 157 196 237 284 340
#     4  10  20  35  57  84 114 148 188 234 283 337
#     4  10  18  30  53  82 113 148 186 230 280 336
#     4  11  24  41  61  85 115 152 193 238 289 345
#     4  12  25  41  62  87 118 153 193 241 290 343
#
# _framework density 19.768764999999998
#
# number of rings (size 3 to 8) (size 9 to 14) (size 15 to 20)
#    0.000    1.333    0.000    7.667    0.000    7.111 
#    0.000    0.556    0.000    0.000    0.000    0.000 
#    0.000    0.000    0.000    0.000    0.000    0.000 
#
# Total GULP energy -446549.431155 kJ/mol
# GULP energy per Si atom -12404.150865 kJ/mol
# Density = 1.972377 g / cm^3
# Si number density = 19.768765 Si / 1000 Ang^3
#
#
#
# Elastic Constant Matrix: (Units=GPa)
#
#
# Indices 1 2 3 4 5 6 
#
# 1 147.8639 70.6064 53.0477 0.0000 0.0000 0.0000
# 2 70.6064 121.6806 54.6638 0.0000 0.0000 0.0000
# 3 53.0477 54.6638 107.5975 0.0000 0.0000 0.0000
# 4 0.0000 0.0000 0.0000 15.5447 0.0000 0.0000
# 5 0.0000 0.0000 0.0000 0.0000 35.6853 0.0000
# 6 0.0000 0.0000 0.0000 0.0000 0.0000 33.5723
#
#
#
# Elastic Compliance Matrix: (Units=1/GPa)
#
#
# Indices 1 2 3 4 5 6 
#
# 1 0.009860 -0.004584 -0.002533 0.000000 0.000000 0.000000
# 2 -0.004584 0.012780 -0.004233 0.000000 0.000000 0.000000
# 3 -0.002533 -0.004233 0.012693 0.000000 0.000000 0.000000
# 4 0.000000 0.000000 0.000000 0.064330 0.000000 0.000000
# 5 0.000000 0.000000 0.000000 0.000000 0.028023 0.000000
# 6 0.000000 0.000000 0.000000 0.000000 0.000000 0.029787
#
#
# Mechanical properties :
#
#
# Convention : Reuss Voigt Hill
#
# Bulk Modulus (GPa) = 79.14706 81.53085 80.33896
# Shear Modulus (GPa) = 27.11761 30.21539 28.66650
#
# Velocity S-wave (km/s) = 3.70772 3.91377 3.81214
# Velocity P-wave (km/s) = 7.64545 7.85845 7.75268
#
# Compressibility (1/GPa) = 0.01263471
#
# Stress axis : x y z
#
# Youngs Moduli (GPa) = 101.41574 78.25029 78.78467
#
# Poissons Ratio (x) = 0.35869 0.19953
# Poissons Ratio (y) = 0.46488 0.33346
# Poissons Ratio (z) = 0.25684 0.33120
#
# Static dielectric constant tensor:
#      x y z
#    x 3.784200 0.000000 0.000000 
#    y 0.000000 4.066450 0.000000 
#    z 0.000000 0.000000 3.561500 
# 
# 
# High freq. dielectric constant tensor:
#      x y z
#    x 1.791730 0.000000 0.000000 
#    y 0.000000 1.792810 0.000000 
#    z 0.000000 0.000000 1.755900 
# 
# From -- ./inp_files/5238.got.cif
#   From: 2010.03.12/outbox.cif.g09.slc.cpg/sg51_3_cif.got.tgz:5238.got - 2010.04.16 13:43:02.
