data_PCOD8207553
_publ_section_title
;
Structure prediction by ZEFSAII (Michael W. Deem and Ramdas Pophale) SiO2 
 PCOD8207553
Probable space group: P M M A
;
_chemical_formula_sum "Si O2"
_cell_formula_units_Z 48
_cell_length_a 9.020823
_cell_length_b 13.896902
_cell_length_c 23.992646
_cell_angle_alpha 90.000000
_cell_angle_beta 90.000000
_cell_angle_gamma 90.000000
_cell_volume 3007.753928
_symmetry_space_group_name_H-M "P M M A"
_symmetry_group_IT_number 51
_symmetry_cell_setting 'orthorhombic'
loop_
_space_group_symop_operation_xyz
x,y,z
1/2-x,-y,z
1/2+x,-y,-z
-x,y,-z
-x,-y,-z
1/2+x,y,-z
1/2-x,y,z
x,-y,z
loop_
_atom_site_type_symbol
_atom_site_label
_atom_site_fract_x
_atom_site_fract_y
_atom_site_fract_z
Si Si1 0.916794 0.114338 0.554125
Si Si2 0.924740 0.110692 0.333605
Si Si3 0.574930 0.791104 0.768693
Si Si4 0.074254 0.393811 0.167203
Si Si5 0.925708 0.894318 0.880342
Si Si6 0.574411 0.289852 0.942884
O O1 0.750000 0.155606 0.555938
O O2 0.000000 0.156963 0.500000
O O3 0.003619 0.147714 0.609074
O O4 0.914068 0.000000 0.550531
O O5 0.750000 0.122137 0.338725
O O6 0.985208 0.178960 0.285444
O O7 0.969637 0.000000 0.321397
O O8 0.750000 0.798786 0.756958
O O9 0.526854 0.682142 0.785165
O O10 0.525316 0.860945 0.818880
O O11 0.250000 0.395952 0.164964
O O12 0.009472 0.500000 0.180840
O O13 0.018690 0.360554 0.106163
O O14 0.750000 0.897717 0.881394
O O15 0.979509 0.818387 0.926928
O O16 0.993754 0.000000 0.892883
O O17 0.750000 0.294367 0.949853
O O18 0.500000 0.323170 0.000000
#
# Coordination Sequence:
#
# PCOD8207553 Si02
#       6
#     8   8   8   8   8   8
#     4   9  16  26  40  58  83 117 155 188 213 240
#     4  10  19  28  39  59  89 121 147 174 211 250
#     4   9  16  27  45  64  79 102 140 180 212 248
#     4   8  15  29  47  64  82 105 133 168 214 264
#     4   8  14  25  40  56  76 104 136 168 203 245
#     4   9  17  28  42  60  80 103 132 166 204 248
#
# _framework density 15.958752
#
# number of rings (size 3 to 8) (size 9 to 14) (size 15 to 20)
#    0.000    3.167    0.000    3.500    0.000    4.333 
#    0.000    3.333    0.000    2.500    0.000    0.000 
#    0.000    0.667    0.000    1.833    0.000    2.667 
#
# Total GULP energy -594926.286010 kJ/mol
# GULP energy per Si atom -12394.297625 kJ/mol
# Density = 1.592243 g / cm^3
# Si number density = 15.958752 Si / 1000 Ang^3
#
#
#
# Elastic Constant Matrix: (Units=GPa)
#
#
# Indices 1 2 3 4 5 6 
#
# 1 55.3156 21.7909 43.5529 0.0000 0.0000 0.0000
# 2 21.7909 94.5746 41.7639 0.0000 0.0000 0.0000
# 3 43.5529 41.7639 124.5664 0.0000 0.0000 0.0000
# 4 0.0000 0.0000 0.0000 14.8580 0.0000 0.0000
# 5 0.0000 0.0000 0.0000 0.0000 29.9623 0.0000
# 6 0.0000 0.0000 0.0000 0.0000 0.0000 10.2622
#
#
#
# Elastic Compliance Matrix: (Units=1/GPa)
#
#
# Indices 1 2 3 4 5 6 
#
# 1 0.025351 -0.002262 -0.008105 0.000000 0.000000 0.000000
# 2 -0.002262 0.012613 -0.003438 0.000000 0.000000 0.000000
# 3 -0.008105 -0.003438 0.012014 0.000000 0.000000 0.000000
# 4 0.000000 0.000000 0.000000 0.067304 0.000000 0.000000
# 5 0.000000 0.000000 0.000000 0.000000 0.033375 0.000000
# 6 0.000000 0.000000 0.000000 0.000000 0.000000 0.097445
#
#
# Mechanical properties :
#
#
# Convention : Reuss Voigt Hill
#
# Bulk Modulus (GPa) = 44.70650 54.29688 49.50169
# Shear Modulus (GPa) = 17.65736 22.17309 19.91522
#
# Velocity S-wave (km/s) = 3.32992 3.73151 3.53642
# Velocity P-wave (km/s) = 6.54669 7.25691 6.91093
#
# Compressibility (1/GPa) = 0.02236811
#
# Stress axis : x y z
#
# Youngs Moduli (GPa) = 39.44651 79.28305 83.23344
#
# Poissons Ratio (x) = 0.17932 0.67462
# Poissons Ratio (y) = 0.08922 0.28616
# Poissons Ratio (z) = 0.31972 0.27258
#
# Static dielectric constant tensor:
#      x y z
#    x 2.957270 0.000000 0.000000 
#    y 0.000000 3.263890 0.000000 
#    z 0.000000 0.000000 3.018740 
# 
# 
# High freq. dielectric constant tensor:
#      x y z
#    x 1.588520 0.000000 0.000000 
#    y 0.000000 1.584140 0.000000 
#    z 0.000000 0.000000 1.611500 
# 
# From -- ./inp_files/31619.got.cif
#   From: 2010.03.12/outbox.cif.g09.slc.cpg/sg51_16_cif.got.tgz:31619.got - 2010.04.16 13:43:02.
