data_PCOD8207354
_publ_section_title
;
Structure prediction by ZEFSAII (Michael W. Deem and Ramdas Pophale) SiO2 
 PCOD8207354
Probable space group: P M M A
;
_chemical_formula_sum "Si O2"
_cell_formula_units_Z 46
_cell_length_a 15.408666
_cell_length_b 11.724207
_cell_length_c 14.222931
_cell_angle_alpha 90.000000
_cell_angle_beta 90.000000
_cell_angle_gamma 90.000000
_cell_volume 2569.434921
_symmetry_space_group_name_H-M "P M M A"
_symmetry_group_IT_number 51
_symmetry_cell_setting 'orthorhombic'
loop_
_space_group_symop_operation_xyz
x,y,z
1/2-x,-y,z
1/2+x,-y,-z
-x,y,-z
-x,-y,-z
1/2+x,y,-z
1/2-x,y,z
x,-y,z
loop_
_atom_site_type_symbol
_atom_site_label
_atom_site_fract_x
_atom_site_fract_y
_atom_site_fract_z
Si Si1 0.598514 0.000000 0.465294
Si Si2 0.646957 0.760228 0.393872
Si Si3 0.750000 0.367389 0.880928
Si Si4 0.250000 0.756713 0.310002
Si Si5 0.109299 0.371639 0.423303
Si Si6 0.467157 0.627813 0.728478
Si Si7 0.250000 0.000000 0.384302
Si Si8 0.941834 0.633700 0.916967
O O1 0.500000 0.000000 0.500000
O O2 0.616064 0.890377 0.400687
O O3 0.663546 0.000000 0.553088
O O4 0.750000 0.751207 0.402612
O O5 0.601806 0.685507 0.475192
O O6 0.615171 0.709775 0.293098
O O7 0.750000 0.500000 0.846431
O O8 0.750000 0.280308 0.796457
O O9 0.660575 0.340622 0.936974
O O10 0.333207 0.708441 0.360016
O O11 0.250000 0.892703 0.315396
O O12 0.147003 0.500000 0.433851
O O13 0.018609 0.376086 0.369566
O O14 0.434581 0.500000 0.753485
O O15 0.524706 0.678402 0.815024
O O16 0.956430 0.500000 0.916945
O O17 0.000000 0.689826 0.000000
#
# Coordination Sequence:
#
# PCOD8207354 Si02
#       8
#     4   8   4   4   8   8   2   8
#     4  12  22  38  56  70 104 153 196 242 272 311
#     4  12  23  36  50  73 111 150 191 225 273 327
#     4  10  18  32  58  84 107 144 182 227 288 337
#     4  12  20  32  54  77 111 140 186 231 274 311
#     4  11  19  31  52  76 107 145 182 221 266 324
#     4  10  21  34  51  79 110 139 182 227 270 331
#     4  12  24  40  48  86 108 144 196 248 264 320
#     4   9  18  34  55  82 115 142 175 226 283 348
#
# _framework density 17.902768999999999
#
# number of rings (size 3 to 8) (size 9 to 14) (size 15 to 20)
#    0.000    1.217    5.217    2.870    0.000    2.435 
#    1.565    0.000    0.000    0.000    0.000    2.435 
#    0.000    0.000    0.000    0.000    0.000    0.000 
#
# Total GULP energy -570113.253274 kJ/mol
# GULP energy per Si atom -12393.766376 kJ/mol
# Density = 1.786202 g / cm^3
# Si number density = 17.902769 Si / 1000 Ang^3
#
#
#
# Elastic Constant Matrix: (Units=GPa)
#
#
# Indices 1 2 3 4 5 6 
#
# 1 108.6285 31.2678 63.3027 0.0000 0.0000 0.0000
# 2 31.2678 106.9080 31.7932 0.0000 0.0000 0.0000
# 3 63.3027 31.7932 77.2046 0.0000 0.0000 0.0000
# 4 0.0000 0.0000 0.0000 9.0727 0.0000 0.0000
# 5 0.0000 0.0000 0.0000 0.0000 27.1516 0.0000
# 6 0.0000 0.0000 0.0000 0.0000 0.0000 30.5131
#
#
#
# Elastic Compliance Matrix: (Units=1/GPa)
#
#
# Indices 1 2 3 4 5 6 
#
# 1 0.017719 -0.000982 -0.014124 0.000000 0.000000 0.000000
# 2 -0.000982 0.010714 -0.003607 0.000000 0.000000 0.000000
# 3 -0.014124 -0.003607 0.026019 0.000000 0.000000 0.000000
# 4 0.000000 0.000000 0.000000 0.110221 0.000000 0.000000
# 5 0.000000 0.000000 0.000000 0.000000 0.036830 0.000000
# 6 0.000000 0.000000 0.000000 0.000000 0.000000 0.032773
#
#
# Mechanical properties :
#
#
# Convention : Reuss Voigt Hill
#
# Bulk Modulus (GPa) = 58.73462 60.60762 59.67112
# Shear Modulus (GPa) = 18.02603 24.43930 21.23266
#
# Velocity S-wave (km/s) = 3.17659 3.69875 3.44757
# Velocity P-wave (km/s) = 6.80684 7.22276 7.01788
#
# Compressibility (1/GPa) = 0.01702573
#
# Stress axis : x y z
#
# Youngs Moduli (GPa) = 56.43633 93.33883 38.43395
#
# Poissons Ratio (x) = 0.09166 0.54284
# Poissons Ratio (y) = 0.05542 0.13862
# Poissons Ratio (z) = 0.79711 0.33665
#
# Static dielectric constant tensor:
#      x y z
#    x 3.362330 0.000000 0.000000 
#    y 0.000000 3.293610 0.000000 
#    z 0.000000 0.000000 3.429680 
# 
# 
# High freq. dielectric constant tensor:
#      x y z
#    x 1.707580 0.000000 0.000000 
#    y 0.000000 1.668500 0.000000 
#    z 0.000000 0.000000 1.663300 
# 
# From -- ./inp_files/17365.got.cif
#   From: 2010.03.12/outbox.cif.g09.slc.cpg/sg51_9_cif.got.tgz:17365.got - 2010.04.16 13:43:02.
