data_PCOD8207651
_publ_section_title
;
Structure prediction by ZEFSAII (Michael W. Deem and Ramdas Pophale) SiO2 
 PCOD8207651
Probable space group: P M M A
;
_chemical_formula_sum "Si O2"
_cell_formula_units_Z 56
_cell_length_a 17.257139
_cell_length_b 12.384697
_cell_length_c 16.121749
_cell_angle_alpha 90.000000
_cell_angle_beta 90.000000
_cell_angle_gamma 90.000000
_cell_volume 3445.611738
_symmetry_space_group_name_H-M "P M M A"
_symmetry_group_IT_number 51
_symmetry_cell_setting 'orthorhombic'
loop_
_space_group_symop_operation_xyz
x,y,z
1/2-x,-y,z
1/2+x,-y,-z
-x,y,-z
-x,-y,-z
1/2+x,y,-z
1/2-x,y,z
x,-y,z
loop_
_atom_site_type_symbol
_atom_site_label
_atom_site_fract_x
_atom_site_fract_y
_atom_site_fract_z
Si Si1 0.101824 0.000000 0.064433
Si Si2 0.438320 0.000000 0.872335
Si Si3 0.163562 0.226185 0.037230
Si Si4 0.416502 0.377189 0.154964
Si Si5 0.838767 0.800459 0.155366
Si Si6 0.334838 0.628418 0.319152
Si Si7 0.517108 0.628488 0.590673
Si Si8 0.574658 0.624085 0.249084
O O1 0.153332 0.106706 0.075580
O O2 0.032187 0.000000 0.133092
O O3 0.074902 0.000000 0.969881
O O4 0.399328 0.897108 0.827259
O O5 0.250000 0.265314 0.060066
O O6 0.098531 0.304238 0.075015
O O7 0.150881 0.234744 0.939331
O O8 0.399822 0.500000 0.129726
O O9 0.357654 0.337690 0.226304
O O10 0.503989 0.363474 0.185346
O O11 0.750000 0.838211 0.171117
O O12 0.856790 0.701200 0.217295
O O13 0.250000 0.675615 0.341292
O O14 0.335076 0.500000 0.324577
O O15 0.398694 0.674703 0.382883
O O16 0.500000 0.677810 0.500000
O O17 0.520669 0.500000 0.587423
O O18 0.452131 0.661030 0.658514
O O19 0.603999 0.500000 0.250792
#
# Coordination Sequence:
#
# PCOD8207651 Si02
#       8
#     4   4   8   8   8   8   8   8
#     4   9  17  29  45  63  81 105 143 191 234 261
#     4   9  17  31  49  63  78 107 150 193 224 253
#     4  10  19  29  42  61  87 117 147 182 223 262
#     4   9  17  28  42  60  83 114 150 182 211 251
#     4  10  20  32  45  62  86 116 150 186 221 258
#     4   8  13  22  37  57  80 104 134 174 212 245
#     4   8  14  26  43  61  83 112 142 171 209 259
#     4   9  18  31  45  63  88 116 144 177 220 265
#
# _framework density 16.252555999999998
#
# number of rings (size 3 to 8) (size 9 to 14) (size 15 to 20)
#    0.000    3.000    0.000    3.429    0.000    5.143 
#    0.000    3.571    0.000    2.571    0.000    0.500 
#    0.000    0.000    0.000   12.286    0.000    1.714 
#
# Total GULP energy -694038.524343 kJ/mol
# GULP energy per Si atom -12393.545078 kJ/mol
# Density = 1.621556 g / cm^3
# Si number density = 16.252556 Si / 1000 Ang^3
#
#
#
# Elastic Constant Matrix: (Units=GPa)
#
#
# Indices 1 2 3 4 5 6 
#
# 1 59.8904 14.4652 30.0188 0.0000 0.0000 0.0000
# 2 14.4652 52.2930 27.6846 0.0000 0.0000 0.0000
# 3 30.0188 27.6846 63.0043 0.0000 0.0000 0.0000
# 4 0.0000 0.0000 0.0000 3.7371 0.0000 0.0000
# 5 0.0000 0.0000 0.0000 0.0000 16.7190 0.0000
# 6 0.0000 0.0000 0.0000 0.0000 0.0000 24.2108
#
#
#
# Elastic Compliance Matrix: (Units=1/GPa)
#
#
# Indices 1 2 3 4 5 6 
#
# 1 0.021955 -0.000697 -0.010154 0.000000 0.000000 0.000000
# 2 -0.000697 0.024942 -0.010628 0.000000 0.000000 0.000000
# 3 -0.010154 -0.010628 0.025380 0.000000 0.000000 0.000000
# 4 0.000000 0.000000 0.000000 0.267589 0.000000 0.000000
# 5 0.000000 0.000000 0.000000 0.000000 0.059812 0.000000
# 6 0.000000 0.000000 0.000000 0.000000 0.000000 0.041304
#
#
# Mechanical properties :
#
#
# Convention : Reuss Voigt Hill
#
# Bulk Modulus (GPa) = 34.10773 35.50279 34.80526
# Shear Modulus (GPa) = 10.12731 15.80131 12.96431
#
# Velocity S-wave (km/s) = 2.49895 3.12145 2.82738
# Velocity P-wave (km/s) = 5.41830 5.90619 5.66750
#
# Compressibility (1/GPa) = 0.02931887
#
# Stress axis : x y z
#
# Youngs Moduli (GPa) = 45.54728 40.09254 39.40140
#
# Poissons Ratio (x) = 0.02796 0.40009
# Poissons Ratio (y) = 0.03177 0.41874
# Poissons Ratio (z) = 0.46250 0.42609
#
# Static dielectric constant tensor:
#      x y z
#    x 3.223740 0.000000 0.000000 
#    y 0.000000 2.816110 0.000000 
#    z 0.000000 0.000000 2.990220 
# 
# 
# High freq. dielectric constant tensor:
#      x y z
#    x 1.630470 0.000000 0.000000 
#    y 0.000000 1.590620 0.000000 
#    z 0.000000 0.000000 1.594800 
# 
# From -- ./inp_files/25294.got.cif
#   From: 2010.03.12/outbox.cif.g09.slc.cpg/sg51_13_cif.got.tgz:25294.got - 2010.04.16 13:43:02.
