data_PCOD8207550
_publ_section_title
;
Structure prediction by ZEFSAII (Michael W. Deem and Ramdas Pophale) SiO2 
 PCOD8207550
Probable space group: P M M A
;
_chemical_formula_sum "Si O2"
_cell_formula_units_Z 56
_cell_length_a 18.710070
_cell_length_b 9.322554
_cell_length_c 19.123935
_cell_angle_alpha 90.000000
_cell_angle_beta 90.000000
_cell_angle_gamma 90.000000
_cell_volume 3335.704562
_symmetry_space_group_name_H-M "P M M A"
_symmetry_group_IT_number 51
_symmetry_cell_setting 'orthorhombic'
loop_
_space_group_symop_operation_xyz
x,y,z
1/2-x,-y,z
1/2+x,-y,-z
-x,y,-z
-x,-y,-z
1/2+x,y,-z
1/2-x,y,z
x,-y,z
loop_
_atom_site_type_symbol
_atom_site_label
_atom_site_fract_x
_atom_site_fract_y
_atom_site_fract_z
Si Si1 0.333914 0.833538 0.086344
Si Si2 0.528742 0.671687 0.573203
Si Si3 0.958985 0.667555 0.287587
Si Si4 0.171544 0.670229 0.360003
Si Si5 0.105136 0.666595 0.215348
Si Si6 0.670479 0.328489 0.200037
Si Si7 0.165416 0.341191 0.954381
O O1 0.250000 0.805280 0.096010
O O2 0.375524 0.761716 0.149572
O O3 0.352564 0.000000 0.084647
O O4 0.363055 0.765402 0.014133
O O5 0.500000 0.734570 0.500000
O O6 0.527548 0.500000 0.572943
O O7 0.478254 0.731297 0.635849
O O8 0.610247 0.726228 0.586636
O O9 0.947402 0.500000 0.297438
O O10 0.885778 0.735052 0.256568
O O11 0.022604 0.695924 0.233188
O O12 0.250000 0.731965 0.380665
O O13 0.172119 0.500000 0.363214
O O14 0.153247 0.716602 0.280961
O O15 0.118890 0.500000 0.197770
O O16 0.750000 0.269839 0.218047
O O17 0.671325 0.500000 0.200868
O O18 0.645381 0.279683 0.122411
O O19 0.250000 0.353460 0.958447
O O20 0.132056 0.500000 0.966209
#
# Coordination Sequence:
#
# PCOD8207550 Si02
#       7
#     8   8   8   8   8   8   8
#     4  10  19  28  39  58  83 107 132 168 211 247
#     4   8  13  21  32  48  76 109 132 156 198 246
#     4   8  14  24  38  57  78 101 134 171 203 238
#     4   8  13  21  34  52  72  98 136 173 196 224
#     4   9  16  26  41  58  78 108 142 171 198 235
#     4   8  13  23  40  59  76  95 127 174 215 240
#     4   8  14  25  41  58  75 101 137 170 201 242
#
# _framework density 16.788057999999999
#
# number of rings (size 3 to 8) (size 9 to 14) (size 15 to 20)
#    0.000    3.571    0.000    3.429    0.000    1.429 
#    0.000    1.429    0.000    9.429    0.000    0.000 
#    0.000    9.143    0.000    0.000    0.000   44.286 
#
# Total GULP energy -693845.449820 kJ/mol
# GULP energy per Si atom -12390.097318 kJ/mol
# Density = 1.674985 g / cm^3
# Si number density = 16.788058 Si / 1000 Ang^3
#
#
#
# Elastic Constant Matrix: (Units=GPa)
#
#
# Indices 1 2 3 4 5 6 
#
# 1 108.7076 19.8684 80.2391 0.0000 0.0000 0.0000
# 2 19.8684 31.9049 30.0059 0.0000 0.0000 0.0000
# 3 80.2391 30.0059 141.1126 0.0000 0.0000 0.0000
# 4 0.0000 0.0000 0.0000 -0.5271 0.0000 0.0000
# 5 0.0000 0.0000 0.0000 0.0000 24.6546 0.0000
# 6 0.0000 0.0000 0.0000 0.0000 0.0000 7.1154
#
#
#
# Elastic Compliance Matrix: (Units=1/GPa)
#
#
# Indices 1 2 3 4 5 6 
#
# 1 0.015930 -0.001752 -0.008686 0.000000 0.000000 0.000000
# 2 -0.001752 0.039371 -0.007376 0.000000 0.000000 0.000000
# 3 -0.008686 -0.007376 0.013594 0.000000 0.000000 0.000000
# 4 0.000000 0.000000 0.000000 -1.897057 0.000000 0.000000
# 5 0.000000 0.000000 0.000000 0.000000 0.040560 0.000000
# 6 0.000000 0.000000 0.000000 0.000000 0.000000 0.140541
#
#
# Mechanical properties :
#
#
# Convention : Reuss Voigt Hill
#
# Bulk Modulus (GPa) = 30.05841 60.21688 45.13764
# Shear Modulus (GPa) = -3.12433 16.35601 6.61584
#
# Velocity S-wave (km/s) = -1.36568 3.12471 1.98730
# Velocity P-wave (km/s) = 3.93150 6.99751 5.67547
#
# Compressibility (1/GPa) = 0.03326856
#
# Stress axis : x y z
#
# Youngs Moduli (GPa) = 62.77360 25.39961 73.56305
#
# Poissons Ratio (x) = 0.04449 0.63895
# Poissons Ratio (y) = 0.10995 0.54258
# Poissons Ratio (z) = 0.54524 0.18734
#
# Static dielectric constant tensor:
#      x y z
#    x 3.384490 0.000000 0.000000 
#    y 0.000000 2.610630 0.000000 
#    z 0.000000 0.000000 3.419540 
# 
# 
# High freq. dielectric constant tensor:
#      x y z
#    x 1.638210 0.000000 0.000000 
#    y 0.000000 1.580170 0.000000 
#    z 0.000000 0.000000 1.646660 
# 
# From -- ./inp_files/30443.got.cif
#   From: 2010.03.12/outbox.cif.g09.slc.cpg/sg51_16_cif.got.tgz:30443.got - 2010.04.16 13:43:02.
