data_PCOD8207533
_publ_section_title
;
Structure prediction by ZEFSAII (Michael W. Deem and Ramdas Pophale) SiO2 
 PCOD8207533
Probable space group: P M M A
;
_chemical_formula_sum "Si O2"
_cell_formula_units_Z 64
_cell_length_a 9.230369
_cell_length_b 18.393402
_cell_length_c 25.830433
_cell_angle_alpha 90.000000
_cell_angle_beta 90.000000
_cell_angle_gamma 90.000000
_cell_volume 4385.436351
_symmetry_space_group_name_H-M "P M M A"
_symmetry_group_IT_number 51
_symmetry_cell_setting 'orthorhombic'
loop_
_space_group_symop_operation_xyz
x,y,z
1/2-x,-y,z
1/2+x,-y,-z
-x,y,-z
-x,-y,-z
1/2+x,y,-z
1/2-x,y,z
x,-y,z
loop_
_atom_site_type_symbol
_atom_site_label
_atom_site_fract_x
_atom_site_fract_y
_atom_site_fract_z
Si Si1 0.414955 0.846769 0.550431
Si Si2 0.585574 0.346053 0.756616
Si Si3 0.919694 0.916216 0.342128
Si Si4 0.083059 0.708253 0.608740
Si Si5 0.083132 0.791833 0.302407
Si Si6 0.918349 0.416868 0.646636
Si Si7 0.919225 0.415491 0.151346
Si Si8 0.913890 0.413529 0.950512
O O1 0.500000 0.872675 0.500000
O O2 0.250000 0.868402 0.540670
O O3 0.471638 0.890407 0.600867
O O4 0.431698 0.759174 0.557972
O O5 0.750000 0.365945 0.773257
O O6 0.571099 0.258500 0.748872
O O7 0.545680 0.388968 0.704218
O O8 0.473311 0.369501 0.800100
O O9 0.750000 0.900481 0.335352
O O10 0.006304 0.870773 0.297824
O O11 0.958534 0.000000 0.334163
O O12 0.250000 0.698064 0.624204
O O13 0.999936 0.749414 0.653467
O O14 0.008295 0.629043 0.603558
O O15 0.250000 0.802397 0.318122
O O16 0.750000 0.406485 0.634222
O O17 0.967345 0.500000 0.641834
O O18 0.750000 0.401494 0.142567
O O19 0.951996 0.500000 0.161828
O O20 0.003884 0.387239 0.100899
O O21 0.750000 0.382858 0.950494
O O22 0.911872 0.500000 0.953079
O O23 0.000000 0.382080 0.000000
#
# Coordination Sequence:
#
# PCOD8207533 Si02
#       8
#     8   8   8   8   8   8   8   8
#     4   9  18  30  44  62  82 104 128 155 188 226
#     4   9  17  28  40  55  78 105 130 160 199 238
#     4   9  18  32  47  64  87 109 128 154 188 225
#     4   9  17  29  43  59  79 102 128 157 191 232
#     4   9  17  29  44  61  80 104 134 162 189 228
#     4   9  17  28  42  60  80 101 127 161 200 240
#     4  10  19  27  36  54  78 103 136 176 212 246
#     4   9  16  26  39  52  69  97 133 173 215 254
#
# _framework density 14.593759
#
# number of rings (size 3 to 8) (size 9 to 14) (size 15 to 20)
#    0.000    2.875    0.000    3.375    0.000    8.500 
#    0.000    0.000    0.000    0.375    0.000    0.000 
#    0.000    0.000    0.000    0.000    0.000    0.625 
#
# Total GULP energy -793215.977442 kJ/mol
# GULP energy per Si atom -12393.999648 kJ/mol
# Density = 1.456054 g / cm^3
# Si number density = 14.593759 Si / 1000 Ang^3
#
#
#
# Elastic Constant Matrix: (Units=GPa)
#
#
# Indices 1 2 3 4 5 6 
#
# 1 81.1356 35.2814 26.5657 0.0000 0.0000 0.0000
# 2 35.2814 82.4001 14.9725 0.0000 0.0000 0.0000
# 3 26.5657 14.9725 33.6663 0.0000 0.0000 0.0000
# 4 0.0000 0.0000 0.0000 9.7719 0.0000 0.0000
# 5 0.0000 0.0000 0.0000 0.0000 25.7041 0.0000
# 6 0.0000 0.0000 0.0000 0.0000 0.0000 22.8591
#
#
#
# Elastic Compliance Matrix: (Units=1/GPa)
#
#
# Indices 1 2 3 4 5 6 
#
# 1 0.018903 -0.005857 -0.012311 0.000000 0.000000 0.000000
# 2 -0.005857 0.015017 -0.002057 0.000000 0.000000 0.000000
# 3 -0.012311 -0.002057 0.040333 0.000000 0.000000 0.000000
# 4 0.000000 0.000000 0.000000 0.102334 0.000000 0.000000
# 5 0.000000 0.000000 0.000000 0.000000 0.038904 0.000000
# 6 0.000000 0.000000 0.000000 0.000000 0.000000 0.043746
#
#
# Mechanical properties :
#
#
# Convention : Reuss Voigt Hill
#
# Bulk Modulus (GPa) = 29.58356 38.98236 34.28296
# Shear Modulus (GPa) = 16.07945 19.69252 17.88598
#
# Velocity S-wave (km/s) = 3.32294 3.67738 3.50464
# Velocity P-wave (km/s) = 5.91929 6.69331 6.31817
#
# Compressibility (1/GPa) = 0.03380256
#
# Stress axis : x y z
#
# Youngs Moduli (GPa) = 52.90222 66.58954 24.79365
#
# Poissons Ratio (x) = 0.38999 0.30524
# Poissons Ratio (y) = 0.30983 0.05101
# Poissons Ratio (z) = 0.65130 0.13700
#
# Static dielectric constant tensor:
#      x y z
#    x 3.011480 0.000000 0.000000 
#    y 0.000000 3.125670 0.000000 
#    z 0.000000 0.000000 2.671690 
# 
# 
# High freq. dielectric constant tensor:
#      x y z
#    x 1.572130 0.000000 0.000000 
#    y 0.000000 1.533840 0.000000 
#    z 0.000000 0.000000 1.521080 
# 
# From -- ./inp_files/36431.got.cif
#   From: 2010.03.12/outbox.cif.g09.slc.cpg/sg51_19_cif.got.tgz:36431.got - 2010.04.16 13:43:02.
