data_PCOD8207159
_publ_section_title
;
Structure prediction by ZEFSAII (Michael W. Deem and Ramdas Pophale) SiO2 
 PCOD8207159
Probable space group: P M M A
;
_chemical_formula_sum "Si O2"
_cell_formula_units_Z 48
_cell_length_a 9.163020
_cell_length_b 14.266082
_cell_length_c 20.730214
_cell_angle_alpha 90.000000
_cell_angle_beta 90.000000
_cell_angle_gamma 90.000000
_cell_volume 2709.861756
_symmetry_space_group_name_H-M "P M M A"
_symmetry_group_IT_number 51
_symmetry_cell_setting 'orthorhombic'
loop_
_space_group_symop_operation_xyz
x,y,z
1/2-x,-y,z
1/2+x,-y,-z
-x,y,-z
-x,-y,-z
1/2+x,y,-z
1/2-x,y,z
x,-y,z
loop_
_atom_site_type_symbol
_atom_site_label
_atom_site_fract_x
_atom_site_fract_y
_atom_site_fract_z
Si Si1 0.423031 0.722590 0.564071
Si Si2 0.419420 0.105574 0.232248
Si Si3 0.579071 0.607675 0.063967
Si Si4 0.923044 0.281183 0.189176
Si Si5 0.076673 0.394709 0.687513
Si Si6 0.418009 0.893138 0.381538
O O1 0.500000 0.682671 0.500000
O O2 0.250000 0.722041 0.555173
O O3 0.475398 0.657016 0.622753
O O4 0.476473 0.828530 0.576202
O O5 0.250000 0.125946 0.220981
O O6 0.512705 0.176687 0.189212
O O7 0.460229 0.119136 0.306916
O O8 0.458525 0.000000 0.210384
O O9 0.750000 0.619803 0.053371
O O10 0.537351 0.500000 0.077699
O O11 0.523314 0.667738 0.124477
O O12 0.500000 0.645321 0.000000
O O13 0.750000 0.274679 0.191948
O O14 0.984244 0.339307 0.250382
O O15 0.250000 0.397786 0.690632
O O16 0.012655 0.500000 0.687871
O O17 0.250000 0.864260 0.393154
O O18 0.443974 0.000000 0.403220
#
# Coordination Sequence:
#
# PCOD8207159 Si02
#       6
#     8   8   8   8   8   8
#     4  11  22  35  52  73  98 132 169 209 256 304
#     4   9  18  32  51  76 106 136 163 201 257 309
#     4   9  18  32  51  77 110 144 174 207 250 299
#     4  10  18  31  54  81 104 132 171 212 250 292
#     4   9  18  33  52  74  99 128 166 209 252 298
#     4   9  18  34  54  74  99 130 163 204 255 308
#
# _framework density 17.713080999999999
#
# number of rings (size 3 to 8) (size 9 to 14) (size 15 to 20)
#    0.000    2.500    1.667    2.000    0.000    4.000 
#    0.000    1.667    0.000    5.500    0.000    0.000 
#    0.000    0.000    0.000    0.000    0.000    0.000 
#
# Total GULP energy -595259.280749 kJ/mol
# GULP energy per Si atom -12401.235016 kJ/mol
# Density = 1.767276 g / cm^3
# Si number density = 17.713081 Si / 1000 Ang^3
#
#
#
# Elastic Constant Matrix: (Units=GPa)
#
#
# Indices 1 2 3 4 5 6 
#
# 1 40.8894 32.7904 41.6340 0.0000 0.0000 0.0000
# 2 32.7904 114.0333 68.3523 0.0000 0.0000 0.0000
# 3 41.6340 68.3523 140.1438 0.0000 0.0000 0.0000
# 4 0.0000 0.0000 0.0000 30.2277 0.0000 0.0000
# 5 0.0000 0.0000 0.0000 0.0000 27.7766 0.0000
# 6 0.0000 0.0000 0.0000 0.0000 0.0000 23.8467
#
#
#
# Elastic Compliance Matrix: (Units=1/GPa)
#
#
# Indices 1 2 3 4 5 6 
#
# 1 0.037609 -0.005818 -0.008335 0.000000 0.000000 0.000000
# 2 -0.005818 0.013292 -0.004755 0.000000 0.000000 0.000000
# 3 -0.008335 -0.004755 0.011931 0.000000 0.000000 0.000000
# 4 0.000000 0.000000 0.000000 0.033082 0.000000 0.000000
# 5 0.000000 0.000000 0.000000 0.000000 0.036002 0.000000
# 6 0.000000 0.000000 0.000000 0.000000 0.000000 0.041935
#
#
# Mechanical properties :
#
#
# Convention : Reuss Voigt Hill
#
# Bulk Modulus (GPa) = 39.97449 64.51332 52.24390
# Shear Modulus (GPa) = 22.72674 26.52284 24.62479
#
# Velocity S-wave (km/s) = 3.58585 3.87377 3.73259
# Velocity P-wave (km/s) = 6.30565 7.51721 6.93793
#
# Compressibility (1/GPa) = 0.02501596
#
# Stress axis : x y z
#
# Youngs Moduli (GPa) = 26.58934 75.23118 83.81770
#
# Poissons Ratio (x) = 0.43773 0.69863
# Poissons Ratio (y) = 0.15471 0.39851
# Poissons Ratio (z) = 0.22162 0.35769
#
# Static dielectric constant tensor:
#      x y z
#    x 3.016860 0.000000 0.000000 
#    y 0.000000 3.331010 0.000000 
#    z 0.000000 0.000000 3.292230 
# 
# 
# High freq. dielectric constant tensor:
#      x y z
#    x 1.665080 0.000000 0.000000 
#    y 0.000000 1.686080 0.000000 
#    z 0.000000 0.000000 1.676410 
# 
# From -- ./inp_files/27602.got.cif
#   From: 2010.03.12/outbox.cif.g09.slc.cpg/sg51_14_cif.got.tgz:27602.got - 2010.04.16 13:43:02.
