data_PCOD8207176
_publ_section_title
;
Structure prediction by ZEFSAII (Michael W. Deem and Ramdas Pophale) SiO2 
 PCOD8207176
Probable space group: P M M A
;
_chemical_formula_sum "Si O2"
_cell_formula_units_Z 32
_cell_length_a 14.312521
_cell_length_b 7.969899
_cell_length_c 11.713075
_cell_angle_alpha 90.000000
_cell_angle_beta 90.000000
_cell_angle_gamma 90.000000
_cell_volume 1336.102814
_symmetry_space_group_name_H-M "P M M A"
_symmetry_group_IT_number 51
_symmetry_cell_setting 'orthorhombic'
loop_
_space_group_symop_operation_xyz
x,y,z
1/2-x,-y,z
1/2+x,-y,-z
-x,y,-z
-x,-y,-z
1/2+x,y,-z
1/2-x,y,z
x,-y,z
loop_
_atom_site_type_symbol
_atom_site_label
_atom_site_fract_x
_atom_site_fract_y
_atom_site_fract_z
Si Si1 0.360587 0.694387 0.297764
Si Si2 0.361412 0.500000 0.687211
Si Si3 0.860880 0.186882 0.458510
Si Si4 0.399754 0.819533 0.057232
Si Si5 0.896772 0.500000 0.052956
O O1 0.250000 0.719134 0.283711
O O2 0.388002 0.500000 0.303037
O O3 0.398328 0.781572 0.413327
O O4 0.411365 0.781443 0.191360
O O5 0.250000 0.500000 0.693168
O O6 0.399765 0.667953 0.625033
O O7 0.404139 0.500000 0.812200
O O8 0.750000 0.202134 0.460743
O O9 0.892201 0.000000 0.418299
O O10 0.348245 0.000000 0.041452
O O11 0.500000 0.832707 0.000000
O O12 0.343824 0.667333 0.994219
O O13 0.000000 0.500000 0.000000
#
# Coordination Sequence:
#
# PCOD8207176 Si02
#       5
#     8   4   8   8   4
#     4  10  18  31  56  88 118 148 184 230 284 342
#     4  10  20  35  56  85 115 146 186 226 272 338
#     4   9  17  31  53  83 118 148 176 223 286 342
#     4  10  21  37  57  79 109 152 198 238 280 331
#     4  10  22  39  56  76 110 152 192 235 282 331
#
# _framework density 23.950253
#
# number of rings (size 3 to 8) (size 9 to 14) (size 15 to 20)
#    0.000    2.250    2.500    0.750    0.000    3.500 
#    0.000    0.000    0.000   12.000    0.000   15.750 
#    0.000    0.000    0.000    0.000    0.000    0.500 
#
# Total GULP energy -396585.212724 kJ/mol
# GULP energy per Si atom -12393.287898 kJ/mol
# Density = 2.389574 g / cm^3
# Si number density = 23.950253 Si / 1000 Ang^3
#
#
#
# Elastic Constant Matrix: (Units=GPa)
#
#
# Indices 1 2 3 4 5 6 
#
# 1 13.3601 12.7958 10.2000 0.0000 0.0000 0.0000
# 2 12.7958 273.8134 113.6401 0.0000 0.0000 0.0000
# 3 10.2000 113.6401 224.3165 0.0000 0.0000 0.0000
# 4 0.0000 0.0000 0.0000 26.2084 0.0000 0.0000
# 5 0.0000 0.0000 0.0000 0.0000 31.6827 0.0000
# 6 0.0000 0.0000 0.0000 0.0000 0.0000 0.2273
#
#
#
# Elastic Compliance Matrix: (Units=1/GPa)
#
#
# Indices 1 2 3 4 5 6 
#
# 1 0.079195 -0.002794 -0.002186 0.000000 0.000000 0.000000
# 2 -0.002794 0.004723 -0.002266 0.000000 0.000000 0.000000
# 3 -0.002186 -0.002266 0.005705 0.000000 0.000000 0.000000
# 4 0.000000 0.000000 0.000000 0.038156 0.000000 0.000000
# 5 0.000000 0.000000 0.000000 0.000000 0.031563 0.000000
# 6 0.000000 0.000000 0.000000 0.000000 0.000000 4.399779
#
#
# Mechanical properties :
#
#
# Convention : Reuss Voigt Hill
#
# Bulk Modulus (GPa) = 13.30985 87.19576 50.25280
# Shear Modulus (GPa) = 1.08727 36.61395 18.85061
#
# Velocity S-wave (km/s) = 0.67451 3.91417 2.80853
# Velocity P-wave (km/s) = 2.48515 7.54411 5.61648
#
# Compressibility (1/GPa) = 0.07513235
#
# Stress axis : x y z
#
# Youngs Moduli (GPa) = 12.62713 211.73025 175.27950
#
# Poissons Ratio (x) = 0.59152 0.38312
# Poissons Ratio (y) = 0.03528 0.39712
# Poissons Ratio (z) = 0.02760 0.47971
#
# Static dielectric constant tensor:
#      x y z
#    x 3.695660 0.000000 0.000000 
#    y 0.000000 6.827820 0.000000 
#    z 0.000000 0.000000 4.329640 
# 
# 
# High freq. dielectric constant tensor:
#      x y z
#    x 1.913870 0.000000 0.000000 
#    y 0.000000 1.977560 0.000000 
#    z 0.000000 0.000000 1.949240 
# 
# From -- ./inp_files/15950.got.cif
#   From: 2010.03.12/outbox.cif.g09.slc.cpg/sg51_8_cif.got.tgz:15950.got - 2010.04.16 13:43:02.
