data_PCOD8207592
_publ_section_title
;
Structure prediction by ZEFSAII (Michael W. Deem and Ramdas Pophale) SiO2 
 PCOD8207592
Probable space group: P M M A
;
_chemical_formula_sum "Si O2"
_cell_formula_units_Z 64
_cell_length_a 17.273076
_cell_length_b 12.659200
_cell_length_c 17.496983
_cell_angle_alpha 90.000000
_cell_angle_beta 90.000000
_cell_angle_gamma 90.000000
_cell_volume 3825.948457
_symmetry_space_group_name_H-M "P M M A"
_symmetry_group_IT_number 51
_symmetry_cell_setting 'orthorhombic'
loop_
_space_group_symop_operation_xyz
x,y,z
1/2-x,-y,z
1/2+x,-y,-z
-x,y,-z
-x,-y,-z
1/2+x,y,-z
1/2-x,y,z
x,-y,z
loop_
_atom_site_type_symbol
_atom_site_label
_atom_site_fract_x
_atom_site_fract_y
_atom_site_fract_z
Si Si1 0.162671 0.767328 0.602498
Si Si2 0.841359 0.624474 0.816268
Si Si3 0.337788 0.382154 0.463682
Si Si4 0.901780 0.379296 0.276914
Si Si5 0.665343 0.624989 0.121948
Si Si6 0.989699 0.121003 0.411524
Si Si7 0.566945 0.693936 0.674802
Si Si8 0.583837 0.625649 0.974854
O O1 0.250000 0.812893 0.596536
O O2 0.138625 0.700439 0.528287
O O3 0.157678 0.690370 0.674674
O O4 0.100632 0.861478 0.610242
O O5 0.750000 0.646238 0.825082
O O6 0.856650 0.500000 0.800635
O O7 0.875260 0.695438 0.747163
O O8 0.885904 0.664457 0.892398
O O9 0.250000 0.361874 0.436175
O O10 0.347009 0.500000 0.497607
O O11 0.393353 0.372033 0.391844
O O12 0.875245 0.500000 0.286025
O O13 0.894391 0.342328 0.188698
O O14 0.989571 0.367184 0.302796
O O15 0.750000 0.669819 0.142332
O O16 0.667148 0.500000 0.114175
O O17 0.640356 0.671540 0.040158
O O18 0.000000 0.152062 0.500000
O O19 0.046019 0.189166 0.356576
O O20 0.011965 0.000000 0.396658
O O21 0.583031 0.500000 0.973380
O O22 0.500000 0.669216 0.000000
#
# Coordination Sequence:
#
# PCOD8207592 Si02
#       8
#     8   8   8   8   8   8   8   8
#     4  10  20  33  49  71  95 122 158 196 238 290
#     4  10  19  30  46  70 103 140 172 205 246 292
#     4  10  19  30  45  67  98 132 160 188 226 280
#     4  10  19  28  43  67  98 132 164 197 234 278
#     4   9  16  26  39  57  87 128 166 195 226 266
#     4  10  21  39  56  70  89 116 155 206 257 298
#     4  11  20  32  49  69  92 126 164 204 243 295
#     4   9  16  26  41  62  92 131 174 208 232 269
#
# _framework density 16.727876999999999
#
# number of rings (size 3 to 8) (size 9 to 14) (size 15 to 20)
#    0.000    2.125    1.250    3.375    0.000    6.000 
#    0.000    1.875    0.000    1.500    0.000    0.000 
#    0.000   12.500    0.000    5.500    0.000    0.000 
#
# Total GULP energy -793362.926976 kJ/mol
# GULP energy per Si atom -12396.295734 kJ/mol
# Density = 1.668980 g / cm^3
# Si number density = 16.727877 Si / 1000 Ang^3
#
#
#
# Elastic Constant Matrix: (Units=GPa)
#
#
# Indices 1 2 3 4 5 6 
#
# 1 86.7290 23.0664 40.3756 0.0000 0.0000 0.0000
# 2 23.0664 48.8270 28.0318 0.0000 0.0000 0.0000
# 3 40.3756 28.0318 117.9574 0.0000 0.0000 0.0000
# 4 0.0000 0.0000 0.0000 7.5109 0.0000 0.0000
# 5 0.0000 0.0000 0.0000 0.0000 35.7325 0.0000
# 6 0.0000 0.0000 0.0000 0.0000 0.0000 13.4251
#
#
#
# Elastic Compliance Matrix: (Units=1/GPa)
#
#
# Indices 1 2 3 4 5 6 
#
# 1 0.014576 -0.004657 -0.003883 0.000000 0.000000 0.000000
# 2 -0.004657 0.025204 -0.004396 0.000000 0.000000 0.000000
# 3 -0.003883 -0.004396 0.010851 0.000000 0.000000 0.000000
# 4 0.000000 0.000000 0.000000 0.133139 0.000000 0.000000
# 5 0.000000 0.000000 0.000000 0.000000 0.027986 0.000000
# 6 0.000000 0.000000 0.000000 0.000000 0.000000 0.074487
#
#
# Mechanical properties :
#
#
# Convention : Reuss Voigt Hill
#
# Bulk Modulus (GPa) = 40.38574 48.49567 44.44070
# Shear Modulus (GPa) = 15.60707 22.13634 18.87171
#
# Velocity S-wave (km/s) = 3.05782 3.64169 3.36245
# Velocity P-wave (km/s) = 6.05493 6.83641 6.45750
#
# Compressibility (1/GPa) = 0.02476121
#
# Stress axis : x y z
#
# Youngs Moduli (GPa) = 68.60491 39.67628 92.15592
#
# Poissons Ratio (x) = 0.18477 0.35780
# Poissons Ratio (y) = 0.31949 0.40507
# Poissons Ratio (z) = 0.26636 0.17440
#
# Static dielectric constant tensor:
#      x y z
#    x 3.300510 0.000000 0.000000 
#    y 0.000000 2.611330 0.000000 
#    z 0.000000 0.000000 3.350520 
# 
# 
# High freq. dielectric constant tensor:
#      x y z
#    x 1.661210 0.000000 0.000000 
#    y 0.000000 1.574880 0.000000 
#    z 0.000000 0.000000 1.656220 
# 
# From -- ./inp_files/29869.got.cif
#   From: 2010.03.12/outbox.cif.g09.slc.cpg/sg51_15_cif.got.tgz:29869.got - 2010.04.16 13:43:02.
