data_PCOD8207157
_publ_section_title
;
Structure prediction by ZEFSAII (Michael W. Deem and Ramdas Pophale) SiO2 
 PCOD8207157
Probable space group: P M M A
;
_chemical_formula_sum "Si O2"
_cell_formula_units_Z 64
_cell_length_a 28.684566
_cell_length_b 9.525380
_cell_length_c 12.560590
_cell_angle_alpha 90.000000
_cell_angle_beta 90.000000
_cell_angle_gamma 90.000000
_cell_volume 3431.947481
_symmetry_space_group_name_H-M "P M M A"
_symmetry_group_IT_number 51
_symmetry_cell_setting 'orthorhombic'
loop_
_space_group_symop_operation_xyz
x,y,z
1/2-x,-y,z
1/2+x,-y,-z
-x,y,-z
-x,-y,-z
1/2+x,y,-z
1/2-x,y,z
x,-y,z
loop_
_atom_site_type_symbol
_atom_site_label
_atom_site_fract_x
_atom_site_fract_y
_atom_site_fract_z
Si Si1 0.564014 0.160928 0.755647
Si Si2 0.524270 0.836928 0.111227
Si Si3 0.301348 0.335356 0.999470
Si Si4 0.373721 0.661919 0.604765
Si Si5 0.552242 0.838190 0.511102
Si Si6 0.301784 0.666347 0.430345
Si Si7 0.117563 0.663928 0.848455
Si Si8 0.150366 0.336024 0.215397
O O1 0.512293 0.200891 0.795266
O O2 0.569044 0.187770 0.630582
O O3 0.602386 0.256983 0.812816
O O4 0.574308 0.000000 0.786155
O O5 0.570113 0.745294 0.127892
O O6 0.538719 0.000000 0.114916
O O7 0.500000 0.798532 0.000000
O O8 0.250000 0.270206 0.975132
O O9 0.299235 0.500000 0.978393
O O10 0.341330 0.272966 0.922641
O O11 0.313152 0.303650 0.122113
O O12 0.384296 0.500000 0.579409
O O13 0.418449 0.749644 0.571935
O O14 0.329199 0.713568 0.536486
O O15 0.364278 0.687375 0.728695
O O16 0.500000 0.783942 0.500000
O O17 0.556276 0.000000 0.477417
O O18 0.250000 0.732008 0.436323
O O19 0.298206 0.500000 0.422509
O O20 0.327819 0.722992 0.325035
O O21 0.108154 0.500000 0.871941
O O22 0.138573 0.500000 0.223504
#
# Coordination Sequence:
#
# PCOD8207157 Si02
#       8
#     8   8   8   8   8   8   8   8
#     4  10  20  33  51  76 106 138 174 217 267 318
#     4  10  21  37  56  78 105 142 183 219 261 317
#     4   9  18  33  54  80 107 136 173 217 266 319
#     4  10  20  34  51  76 107 137 174 217 261 309
#     4  10  20  34  52  73 100 138 178 214 259 313
#     4   9  17  30  50  76 104 135 174 218 262 309
#     4  10  21  35  53  79 110 141 175 219 267 314
#     4  10  18  31  54  80 105 136 175 219 265 312
#
# _framework density 18.648305000000001
#
# number of rings (size 3 to 8) (size 9 to 14) (size 15 to 20)
#    0.000    2.250    1.250    1.875    0.000    4.500 
#    0.000    2.500    0.000    3.750    0.000    1.750 
#    0.000    0.000    0.000    0.000    0.000    0.000 
#
# Total GULP energy -793634.905428 kJ/mol
# GULP energy per Si atom -12400.545397 kJ/mol
# Density = 1.860586 g / cm^3
# Si number density = 18.648305 Si / 1000 Ang^3
#
#
#
# Elastic Constant Matrix: (Units=GPa)
#
#
# Indices 1 2 3 4 5 6 
#
# 1 163.9672 52.2430 58.6787 0.0000 0.0000 0.0000
# 2 52.2430 42.7877 31.1615 0.0000 0.0000 0.0000
# 3 58.6787 31.1615 100.4892 0.0000 0.0000 0.0000
# 4 0.0000 0.0000 0.0000 17.4728 0.0000 0.0000
# 5 0.0000 0.0000 0.0000 0.0000 29.9620 0.0000
# 6 0.0000 0.0000 0.0000 0.0000 0.0000 -2.0310
#
#
#
# Elastic Compliance Matrix: (Units=1/GPa)
#
#
# Indices 1 2 3 4 5 6 
#
# 1 0.010559 -0.010853 -0.002800 0.000000 0.000000 0.000000
# 2 -0.010853 0.041344 -0.006483 0.000000 0.000000 0.000000
# 3 -0.002800 -0.006483 0.013597 0.000000 0.000000 0.000000
# 4 0.000000 0.000000 0.000000 0.057232 0.000000 0.000000
# 5 0.000000 0.000000 0.000000 0.000000 0.033376 0.000000
# 6 0.000000 0.000000 0.000000 0.000000 0.000000 -0.492380
#
#
# Mechanical properties :
#
#
# Convention : Reuss Voigt Hill
#
# Bulk Modulus (GPa) = 39.64010 65.71228 52.67619
# Shear Modulus (GPa) = -17.38580 20.09149 1.35284
#
# Velocity S-wave (km/s) = -3.05667 3.28592 0.85266
# Velocity P-wave (km/s) = 2.97408 7.05057 5.41090
#
# Compressibility (1/GPa) = 0.02522698
#
# Stress axis : x y z
#
# Youngs Moduli (GPa) = 94.70807 24.18725 73.54603
#
# Poissons Ratio (x) = 0.26250 0.20594
# Poissons Ratio (y) = 1.02784 0.47683
# Poissons Ratio (z) = 0.26520 0.15682
#
# Static dielectric constant tensor:
#      x y z
#    x 3.579140 0.000000 0.000000 
#    y 0.000000 3.106430 0.000000 
#    z 0.000000 0.000000 3.570480 
# 
# 
# High freq. dielectric constant tensor:
#      x y z
#    x 1.731700 0.000000 0.000000 
#    y 0.000000 1.686020 0.000000 
#    z 0.000000 0.000000 1.735730 
# 
# From -- ./inp_files/19498.got.cif
#   From: 2010.03.12/outbox.cif.g09.slc.cpg/sg51_10_cif.got.tgz:19498.got - 2010.04.16 13:43:02.
