data_PCOD8207174
_publ_section_title
;
Structure prediction by ZEFSAII (Michael W. Deem and Ramdas Pophale) SiO2 
 PCOD8207174
Probable space group: P M M A
;
_chemical_formula_sum "Si O2"
_cell_formula_units_Z 56
_cell_length_a 19.474649
_cell_length_b 9.009359
_cell_length_c 16.396544
_cell_angle_alpha 90.000000
_cell_angle_beta 90.000000
_cell_angle_gamma 90.000000
_cell_volume 2876.840940
_symmetry_space_group_name_H-M "P M M A"
_symmetry_group_IT_number 51
_symmetry_cell_setting 'orthorhombic'
loop_
_space_group_symop_operation_xyz
x,y,z
1/2-x,-y,z
1/2+x,-y,-z
-x,y,-z
-x,-y,-z
1/2+x,y,-z
1/2-x,y,z
x,-y,z
loop_
_atom_site_type_symbol
_atom_site_label
_atom_site_fract_x
_atom_site_fract_y
_atom_site_fract_z
Si Si1 0.576136 0.171067 0.499969
Si Si2 0.432423 0.172179 0.319879
Si Si3 0.829226 0.170074 0.990801
Si Si4 0.329426 0.823178 0.645813
Si Si5 0.174731 0.823325 0.191643
Si Si6 0.559934 0.324209 0.253054
Si Si7 0.551593 0.674448 0.068627
O O1 0.500000 0.245659 0.500000
O O2 0.603951 0.190672 0.592130
O O3 0.631050 0.237619 0.435704
O O4 0.567039 0.000000 0.475276
O O5 0.380384 0.242510 0.254231
O O6 0.503781 0.260918 0.316075
O O7 0.448630 0.000000 0.301875
O O8 0.750000 0.190059 0.013092
O O9 0.844686 0.227431 0.899337
O O10 0.851897 0.000000 0.000071
O O11 0.871811 0.269433 0.052590
O O12 0.250000 0.771025 0.642214
O O13 0.366741 0.749340 0.724070
O O14 0.333155 0.000000 0.653736
O O15 0.250000 0.761081 0.214762
O O16 0.176558 0.000000 0.196025
O O17 0.566461 0.500000 0.261903
O O18 0.535090 0.278243 0.161684
O O19 0.550521 0.500000 0.059994
O O20 0.500000 0.744058 0.000000
#
# Coordination Sequence:
#
# PCOD8207174 Si02
#       7
#     8   8   8   8   8   8   8
#     4   9  16  30  53  80 108 134 168 217 260 299
#     4  10  18  31  56  81 106 141 179 214 256 314
#     4   9  18  33  52  75 104 135 169 213 264 318
#     4  10  21  38  59  82 109 143 183 223 264 315
#     4   8  15  28  48  78 110 135 166 214 267 313
#     4  11  23  37  54  77 107 141 176 221 272 317
#     4  10  22  38  54  75 104 137 178 225 268 315
#
# _framework density 19.465796000000001
#
# number of rings (size 3 to 8) (size 9 to 14) (size 15 to 20)
#    0.000    2.429    1.429    2.143    0.000    3.143 
#    0.000    7.143    0.000    1.286    0.000    0.000 
#    0.000    0.000    0.000    0.000    0.000    0.000 
#
# Total GULP energy -694140.863360 kJ/mol
# GULP energy per Si atom -12395.372560 kJ/mol
# Density = 1.942149 g / cm^3
# Si number density = 19.465796 Si / 1000 Ang^3
#
#
#
# Elastic Constant Matrix: (Units=GPa)
#
#
# Indices 1 2 3 4 5 6 
#
# 1 105.6313 25.1421 51.1202 0.0000 0.0000 0.0000
# 2 25.1421 15.7012 33.4951 0.0000 0.0000 0.0000
# 3 51.1202 33.4951 96.4314 0.0000 0.0000 0.0000
# 4 0.0000 0.0000 0.0000 19.1734 0.0000 0.0000
# 5 0.0000 0.0000 0.0000 0.0000 38.4743 0.0000
# 6 0.0000 0.0000 0.0000 0.0000 0.0000 13.5266
#
#
#
# Elastic Compliance Matrix: (Units=1/GPa)
#
#
# Indices 1 2 3 4 5 6 
#
# 1 0.015357 -0.027889 0.001546 0.000000 0.000000 0.000000
# 2 -0.027889 0.296543 -0.088219 0.000000 0.000000 0.000000
# 3 0.001546 -0.088219 0.040193 0.000000 0.000000 0.000000
# 4 0.000000 0.000000 0.000000 0.052156 0.000000 0.000000
# 5 0.000000 0.000000 0.000000 0.000000 0.025991 0.000000
# 6 0.000000 0.000000 0.000000 0.000000 0.000000 0.073928
#
#
# Mechanical properties :
#
#
# Convention : Reuss Voigt Hill
#
# Bulk Modulus (GPa) = 8.13207 48.58651 28.35929
# Shear Modulus (GPa) = 6.45761 21.43531 13.94646
#
# Velocity S-wave (km/s) = 1.82335 3.32200 2.67958
# Velocity P-wave (km/s) = 2.93590 6.30304 4.91670
#
# Compressibility (1/GPa) = 0.12296995
#
# Stress axis : x y z
#
# Youngs Moduli (GPa) = 65.11842 3.37219 24.88013
#
# Poissons Ratio (x) = 0.09405 -0.03847
# Poissons Ratio (y) = 1.81609 2.19489
# Poissons Ratio (z) = -0.10069 0.29749
#
# Static dielectric constant tensor:
#      x y z
#    x 3.710750 0.000000 0.000000 
#    y 0.000000 3.071990 0.000000 
#    z 0.000000 0.000000 3.753440 
# 
# 
# High freq. dielectric constant tensor:
#      x y z
#    x 1.759190 0.000000 0.000000 
#    y 0.000000 1.710770 0.000000 
#    z 0.000000 0.000000 1.767530 
# 
# From -- ./inp_files/25736.got.cif
#   From: 2010.03.12/outbox.cif.g09.slc.cpg/sg51_13_cif.got.tgz:25736.got - 2010.04.16 13:43:02.
