data_PCOD8207969
_publ_section_title
;
Structure prediction by ZEFSAII (Michael W. Deem and Ramdas Pophale) SiO2 
 PCOD8207969
Probable space group: P M M A
;
_chemical_formula_sum "Si O2"
_cell_formula_units_Z 64
_cell_length_a 13.941662
_cell_length_b 9.401782
_cell_length_c 31.297741
_cell_angle_alpha 90.000000
_cell_angle_beta 90.000000
_cell_angle_gamma 90.000000
_cell_volume 4102.397310
_symmetry_space_group_name_H-M "P M M A"
_symmetry_group_IT_number 51
_symmetry_cell_setting 'orthorhombic'
loop_
_space_group_symop_operation_xyz
x,y,z
1/2-x,-y,z
1/2+x,-y,-z
-x,y,-z
-x,-y,-z
1/2+x,y,-z
1/2-x,y,z
x,-y,z
loop_
_atom_site_type_symbol
_atom_site_label
_atom_site_fract_x
_atom_site_fract_y
_atom_site_fract_z
Si Si1 0.017940 0.166377 0.396440
Si Si2 0.859944 0.667767 0.859472
Si Si3 0.140148 0.166830 0.315281
Si Si4 0.639444 0.838139 0.520686
Si Si5 0.540410 0.168347 0.933279
Si Si6 0.136182 0.343009 0.235640
Si Si7 0.638423 0.334385 0.437398
Si Si8 0.855845 0.831513 0.018346
O O1 0.075756 0.217244 0.354863
O O2 0.081886 0.203958 0.437344
O O3 0.920344 0.257621 0.399500
O O4 0.992904 0.000000 0.394006
O O5 0.750000 0.715728 0.867204
O O6 0.869939 0.500000 0.866900
O O7 0.930294 0.751276 0.890617
O O8 0.894500 0.708946 0.811581
O O9 0.250000 0.213376 0.324141
O O10 0.098023 0.237923 0.272321
O O11 0.133434 0.000000 0.308521
O O12 0.750000 0.817646 0.532440
O O13 0.607780 0.736184 0.482264
O O14 0.617758 0.000000 0.506330
O O15 0.431449 0.214918 0.945209
O O16 0.548068 0.000000 0.925766
O O17 0.609498 0.219528 0.971690
O O18 0.250000 0.349477 0.236381
O O19 0.094094 0.500000 0.244759
O O20 0.750000 0.308480 0.427902
O O21 0.612746 0.500000 0.439257
O O22 0.750000 0.767513 0.028074
O O23 0.852158 0.000000 0.017339
#
# Coordination Sequence:
#
# PCOD8207969 Si02
#       8
#     8   8   8   8   8   8   8   8
#     4  10  19  30  46  67  88 112 141 170 205 250
#     4   9  17  28  41  59  86 116 141 170 210 249
#     4   9  17  29  45  67  93 114 134 166 205 245
#     4   9  17  30  47  65  87 115 142 167 201 248
#     4   9  16  25  41  63  81 106 147 183 209 246
#     4   8  15  28  43  59  83 115 143 164 198 252
#     4  10  21  34  45  60  84 112 144 182 215 240
#     4   8  14  25  39  57  85 115 140 173 217 256
#
# _framework density 15.600633999999999
#
# number of rings (size 3 to 8) (size 9 to 14) (size 15 to 20)
#    0.000    3.000    0.000    3.000    0.000    6.000 
#    0.000    2.500    0.000    4.875    0.000    0.875 
#    0.000    3.000    0.000    0.000    0.000    0.000 
#
# Total GULP energy -793381.879890 kJ/mol
# GULP energy per Si atom -12396.591873 kJ/mol
# Density = 1.556513 g / cm^3
# Si number density = 15.600634 Si / 1000 Ang^3
#
#
#
# Elastic Constant Matrix: (Units=GPa)
#
#
# Indices 1 2 3 4 5 6 
#
# 1 85.2127 36.8561 63.5295 0.0000 0.0000 0.0000
# 2 36.8561 53.4649 55.5210 0.0000 0.0000 0.0000
# 3 63.5295 55.5210 126.0409 0.0000 0.0000 0.0000
# 4 0.0000 0.0000 0.0000 5.3278 0.0000 0.0000
# 5 0.0000 0.0000 0.0000 0.0000 23.7455 0.0000
# 6 0.0000 0.0000 0.0000 0.0000 0.0000 19.2399
#
#
#
# Elastic Compliance Matrix: (Units=1/GPa)
#
#
# Indices 1 2 3 4 5 6 
#
# 1 0.019811 -0.006059 -0.007316 0.000000 0.000000 0.000000
# 2 -0.006059 0.036326 -0.012948 0.000000 0.000000 0.000000
# 3 -0.007316 -0.012948 0.017325 0.000000 0.000000 0.000000
# 4 0.000000 0.000000 0.000000 0.187693 0.000000 0.000000
# 5 0.000000 0.000000 0.000000 0.000000 0.042113 0.000000
# 6 0.000000 0.000000 0.000000 0.000000 0.000000 0.051975
#
#
# Mechanical properties :
#
#
# Convention : Reuss Voigt Hill
#
# Bulk Modulus (GPa) = 48.03980 64.05909 56.04944
# Shear Modulus (GPa) = 12.05317 16.91676 14.48497
#
# Velocity S-wave (km/s) = 2.78260 3.29654 3.05041
# Velocity P-wave (km/s) = 6.41749 7.45926 6.95790
#
# Compressibility (1/GPa) = 0.02081608
#
# Stress axis : x y z
#
# Youngs Moduli (GPa) = 50.47822 27.52827 57.71901
#
# Poissons Ratio (x) = 0.16678 0.42230
# Poissons Ratio (y) = 0.30583 0.74735
# Poissons Ratio (z) = 0.36932 0.35644
#
# Static dielectric constant tensor:
#      x y z
#    x 3.074040 0.000000 0.000000 
#    y 0.000000 2.878650 0.000000 
#    z 0.000000 0.000000 3.008500 
# 
# 
# High freq. dielectric constant tensor:
#      x y z
#    x 1.581170 0.000000 0.000000 
#    y 0.000000 1.586270 0.000000 
#    z 0.000000 0.000000 1.588620 
# 
# From -- ./inp_files/37811.got.cif
#   From: 2010.03.12/outbox.cif.g09.slc.cpg/sg51_19_cif.got.tgz:37811.got - 2010.04.16 13:43:02.
