data_PCOD8207753
_publ_section_title
;
Structure prediction by ZEFSAII (Michael W. Deem and Ramdas Pophale) SiO2 
 PCOD8207753
Probable space group: P M M A
;
_chemical_formula_sum "Si O2"
_cell_formula_units_Z 56
_cell_length_a 9.050017
_cell_length_b 13.680685
_cell_length_c 29.394788
_cell_angle_alpha 90.000000
_cell_angle_beta 90.000000
_cell_angle_gamma 90.000000
_cell_volume 3639.381396
_symmetry_space_group_name_H-M "P M M A"
_symmetry_group_IT_number 51
_symmetry_cell_setting 'orthorhombic'
loop_
_space_group_symop_operation_xyz
x,y,z
1/2-x,-y,z
1/2+x,-y,-z
-x,y,-z
-x,-y,-z
1/2+x,y,-z
1/2-x,y,z
x,-y,z
loop_
_atom_site_type_symbol
_atom_site_label
_atom_site_fract_x
_atom_site_fract_y
_atom_site_fract_z
Si Si1 0.913346 0.616016 0.369500
Si Si2 0.925171 0.773821 0.953427
Si Si3 0.585053 0.383353 0.544024
Si Si4 0.074224 0.296233 0.184739
Si Si5 0.079732 0.387101 0.898628
Si Si6 0.423986 0.612907 0.731880
Si Si7 0.576301 0.892981 0.865981
O O1 0.750000 0.659446 0.377132
O O2 0.905753 0.500000 0.372871
O O3 0.971229 0.644286 0.319254
O O4 0.016481 0.658948 0.409250
O O5 0.750000 0.761657 0.959338
O O6 0.967152 0.855132 0.916054
O O7 0.993639 0.670642 0.937999
O O8 0.000000 0.808446 0.000000
O O9 0.500000 0.342591 0.500000
O O10 0.750000 0.343156 0.540862
O O11 0.580497 0.500000 0.544476
O O12 0.250000 0.309327 0.181116
O O13 0.024572 0.185579 0.171809
O O14 0.997109 0.370973 0.150121
O O15 0.018423 0.318299 0.235258
O O16 0.250000 0.352592 0.895968
O O17 0.068981 0.500000 0.911607
O O18 0.250000 0.629435 0.739374
O O19 0.464605 0.500000 0.740992
O O20 0.750000 0.903673 0.862973
O O21 0.502929 0.000000 0.857484
#
# Coordination Sequence:
#
# PCOD8207753 Si02
#       7
#     8   8   8   8   8   8   8
#     4   8  14  24  35  47  66  95 132 169 203 239
#     4  10  20  33  50  70  90 111 134 163 197 233
#     4   9  15  21  30  44  63  90 126 169 212 247
#     4  10  19  29  45  67  86 106 134 169 204 239
#     4  10  20  33  48  64  85 114 142 167 196 231
#     4   9  17  28  41  57  81 113 141 167 204 247
#     4   8  16  32  50  66  85 108 133 162 198 239
#
# _framework density 15.387231
#
# number of rings (size 3 to 8) (size 9 to 14) (size 15 to 20)
#    0.000    2.857    0.000    3.857    0.000    6.000 
#    0.000    1.429    0.000   15.000    0.000    0.000 
#    0.000    0.000    0.000    0.000    0.000    0.714 
#
# Total GULP energy -694159.656619 kJ/mol
# GULP energy per Si atom -12395.708154 kJ/mol
# Density = 1.535221 g / cm^3
# Si number density = 15.387231 Si / 1000 Ang^3
#
#
#
# Elastic Constant Matrix: (Units=GPa)
#
#
# Indices 1 2 3 4 5 6 
#
# 1 88.0175 29.9694 55.9611 0.0000 0.0000 0.0000
# 2 29.9694 66.9562 37.6407 0.0000 0.0000 0.0000
# 3 55.9611 37.6407 127.7970 0.0000 0.0000 0.0000
# 4 0.0000 0.0000 0.0000 178.0299 0.0000 0.0000
# 5 0.0000 0.0000 0.0000 0.0000 32.0699 0.0000
# 6 0.0000 0.0000 0.0000 0.0000 0.0000 9.6604
#
#
#
# Elastic Compliance Matrix: (Units=1/GPa)
#
#
# Indices 1 2 3 4 5 6 
#
# 1 0.016596 -0.004006 -0.006087 0.000000 0.000000 0.000000
# 2 -0.004006 0.018866 -0.003802 0.000000 0.000000 0.000000
# 3 -0.006087 -0.003802 0.011610 0.000000 0.000000 0.000000
# 4 0.000000 0.000000 0.000000 0.005617 0.000000 0.000000
# 5 0.000000 0.000000 0.000000 0.000000 0.031182 0.000000
# 6 0.000000 0.000000 0.000000 0.000000 0.000000 0.103515
#
#
# Mechanical properties :
#
#
# Convention : Reuss Voigt Hill
#
# Bulk Modulus (GPa) = 51.86597 58.87926 55.37261
# Shear Modulus (GPa) = 22.56273 54.56533 38.56403
#
# Velocity S-wave (km/s) = 3.83342 5.96141 5.01166
# Velocity P-wave (km/s) = 7.30574 9.25919 8.33986
#
# Compressibility (1/GPa) = 0.01928047
#
# Stress axis : x y z
#
# Youngs Moduli (GPa) = 60.25694 53.00578 86.13013
#
# Poissons Ratio (x) = 0.21235 0.52428
# Poissons Ratio (y) = 0.24140 0.32750
# Poissons Ratio (z) = 0.36679 0.20155
#
# Static dielectric constant tensor:
#      x y z
#    x 3.003930 0.000000 0.000000 
#    y 0.000000 2.757460 0.000000 
#    z 0.000000 0.000000 3.071630 
# 
# 
# High freq. dielectric constant tensor:
#      x y z
#    x 1.592970 0.000000 0.000000 
#    y 0.000000 1.535860 0.000000 
#    z 0.000000 0.000000 1.593780 
# 
# From -- ./inp_files/37485.got.cif
#   From: 2010.03.12/outbox.cif.g09.slc.cpg/sg51_19_cif.got.tgz:37485.got - 2010.04.16 13:43:02.
