data_PCOD8207679
_publ_section_title
;
Structure prediction by ZEFSAII (Michael W. Deem and Ramdas Pophale) SiO2 
 PCOD8207679
Probable space group: P M M A
;
_chemical_formula_sum "Si O2"
_cell_formula_units_Z 64
_cell_length_a 18.072779
_cell_length_b 9.131055
_cell_length_c 21.671712
_cell_angle_alpha 90.000000
_cell_angle_beta 90.000000
_cell_angle_gamma 90.000000
_cell_volume 3576.342612
_symmetry_space_group_name_H-M "P M M A"
_symmetry_group_IT_number 51
_symmetry_cell_setting 'orthorhombic'
loop_
_space_group_symop_operation_xyz
x,y,z
1/2-x,-y,z
1/2+x,-y,-z
-x,y,-z
-x,-y,-z
1/2+x,y,-z
1/2-x,y,z
x,-y,z
loop_
_atom_site_type_symbol
_atom_site_label
_atom_site_fract_x
_atom_site_fract_y
_atom_site_fract_z
Si Si1 0.667884 0.168517 0.367269
Si Si2 0.834818 0.670689 0.773143
Si Si3 0.838090 0.834907 0.894886
Si Si4 0.391974 0.669435 0.745831
Si Si5 0.336546 0.828905 0.863722
Si Si6 0.661982 0.334791 0.013661
Si Si7 0.043384 0.332481 0.321456
Si Si8 0.020893 0.827941 0.566878
O O1 0.750000 0.191302 0.395883
O O2 0.662056 0.266765 0.306387
O O3 0.606081 0.214905 0.417530
O O4 0.655568 0.000000 0.347521
O O5 0.750000 0.709857 0.758348
O O6 0.844958 0.500000 0.788572
O O7 0.865013 0.759269 0.831932
O O8 0.881928 0.716270 0.713255
O O9 0.750000 0.834383 0.897601
O O10 0.870295 0.745151 0.952995
O O11 0.869052 0.000000 0.897272
O O12 0.371932 0.500000 0.756255
O O13 0.382063 0.757189 0.808654
O O14 0.476210 0.692704 0.725527
O O15 0.250000 0.799637 0.852802
O O16 0.354364 0.000000 0.867495
O O17 0.364625 0.754429 0.926622
O O18 0.750000 0.336876 0.010599
O O19 0.630677 0.500000 0.016485
O O20 0.047248 0.500000 0.342838
O O21 0.034928 0.237118 0.382805
O O22 0.000000 0.762563 0.500000
O O23 0.008777 0.000000 0.567347
#
# Coordination Sequence:
#
# PCOD8207679 Si02
#       8
#     8   8   8   8   8   8   8   8
#     4   9  17  30  48  69  94 125 161 198 233 271
#     4   9  17  31  51  72  94 121 154 192 234 281
#     4   9  16  26  42  66  94 121 152 193 239 283
#     4  10  19  30  45  66  93 123 155 193 236 280
#     4  10  19  29  42  63  92 124 158 196 237 280
#     4   9  16  26  41  62  89 122 159 196 236 282
#     4   9  19  34  51  72  96 123 155 190 230 277
#     4   9  18  33  52  73  98 129 162 193 229 277
#
# _framework density 17.895378000000001
#
# number of rings (size 3 to 8) (size 9 to 14) (size 15 to 20)
#    0.000    2.750    0.000    1.875    0.000    6.750 
#    0.000    0.625    0.000    1.500    0.000    5.250 
#    0.000    0.000    0.000    0.000    0.000    0.000 
#
# Total GULP energy -793612.176291 kJ/mol
# GULP energy per Si atom -12400.190255 kJ/mol
# Density = 1.785465 g / cm^3
# Si number density = 17.895378 Si / 1000 Ang^3
#
#
#
# Elastic Constant Matrix: (Units=GPa)
#
#
# Indices 1 2 3 4 5 6 
#
# 1 60.6543 31.3395 56.1291 0.0000 0.0000 0.0000
# 2 31.3395 98.4929 70.1440 0.0000 0.0000 0.0000
# 3 56.1291 70.1440 158.9199 0.0000 0.0000 0.0000
# 4 0.0000 0.0000 0.0000 31.3264 0.0000 0.0000
# 5 0.0000 0.0000 0.0000 0.0000 19.4317 0.0000
# 6 0.0000 0.0000 0.0000 0.0000 0.0000 17.2210
#
#
#
# Elastic Compliance Matrix: (Units=1/GPa)
#
#
# Indices 1 2 3 4 5 6 
#
# 1 0.024881 -0.002419 -0.007720 0.000000 0.000000 0.000000
# 2 -0.002419 0.015043 -0.005785 0.000000 0.000000 0.000000
# 3 -0.007720 -0.005785 0.011573 0.000000 0.000000 0.000000
# 4 0.000000 0.000000 0.000000 0.031922 0.000000 0.000000
# 5 0.000000 0.000000 0.000000 0.000000 0.051462 0.000000
# 6 0.000000 0.000000 0.000000 0.000000 0.000000 0.058069
#
#
# Mechanical properties :
#
#
# Convention : Reuss Voigt Hill
#
# Bulk Modulus (GPa) = 50.89608 70.36582 60.63095
# Shear Modulus (GPa) = 21.61259 24.29278 22.95268
#
# Velocity S-wave (km/s) = 3.47900 3.68841 3.58523
# Velocity P-wave (km/s) = 6.68136 7.58585 7.14793
#
# Compressibility (1/GPa) = 0.01964788
#
# Stress axis : x y z
#
# Youngs Moduli (GPa) = 40.19181 66.47710 86.41083
#
# Poissons Ratio (x) = 0.16080 0.66709
# Poissons Ratio (y) = 0.09722 0.49991
# Poissons Ratio (z) = 0.31028 0.38459
#
# Static dielectric constant tensor:
#      x y z
#    x 3.089990 0.000000 0.000000 
#    y 0.000000 3.421530 0.000000 
#    z 0.000000 0.000000 3.328790 
# 
# 
# High freq. dielectric constant tensor:
#      x y z
#    x 1.660820 0.000000 0.000000 
#    y 0.000000 1.699580 0.000000 
#    z 0.000000 0.000000 1.688270 
# 
# From -- ./inp_files/33982.got.cif
#   From: 2010.03.12/outbox.cif.g09.slc.cpg/sg51_17_cif.got.tgz:33982.got - 2010.04.16 13:43:02.
