data_PCOD8207316
_publ_section_title
;
Structure prediction by ZEFSAII (Michael W. Deem and Ramdas Pophale) SiO2 
 PCOD8207316
Probable space group: P M M A
;
_chemical_formula_sum "Si O2"
_cell_formula_units_Z 48
_cell_length_a 16.466695
_cell_length_b 9.285969
_cell_length_c 16.047536
_cell_angle_alpha 90.000000
_cell_angle_beta 90.000000
_cell_angle_gamma 90.000000
_cell_volume 2453.816201
_symmetry_space_group_name_H-M "P M M A"
_symmetry_group_IT_number 51
_symmetry_cell_setting 'orthorhombic'
loop_
_space_group_symop_operation_xyz
x,y,z
1/2-x,-y,z
1/2+x,-y,-z
-x,y,-z
-x,-y,-z
1/2+x,y,-z
1/2-x,y,z
x,-y,z
loop_
_atom_site_type_symbol
_atom_site_label
_atom_site_fract_x
_atom_site_fract_y
_atom_site_fract_z
Si Si1 0.250000 0.337053 0.243830
Si Si2 0.250000 0.170538 0.413805
Si Si3 0.095031 0.332988 0.131833
Si Si4 0.844335 0.164664 0.019953
Si Si5 0.070342 0.170988 0.439178
Si Si6 0.336802 0.168281 0.795194
Si Si7 0.496805 0.167930 0.264722
O O1 0.250000 0.500000 0.278304
O O2 0.250000 0.229754 0.320942
O O3 0.174170 0.304959 0.186280
O O4 0.164607 0.218684 0.459692
O O5 0.250000 0.000000 0.405867
O O6 0.074731 0.500000 0.120770
O O7 0.024125 0.254979 0.182081
O O8 0.102788 0.263201 0.041220
O O9 0.750000 0.177298 0.995890
O O10 0.858898 0.228198 0.112853
O O11 0.874149 0.000000 0.010860
O O12 0.048803 0.227110 0.346499
O O13 0.000000 0.235997 0.500000
O O14 0.063769 0.000000 0.442717
O O15 0.250000 0.232900 0.763639
O O16 0.406117 0.196417 0.726015
O O17 0.325500 0.000000 0.809791
O O18 0.477188 0.000000 0.251257
#
# Coordination Sequence:
#
# PCOD8207316 Si02
#       7
#     4   4   8   8   8   8   8
#     4  10  20  32  48  72 103 134 166 208 251 302
#     4  10  18  32  56  78 103 136 168 204 249 308
#     4  11  21  32  48  74 106 134 168 212 258 304
#     4   9  17  30  49  70  96 132 174 214 251 299
#     4   9  18  32  50  79 111 133 161 205 254 303
#     4   8  16  32  51  72  97 130 174 218 255 294
#     4  10  19  33  54  75 101 134 170 212 253 306
#
# _framework density 19.561368000000002
#
# number of rings (size 3 to 8) (size 9 to 14) (size 15 to 20)
#    0.000    2.500    2.500    1.500    0.000    1.333 
#    1.500    4.167    0.000    3.500    0.000    0.000 
#    0.000    0.000    0.000    0.000    0.000    0.000 
#
# Total GULP energy -594705.337955 kJ/mol
# GULP energy per Si atom -12389.694541 kJ/mol
# Density = 1.951685 g / cm^3
# Si number density = 19.561368 Si / 1000 Ang^3
#
#
#
# Elastic Constant Matrix: (Units=GPa)
#
#
# Indices 1 2 3 4 5 6 
#
# 1 135.7346 21.5631 43.7447 0.0000 0.0000 0.0000
# 2 21.5631 42.4867 11.3560 0.0000 0.0000 0.0000
# 3 43.7447 11.3560 46.6484 0.0000 0.0000 0.0000
# 4 0.0000 0.0000 0.0000 6.6564 0.0000 0.0000
# 5 0.0000 0.0000 0.0000 0.0000 -10.2574 0.0000
# 6 0.0000 0.0000 0.0000 0.0000 0.0000 9.6325
#
#
#
# Elastic Compliance Matrix: (Units=1/GPa)
#
#
# Indices 1 2 3 4 5 6 
#
# 1 0.010903 -0.002996 -0.009495 0.000000 0.000000 0.000000
# 2 -0.002996 0.025998 -0.003520 0.000000 0.000000 0.000000
# 3 -0.009495 -0.003520 0.031198 0.000000 0.000000 0.000000
# 4 0.000000 0.000000 0.000000 0.150232 0.000000 0.000000
# 5 0.000000 0.000000 0.000000 0.000000 -0.097490 0.000000
# 6 0.000000 0.000000 0.000000 0.000000 0.000000 0.103815
#
#
# Mechanical properties :
#
#
# Convention : Reuss Voigt Hill
#
# Bulk Modulus (GPa) = 27.71783 42.02195 34.86989
# Shear Modulus (GPa) = 18.60780 11.08668 14.84724
#
# Velocity S-wave (km/s) = 3.08758 2.38326 2.75800
# Velocity P-wave (km/s) = 5.18761 5.39463 5.29213
#
# Compressibility (1/GPa) = 0.03607786
#
# Stress axis : x y z
#
# Youngs Moduli (GPa) = 91.71419 38.46459 32.05321
#
# Poissons Ratio (x) = 0.11523 0.30436
# Poissons Ratio (y) = 0.27476 0.11281
# Poissons Ratio (z) = 0.87087 0.13538
#
# Static dielectric constant tensor:
#      x y z
#    x 3.964070 0.000000 0.000000 
#    y 0.000000 3.117570 0.000000 
#    z 0.000000 0.000000 3.406650 
# 
# 
# High freq. dielectric constant tensor:
#      x y z
#    x 1.780930 0.000000 0.000000 
#    y 0.000000 1.710340 0.000000 
#    z 0.000000 0.000000 1.741310 
# 
# From -- ./inp_files/24845.got.cif
#   From: 2010.03.12/outbox.cif.g09.slc.cpg/sg51_13_cif.got.tgz:24845.got - 2010.04.16 13:43:02.
