data_PCOD8207387
_publ_section_title
;
Structure prediction by ZEFSAII (Michael W. Deem and Ramdas Pophale) SiO2 
 PCOD8207387
Probable space group: P M M A
;
_chemical_formula_sum "Si O2"
_cell_formula_units_Z 48
_cell_length_a 18.950614
_cell_length_b 8.469297
_cell_length_c 14.895468
_cell_angle_alpha 90.000000
_cell_angle_beta 90.000000
_cell_angle_gamma 90.000000
_cell_volume 2390.698458
_symmetry_space_group_name_H-M "P M M A"
_symmetry_group_IT_number 51
_symmetry_cell_setting 'orthorhombic'
loop_
_space_group_symop_operation_xyz
x,y,z
1/2-x,-y,z
1/2+x,-y,-z
-x,y,-z
-x,-y,-z
1/2+x,y,-z
1/2-x,y,z
x,-y,z
loop_
_atom_site_type_symbol
_atom_site_label
_atom_site_fract_x
_atom_site_fract_y
_atom_site_fract_z
Si Si1 0.081921 0.314360 0.879723
Si Si2 0.669117 0.184400 0.956846
Si Si3 0.095431 0.683311 0.545173
Si Si4 0.543557 0.818317 0.623467
Si Si5 0.327160 0.687590 0.715308
Si Si6 0.070237 0.316737 0.186260
O O1 0.094305 0.500000 0.895493
O O2 0.116781 0.250439 0.787819
O O3 0.998900 0.273781 0.873380
O O4 0.119070 0.222190 0.959682
O O5 0.750000 0.239026 0.974933
O O6 0.639861 0.275130 0.869818
O O7 0.665926 0.000000 0.936661
O O8 0.104987 0.500000 0.522063
O O9 0.102605 0.783097 0.453106
O O10 0.154300 0.745313 0.614997
O O11 0.021348 0.706578 0.596854
O O12 0.572900 0.779936 0.721547
O O13 0.520494 0.000000 0.619051
O O14 0.250000 0.753083 0.740927
O O15 0.328845 0.500000 0.716887
O O16 0.069126 0.500000 0.211186
#
# Coordination Sequence:
#
# PCOD8207387 Si02
#       6
#     8   8   8   8   8   8
#     4  10  20  37  61  88 115 148 194 242 287 341
#     4  11  25  42  58  83 120 157 190 233 293 351
#     4  10  18  33  55  81 114 151 194 239 280 336
#     4  11  21  34  55  83 114 149 188 236 294 345
#     4   9  17  31  54  84 117 151 189 237 289 336
#     4  11  22  39  63  90 113 147 197 245 289 340
#
# _framework density 20.077815999999999
#
# number of rings (size 3 to 8) (size 9 to 14) (size 15 to 20)
#    0.000    1.667    1.667    5.000    0.000    5.333 
#    0.000    0.833    0.000    6.000    0.000    0.000 
#    0.000    0.000    0.000    0.000    0.000    0.000 
#
# Total GULP energy -595179.134894 kJ/mol
# GULP energy per Si atom -12399.565310 kJ/mol
# Density = 2.003212 g / cm^3
# Si number density = 20.077816 Si / 1000 Ang^3
#
#
#
# Elastic Constant Matrix: (Units=GPa)
#
#
# Indices 1 2 3 4 5 6 
#
# 1 75.6769 17.9020 34.0257 0.0000 0.0000 0.0000
# 2 17.9020 54.4912 21.9145 0.0000 0.0000 0.0000
# 3 34.0257 21.9145 117.5077 0.0000 0.0000 0.0000
# 4 0.0000 0.0000 0.0000 24.3135 0.0000 0.0000
# 5 0.0000 0.0000 0.0000 0.0000 24.3545 0.0000
# 6 0.0000 0.0000 0.0000 0.0000 0.0000 17.4807
#
#
#
# Elastic Compliance Matrix: (Units=1/GPa)
#
#
# Indices 1 2 3 4 5 6 
#
# 1 0.015829 -0.003629 -0.003907 0.000000 0.000000 0.000000
# 2 -0.003629 0.020672 -0.002804 0.000000 0.000000 0.000000
# 3 -0.003907 -0.002804 0.010164 0.000000 0.000000 0.000000
# 4 0.000000 0.000000 0.000000 0.041129 0.000000 0.000000
# 5 0.000000 0.000000 0.000000 0.000000 0.041060 0.000000
# 6 0.000000 0.000000 0.000000 0.000000 0.000000 0.057206
#
#
# Mechanical properties :
#
#
# Convention : Reuss Voigt Hill
#
# Bulk Modulus (GPa) = 38.48412 43.92892 41.20652
# Shear Modulus (GPa) = 23.21236 24.81865 24.01551
#
# Velocity S-wave (km/s) = 3.40387 3.51967 3.46225
# Velocity P-wave (km/s) = 5.88706 6.20034 6.04573
#
# Compressibility (1/GPa) = 0.02598474
#
# Stress axis : x y z
#
# Youngs Moduli (GPa) = 63.17480 48.37542 98.38380
#
# Poissons Ratio (x) = 0.17556 0.38435
# Poissons Ratio (y) = 0.22927 0.27589
# Poissons Ratio (z) = 0.24680 0.13566
#
# Static dielectric constant tensor:
#      x y z
#    x 3.725540 0.000000 0.000000 
#    y 0.000000 3.408400 0.000000 
#    z 0.000000 0.000000 3.906260 
# 
# 
# High freq. dielectric constant tensor:
#      x y z
#    x 1.764710 0.000000 0.000000 
#    y 0.000000 1.768210 0.000000 
#    z 0.000000 0.000000 1.797070 
# 
# From -- ./inp_files/24779.got.cif
#   From: 2010.03.12/outbox.cif.g09.slc.cpg/sg51_13_cif.got.tgz:24779.got - 2010.04.16 13:43:02.
