data_PCOD8207212
_publ_section_title
;
Structure prediction by ZEFSAII (Michael W. Deem and Ramdas Pophale) SiO2 
 PCOD8207212
Probable space group: P M M A
;
_chemical_formula_sum "Si O2"
_cell_formula_units_Z 64
_cell_length_a 9.023920
_cell_length_b 20.015419
_cell_length_c 19.648015
_cell_angle_alpha 90.000000
_cell_angle_beta 90.000000
_cell_angle_gamma 90.000000
_cell_volume 3548.776132
_symmetry_space_group_name_H-M "P M M A"
_symmetry_group_IT_number 51
_symmetry_cell_setting 'orthorhombic'
loop_
_space_group_symop_operation_xyz
x,y,z
1/2-x,-y,z
1/2+x,-y,-z
-x,y,-z
-x,-y,-z
1/2+x,y,-z
1/2-x,y,z
x,-y,z
loop_
_atom_site_type_symbol
_atom_site_label
_atom_site_fract_x
_atom_site_fract_y
_atom_site_fract_z
Si Si1 0.415671 0.727051 0.065575
Si Si2 0.421065 0.317568 0.655508
Si Si3 0.424429 0.885334 0.796487
Si Si4 0.425433 0.185449 0.572462
Si Si5 0.923228 0.423488 0.569022
Si Si6 0.919604 0.269289 0.197487
Si Si7 0.418614 0.886272 0.066950
Si Si8 0.419789 0.924213 0.338469
O O1 0.250000 0.699723 0.062045
O O2 0.486825 0.700281 0.135419
O O3 0.422420 0.806645 0.065096
O O4 0.500000 0.697845 0.000000
O O5 0.250000 0.334265 0.641668
O O6 0.465383 0.249218 0.618278
O O7 0.520448 0.378724 0.630801
O O8 0.454648 0.311463 0.735378
O O9 0.250000 0.900706 0.795686
O O10 0.459147 0.807291 0.787153
O O11 0.493540 0.912414 0.866948
O O12 0.503093 0.922951 0.734967
O O13 0.500000 0.196620 0.500000
O O14 0.250000 0.175946 0.564368
O O15 0.491667 0.120077 0.607616
O O16 0.750000 0.413667 0.559425
O O17 0.965529 0.500000 0.584919
O O18 0.000000 0.398513 0.500000
O O19 0.750000 0.274682 0.175229
O O20 0.250000 0.912695 0.068865
O O21 0.500000 0.915041 0.000000
O O22 0.250000 0.899145 0.332442
O O23 0.425029 0.000000 0.365525
#
# Coordination Sequence:
#
# PCOD8207212 Si02
#       8
#     8   8   8   8   8   8   8   8
#     4   9  16  25  39  63  95 134 172 208 252 301
#     4  10  20  35  55  81 110 140 175 214 260 308
#     4  10  18  32  52  73  99 131 167 211 260 312
#     4  11  23  40  59  82 106 133 168 211 262 316
#     4  10  21  36  54  78 108 144 183 219 257 304
#     4   9  17  30  47  71 102 133 167 211 256 305
#     4   9  16  26  42  68  98 130 167 207 252 305
#     4  11  24  40  57  77 100 130 170 215 263 318
#
# _framework density 18.034388
#
# number of rings (size 3 to 8) (size 9 to 14) (size 15 to 20)
#    0.000    2.125    1.250    2.625    0.000    8.000 
#    0.000    0.000    0.000    0.375    0.000    0.000 
#    0.000    0.500    0.000    1.625    0.000    2.375 
#
# Total GULP energy -793762.910054 kJ/mol
# GULP energy per Si atom -12402.545470 kJ/mol
# Density = 1.799334 g / cm^3
# Si number density = 18.034388 Si / 1000 Ang^3
#
#
#
# Elastic Constant Matrix: (Units=GPa)
#
#
# Indices 1 2 3 4 5 6 
#
# 1 114.0707 33.4820 51.9566 0.0000 0.0000 0.0000
# 2 33.4820 51.8207 27.3849 0.0000 0.0000 0.0000
# 3 51.9566 27.3849 99.9262 0.0000 0.0000 0.0000
# 4 0.0000 0.0000 0.0000 12.2889 0.0000 0.0000
# 5 0.0000 0.0000 0.0000 0.0000 41.1348 0.0000
# 6 0.0000 0.0000 0.0000 0.0000 0.0000 21.4933
#
#
#
# Elastic Compliance Matrix: (Units=1/GPa)
#
#
# Indices 1 2 3 4 5 6 
#
# 1 0.012707 -0.005518 -0.005095 0.000000 0.000000 0.000000
# 2 -0.005518 0.024961 -0.003972 0.000000 0.000000 0.000000
# 3 -0.005095 -0.003972 0.013745 0.000000 0.000000 0.000000
# 4 0.000000 0.000000 0.000000 0.081374 0.000000 0.000000
# 5 0.000000 0.000000 0.000000 0.000000 0.024310 0.000000
# 6 0.000000 0.000000 0.000000 0.000000 0.000000 0.046526
#
#
# Mechanical properties :
#
#
# Convention : Reuss Voigt Hill
#
# Bulk Modulus (GPa) = 44.95492 54.60720 49.78106
# Shear Modulus (GPa) = 20.81549 25.18301 22.99925
#
# Velocity S-wave (km/s) = 3.40105 3.74088 3.57501
# Velocity P-wave (km/s) = 6.35644 7.00030 6.68612
#
# Compressibility (1/GPa) = 0.02224450
#
# Stress axis : x y z
#
# Youngs Moduli (GPa) = 78.69985 40.06226 72.75463
#
# Poissons Ratio (x) = 0.22104 0.37066
# Poissons Ratio (y) = 0.43423 0.28897
# Poissons Ratio (z) = 0.40095 0.15912
#
# Static dielectric constant tensor:
#      x y z
#    x 3.472820 0.000000 0.000000 
#    y 0.000000 2.925260 0.000000 
#    z 0.000000 0.000000 3.480210 
# 
# 
# High freq. dielectric constant tensor:
#      x y z
#    x 1.713120 0.000000 0.000000 
#    y 0.000000 1.649790 0.000000 
#    z 0.000000 0.000000 1.708760 
# 
# From -- ./inp_files/28387.got.cif
#   From: 2010.03.12/outbox.cif.g09.slc.cpg/sg51_15_cif.got.tgz:28387.got - 2010.04.16 13:43:02.
