data_PCOD8207955
_publ_section_title
;
Structure prediction by ZEFSAII (Michael W. Deem and Ramdas Pophale) SiO2 
 PCOD8207955
Probable space group: P M M A
;
_chemical_formula_sum "Si O2"
_cell_formula_units_Z 56
_cell_length_a 8.820267
_cell_length_b 20.302511
_cell_length_c 15.456531
_cell_angle_alpha 90.000000
_cell_angle_beta 90.000000
_cell_angle_gamma 90.000000
_cell_volume 2767.856152
_symmetry_space_group_name_H-M "P M M A"
_symmetry_group_IT_number 51
_symmetry_cell_setting 'orthorhombic'
loop_
_space_group_symop_operation_xyz
x,y,z
1/2-x,-y,z
1/2+x,-y,-z
-x,y,-z
-x,-y,-z
1/2+x,y,-z
1/2-x,y,z
x,-y,z
loop_
_atom_site_type_symbol
_atom_site_label
_atom_site_fract_x
_atom_site_fract_y
_atom_site_fract_z
Si Si1 0.575672 0.203711 0.677067
Si Si2 0.929751 0.677444 0.409810
Si Si3 0.425483 0.242081 0.127466
Si Si4 0.425580 0.926997 0.725969
Si Si5 0.928131 0.891449 0.082676
Si Si6 0.928462 0.623191 0.086748
Si Si7 0.929939 0.573235 0.269331
O O1 0.750000 0.204601 0.649064
O O2 0.481823 0.248020 0.610098
O O3 0.548528 0.235138 0.770405
O O4 0.520587 0.127817 0.674564
O O5 0.750000 0.675324 0.415659
O O6 0.993417 0.626736 0.337303
O O7 0.000000 0.653954 0.500000
O O8 0.250000 0.254373 0.104904
O O9 0.485474 0.177702 0.080863
O O10 0.527059 0.300666 0.091600
O O11 0.250000 0.909485 0.712906
O O12 0.464887 0.928641 0.828096
O O13 0.463890 0.000000 0.689370
O O14 0.750000 0.882084 0.070441
O O15 0.000000 0.930495 0.000000
O O16 0.750000 0.615459 0.080219
O O17 0.992620 0.587384 0.172739
O O18 0.000000 0.591168 0.000000
O O19 0.750000 0.578533 0.267439
O O20 0.982641 0.500000 0.297391
#
# Coordination Sequence:
#
# PCOD8207955 Si02
#       7
#     8   8   8   8   8   8   8
#     4  10  20  35  58  86 116 148 189 240 290 342
#     4  11  22  39  65  94 122 153 191 236 290 351
#     4  10  19  32  51  75 106 143 189 242 292 341
#     4   9  19  35  54  77 108 150 195 236 287 351
#     4  10  19  30  45  68 102 142 189 240 292 344
#     4  11  21  34  54  80 112 153 199 244 292 343
#     4   9  20  39  61  85 118 159 198 238 290 350
#
# _framework density 20.232264000000001
#
# number of rings (size 3 to 8) (size 9 to 14) (size 15 to 20)
#    0.000    2.000    1.429    2.571    0.000    2.857 
#    0.000    0.000    0.000    6.429    0.000    0.000 
#    0.000    0.000    0.000    0.000    0.000    0.000 
#
# Total GULP energy -694344.171706 kJ/mol
# GULP energy per Si atom -12399.003066 kJ/mol
# Density = 2.018621 g / cm^3
# Si number density = 20.232264 Si / 1000 Ang^3
#
#
#
# Elastic Constant Matrix: (Units=GPa)
#
#
# Indices 1 2 3 4 5 6 
#
# 1 72.1510 26.8908 40.2456 0.0000 0.0000 0.0000
# 2 26.8908 109.3371 48.2683 0.0000 0.0000 0.0000
# 3 40.2456 48.2683 110.1297 0.0000 0.0000 0.0000
# 4 0.0000 0.0000 0.0000 6.5802 0.0000 0.0000
# 5 0.0000 0.0000 0.0000 0.0000 31.5002 0.0000
# 6 0.0000 0.0000 0.0000 0.0000 0.0000 15.1069
#
#
#
# Elastic Compliance Matrix: (Units=1/GPa)
#
#
# Indices 1 2 3 4 5 6 
#
# 1 0.017708 -0.001858 -0.005657 0.000000 0.000000 0.000000
# 2 -0.001858 0.011535 -0.004377 0.000000 0.000000 0.000000
# 3 -0.005657 -0.004377 0.013066 0.000000 0.000000 0.000000
# 4 0.000000 0.000000 0.000000 0.151971 0.000000 0.000000
# 5 0.000000 0.000000 0.000000 0.000000 0.031746 0.000000
# 6 0.000000 0.000000 0.000000 0.000000 0.000000 0.066195
#
#
# Mechanical properties :
#
#
# Convention : Reuss Voigt Hill
#
# Bulk Modulus (GPa) = 53.97916 58.04747 56.01331
# Shear Modulus (GPa) = 15.51937 22.38501 18.95219
#
# Velocity S-wave (km/s) = 2.77259 3.32987 3.06393
# Velocity P-wave (km/s) = 6.08172 6.59825 6.34524
#
# Compressibility (1/GPa) = 0.01852567
#
# Stress axis : x y z
#
# Youngs Moduli (GPa) = 56.47311 86.69175 76.53648
#
# Poissons Ratio (x) = 0.16106 0.43295
# Poissons Ratio (y) = 0.10492 0.33498
# Poissons Ratio (z) = 0.31945 0.37943
#
# Static dielectric constant tensor:
#      x y z
#    x 3.529570 0.000000 0.000000 
#    y 0.000000 3.623440 0.000000 
#    z 0.000000 0.000000 3.828250 
# 
# 
# High freq. dielectric constant tensor:
#      x y z
#    x 1.779460 0.000000 0.000000 
#    y 0.000000 1.784680 0.000000 
#    z 0.000000 0.000000 1.780590 
# 
# From -- ./inp_files/21780.got.cif
#   From: 2010.03.12/outbox.cif.g09.slc.cpg/sg51_11_cif.got.tgz:21780.got - 2010.04.16 13:43:02.
