data_PCOD8207049
_publ_section_title
;
Structure prediction by ZEFSAII (Michael W. Deem and Ramdas Pophale) SiO2 
 PCOD8207049
Probable space group: P M M A
;
_chemical_formula_sum "Si O2"
_cell_formula_units_Z 52
_cell_length_a 8.830078
_cell_length_b 23.557623
_cell_length_c 14.491855
_cell_angle_alpha 90.000000
_cell_angle_beta 90.000000
_cell_angle_gamma 90.000000
_cell_volume 3014.532617
_symmetry_space_group_name_H-M "P M M A"
_symmetry_group_IT_number 51
_symmetry_cell_setting 'orthorhombic'
loop_
_space_group_symop_operation_xyz
x,y,z
1/2-x,-y,z
1/2+x,-y,-z
-x,y,-z
-x,-y,-z
1/2+x,y,-z
1/2-x,y,z
x,-y,z
loop_
_atom_site_type_symbol
_atom_site_label
_atom_site_fract_x
_atom_site_fract_y
_atom_site_fract_z
Si Si1 0.570513 0.771122 0.711847
Si Si2 0.075946 0.564462 0.712235
Si Si3 0.929210 0.122368 0.600472
Si Si4 0.428655 0.337481 0.399890
Si Si5 0.570628 0.732373 0.907296
Si Si6 0.573600 0.000000 0.598174
Si Si7 0.426921 0.609997 0.908934
O O1 0.750000 0.770171 0.705443
O O2 0.504684 0.828873 0.667253
O O3 0.506917 0.716362 0.657207
O O4 0.519963 0.769442 0.818835
O O5 0.250000 0.580226 0.691522
O O6 0.040123 0.500000 0.683426
O O7 0.042399 0.570391 0.821147
O O8 0.970048 0.604819 0.652481
O O9 0.750000 0.128948 0.589822
O O10 0.971791 0.060255 0.645989
O O11 0.000000 0.129992 0.500000
O O12 0.500000 0.336752 0.500000
O O13 0.250000 0.334394 0.410196
O O14 0.750000 0.729651 0.917287
O O15 0.508051 0.669637 0.891595
O O16 0.500000 0.759957 0.000000
O O17 0.500000 0.000000 0.500000
O O18 0.750000 0.000000 0.580979
O O19 0.250000 0.620440 0.925962
O O20 0.500000 0.580853 0.000000
#
# Coordination Sequence:
#
# PCOD8207049 Si02
#       7
#     8   8   8   8   8   4   8
#     4   9  18  31  49  71  99 126 155 194 238 280
#     4  10  22  39  55  72  95 124 159 197 236 283
#     4   9  16  28  44  68  98 131 162 195 231 273
#     4  11  22  37  54  73  95 124 158 197 242 286
#     4  10  18  31  49  71  96 124 154 190 235 285
#     4   8  14  24  42  64  93 128 164 194 227 270
#     4  10  19  32  52  75  98 123 151 189 235 287
#
# _framework density 17.249770999999999
#
# number of rings (size 3 to 8) (size 9 to 14) (size 15 to 20)
#    0.000    2.308    1.538    2.769    0.000    1.538 
#    0.000    2.308    0.000    0.000    0.000    0.538 
#    0.000    0.000    0.000    0.000    0.000    0.000 
#
# Total GULP energy -644475.325391 kJ/mol
# GULP energy per Si atom -12393.756258 kJ/mol
# Density = 1.721051 g / cm^3
# Si number density = 17.249771 Si / 1000 Ang^3
#
#
#
# Elastic Constant Matrix: (Units=GPa)
#
#
# Indices 1 2 3 4 5 6 
#
# 1 55.5280 28.7105 35.9134 0.0000 0.0000 0.0000
# 2 28.7105 126.1577 64.6542 0.0000 0.0000 0.0000
# 3 35.9134 64.6542 119.9881 0.0000 0.0000 0.0000
# 4 0.0000 0.0000 0.0000 23.0528 0.0000 0.0000
# 5 0.0000 0.0000 0.0000 0.0000 26.1402 0.0000
# 6 0.0000 0.0000 0.0000 0.0000 0.0000 16.1052
#
#
#
# Elastic Compliance Matrix: (Units=1/GPa)
#
#
# Indices 1 2 3 4 5 6 
#
# 1 0.022821 -0.002339 -0.005570 0.000000 0.000000 0.000000
# 2 -0.002339 0.011190 -0.005330 0.000000 0.000000 0.000000
# 3 -0.005570 -0.005330 0.012873 0.000000 0.000000 0.000000
# 4 0.000000 0.000000 0.000000 0.043379 0.000000 0.000000
# 5 0.000000 0.000000 0.000000 0.000000 0.038255 0.000000
# 6 0.000000 0.000000 0.000000 0.000000 0.000000 0.062092
#
#
# Mechanical properties :
#
#
# Convention : Reuss Voigt Hill
#
# Bulk Modulus (GPa) = 49.00326 62.24778 55.62552
# Shear Modulus (GPa) = 22.33241 24.55267 23.44254
#
# Velocity S-wave (km/s) = 3.60203 3.77684 3.69047
# Velocity P-wave (km/s) = 6.76529 7.42858 7.10468
#
# Compressibility (1/GPa) = 0.02040681
#
# Stress axis : x y z
#
# Youngs Moduli (GPa) = 43.81966 89.36350 77.68061
#
# Poissons Ratio (x) = 0.20900 0.43270
# Poissons Ratio (y) = 0.10249 0.41402
# Poissons Ratio (z) = 0.24408 0.47628
#
# Static dielectric constant tensor:
#      x y z
#    x 3.093540 0.000000 0.000000 
#    y 0.000000 3.556640 0.000000 
#    z 0.000000 0.000000 3.315210 
# 
# 
# High freq. dielectric constant tensor:
#      x y z
#    x 1.660330 0.000000 0.000000 
#    y 0.000000 1.656490 0.000000 
#    z 0.000000 0.000000 1.659030 
# 
# From -- ./inp_files/22060.got.cif
#   From: 2010.03.12/outbox.cif.g09.slc.cpg/sg51_12_cif.got.tgz:22060.got - 2010.04.16 13:43:02.
