data_PCOD8207043
_publ_section_title
;
Structure prediction by ZEFSAII (Michael W. Deem and Ramdas Pophale) SiO2 
 PCOD8207043
Probable space group: P M M A
;
_chemical_formula_sum "Si O2"
_cell_formula_units_Z 48
_cell_length_a 26.167864
_cell_length_b 8.786486
_cell_length_c 11.929600
_cell_angle_alpha 90.000000
_cell_angle_beta 90.000000
_cell_angle_gamma 90.000000
_cell_volume 2742.896229
_symmetry_space_group_name_H-M "P M M A"
_symmetry_group_IT_number 51
_symmetry_cell_setting 'orthorhombic'
loop_
_space_group_symop_operation_xyz
x,y,z
1/2-x,-y,z
1/2+x,-y,-z
-x,y,-z
-x,-y,-z
1/2+x,y,-z
1/2-x,y,z
x,-y,z
loop_
_atom_site_type_symbol
_atom_site_label
_atom_site_fract_x
_atom_site_fract_y
_atom_site_fract_z
Si Si1 0.808704 0.681156 0.649177
Si Si2 0.555842 0.319034 0.035135
Si Si3 0.883740 0.669253 0.832368
Si Si4 0.033410 0.670626 0.353148
Si Si5 0.564485 0.173539 0.269661
Si Si6 0.114257 0.823804 0.507539
O O1 0.750000 0.728720 0.658745
O O2 0.816541 0.500000 0.640707
O O3 0.838435 0.748157 0.759483
O O4 0.832224 0.755895 0.537249
O O5 0.554767 0.500000 0.024199
O O6 0.572410 0.275545 0.160108
O O7 0.500000 0.253805 0.000000
O O8 0.599592 0.251944 0.949994
O O9 0.864096 0.500000 0.858770
O O10 0.935422 0.666633 0.761422
O O11 0.014649 0.500000 0.382389
O O12 0.067360 0.731925 0.454468
O O13 0.986029 0.781662 0.337249
O O14 0.611509 0.195273 0.357215
O O15 0.559974 0.000000 0.230062
O O16 0.109974 0.000000 0.472946
#
# Coordination Sequence:
#
# PCOD8207043 Si02
#       6
#     8   8   8   8   8   8
#     4   9  18  34  57  80  98 121 160 210 262 312
#     4  10  18  31  49  69  97 136 177 207 236 289
#     4   8  15  29  48  72  99 125 158 206 252 288
#     4  10  18  31  50  71  98 133 171 208 247 293
#     4  11  22  32  44  68 104 140 172 205 244 294
#     4  10  21  34  47  70 103 134 166 205 253 305
#
# _framework density 17.499751
#
# number of rings (size 3 to 8) (size 9 to 14) (size 15 to 20)
#    0.000    2.333    1.667    3.000    0.000    5.333 
#    0.000    0.833    0.000    1.000    0.000    2.333 
#    0.000    0.000    0.000    0.000    0.000    0.000 
#
# Total GULP energy -594858.282901 kJ/mol
# GULP energy per Si atom -12392.880894 kJ/mol
# Density = 1.745992 g / cm^3
# Si number density = 17.499751 Si / 1000 Ang^3
#
#
#
# Elastic Constant Matrix: (Units=GPa)
#
#
# Indices 1 2 3 4 5 6 
#
# 1 93.1966 14.5650 53.5709 0.0000 0.0000 0.0000
# 2 14.5650 33.7515 25.5819 0.0000 0.0000 0.0000
# 3 53.5709 25.5819 116.5725 0.0000 0.0000 0.0000
# 4 0.0000 0.0000 0.0000 20.3366 0.0000 0.0000
# 5 0.0000 0.0000 0.0000 0.0000 10.6494 0.0000
# 6 0.0000 0.0000 0.0000 0.0000 0.0000 18.0339
#
#
#
# Elastic Compliance Matrix: (Units=1/GPa)
#
#
# Indices 1 2 3 4 5 6 
#
# 1 0.014642 -0.001462 -0.006408 0.000000 0.000000 0.000000
# 2 -0.001462 0.035686 -0.007160 0.000000 0.000000 0.000000
# 3 -0.006408 -0.007160 0.013094 0.000000 0.000000 0.000000
# 4 0.000000 0.000000 0.000000 0.049172 0.000000 0.000000
# 5 0.000000 0.000000 0.000000 0.000000 0.093902 0.000000
# 6 0.000000 0.000000 0.000000 0.000000 0.000000 0.055451
#
#
# Mechanical properties :
#
#
# Convention : Reuss Voigt Hill
#
# Bulk Modulus (GPa) = 29.97281 47.88404 38.92842
# Shear Modulus (GPa) = 16.49476 19.79083 18.14280
#
# Velocity S-wave (km/s) = 3.07346 3.36656 3.22335
# Velocity P-wave (km/s) = 5.45524 6.52179 6.01221
#
# Compressibility (1/GPa) = 0.03336357
#
# Stress axis : x y z
#
# Youngs Moduli (GPa) = 68.29766 28.02247 76.36926
#
# Poissons Ratio (x) = 0.04096 0.48937
# Poissons Ratio (y) = 0.09983 0.54677
# Poissons Ratio (z) = 0.43764 0.20063
#
# Static dielectric constant tensor:
#      x y z
#    x 3.105910 0.000000 0.000000 
#    y 0.000000 3.136530 0.000000 
#    z 0.000000 0.000000 3.422520 
# 
# 
# High freq. dielectric constant tensor:
#      x y z
#    x 1.641320 0.000000 0.000000 
#    y 0.000000 1.661710 0.000000 
#    z 0.000000 0.000000 1.682350 
# 
# From -- ./inp_files/18998.got.cif
#   From: 2010.03.12/outbox.cif.g09.slc.cpg/sg51_10_cif.got.tgz:18998.got - 2010.04.16 13:43:02.
