data_PCOD8207050
_publ_section_title
;
Structure prediction by ZEFSAII (Michael W. Deem and Ramdas Pophale) SiO2 
 PCOD8207050
Probable space group: P M M A
;
_chemical_formula_sum "Si O2"
_cell_formula_units_Z 40
_cell_length_a 20.486963
_cell_length_b 7.734453
_cell_length_c 14.369994
_cell_angle_alpha 90.000000
_cell_angle_beta 90.000000
_cell_angle_gamma 90.000000
_cell_volume 2277.003901
_symmetry_space_group_name_H-M "P M M A"
_symmetry_group_IT_number 51
_symmetry_cell_setting 'orthorhombic'
loop_
_space_group_symop_operation_xyz
x,y,z
1/2-x,-y,z
1/2+x,-y,-z
-x,y,-z
-x,-y,-z
1/2+x,y,-z
1/2-x,y,z
x,-y,z
loop_
_atom_site_type_symbol
_atom_site_label
_atom_site_fract_x
_atom_site_fract_y
_atom_site_fract_z
Si Si1 0.532419 0.000000 0.099672
Si Si2 0.678117 0.197752 0.481027
Si Si3 0.549590 0.698986 0.575534
Si Si4 0.992990 0.302623 0.237534
Si Si5 0.346055 0.310809 0.720440
Si Si6 0.179761 0.000000 0.851644
O O1 0.506305 0.827470 0.150434
O O2 0.612210 0.000000 0.089148
O O3 0.500000 0.000000 0.000000
O O4 0.750000 0.216249 0.527475
O O5 0.624984 0.279527 0.549315
O O6 0.681007 0.293425 0.382986
O O7 0.659173 0.000000 0.463186
O O8 0.500000 0.787139 0.500000
O O9 0.529718 0.500000 0.581713
O O10 0.540812 0.769870 0.681114
O O11 0.009715 0.500000 0.204161
O O12 0.923331 0.294870 0.286732
O O13 0.325678 0.500000 0.758772
O O14 0.316501 0.168885 0.787992
O O15 0.250000 0.000000 0.908478
#
# Coordination Sequence:
#
# PCOD8207050 Si02
#       6
#     4   8   8   8   8   4
#     4  10  22  38  58  80 101 135 174 210 272 327
#     4  11  22  31  42  68 107 147 184 219 250 293
#     4  10  19  32  50  73 102 138 180 213 248 303
#     4   9  19  34  54  81 105 132 173 217 257 308
#     4  10  18  31  49  72 106 141 169 203 255 312
#     4  10  20  34  51  77 106 128 163 213 258 317
#
# _framework density 17.566945
#
# number of rings (size 3 to 8) (size 9 to 14) (size 15 to 20)
#    0.000    2.000    3.000    1.200    1.400    3.600 
#    0.000    0.000    0.000    1.200    0.000    0.000 
#    0.000    0.000    0.000    0.000    0.000    0.000 
#
# Total GULP energy -495685.860376 kJ/mol
# GULP energy per Si atom -12392.146509 kJ/mol
# Density = 1.752696 g / cm^3
# Si number density = 17.566945 Si / 1000 Ang^3
#
#
#
# Elastic Constant Matrix: (Units=GPa)
#
#
# Indices 1 2 3 4 5 6 
#
# 1 104.9808 18.1629 55.8203 0.0000 0.0000 0.0000
# 2 18.1629 89.5011 36.7395 0.0000 0.0000 0.0000
# 3 55.8203 36.7395 96.2322 0.0000 0.0000 0.0000
# 4 0.0000 0.0000 0.0000 17.2746 0.0000 0.0000
# 5 0.0000 0.0000 0.0000 0.0000 12.7073 0.0000
# 6 0.0000 0.0000 0.0000 0.0000 0.0000 19.7072
#
#
#
# Elastic Compliance Matrix: (Units=1/GPa)
#
#
# Indices 1 2 3 4 5 6 
#
# 1 0.013799 0.000576 -0.008224 0.000000 0.000000 0.000000
# 2 0.000576 0.013273 -0.005401 0.000000 0.000000 0.000000
# 3 -0.008224 -0.005401 0.017224 0.000000 0.000000 0.000000
# 4 0.000000 0.000000 0.000000 0.057889 0.000000 0.000000
# 5 0.000000 0.000000 0.000000 0.000000 0.078695 0.000000
# 6 0.000000 0.000000 0.000000 0.000000 0.000000 0.050743
#
#
# Mechanical properties :
#
#
# Convention : Reuss Voigt Hill
#
# Bulk Modulus (GPa) = 54.95447 56.90659 55.93053
# Shear Modulus (GPa) = 18.95465 21.93724 20.44594
#
# Velocity S-wave (km/s) = 3.28837 3.53764 3.41528
# Velocity P-wave (km/s) = 6.76525 7.01078 6.88911
#
# Compressibility (1/GPa) = 0.01819688
#
# Stress axis : x y z
#
# Youngs Moduli (GPa) = 72.47047 75.33820 58.05863
#
# Poissons Ratio (x) = -0.04336 0.47746
# Poissons Ratio (y) = -0.04171 0.31360
# Poissons Ratio (z) = 0.59598 0.40693
#
# Static dielectric constant tensor:
#      x y z
#    x 3.336930 0.000000 0.000000 
#    y 0.000000 3.539370 0.000000 
#    z 0.000000 0.000000 2.808130 
# 
# 
# High freq. dielectric constant tensor:
#      x y z
#    x 1.681030 0.000000 0.000000 
#    y 0.000000 1.693890 0.000000 
#    z 0.000000 0.000000 1.620990 
# 
# From -- ./inp_files/17996.got.cif
#   From: 2010.03.12/outbox.cif.g09.slc.cpg/sg51_9_cif.got.tgz:17996.got - 2010.04.16 13:43:02.
