data_PCOD8207462
_publ_section_title
;
Structure prediction by ZEFSAII (Michael W. Deem and Ramdas Pophale) SiO2 
 PCOD8207462
Probable space group: P M M A
;
_chemical_formula_sum "Si O2"
_cell_formula_units_Z 64
_cell_length_a 8.920274
_cell_length_b 23.772323
_cell_length_c 15.471498
_cell_angle_alpha 90.000000
_cell_angle_beta 90.000000
_cell_angle_gamma 90.000000
_cell_volume 3280.818329
_symmetry_space_group_name_H-M "P M M A"
_symmetry_group_IT_number 51
_symmetry_cell_setting 'orthorhombic'
loop_
_space_group_symop_operation_xyz
x,y,z
1/2-x,-y,z
1/2+x,-y,-z
-x,y,-z
-x,-y,-z
1/2+x,y,-z
1/2-x,y,z
x,-y,z
loop_
_atom_site_type_symbol
_atom_site_label
_atom_site_fract_x
_atom_site_fract_y
_atom_site_fract_z
Si Si1 0.926211 0.868032 0.588304
Si Si2 0.571792 0.138156 0.911214
Si Si3 0.572411 0.256338 0.842290
Si Si4 0.573137 0.256055 0.646382
Si Si5 0.577066 0.565393 0.246175
Si Si6 0.071536 0.063394 0.247816
Si Si7 0.072461 0.624703 0.089180
Si Si8 0.072986 0.633616 0.586054
O O1 0.750000 0.875761 0.580482
O O2 0.969311 0.803574 0.605486
O O3 0.989938 0.906049 0.666359
O O4 0.000000 0.889330 0.500000
O O5 0.750000 0.136912 0.918775
O O6 0.511511 0.201076 0.890912
O O7 0.513890 0.096724 0.836204
O O8 0.500000 0.116828 0.000000
O O9 0.750000 0.254017 0.839460
O O10 0.512896 0.257157 0.744494
O O11 0.514871 0.312023 0.891076
O O12 0.750000 0.268321 0.641570
O O13 0.484152 0.302648 0.593200
O O14 0.750000 0.579723 0.226458
O O15 0.553081 0.500000 0.264257
O O16 0.478111 0.583154 0.164745
O O17 0.519740 0.598228 0.330848
O O18 0.250000 0.064230 0.248906
O O19 0.008736 0.000000 0.244678
O O20 0.250000 0.622067 0.081060
O O21 0.000000 0.603888 0.000000
O O22 0.250000 0.632405 0.575917
O O23 0.000000 0.606547 0.500000
#
# Coordination Sequence:
#
# PCOD8207462 Si02
#       8
#     8   8   8   8   8   8   8   8
#     4  10  20  34  55  80 108 141 180 224 272 326
#     4  10  19  34  55  80 109 143 180 222 271 325
#     4   9  17  32  56  82 110 144 180 220 272 329
#     4  10  18  34  58  82 111 145 181 224 274 331
#     4  10  23  43  62  82 112 148 188 233 275 319
#     4   9  18  34  55  76 102 143 189 225 265 323
#     4  11  22  37  60  87 115 147 184 228 278 333
#     4  11  23  38  59  87 116 147 183 226 276 330
#
# _framework density 19.507328999999999
#
# number of rings (size 3 to 8) (size 9 to 14) (size 15 to 20)
#    0.000    2.000    2.500    1.500    0.000    3.250 
#    0.000    1.875    0.000    0.750    0.000    0.000 
#    0.000    0.000    0.000    0.000    0.000    0.000 
#
# Total GULP energy -793788.800392 kJ/mol
# GULP energy per Si atom -12402.950006 kJ/mol
# Density = 1.946293 g / cm^3
# Si number density = 19.507329 Si / 1000 Ang^3
#
#
#
# Elastic Constant Matrix: (Units=GPa)
#
#
# Indices 1 2 3 4 5 6 
#
# 1 39.0448 25.0004 36.6526 0.0000 0.0000 0.0000
# 2 25.0004 108.0638 51.5984 0.0000 0.0000 0.0000
# 3 36.6526 51.5984 169.4250 0.0000 0.0000 0.0000
# 4 0.0000 0.0000 0.0000 14.3805 0.0000 0.0000
# 5 0.0000 0.0000 0.0000 0.0000 31.8225 0.0000
# 6 0.0000 0.0000 0.0000 0.0000 0.0000 17.4080
#
#
#
# Elastic Compliance Matrix: (Units=1/GPa)
#
#
# Indices 1 2 3 4 5 6 
#
# 1 0.034433 -0.005160 -0.005878 0.000000 0.000000 0.000000
# 2 -0.005160 0.011602 -0.002417 0.000000 0.000000 0.000000
# 3 -0.005878 -0.002417 0.007910 0.000000 0.000000 0.000000
# 4 0.000000 0.000000 0.000000 0.069538 0.000000 0.000000
# 5 0.000000 0.000000 0.000000 0.000000 0.031424 0.000000
# 6 0.000000 0.000000 0.000000 0.000000 0.000000 0.057445
#
#
# Mechanical properties :
#
#
# Convention : Reuss Voigt Hill
#
# Bulk Modulus (GPa) = 36.98797 60.33739 48.66268
# Shear Modulus (GPa) = 20.13916 26.27435 23.20675
#
# Velocity S-wave (km/s) = 3.21657 3.67399 3.45286
# Velocity P-wave (km/s) = 5.72689 6.99967 6.39502
#
# Compressibility (1/GPa) = 0.02703582
#
# Stress axis : x y z
#
# Youngs Moduli (GPa) = 29.04203 86.19540 126.42244
#
# Poissons Ratio (x) = 0.44473 0.74307
# Poissons Ratio (y) = 0.14984 0.30557
# Poissons Ratio (z) = 0.17070 0.20834
#
# Static dielectric constant tensor:
#      x y z
#    x 3.174870 0.000000 0.000000 
#    y 0.000000 3.638250 0.000000 
#    z 0.000000 0.000000 3.719180 
# 
# 
# High freq. dielectric constant tensor:
#      x y z
#    x 1.726630 0.000000 0.000000 
#    y 0.000000 1.758160 0.000000 
#    z 0.000000 0.000000 1.777340 
# 
# From -- ./inp_files/22318.got.cif
#   From: 2010.03.12/outbox.cif.g09.slc.cpg/sg51_12_cif.got.tgz:22318.got - 2010.04.16 13:43:02.
