data_PCOD8207287
_publ_section_title
;
Structure prediction by ZEFSAII (Michael W. Deem and Ramdas Pophale) SiO2 
 PCOD8207287
Probable space group: P M M A
;
_chemical_formula_sum "Si O2"
_cell_formula_units_Z 48
_cell_length_a 17.601418
_cell_length_b 13.794835
_cell_length_c 10.053087
_cell_angle_alpha 90.000000
_cell_angle_beta 90.000000
_cell_angle_gamma 90.000000
_cell_volume 2440.976554
_symmetry_space_group_name_H-M "P M M A"
_symmetry_group_IT_number 51
_symmetry_cell_setting 'orthorhombic'
loop_
_space_group_symop_operation_xyz
x,y,z
1/2-x,-y,z
1/2+x,-y,-z
-x,y,-z
-x,-y,-z
1/2+x,y,-z
1/2-x,y,z
x,-y,z
loop_
_atom_site_type_symbol
_atom_site_label
_atom_site_fract_x
_atom_site_fract_y
_atom_site_fract_z
Si Si1 0.334729 0.300621 0.974847
Si Si2 0.667612 0.107465 0.904269
Si Si3 0.006161 0.890741 0.157711
Si Si4 0.837018 0.388323 0.475285
Si Si5 0.101888 0.611077 0.239468
Si Si6 0.060201 0.700095 0.738713
O O1 0.250000 0.342332 0.950640
O O2 0.334793 0.183146 0.973005
O O3 0.364228 0.327059 0.120400
O O4 0.390139 0.340635 0.861767
O O5 0.750000 0.118311 0.829721
O O6 0.595983 0.122416 0.804736
O O7 0.660139 0.000000 0.968222
O O8 0.958311 0.814262 0.244101
O O9 0.978307 0.000000 0.190700
O O10 0.000000 0.868116 0.000000
O O11 0.750000 0.366585 0.437216
O O12 0.858320 0.500000 0.442804
O O13 0.848171 0.367419 0.630808
O O14 0.891569 0.315816 0.394655
O O15 0.107104 0.500000 0.196710
O O16 0.015080 0.636934 0.268444
#
# Coordination Sequence:
#
# PCOD8207287 Si02
#       6
#     8   8   8   8   8   8
#     4  11  22  35  55  86 119 149 188 238 291 343
#     4   9  17  31  52  80 115 153 191 231 277 334
#     4  10  18  32  54  83 119 154 187 227 280 342
#     4  10  23  43  63  81 108 152 199 240 291 355
#     4  11  23  40  60  81 110 151 197 239 286 353
#     4  12  21  36  58  91 118 146 186 244 299 339
#
# _framework density 19.664261
#
# number of rings (size 3 to 8) (size 9 to 14) (size 15 to 20)
#    0.000    1.500    3.333    2.500    0.000    4.333 
#    0.000    0.000    0.000    4.500    0.000    0.000 
#    0.000    0.000    0.000    0.000    0.000    0.000 
#
# Total GULP energy -595000.799874 kJ/mol
# GULP energy per Si atom -12395.849997 kJ/mol
# Density = 1.961950 g / cm^3
# Si number density = 19.664261 Si / 1000 Ang^3
#
#
#
# Elastic Constant Matrix: (Units=GPa)
#
#
# Indices 1 2 3 4 5 6 
#
# 1 127.0718 28.1541 26.8178 0.0000 0.0000 0.0000
# 2 28.1541 79.7581 35.0748 0.0000 0.0000 0.0000
# 3 26.8178 35.0748 57.3130 0.0000 0.0000 0.0000
# 4 0.0000 0.0000 0.0000 21.2222 0.0000 0.0000
# 5 0.0000 0.0000 0.0000 0.0000 36.5225 0.0000
# 6 0.0000 0.0000 0.0000 0.0000 0.0000 25.5316
#
#
#
# Elastic Compliance Matrix: (Units=1/GPa)
#
#
# Indices 1 2 3 4 5 6 
#
# 1 0.008916 -0.001796 -0.003073 0.000000 0.000000 0.000000
# 2 -0.001796 0.017517 -0.009880 0.000000 0.000000 0.000000
# 3 -0.003073 -0.009880 0.024932 0.000000 0.000000 0.000000
# 4 0.000000 0.000000 0.000000 0.047120 0.000000 0.000000
# 5 0.000000 0.000000 0.000000 0.000000 0.027380 0.000000
# 6 0.000000 0.000000 0.000000 0.000000 0.000000 0.039167
#
#
# Mechanical properties :
#
#
# Convention : Reuss Voigt Hill
#
# Bulk Modulus (GPa) = 45.72917 49.35960 47.54438
# Shear Modulus (GPa) = 24.77474 28.26167 26.51820
#
# Velocity S-wave (km/s) = 3.55334 3.79517 3.67624
# Velocity P-wave (km/s) = 6.33565 6.66034 6.50002
#
# Compressibility (1/GPa) = 0.02186788
#
# Stress axis : x y z
#
# Youngs Moduli (GPa) = 112.15807 57.08888 40.10903
#
# Poissons Ratio (x) = 0.10253 0.12325
# Poissons Ratio (y) = 0.20143 0.39626
# Poissons Ratio (z) = 0.34465 0.56401
#
# Static dielectric constant tensor:
#      x y z
#    x 4.075040 0.000000 0.000000 
#    y 0.000000 3.678470 0.000000 
#    z 0.000000 0.000000 3.145190 
# 
# 
# High freq. dielectric constant tensor:
#      x y z
#    x 1.796210 0.000000 0.000000 
#    y 0.000000 1.770250 0.000000 
#    z 0.000000 0.000000 1.713940 
# 
# From -- ./inp_files/9633.got.cif
#   From: 2010.03.12/outbox.cif.g09.slc.cpg/sg51_5_cif.got.tgz:9633.got - 2010.04.16 13:43:02.
