data_PCOD8207208
_publ_section_title
;
Structure prediction by ZEFSAII (Michael W. Deem and Ramdas Pophale) SiO2 
 PCOD8207208
Probable space group: P M M A
;
_chemical_formula_sum "Si O2"
_cell_formula_units_Z 36
_cell_length_a 9.088520
_cell_length_b 14.382690
_cell_length_c 15.781523
_cell_angle_alpha 90.000000
_cell_angle_beta 90.000000
_cell_angle_gamma 90.000000
_cell_volume 2062.919114
_symmetry_space_group_name_H-M "P M M A"
_symmetry_group_IT_number 51
_symmetry_cell_setting 'orthorhombic'
loop_
_space_group_symop_operation_xyz
x,y,z
1/2-x,-y,z
1/2+x,-y,-z
-x,y,-z
-x,-y,-z
1/2+x,y,-z
1/2-x,y,z
x,-y,z
loop_
_atom_site_type_symbol
_atom_site_label
_atom_site_fract_x
_atom_site_fract_y
_atom_site_fract_z
Si Si1 0.578171 0.106358 0.917787
Si Si2 0.924705 0.500000 0.588531
Si Si3 0.576344 0.218097 0.753659
Si Si4 0.577027 0.892962 0.586445
Si Si5 0.918989 0.398492 0.277644
O O1 0.750000 0.117859 0.931836
O O2 0.526813 0.154315 0.831458
O O3 0.529597 0.000000 0.908479
O O4 0.500000 0.151467 0.000000
O O5 0.750000 0.500000 0.582338
O O6 0.000000 0.500000 0.500000
O O7 0.984873 0.407726 0.636173
O O8 0.750000 0.235447 0.752969
O O9 0.524471 0.169872 0.665873
O O10 0.492922 0.314746 0.773192
O O11 0.500000 0.858091 0.500000
O O12 0.750000 0.883077 0.573230
O O13 0.533893 0.000000 0.605804
O O14 0.750000 0.374626 0.298931
O O15 0.928282 0.500000 0.229640
#
# Coordination Sequence:
#
# PCOD8207208 Si02
#       5
#     8   4   8   8   8
#     4   9  18  33  53  79 109 138 172 215 264 317
#     4  10  18  32  52  72  97 130 169 214 262 310
#     4  10  19  32  53  76 100 137 176 212 258 313
#     4   9  18  32  48  69  99 133 169 208 249 297
#     4   9  20  35  49  71 100 131 167 213 260 304
#
# _framework density 17.450998999999999
#
# number of rings (size 3 to 8) (size 9 to 14) (size 15 to 20)
#    0.667    2.000    0.000    2.000    0.000    5.333 
#    0.000    2.222    0.000    7.333    0.000    0.000 
#    0.000    0.000    0.000    0.000    0.000    0.000 
#
# Total GULP energy -446101.161427 kJ/mol
# GULP energy per Si atom -12391.698929 kJ/mol
# Density = 1.741128 g / cm^3
# Si number density = 17.450999 Si / 1000 Ang^3
#
#
#
# Elastic Constant Matrix: (Units=GPa)
#
#
# Indices 1 2 3 4 5 6 
#
# 1 72.0504 42.3397 46.3944 0.0000 0.0000 0.0000
# 2 42.3397 94.8880 58.0579 0.0000 0.0000 0.0000
# 3 46.3944 58.0579 125.0285 0.0000 0.0000 0.0000
# 4 0.0000 0.0000 0.0000 12.5156 0.0000 0.0000
# 5 0.0000 0.0000 0.0000 0.0000 29.2381 0.0000
# 6 0.0000 0.0000 0.0000 0.0000 0.0000 27.2293
#
#
#
# Elastic Compliance Matrix: (Units=1/GPa)
#
#
# Indices 1 2 3 4 5 6 
#
# 1 0.020632 -0.006316 -0.004723 0.000000 0.000000 0.000000
# 2 -0.006316 0.016655 -0.005390 0.000000 0.000000 0.000000
# 3 -0.004723 -0.005390 0.012254 0.000000 0.000000 0.000000
# 4 0.000000 0.000000 0.000000 0.079900 0.000000 0.000000
# 5 0.000000 0.000000 0.000000 0.000000 0.034202 0.000000
# 6 0.000000 0.000000 0.000000 0.000000 0.000000 0.036725
#
#
# Mechanical properties :
#
#
# Convention : Reuss Voigt Hill
#
# Bulk Modulus (GPa) = 59.94473 65.06119 62.50296
# Shear Modulus (GPa) = 20.93910 23.47493 22.20702
#
# Velocity S-wave (km/s) = 3.46769 3.67166 3.57113
# Velocity P-wave (km/s) = 7.10338 7.43895 7.27310
#
# Compressibility (1/GPa) = 0.01668203
#
# Stress axis : x y z
#
# Youngs Moduli (GPa) = 48.46820 60.04149 81.60856
#
# Poissons Ratio (x) = 0.37925 0.38543
# Poissons Ratio (y) = 0.30615 0.43988
# Poissons Ratio (z) = 0.22891 0.32363
#
# Static dielectric constant tensor:
#      x y z
#    x 3.732790 0.000000 0.000000 
#    y 0.000000 4.280490 0.000000 
#    z 0.000000 0.000000 3.190000 
# 
# 
# High freq. dielectric constant tensor:
#      x y z
#    x 1.674760 0.000000 0.000000 
#    y 0.000000 1.667180 0.000000 
#    z 0.000000 0.000000 1.654470 
# 
# From -- ./inp_files/20320.got.cif
#   From: 2010.03.12/outbox.cif.g09.slc.cpg/sg51_11_cif.got.tgz:20320.got - 2010.04.16 13:43:02.
