data_PCOD8207193
_publ_section_title
;
Structure prediction by ZEFSAII (Michael W. Deem and Ramdas Pophale) SiO2 
 PCOD8207193
Probable space group: P M M A
;
_chemical_formula_sum "Si O2"
_cell_formula_units_Z 36
_cell_length_a 14.369629
_cell_length_b 9.604177
_cell_length_c 14.825927
_cell_angle_alpha 90.000000
_cell_angle_beta 90.000000
_cell_angle_gamma 90.000000
_cell_volume 2046.103358
_symmetry_space_group_name_H-M "P M M A"
_symmetry_group_IT_number 51
_symmetry_cell_setting 'orthorhombic'
loop_
_space_group_symop_operation_xyz
x,y,z
1/2-x,-y,z
1/2+x,-y,-z
-x,y,-z
-x,-y,-z
1/2+x,y,-z
1/2-x,y,z
x,-y,z
loop_
_atom_site_type_symbol
_atom_site_label
_atom_site_fract_x
_atom_site_fract_y
_atom_site_fract_z
Si Si1 0.750000 0.652027 0.885002
Si Si2 0.750000 0.338192 0.486462
Si Si3 0.552143 0.666409 0.910645
Si Si4 0.451698 0.843935 0.257837
Si Si5 0.750000 0.744037 0.692147
Si Si6 0.077282 0.159351 0.572090
O O1 0.750000 0.500000 0.927804
O O2 0.657419 0.726167 0.921367
O O3 0.750000 0.636901 0.775802
O O4 0.750000 0.500000 0.459456
O O5 0.750000 0.328574 0.595092
O O6 0.838518 0.264963 0.441801
O O7 0.547715 0.500000 0.897292
O O8 0.515107 0.738445 0.820390
O O9 0.500000 0.715963 0.000000
O O10 0.346477 0.830115 0.297589
O O11 0.529733 0.815936 0.332121
O O12 0.459494 0.000000 0.220073
O O13 0.000000 0.196814 0.500000
O O14 0.112565 0.000000 0.560726
#
# Coordination Sequence:
#
# PCOD8207193 Si02
#       6
#     4   4   8   8   4   8
#     4   8  15  29  48  71  99 128 167 209 259 319
#     4  12  24  35  53  82 112 145 185 231 273 318
#     4   9  18  33  53  76 105 139 171 215 273 327
#     4  10  20  34  56  81 106 140 182 226 269 318
#     4  10  18  32  51  81 109 135 170 222 280 321
#     4  10  21  38  56  76 107 149 185 221 270 324
#
# _framework density 17.594418000000001
#
# number of rings (size 3 to 8) (size 9 to 14) (size 15 to 20)
#    0.000    2.222    2.222    1.000    0.000    3.556 
#    0.000    1.111    0.000    1.333    0.000    0.000 
#    0.000    0.000    0.000    0.000    0.000    0.000 
#
# Total GULP energy -446019.989798 kJ/mol
# GULP energy per Si atom -12389.444161 kJ/mol
# Density = 1.755437 g / cm^3
# Si number density = 17.594418 Si / 1000 Ang^3
#
#
#
# Elastic Constant Matrix: (Units=GPa)
#
#
# Indices 1 2 3 4 5 6 
#
# 1 120.2810 61.2088 68.5621 0.0000 0.0000 0.0000
# 2 61.2088 96.3692 45.1555 0.0000 0.0000 0.0000
# 3 68.5621 45.1555 84.1660 0.0000 0.0000 0.0000
# 4 0.0000 0.0000 0.0000 27.8346 0.0000 0.0000
# 5 0.0000 0.0000 0.0000 0.0000 25.8087 0.0000
# 6 0.0000 0.0000 0.0000 0.0000 0.0000 24.1772
#
#
#
# Elastic Compliance Matrix: (Units=1/GPa)
#
#
# Indices 1 2 3 4 5 6 
#
# 1 0.017806 -0.006028 -0.011271 0.000000 0.000000 0.000000
# 2 -0.006028 0.015902 -0.003621 0.000000 0.000000 0.000000
# 3 -0.011271 -0.003621 0.023005 0.000000 0.000000 0.000000
# 4 0.000000 0.000000 0.000000 0.035927 0.000000 0.000000
# 5 0.000000 0.000000 0.000000 0.000000 0.038747 0.000000
# 6 0.000000 0.000000 0.000000 0.000000 0.000000 0.041361
#
#
# Mechanical properties :
#
#
# Convention : Reuss Voigt Hill
#
# Bulk Modulus (GPa) = 67.23359 72.29654 69.76507
# Shear Modulus (GPa) = 22.77431 23.95675 23.36553
#
# Velocity S-wave (km/s) = 3.60169 3.69400 3.64814
# Velocity P-wave (km/s) = 7.45602 7.70546 7.58176
#
# Compressibility (1/GPa) = 0.01487352
#
# Stress axis : x y z
#
# Youngs Moduli (GPa) = 56.16068 62.88374 43.46884
#
# Poissons Ratio (x) = 0.37909 0.48992
# Poissons Ratio (y) = 0.33856 0.15740
# Poissons Ratio (z) = 0.63296 0.22769
#
# Static dielectric constant tensor:
#      x y z
#    x 3.327820 0.000000 0.000000 
#    y 0.000000 3.151730 0.000000 
#    z 0.000000 0.000000 3.192150 
# 
# 
# High freq. dielectric constant tensor:
#      x y z
#    x 1.683330 0.000000 0.000000 
#    y 0.000000 1.669890 0.000000 
#    z 0.000000 0.000000 1.672060 
# 
# From -- ./inp_files/23650.got.cif
#   From: 2010.03.12/outbox.cif.g09.slc.cpg/sg51_12_cif.got.tgz:23650.got - 2010.04.16 13:43:02.
