data_PCOD8207802
_publ_section_title
;
Structure prediction by ZEFSAII (Michael W. Deem and Ramdas Pophale) SiO2 
 PCOD8207802
Probable space group: P M M A
;
_chemical_formula_sum "Si O2"
_cell_formula_units_Z 52
_cell_length_a 8.998058
_cell_length_b 12.799253
_cell_length_c 26.977758
_cell_angle_alpha 90.000000
_cell_angle_beta 90.000000
_cell_angle_gamma 90.000000
_cell_volume 3106.985787
_symmetry_space_group_name_H-M "P M M A"
_symmetry_group_IT_number 51
_symmetry_cell_setting 'orthorhombic'
loop_
_space_group_symop_operation_xyz
x,y,z
1/2-x,-y,z
1/2+x,-y,-z
-x,y,-z
-x,-y,-z
1/2+x,y,-z
1/2-x,y,z
x,-y,z
loop_
_atom_site_type_symbol
_atom_site_label
_atom_site_fract_x
_atom_site_fract_y
_atom_site_fract_z
Si Si1 0.585888 0.621007 0.144108
Si Si2 0.919518 0.169515 0.382605
Si Si3 0.082746 0.624690 0.048918
Si Si4 0.424814 0.315031 0.242008
Si Si5 0.074140 0.000000 0.446903
Si Si6 0.922317 0.383895 0.340723
Si Si7 0.918425 0.116360 0.269764
O O1 0.750000 0.672445 0.149622
O O2 0.605580 0.500000 0.132870
O O3 0.500401 0.671339 0.097264
O O4 0.491412 0.632825 0.193605
O O5 0.750000 0.157022 0.401260
O O6 0.966137 0.293116 0.380267
O O7 0.939536 0.120733 0.328600
O O8 0.025724 0.106235 0.419230
O O9 0.250000 0.668604 0.048693
O O10 0.084284 0.500000 0.049941
O O11 0.000000 0.666249 0.000000
O O12 0.250000 0.328305 0.240884
O O13 0.485917 0.373474 0.290364
O O14 0.468260 0.193087 0.242453
O O15 0.000000 0.000000 0.500000
O O16 0.250000 0.000000 0.452036
O O17 0.750000 0.367844 0.326395
O O18 0.950596 0.500000 0.363383
O O19 0.750000 0.148332 0.256124
O O20 0.954817 0.000000 0.251281
#
# Coordination Sequence:
#
# PCOD8207802 Si02
#       7
#     8   8   8   8   4   8   8
#     4  10  19  30  43  58  82 119 159 196 233 276
#     4   9  17  33  54  76 101 127 159 199 241 284
#     4   9  16  26  40  58  80 108 145 188 234 282
#     4  11  21  29  41  66  97 126 157 196 238 278
#     4  12  24  36  54  78 104 130 160 200 245 290
#     4   9  18  33  52  72  97 133 170 198 230 282
#     4   9  17  32  52  69  91 125 158 189 229 281
#
# _framework density 16.736478999999999
#
# number of rings (size 3 to 8) (size 9 to 14) (size 15 to 20)
#    0.000    2.308    0.769    4.385    0.000    7.692 
#    0.000    0.000    0.000    0.462    0.000    0.000 
#    0.000    0.615    0.000    2.308    0.000    3.538 
#
# Total GULP energy -644634.213347 kJ/mol
# GULP energy per Si atom -12396.811795 kJ/mol
# Density = 1.669839 g / cm^3
# Si number density = 16.736479 Si / 1000 Ang^3
#
#
#
# Elastic Constant Matrix: (Units=GPa)
#
#
# Indices 1 2 3 4 5 6 
#
# 1 133.2898 35.5584 54.2878 0.0000 0.0000 0.0000
# 2 35.5584 87.0979 27.4426 0.0000 0.0000 0.0000
# 3 54.2878 27.4426 78.4591 0.0000 0.0000 0.0000
# 4 0.0000 0.0000 0.0000 12.6971 0.0000 0.0000
# 5 0.0000 0.0000 0.0000 0.0000 28.9305 0.0000
# 6 0.0000 0.0000 0.0000 0.0000 0.0000 21.3080
#
#
#
# Elastic Compliance Matrix: (Units=1/GPa)
#
#
# Indices 1 2 3 4 5 6 
#
# 1 0.010848 -0.002319 -0.006695 0.000000 0.000000 0.000000
# 2 -0.002319 0.013399 -0.003082 0.000000 0.000000 0.000000
# 3 -0.006695 -0.003082 0.018456 0.000000 0.000000 0.000000
# 4 0.000000 0.000000 0.000000 0.078758 0.000000 0.000000
# 5 0.000000 0.000000 0.000000 0.000000 0.034566 0.000000
# 6 0.000000 0.000000 0.000000 0.000000 0.000000 0.046931
#
#
# Mechanical properties :
#
#
# Convention : Reuss Voigt Hill
#
# Bulk Modulus (GPa) = 54.02185 59.26938 56.64561
# Shear Modulus (GPa) = 21.42987 24.69099 23.06043
#
# Velocity S-wave (km/s) = 3.58219 3.84510 3.71597
# Velocity P-wave (km/s) = 7.03260 7.42989 7.23397
#
# Compressibility (1/GPa) = 0.01851103
#
# Stress axis : x y z
#
# Youngs Moduli (GPa) = 92.18377 74.63110 54.18398
#
# Poissons Ratio (x) = 0.17310 0.36274
# Poissons Ratio (y) = 0.21381 0.16698
# Poissons Ratio (z) = 0.61714 0.23000
#
# Static dielectric constant tensor:
#      x y z
#    x 3.245030 0.000000 0.000000 
#    y 0.000000 3.181830 0.000000 
#    z 0.000000 0.000000 2.962610 
# 
# 
# High freq. dielectric constant tensor:
#      x y z
#    x 1.652170 0.000000 0.000000 
#    y 0.000000 1.619590 0.000000 
#    z 0.000000 0.000000 1.621340 
# 
# From -- ./inp_files/36360.got.cif
#   From: 2010.03.12/outbox.cif.g09.slc.cpg/sg51_19_cif.got.tgz:36360.got - 2010.04.16 13:43:02.
