data_PCOD8207084
_publ_section_title
;
Structure prediction by ZEFSAII (Michael W. Deem and Ramdas Pophale) SiO2 
 PCOD8207084
Probable space group: P M M A
;
_chemical_formula_sum "Si O2"
_cell_formula_units_Z 64
_cell_length_a 20.048311
_cell_length_b 20.660313
_cell_length_c 9.101021
_cell_angle_alpha 90.000000
_cell_angle_beta 90.000000
_cell_angle_gamma 90.000000
_cell_volume 3769.682764
_symmetry_space_group_name_H-M "P M M A"
_symmetry_group_IT_number 51
_symmetry_cell_setting 'orthorhombic'
loop_
_space_group_symop_operation_xyz
x,y,z
1/2-x,-y,z
1/2+x,-y,-z
-x,y,-z
-x,-y,-z
1/2+x,y,-z
1/2-x,y,z
x,-y,z
loop_
_atom_site_type_symbol
_atom_site_label
_atom_site_fract_x
_atom_site_fract_y
_atom_site_fract_z
Si Si1 0.056518 0.575120 0.379506
Si Si2 0.377128 0.266318 0.696985
Si Si3 0.891588 0.773675 0.762277
Si Si4 0.174674 0.180494 0.945229
Si Si5 0.000611 0.326090 0.828263
Si Si6 0.575816 0.850191 0.485541
Si Si7 0.324381 0.332331 0.421777
Si Si8 0.827116 0.074881 0.283981
O O1 0.068604 0.500000 0.350421
O O2 0.032855 0.608452 0.229956
O O3 0.126054 0.606890 0.427492
O O4 0.000000 0.588347 0.500000
O O5 0.332022 0.237073 0.825475
O O6 0.424681 0.320889 0.766214
O O7 0.423559 0.212774 0.618296
O O8 0.327666 0.296951 0.578569
O O9 0.962584 0.738781 0.778692
O O10 0.896764 0.832015 0.646499
O O11 0.839694 0.718899 0.708141
O O12 0.872168 0.805774 0.916607
O O13 0.250000 0.177866 0.003231
O O14 0.154401 0.113183 0.865768
O O15 0.000000 0.332924 0.000000
O O16 0.500000 0.876432 0.500000
O O17 0.624748 0.904559 0.418035
O O18 0.250000 0.358947 0.396813
O O19 0.750000 0.089659 0.328195
O O20 0.838483 0.000000 0.249892
#
# Coordination Sequence:
#
# PCOD8207084 Si02
#       8
#     8   8   8   8   8   8   8   8
#     4  10  21  36  54  76 103 138 182 218 251 303
#     4  10  18  31  50  78 104 134 170 206 262 320
#     4  10  20  30  51  82 110 130 165 214 275 316
#     4  10  19  32  51  76 105 134 169 216 264 313
#     4  11  19  32  54  78 106 139 168 211 263 317
#     4  10  19  31  54  78 107 136 168 219 259 307
#     4  10  20  33  53  77 106 137 170 217 265 312
#     4   9  20  38  55  71 100 145 185 211 251 313
#
# _framework density 16.977556
#
# number of rings (size 3 to 8) (size 9 to 14) (size 15 to 20)
#    0.000    2.000    3.750    0.750    0.000    4.250 
#    0.000    0.625    0.000    2.250    0.000    0.000 
#    0.000    0.000    0.000    0.000    0.000    0.000 
#
# Total GULP energy -793578.094557 kJ/mol
# GULP energy per Si atom -12399.657727 kJ/mol
# Density = 1.693891 g / cm^3
# Si number density = 16.977556 Si / 1000 Ang^3
#
#
#
# Elastic Constant Matrix: (Units=GPa)
#
#
# Indices 1 2 3 4 5 6 
#
# 1 88.2995 41.0493 19.2546 0.0000 0.0000 0.0000
# 2 41.0493 99.7268 38.5716 0.0000 0.0000 0.0000
# 3 19.2546 38.5716 90.3477 0.0000 0.0000 0.0000
# 4 0.0000 0.0000 0.0000 17.5040 0.0000 0.0000
# 5 0.0000 0.0000 0.0000 0.0000 20.6218 0.0000
# 6 0.0000 0.0000 0.0000 0.0000 0.0000 26.0092
#
#
#
# Elastic Compliance Matrix: (Units=1/GPa)
#
#
# Indices 1 2 3 4 5 6 
#
# 1 0.014035 -0.005534 -0.000629 0.000000 0.000000 0.000000
# 2 -0.005534 0.014193 -0.004880 0.000000 0.000000 0.000000
# 3 -0.000629 -0.004880 0.013286 0.000000 0.000000 0.000000
# 4 0.000000 0.000000 0.000000 0.057130 0.000000 0.000000
# 5 0.000000 0.000000 0.000000 0.000000 0.048492 0.000000
# 6 0.000000 0.000000 0.000000 0.000000 0.000000 0.038448
#
#
# Mechanical properties :
#
#
# Convention : Reuss Voigt Hill
#
# Bulk Modulus (GPa) = 51.47044 52.90276 52.18660
# Shear Modulus (GPa) = 23.34879 24.79355 24.07117
#
# Velocity S-wave (km/s) = 3.71249 3.82563 3.76948
# Velocity P-wave (km/s) = 6.98279 7.12334 7.05342
#
# Compressibility (1/GPa) = 0.01942863
#
# Stress axis : x y z
#
# Youngs Moduli (GPa) = 71.25162 70.45922 75.26946
#
# Poissons Ratio (x) = 0.38991 0.04731
# Poissons Ratio (y) = 0.39430 0.36730
# Poissons Ratio (z) = 0.04478 0.34383
#
# Static dielectric constant tensor:
#      x y z
#    x 3.110230 0.000000 0.000000 
#    y 0.000000 2.987820 0.000000 
#    z 0.000000 0.000000 3.187800 
# 
# 
# High freq. dielectric constant tensor:
#      x y z
#    x 1.657750 0.000000 0.000000 
#    y 0.000000 1.631540 0.000000 
#    z 0.000000 0.000000 1.656940 
# 
# From -- ./inp_files/11255.got.cif
#   From: 2010.03.12/outbox.cif.g09.slc.cpg/sg51_6_cif.got.tgz:11255.got - 2010.04.16 13:43:02.
