data_PCOD8207477
_publ_section_title
;
Structure prediction by ZEFSAII (Michael W. Deem and Ramdas Pophale) SiO2 
 PCOD8207477
Probable space group: P M M A
;
_chemical_formula_sum "Si O2"
_cell_formula_units_Z 56
_cell_length_a 15.639603
_cell_length_b 9.031933
_cell_length_c 19.922471
_cell_angle_alpha 90.000000
_cell_angle_beta 90.000000
_cell_angle_gamma 90.000000
_cell_volume 2814.165504
_symmetry_space_group_name_H-M "P M M A"
_symmetry_group_IT_number 51
_symmetry_cell_setting 'orthorhombic'
loop_
_space_group_symop_operation_xyz
x,y,z
1/2-x,-y,z
1/2+x,-y,-z
-x,y,-z
-x,-y,-z
1/2+x,y,-z
1/2-x,y,z
x,-y,z
loop_
_atom_site_type_symbol
_atom_site_label
_atom_site_fract_x
_atom_site_fract_y
_atom_site_fract_z
Si Si1 0.843462 0.333559 0.122088
Si Si2 0.505876 0.825670 0.925003
Si Si3 0.250000 0.321794 0.630272
Si Si4 0.076862 0.327126 0.449241
Si Si5 0.152996 0.826124 0.175532
Si Si6 0.932406 0.672496 0.707489
Si Si7 0.386459 0.667097 0.731435
Si Si8 0.250000 0.825320 0.490856
O O1 0.750000 0.294887 0.090573
O O2 0.871641 0.500000 0.100398
O O3 0.830953 0.325894 0.201743
O O4 0.914053 0.213565 0.104990
O O5 0.585458 0.761812 0.880475
O O6 0.516483 0.000000 0.928516
O O7 0.500000 0.757621 0.000000
O O8 0.250000 0.500000 0.616925
O O9 0.167356 0.265588 0.670752
O O10 0.250000 0.220718 0.566884
O O11 0.093797 0.500000 0.462572
O O12 0.057627 0.293339 0.371477
O O13 0.164169 0.239673 0.459518
O O14 0.000000 0.274686 0.500000
O O15 0.250000 0.788990 0.151866
O O16 0.140271 0.757258 0.250046
O O17 0.139450 0.000000 0.182670
O O18 0.914828 0.500000 0.720083
O O19 0.019993 0.738760 0.739716
O O20 0.406806 0.500000 0.709761
O O21 0.250000 0.000000 0.481054
#
# Coordination Sequence:
#
# PCOD8207477 Si02
#       8
#     8   8   4   8   8   8   8   4
#     4  10  19  34  58  89 121 150 184 231 289 346
#     4  10  22  40  61  85 116 159 203 239 281 340
#     4  10  18  34  60  84 112 153 198 237 284 353
#     4  10  22  42  65  87 113 154 208 255 296 354
#     4  10  22  39  58  83 116 154 195 242 297 352
#     4  10  20  35  60  88 112 144 194 250 295 343
#     4   9  16  30  56  87 113 143 183 235 292 342
#     4  12  26  40  56  84 124 161 194 241 304 361
#
# _framework density 19.899325999999999
#
# number of rings (size 3 to 8) (size 9 to 14) (size 15 to 20)
#    0.000    2.000    2.143    1.500    1.000    4.571 
#    0.000    4.286    0.000    0.000    0.000    0.000 
#    0.000    0.000    0.000    0.000    0.000    0.000 
#
# Total GULP energy -693764.848003 kJ/mol
# GULP energy per Si atom -12388.658000 kJ/mol
# Density = 1.985403 g / cm^3
# Si number density = 19.899326 Si / 1000 Ang^3
#
#
#
# Elastic Constant Matrix: (Units=GPa)
#
#
# Indices 1 2 3 4 5 6 
#
# 1 144.0752 35.0096 49.0777 0.0000 0.0000 0.0000
# 2 35.0096 35.3252 26.6417 0.0000 0.0000 0.0000
# 3 49.0777 26.6417 104.1942 0.0000 0.0000 0.0000
# 4 0.0000 0.0000 0.0000 -161.6975 0.0000 0.0000
# 5 0.0000 0.0000 0.0000 0.0000 25.1435 0.0000
# 6 0.0000 0.0000 0.0000 0.0000 0.0000 20.1897
#
#
#
# Elastic Compliance Matrix: (Units=1/GPa)
#
#
# Indices 1 2 3 4 5 6 
#
# 1 0.009684 -0.007628 -0.002611 0.000000 0.000000 0.000000
# 2 -0.007628 0.041081 -0.006911 0.000000 0.000000 0.000000
# 3 -0.002611 -0.006911 0.012594 0.000000 0.000000 0.000000
# 4 0.000000 0.000000 0.000000 -0.006184 0.000000 0.000000
# 5 0.000000 0.000000 0.000000 0.000000 0.039772 0.000000
# 6 0.000000 0.000000 0.000000 0.000000 0.000000 0.049530
#
#
# Mechanical properties :
#
#
# Convention : Reuss Voigt Hill
#
# Bulk Modulus (GPa) = 34.41310 56.11696 45.26503
# Shear Modulus (GPa) = 26.25190 -11.74850 7.25170
#
# Velocity S-wave (km/s) = 3.63607 -2.43244 1.91105
# Velocity P-wave (km/s) = 5.91263 4.51360 5.25984
#
# Compressibility (1/GPa) = 0.02905870
#
# Stress axis : x y z
#
# Youngs Moduli (GPa) = 103.26534 24.34241 79.40127
#
# Poissons Ratio (x) = 0.18569 0.20730
# Poissons Ratio (y) = 0.78774 0.54873
# Poissons Ratio (z) = 0.26960 0.16823
#
# Static dielectric constant tensor:
#      x y z
#    x 3.925230 0.000000 0.000000 
#    y 0.000000 3.258550 0.000000 
#    z 0.000000 0.000000 3.738770 
# 
# 
# High freq. dielectric constant tensor:
#      x y z
#    x 1.794500 0.000000 0.000000 
#    y 0.000000 1.737160 0.000000 
#    z 0.000000 0.000000 1.778370 
# 
# From -- ./inp_files/33547.got.cif
#   From: 2010.03.12/outbox.cif.g09.slc.cpg/sg51_17_cif.got.tgz:33547.got - 2010.04.16 13:43:02.
