data_PCOD8207223
_publ_section_title
;
Structure prediction by ZEFSAII (Michael W. Deem and Ramdas Pophale) SiO2 
 PCOD8207223
Probable space group: P M M A
;
_chemical_formula_sum "Si O2"
_cell_formula_units_Z 52
_cell_length_a 8.647533
_cell_length_b 23.498126
_cell_length_c 14.447201
_cell_angle_alpha 90.000000
_cell_angle_beta 90.000000
_cell_angle_gamma 90.000000
_cell_volume 2935.683090
_symmetry_space_group_name_H-M "P M M A"
_symmetry_group_IT_number 51
_symmetry_cell_setting 'orthorhombic'
loop_
_space_group_symop_operation_xyz
x,y,z
1/2-x,-y,z
1/2+x,-y,-z
-x,y,-z
-x,-y,-z
1/2+x,y,-z
1/2-x,y,z
x,-y,z
loop_
_atom_site_type_symbol
_atom_site_label
_atom_site_fract_x
_atom_site_fract_y
_atom_site_fract_z
Si Si1 0.066347 0.562689 0.785138
Si Si2 0.067404 0.739157 0.404692
Si Si3 0.566776 0.330824 0.101002
Si Si4 0.066922 0.123360 0.103013
Si Si5 0.071778 0.000000 0.098797
Si Si6 0.433051 0.385362 0.594959
Si Si7 0.067844 0.223324 0.778652
O O1 0.250000 0.564122 0.789368
O O2 0.003688 0.500000 0.813493
O O3 0.000693 0.610354 0.855295
O O4 0.013499 0.575334 0.680117
O O5 0.250000 0.735372 0.412372
O O6 0.000000 0.765067 0.500000
O O7 0.998251 0.677060 0.387074
O O8 0.017469 0.779114 0.319954
O O9 0.750000 0.332305 0.094681
O O10 0.511247 0.278607 0.164498
O O11 0.500000 0.321909 0.000000
O O12 0.250000 0.136097 0.101396
O O13 0.978387 0.167112 0.167221
O O14 0.028974 0.060328 0.147299
O O15 0.000000 0.128878 0.000000
O O16 0.250000 0.000000 0.078414
O O17 0.000000 0.000000 0.000000
O O18 0.500000 0.411772 0.500000
O O19 0.250000 0.380991 0.587512
O O20 0.250000 0.225270 0.762291
#
# Coordination Sequence:
#
# PCOD8207223 Si02
#       7
#     8   8   8   8   4   8   8
#     4   9  18  34  53  70  94 131 168 205 255 312
#     4  11  21  34  54  78 104 134 166 206 255 312
#     4  10  21  36  52  71  97 129 167 210 257 304
#     4  10  19  32  50  77 109 147 184 220 259 303
#     4   8  16  30  48  70 105 144 183 220 256 298
#     4  10  18  32  52  75 100 128 161 201 253 312
#     4  11  21  35  53  77 106 137 172 215 260 309
#
# _framework density 17.713083000000001
#
# number of rings (size 3 to 8) (size 9 to 14) (size 15 to 20)
#    0.000    2.000    1.538    4.154    0.000    3.692 
#    0.000    0.000    0.000    3.231    0.000    0.538 
#    0.000    0.000    0.000    0.000    0.000    0.000 
#
# Total GULP energy -644570.777867 kJ/mol
# GULP energy per Si atom -12395.591882 kJ/mol
# Density = 1.767277 g / cm^3
# Si number density = 17.713083 Si / 1000 Ang^3
#
#
#
# Elastic Constant Matrix: (Units=GPa)
#
#
# Indices 1 2 3 4 5 6 
#
# 1 60.3186 20.0501 29.8764 0.0000 0.0000 0.0000
# 2 20.0501 111.1360 50.5802 0.0000 0.0000 0.0000
# 3 29.8764 50.5802 113.9593 0.0000 0.0000 0.0000
# 4 0.0000 0.0000 0.0000 7.8963 0.0000 0.0000
# 5 0.0000 0.0000 0.0000 0.0000 29.9911 0.0000
# 6 0.0000 0.0000 0.0000 0.0000 0.0000 19.0900
#
#
#
# Elastic Compliance Matrix: (Units=1/GPa)
#
#
# Indices 1 2 3 4 5 6 
#
# 1 0.019243 -0.001473 -0.004391 0.000000 0.000000 0.000000
# 2 -0.001473 0.011388 -0.004668 0.000000 0.000000 0.000000
# 3 -0.004391 -0.004668 0.011998 0.000000 0.000000 0.000000
# 4 0.000000 0.000000 0.000000 0.126641 0.000000 0.000000
# 5 0.000000 0.000000 0.000000 0.000000 0.033343 0.000000
# 6 0.000000 0.000000 0.000000 0.000000 0.000000 0.052383
#
#
# Mechanical properties :
#
#
# Convention : Reuss Voigt Hill
#
# Bulk Modulus (GPa) = 46.37246 54.04749 50.20997
# Shear Modulus (GPa) = 17.65216 23.72263 20.68740
#
# Velocity S-wave (km/s) = 3.16026 3.66358 3.42119
# Velocity P-wave (km/s) = 6.28911 6.96238 6.63429
#
# Compressibility (1/GPa) = 0.02156453
#
# Stress axis : x y z
#
# Youngs Moduli (GPa) = 51.96622 87.80790 83.34480
#
# Poissons Ratio (x) = 0.12936 0.36597
# Poissons Ratio (y) = 0.07656 0.38909
# Poissons Ratio (z) = 0.22819 0.40993
#
# Static dielectric constant tensor:
#      x y z
#    x 3.250220 0.000000 0.000000 
#    y 0.000000 3.573330 0.000000 
#    z 0.000000 0.000000 3.390860 
# 
# 
# High freq. dielectric constant tensor:
#      x y z
#    x 1.682810 0.000000 0.000000 
#    y 0.000000 1.676960 0.000000 
#    z 0.000000 0.000000 1.677550 
# 
# From -- ./inp_files/22106.got.cif
#   From: 2010.03.12/outbox.cif.g09.slc.cpg/sg51_12_cif.got.tgz:22106.got - 2010.04.16 13:43:02.
