data_PCOD8207204
_publ_section_title
;
Structure prediction by ZEFSAII (Michael W. Deem and Ramdas Pophale) SiO2 
 PCOD8207204
Probable space group: P M M A
;
_chemical_formula_sum "Si O2"
_cell_formula_units_Z 44
_cell_length_a 8.844468
_cell_length_b 10.434051
_cell_length_c 25.410605
_cell_angle_alpha 90.000000
_cell_angle_beta 90.000000
_cell_angle_gamma 90.000000
_cell_volume 2344.982874
_symmetry_space_group_name_H-M "P M M A"
_symmetry_group_IT_number 51
_symmetry_cell_setting 'orthorhombic'
loop_
_space_group_symop_operation_xyz
x,y,z
1/2-x,-y,z
1/2+x,-y,-z
-x,y,-z
-x,-y,-z
1/2+x,y,-z
1/2-x,y,z
x,-y,z
loop_
_atom_site_type_symbol
_atom_site_label
_atom_site_fract_x
_atom_site_fract_y
_atom_site_fract_z
Si Si1 0.930705 0.000000 0.442168
Si Si2 0.571159 0.354031 0.139348
Si Si3 0.928302 0.854980 0.055711
Si Si4 0.081747 0.652054 0.247360
Si Si5 0.084324 0.354761 0.651883
Si Si6 0.570759 0.255271 0.556886
O O1 0.000000 0.000000 0.500000
O O2 0.998822 0.127410 0.416174
O O3 0.750000 0.000000 0.442881
O O4 0.750000 0.349015 0.143668
O O5 0.518287 0.500000 0.125232
O O6 0.510798 0.251928 0.096509
O O7 0.505982 0.307615 0.194924
O O8 0.750000 0.843972 0.049825
O O9 0.974022 0.000000 0.073539
O O10 0.000000 0.820885 0.000000
O O11 0.250000 0.710354 0.245284
O O12 0.089947 0.500000 0.252247
O O13 0.998090 0.712709 0.298488
O O14 0.250000 0.290869 0.641523
O O15 0.111001 0.500000 0.668417
O O16 0.979229 0.359346 0.599580
O O17 0.500000 0.287303 0.500000
O O18 0.750000 0.245930 0.550408
#
# Coordination Sequence:
#
# PCOD8207204 Si02
#       6
#     4   8   8   8   8   8
#     4  10  18  32  52  72  94 122 160 200 243 294
#     4   9  17  30  49  72  97 127 165 209 252 296
#     4   9  18  32  49  70  99 135 170 203 244 298
#     4   9  17  30  49  73  98 125 160 202 248 296
#     4  10  20  34  52  74 101 133 167 204 250 305
#     4  11  21  34  52  74 100 130 166 208 253 303
#
# _framework density 18.763463000000002
#
# number of rings (size 3 to 8) (size 9 to 14) (size 15 to 20)
#    0.000    2.364    0.000    4.636    0.000    4.727 
#    0.000    0.000    2.000    0.000    0.000    0.000 
#    0.000    0.000    0.000    0.000    0.000    0.000 
#
# Total GULP energy -545286.970885 kJ/mol
# GULP energy per Si atom -12392.885702 kJ/mol
# Density = 1.872076 g / cm^3
# Si number density = 18.763463 Si / 1000 Ang^3
#
#
#
# Elastic Constant Matrix: (Units=GPa)
#
#
# Indices 1 2 3 4 5 6 
#
# 1 108.4794 28.1309 54.2733 0.0000 0.0000 0.0000
# 2 28.1309 57.7770 51.7225 0.0000 0.0000 0.0000
# 3 54.2733 51.7225 151.4387 0.0000 0.0000 0.0000
# 4 0.0000 0.0000 0.0000 10.3811 0.0000 0.0000
# 5 0.0000 0.0000 0.0000 0.0000 35.6526 0.0000
# 6 0.0000 0.0000 0.0000 0.0000 0.0000 17.9802
#
#
#
# Elastic Compliance Matrix: (Units=1/GPa)
#
#
# Indices 1 2 3 4 5 6 
#
# 1 0.011530 -0.002758 -0.003190 0.000000 0.000000 0.000000
# 2 -0.002758 0.025590 -0.007752 0.000000 0.000000 0.000000
# 3 -0.003190 -0.007752 0.010394 0.000000 0.000000 0.000000
# 4 0.000000 0.000000 0.000000 0.096329 0.000000 0.000000
# 5 0.000000 0.000000 0.000000 0.000000 0.028048 0.000000
# 6 0.000000 0.000000 0.000000 0.000000 0.000000 0.055617
#
#
# Mechanical properties :
#
#
# Convention : Reuss Voigt Hill
#
# Bulk Modulus (GPa) = 49.71529 65.10540 57.41034
# Shear Modulus (GPa) = 19.11227 25.04067 22.07647
#
# Velocity S-wave (km/s) = 3.19500 3.65710 3.43383
# Velocity P-wave (km/s) = 6.33751 7.25299 6.81065
#
# Compressibility (1/GPa) = 0.02011454
#
# Stress axis : x y z
#
# Youngs Moduli (GPa) = 86.73381 39.07773 96.20812
#
# Poissons Ratio (x) = 0.10777 0.30691
# Poissons Ratio (y) = 0.23919 0.74578
# Poissons Ratio (z) = 0.27669 0.30292
#
# Static dielectric constant tensor:
#      x y z
#    x 3.606940 0.000000 0.000000 
#    y 0.000000 3.995340 0.000000 
#    z 0.000000 0.000000 3.377780 
# 
# 
# High freq. dielectric constant tensor:
#      x y z
#    x 1.739230 0.000000 0.000000 
#    y 0.000000 1.697990 0.000000 
#    z 0.000000 0.000000 1.723340 
# 
# From -- ./inp_files/34548.got.cif
#   From: 2010.03.12/outbox.cif.g09.slc.cpg/sg51_18_cif.got.tgz:34548.got - 2010.04.16 13:43:02.
