data_PCOD8207794
_publ_section_title
;
Structure prediction by ZEFSAII (Michael W. Deem and Ramdas Pophale) SiO2 
 PCOD8207794
Probable space group: P M M A
;
_chemical_formula_sum "Si O2"
_cell_formula_units_Z 64
_cell_length_a 13.798954
_cell_length_b 18.878192
_cell_length_c 13.838296
_cell_angle_alpha 90.000000
_cell_angle_beta 90.000000
_cell_angle_gamma 90.000000
_cell_volume 3604.866463
_symmetry_space_group_name_H-M "P M M A"
_symmetry_group_IT_number 51
_symmetry_cell_setting 'orthorhombic'
loop_
_space_group_symop_operation_xyz
x,y,z
1/2-x,-y,z
1/2+x,-y,-z
-x,y,-z
-x,-y,-z
1/2+x,y,-z
1/2-x,y,z
x,-y,z
loop_
_atom_site_type_symbol
_atom_site_label
_atom_site_fract_x
_atom_site_fract_y
_atom_site_fract_z
Si Si1 0.363924 0.705299 0.382471
Si Si2 0.138175 0.916571 0.038127
Si Si3 0.037818 0.860247 0.852432
Si Si4 0.864126 0.576192 0.492056
Si Si5 0.966714 0.717574 0.253648
Si Si6 0.361452 0.214811 0.566655
Si Si7 0.639817 0.078680 0.327257
Si Si8 0.135932 0.419874 0.728116
O O1 0.250000 0.703841 0.359179
O O2 0.403736 0.634547 0.434750
O O3 0.419253 0.712777 0.280758
O O4 0.393686 0.768573 0.456688
O O5 0.250000 0.902187 0.063890
O O6 0.071957 0.882975 0.122140
O O7 0.116638 0.000000 0.027645
O O8 0.111550 0.877920 0.938435
O O9 0.045482 0.776297 0.830052
O O10 0.067392 0.905388 0.759638
O O11 0.750000 0.577771 0.492920
O O12 0.902853 0.500000 0.528567
O O13 0.897428 0.588951 0.382620
O O14 0.913460 0.738927 0.352383
O O15 0.923666 0.642150 0.215347
O O16 0.250000 0.237545 0.576701
O O17 0.378993 0.131427 0.583473
O O18 0.750000 0.087523 0.288824
O O19 0.620587 0.000000 0.366528
O O20 0.250000 0.406763 0.742586
O O21 0.109847 0.500000 0.764451
#
# Coordination Sequence:
#
# PCOD8207794 Si02
#       8
#     8   8   8   8   8   8   8   8
#     4  10  19  30  42  59  90 130 171 206 235 274
#     4  10  20  36  59  81 100 123 148 181 237 304
#     4  10  20  32  49  76 106 123 146 189 235 293
#     4   8  14  25  41  60  85 121 165 209 245 274
#     4  11  20  29  46  69  95 130 163 194 244 294
#     4   9  17  28  42  62  89 121 162 207 238 269
#     4   9  16  27  46  69  92 121 155 191 232 273
#     4   9  17  29  45  68  98 129 166 214 257 287
#
# _framework density 17.753779000000002
#
# number of rings (size 3 to 8) (size 9 to 14) (size 15 to 20)
#    0.000    2.500    1.250    3.375    0.000    3.500 
#    0.000    1.250    0.000    7.500    0.000    3.500 
#    0.000    1.000    0.000    0.000    0.000    0.000 
#
# Total GULP energy -793213.445022 kJ/mol
# GULP energy per Si atom -12393.960078 kJ/mol
# Density = 1.771337 g / cm^3
# Si number density = 17.753779 Si / 1000 Ang^3
#
#
#
# Elastic Constant Matrix: (Units=GPa)
#
#
# Indices 1 2 3 4 5 6 
#
# 1 82.6701 47.1878 26.3355 0.0000 0.0000 0.0000
# 2 47.1878 159.7707 41.6223 0.0000 0.0000 0.0000
# 3 26.3355 41.6223 39.4982 0.0000 0.0000 0.0000
# 4 0.0000 0.0000 0.0000 17.1470 0.0000 0.0000
# 5 0.0000 0.0000 0.0000 0.0000 15.5951 0.0000
# 6 0.0000 0.0000 0.0000 0.0000 0.0000 19.0844
#
#
#
# Elastic Compliance Matrix: (Units=1/GPa)
#
#
# Indices 1 2 3 4 5 6 
#
# 1 0.016168 -0.002711 -0.007923 0.000000 0.000000 0.000000
# 2 -0.002711 0.009082 -0.007763 0.000000 0.000000 0.000000
# 3 -0.007923 -0.007763 0.038781 0.000000 0.000000 0.000000
# 4 0.000000 0.000000 0.000000 0.058319 0.000000 0.000000
# 5 0.000000 0.000000 0.000000 0.000000 0.064123 0.000000
# 6 0.000000 0.000000 0.000000 0.000000 0.000000 0.052399
#
#
# Mechanical properties :
#
#
# Convention : Reuss Voigt Hill
#
# Bulk Modulus (GPa) = 36.71539 56.91449 46.81494
# Shear Modulus (GPa) = 17.55967 21.48486 19.52226
#
# Velocity S-wave (km/s) = 3.14835 3.48251 3.31964
# Velocity P-wave (km/s) = 5.82592 6.94966 6.41245
#
# Compressibility (1/GPa) = 0.02723654
#
# Stress axis : x y z
#
# Youngs Moduli (GPa) = 61.85173 110.10818 25.78608
#
# Poissons Ratio (x) = 0.29851 0.20430
# Poissons Ratio (y) = 0.16768 0.20017
# Poissons Ratio (z) = 0.49005 0.85475
#
# Static dielectric constant tensor:
#      x y z
#    x 3.319730 0.000000 0.000000 
#    y 0.000000 4.566490 0.000000 
#    z 0.000000 0.000000 2.819360 
# 
# 
# High freq. dielectric constant tensor:
#      x y z
#    x 1.694810 0.000000 0.000000 
#    y 0.000000 1.700380 0.000000 
#    z 0.000000 0.000000 1.622720 
# 
# From -- ./inp_files/24467.got.cif
#   From: 2010.03.12/outbox.cif.g09.slc.cpg/sg51_13_cif.got.tgz:24467.got - 2010.04.16 13:43:02.
