data_PCOD8207487
_publ_section_title
;
Structure prediction by ZEFSAII (Michael W. Deem and Ramdas Pophale) SiO2 
 PCOD8207487
Probable space group: P M M A
;
_chemical_formula_sum "Si O2"
_cell_formula_units_Z 64
_cell_length_a 30.599135
_cell_length_b 9.063728
_cell_length_c 11.861887
_cell_angle_alpha 90.000000
_cell_angle_beta 90.000000
_cell_angle_gamma 90.000000
_cell_volume 3289.802272
_symmetry_space_group_name_H-M "P M M A"
_symmetry_group_IT_number 51
_symmetry_cell_setting 'orthorhombic'
loop_
_space_group_symop_operation_xyz
x,y,z
1/2-x,-y,z
1/2+x,-y,-z
-x,y,-z
-x,-y,-z
1/2+x,y,-z
1/2-x,y,z
x,-y,z
loop_
_atom_site_type_symbol
_atom_site_label
_atom_site_fract_x
_atom_site_fract_y
_atom_site_fract_z
Si Si1 0.379257 0.326888 0.884958
Si Si2 0.572061 0.333251 0.482509
Si Si3 0.040367 0.670863 0.273225
Si Si4 0.673117 0.670131 0.503107
Si Si5 0.626610 0.327566 0.853741
Si Si6 0.298389 0.324869 0.740922
Si Si7 0.700507 0.831236 0.721083
Si Si8 0.952695 0.825669 0.259304
O O1 0.385826 0.500000 0.860933
O O2 0.333280 0.269966 0.833266
O O3 0.418377 0.239662 0.827975
O O4 0.379756 0.289486 0.016017
O O5 0.565605 0.500000 0.435927
O O6 0.542305 0.306601 0.592027
O O7 0.621660 0.309163 0.520330
O O8 0.559010 0.219421 0.386463
O O9 0.032979 0.500000 0.242387
O O10 0.084361 0.729725 0.214174
O O11 0.000236 0.764833 0.225279
O O12 0.686804 0.500000 0.515474
O O13 0.687368 0.733838 0.381841
O O14 0.697962 0.761080 0.597622
O O15 0.633479 0.500000 0.832255
O O16 0.669841 0.248225 0.810905
O O17 0.250000 0.264100 0.771563
O O18 0.298024 0.500000 0.738604
O O19 0.750000 0.815926 0.765351
O O20 0.685863 0.000000 0.711702
O O21 0.952591 0.000000 0.249748
#
# Coordination Sequence:
#
# PCOD8207487 Si02
#       8
#     8   8   8   8   8   8   8   8
#     4  10  21  40  63  85 115 151 195 247 293 339
#     4  10  19  36  62  87 115 152 191 241 297 344
#     4  10  21  39  61  86 115 148 194 246 301 349
#     4  10  18  34  61  88 115 151 196 242 287 338
#     4  10  22  41  65  88 109 149 205 254 291 335
#     4   9  17  31  56  89 118 145 182 234 291 338
#     4  11  24  39  57  86 126 164 192 230 291 354
#     4  12  25  38  57  87 121 155 192 232 289 361
#
# _framework density 19.454056999999999
#
# number of rings (size 3 to 8) (size 9 to 14) (size 15 to 20)
#    0.000    1.750    2.500    2.250    0.000    6.000 
#    0.000    3.750    0.000    0.375    0.000    0.000 
#    0.000    0.000    0.000    0.000    0.000    0.000 
#
# Total GULP energy -793830.623556 kJ/mol
# GULP energy per Si atom -12403.603493 kJ/mol
# Density = 1.940978 g / cm^3
# Si number density = 19.454057 Si / 1000 Ang^3
#
#
#
# Elastic Constant Matrix: (Units=GPa)
#
#
# Indices 1 2 3 4 5 6 
#
# 1 123.9978 55.3652 56.0766 0.0000 0.0000 0.0000
# 2 55.3652 79.8099 54.4677 0.0000 0.0000 0.0000
# 3 56.0766 54.4677 110.6653 0.0000 0.0000 0.0000
# 4 0.0000 0.0000 0.0000 10.9106 0.0000 0.0000
# 5 0.0000 0.0000 0.0000 0.0000 13.7279 0.0000
# 6 0.0000 0.0000 0.0000 0.0000 0.0000 20.3845
#
#
#
# Elastic Compliance Matrix: (Units=1/GPa)
#
#
# Indices 1 2 3 4 5 6 
#
# 1 0.012340 -0.006464 -0.003071 0.000000 0.000000 0.000000
# 2 -0.006464 0.022254 -0.007677 0.000000 0.000000 0.000000
# 3 -0.003071 -0.007677 0.014371 0.000000 0.000000 0.000000
# 4 0.000000 0.000000 0.000000 0.091654 0.000000 0.000000
# 5 0.000000 0.000000 0.000000 0.000000 0.072845 0.000000
# 6 0.000000 0.000000 0.000000 0.000000 0.000000 0.049057
#
#
# Mechanical properties :
#
#
# Convention : Reuss Voigt Hill
#
# Bulk Modulus (GPa) = 68.78053 71.81023 70.29538
# Shear Modulus (GPa) = 16.56768 18.90882 17.73825
#
# Velocity S-wave (km/s) = 2.92144 3.12103 3.02288
# Velocity P-wave (km/s) = 6.84192 7.06970 6.95674
#
# Compressibility (1/GPa) = 0.01453900
#
# Stress axis : x y z
#
# Youngs Moduli (GPa) = 81.03759 44.93641 69.58363
#
# Poissons Ratio (x) = 0.29048 0.21371
# Poissons Ratio (y) = 0.52385 0.53421
# Poissons Ratio (z) = 0.24889 0.34499
#
# Static dielectric constant tensor:
#      x y z
#    x 3.768630 0.000000 0.000000 
#    y 0.000000 3.289260 0.000000 
#    z 0.000000 0.000000 3.504540 
# 
# 
# High freq. dielectric constant tensor:
#      x y z
#    x 1.775860 0.000000 0.000000 
#    y 0.000000 1.727980 0.000000 
#    z 0.000000 0.000000 1.755450 
# 
# From -- ./inp_files/19612.got.cif
#   From: 2010.03.12/outbox.cif.g09.slc.cpg/sg51_10_cif.got.tgz:19612.got - 2010.04.16 13:43:02.
