data_PCOD8207275
_publ_section_title
;
Structure prediction by ZEFSAII (Michael W. Deem and Ramdas Pophale) SiO2 
 PCOD8207275
Probable space group: P M M A
;
_chemical_formula_sum "Si O2"
_cell_formula_units_Z 40
_cell_length_a 15.705348
_cell_length_b 8.457945
_cell_length_c 14.681519
_cell_angle_alpha 90.000000
_cell_angle_beta 90.000000
_cell_angle_gamma 90.000000
_cell_volume 1950.219130
_symmetry_space_group_name_H-M "P M M A"
_symmetry_group_IT_number 51
_symmetry_cell_setting 'orthorhombic'
loop_
_space_group_symop_operation_xyz
x,y,z
1/2-x,-y,z
1/2+x,-y,-z
-x,y,-z
-x,-y,-z
1/2+x,y,-z
1/2-x,y,z
x,-y,z
loop_
_atom_site_type_symbol
_atom_site_label
_atom_site_fract_x
_atom_site_fract_y
_atom_site_fract_z
Si Si1 0.086008 0.682326 0.596917
Si Si2 0.156454 0.812291 0.218550
Si Si3 0.345099 0.183287 0.773972
Si Si4 0.097342 0.183765 0.411345
Si Si5 0.499556 0.811615 0.897798
O O1 0.059269 0.500000 0.598996
O O2 0.148655 0.721110 0.679794
O O3 0.130832 0.721887 0.500133
O O4 0.002809 0.790926 0.605546
O O5 0.250000 0.759692 0.182909
O O6 0.145733 0.751536 0.322059
O O7 0.082702 0.741881 0.153732
O O8 0.147614 0.000000 0.218385
O O9 0.250000 0.209533 0.813777
O O10 0.413910 0.246913 0.846919
O O11 0.362239 0.000000 0.752905
O O12 0.115878 0.000000 0.427021
O O13 0.502205 0.000000 0.900330
O O14 0.500000 0.742673 0.000000
#
# Coordination Sequence:
#
# PCOD8207275 Si02
#       5
#     8   8   8   8   8
#     4  11  21  33  52  79 110 144 184 224 270 317
#     4   9  17  29  49  78 108 136 171 214 263 316
#     4  10  20  35  55  80 109 144 183 221 267 326
#     4  10  18  32  54  78 109 147 185 220 265 320
#     4   9  17  31  52  79 110 138 170 220 277 324
#
# _framework density 20.510517
#
# number of rings (size 3 to 8) (size 9 to 14) (size 15 to 20)
#    0.000    2.200    2.000    3.600    0.000    2.000 
#    0.000    6.000    0.000    2.400    0.000    0.000 
#    0.000    0.000    0.000    0.000    0.000    0.000 
#
# Total GULP energy -495913.143805 kJ/mol
# GULP energy per Si atom -12397.828595 kJ/mol
# Density = 2.046383 g / cm^3
# Si number density = 20.510517 Si / 1000 Ang^3
#
#
#
# Elastic Constant Matrix: (Units=GPa)
#
#
# Indices 1 2 3 4 5 6 
#
# 1 147.4583 9.7807 87.8318 0.0000 0.0000 0.0000
# 2 9.7807 34.8443 21.8216 0.0000 0.0000 0.0000
# 3 87.8318 21.8216 170.8121 0.0000 0.0000 0.0000
# 4 0.0000 0.0000 0.0000 2.5099 0.0000 0.0000
# 5 0.0000 0.0000 0.0000 0.0000 16.3485 0.0000
# 6 0.0000 0.0000 0.0000 0.0000 0.0000 4.3035
#
#
#
# Elastic Compliance Matrix: (Units=1/GPa)
#
#
# Indices 1 2 3 4 5 6 
#
# 1 0.009782 0.000439 -0.005086 0.000000 0.000000 0.000000
# 2 0.000439 0.031215 -0.004214 0.000000 0.000000 0.000000
# 3 -0.005086 -0.004214 0.009008 0.000000 0.000000 0.000000
# 4 0.000000 0.000000 0.000000 0.398427 0.000000 0.000000
# 5 0.000000 0.000000 0.000000 0.000000 0.061168 0.000000
# 6 0.000000 0.000000 0.000000 0.000000 0.000000 0.232367
#
#
# Mechanical properties :
#
#
# Convention : Reuss Voigt Hill
#
# Bulk Modulus (GPa) = 30.97522 65.77588 48.37555
# Shear Modulus (GPa) = 6.48973 20.21108 13.35040
#
# Velocity S-wave (km/s) = 1.78072 3.14251 2.55405
# Velocity P-wave (km/s) = 4.40032 6.73099 5.68634
#
# Compressibility (1/GPa) = 0.03228387
#
# Stress axis : x y z
#
# Youngs Moduli (GPa) = 102.23034 32.03629 111.01355
#
# Poissons Ratio (x) = -0.01408 0.56461
# Poissons Ratio (y) = -0.04492 0.46778
# Poissons Ratio (z) = 0.51994 0.13499
#
# Static dielectric constant tensor:
#      x y z
#    x 3.698840 0.000000 0.000000 
#    y 0.000000 3.146340 0.000000 
#    z 0.000000 0.000000 3.977680 
# 
# 
# High freq. dielectric constant tensor:
#      x y z
#    x 1.797380 0.000000 0.000000 
#    y 0.000000 1.751380 0.000000 
#    z 0.000000 0.000000 1.803490 
# 
# From -- ./inp_files/23692.got.cif
#   From: 2010.03.12/outbox.cif.g09.slc.cpg/sg51_12_cif.got.tgz:23692.got - 2010.04.16 13:43:02.
