data_PCOD8207270
_publ_section_title
;
Structure prediction by ZEFSAII (Michael W. Deem and Ramdas Pophale) SiO2 
 PCOD8207270
Probable space group: P M M A
;
_chemical_formula_sum "Si O2"
_cell_formula_units_Z 48
_cell_length_a 28.346699
_cell_length_b 8.708676
_cell_length_c 10.271598
_cell_angle_alpha 90.000000
_cell_angle_beta 90.000000
_cell_angle_gamma 90.000000
_cell_volume 2535.669457
_symmetry_space_group_name_H-M "P M M A"
_symmetry_group_IT_number 51
_symmetry_cell_setting 'orthorhombic'
loop_
_space_group_symop_operation_xyz
x,y,z
1/2-x,-y,z
1/2+x,-y,-z
-x,y,-z
-x,-y,-z
1/2+x,y,-z
1/2-x,y,z
x,-y,z
loop_
_atom_site_type_symbol
_atom_site_label
_atom_site_fract_x
_atom_site_fract_y
_atom_site_fract_z
Si Si1 0.250000 0.316578 0.118117
Si Si2 0.351894 0.317442 0.492357
Si Si3 0.153010 0.318363 0.013069
Si Si4 0.398715 0.682092 0.757859
Si Si5 0.088483 0.682502 0.245157
Si Si6 0.250000 0.317163 0.413283
Si Si7 0.504554 0.818458 0.148535
O O1 0.250000 0.500000 0.117674
O O2 0.250000 0.256206 0.265641
O O3 0.204531 0.249981 0.043270
O O4 0.350506 0.500000 0.491271
O O5 0.376183 0.256743 0.623901
O O6 0.383257 0.258235 0.371673
O O7 0.297808 0.255633 0.482988
O O8 0.154902 0.500000 0.026098
O O9 0.137597 0.266663 0.870026
O O10 0.115967 0.255678 0.118495
O O11 0.406606 0.500000 0.756572
O O12 0.448124 0.762113 0.783257
O O13 0.083561 0.500000 0.246811
O O14 0.036873 0.755552 0.240411
O O15 0.250000 0.500000 0.414209
O O16 0.503267 0.000000 0.147445
O O17 0.500000 0.754602 0.000000
#
# Coordination Sequence:
#
# PCOD8207270 Si02
#       7
#     4   8   8   8   8   4   8
#     4   9  14  23  43  75 108 135 167 208 249 297
#     4   9  18  30  49  78 111 140 167 206 257 307
#     4   9  16  26  46  74 103 134 168 204 247 297
#     4  10  20  34  51  77 108 136 170 213 257 303
#     4  10  18  32  54  78 102 135 173 207 251 306
#     4   9  14  25  45  73 110 141 163 200 255 303
#     4  11  23  37  54  76 100 133 175 219 266 309
#
# _framework density 18.929912999999999
#
# number of rings (size 3 to 8) (size 9 to 14) (size 15 to 20)
#    0.000    2.333    3.333    0.500    0.000    2.000 
#    0.000    7.500    0.000    0.000    0.000    7.000 
#    0.000    0.000    0.000    0.000    0.000    0.000 
#
# Total GULP energy -595106.850022 kJ/mol
# GULP energy per Si atom -12398.059375 kJ/mol
# Density = 1.888683 g / cm^3
# Si number density = 18.929913 Si / 1000 Ang^3
#
#
#
# Elastic Constant Matrix: (Units=GPa)
#
#
# Indices 1 2 3 4 5 6 
#
# 1 180.2016 25.0249 79.3251 0.0000 0.0000 0.0000
# 2 25.0249 19.8044 21.4940 0.0000 0.0000 0.0000
# 3 79.3251 21.4940 150.3131 0.0000 0.0000 0.0000
# 4 0.0000 0.0000 0.0000 10.9373 0.0000 0.0000
# 5 0.0000 0.0000 0.0000 0.0000 38.3362 0.0000
# 6 0.0000 0.0000 0.0000 0.0000 0.0000 -4.0578
#
#
#
# Elastic Compliance Matrix: (Units=1/GPa)
#
#
# Indices 1 2 3 4 5 6 
#
# 1 0.007865 -0.006431 -0.003231 0.000000 0.000000 0.000000
# 2 -0.006431 0.065029 -0.005905 0.000000 0.000000 0.000000
# 3 -0.003231 -0.005905 0.009202 0.000000 0.000000 0.000000
# 4 0.000000 0.000000 0.000000 0.091430 0.000000 0.000000
# 5 0.000000 0.000000 0.000000 0.000000 0.026085 0.000000
# 6 0.000000 0.000000 0.000000 0.000000 0.000000 -0.246439
#
#
# Mechanical properties :
#
#
# Convention : Reuss Voigt Hill
#
# Bulk Modulus (GPa) = 19.62247 66.88969 43.25608
# Shear Modulus (GPa) = 3864.36329 24.00815 1944.18572
#
# Velocity S-wave (km/s) = 45.23094 3.56513 32.08230
# Velocity P-wave (km/s) = 52.32754 7.23596 37.35325
#
# Compressibility (1/GPa) = 0.05096198
#
# Stress axis : x y z
#
# Youngs Moduli (GPa) = 127.15071 15.37774 108.67060
#
# Poissons Ratio (x) = 0.09890 0.35109
# Poissons Ratio (y) = 0.81776 0.64167
# Poissons Ratio (z) = 0.41080 0.09080
#
# Static dielectric constant tensor:
#      x y z
#    x 3.761020 0.000000 0.000000 
#    y 0.000000 2.832720 0.000000 
#    z 0.000000 0.000000 3.705060 
# 
# 
# High freq. dielectric constant tensor:
#      x y z
#    x 1.754840 0.000000 0.000000 
#    y 0.000000 1.672480 0.000000 
#    z 0.000000 0.000000 1.737830 
# 
# From -- ./inp_files/12875.got.cif
#   From: 2010.03.12/outbox.cif.g09.slc.cpg/sg51_7_cif.got.tgz:12875.got - 2010.04.16 13:43:02.
