data_PCOD8207838
_publ_section_title
;
Structure prediction by ZEFSAII (Michael W. Deem and Ramdas Pophale) SiO2 
 PCOD8207838
Probable space group: P M M A
;
_chemical_formula_sum "Si O2"
_cell_formula_units_Z 56
_cell_length_a 9.217810
_cell_length_b 18.399958
_cell_length_c 21.089234
_cell_angle_alpha 90.000000
_cell_angle_beta 90.000000
_cell_angle_gamma 90.000000
_cell_volume 3576.888393
_symmetry_space_group_name_H-M "P M M A"
_symmetry_group_IT_number 51
_symmetry_cell_setting 'orthorhombic'
loop_
_space_group_symop_operation_xyz
x,y,z
1/2-x,-y,z
1/2+x,-y,-z
-x,y,-z
-x,-y,-z
1/2+x,y,-z
1/2-x,y,z
x,-y,z
loop_
_atom_site_type_symbol
_atom_site_label
_atom_site_fract_x
_atom_site_fract_y
_atom_site_fract_z
Si Si1 0.087993 0.785438 0.621939
Si Si2 0.922605 0.919406 0.304586
Si Si3 0.419700 0.916362 0.065013
Si Si4 0.909685 0.700170 0.247059
Si Si5 0.579697 0.418309 0.689724
Si Si6 0.421753 0.158707 0.821809
Si Si7 0.079319 0.336799 0.437974
O O1 0.250000 0.786993 0.591706
O O2 0.028460 0.866700 0.637412
O O3 0.094833 0.744776 0.688398
O O4 0.978402 0.745045 0.574499
O O5 0.750000 0.919377 0.302831
O O6 0.977800 0.890536 0.236709
O O7 0.985843 0.000000 0.316713
O O8 0.250000 0.899521 0.057198
O O9 0.487724 0.864094 0.117360
O O10 0.446592 0.000000 0.084465
O O11 0.500000 0.897959 0.000000
O O12 0.750000 0.669574 0.231567
O O13 0.958551 0.756338 0.192129
O O14 0.015172 0.631142 0.253932
O O15 0.750000 0.416313 0.698347
O O16 0.518896 0.500000 0.696002
O O17 0.536037 0.388590 0.620422
O O18 0.250000 0.147934 0.833320
O O19 0.250000 0.334401 0.449665
O O20 0.000000 0.368829 0.500000
#
# Coordination Sequence:
#
# PCOD8207838 Si02
#       7
#     8   8   8   8   8   8   8
#     4   8  14  26  42  59  80 104 132 166 203 246
#     4   8  13  22  40  64  84 104 132 167 209 253
#     4  10  20  31  42  59  86 121 158 191 222 254
#     4   8  15  27  43  64  86 110 140 171 206 249
#     4   9  18  31  45  63  88 114 137 165 205 250
#     4   9  16  27  44  64  87 114 145 179 212 251
#     4  10  19  30  44  60  79 105 137 170 203 244
#
# _framework density 15.656065
#
# number of rings (size 3 to 8) (size 9 to 14) (size 15 to 20)
#    0.000    3.143    0.000    3.000    0.000    3.143 
#    0.000    2.143    0.000    1.714    0.000    0.000 
#    0.000    0.571    0.000    1.857    0.000    2.714 
#
# Total GULP energy -694070.051748 kJ/mol
# GULP energy per Si atom -12394.108067 kJ/mol
# Density = 1.562043 g / cm^3
# Si number density = 15.656065 Si / 1000 Ang^3
#
#
#
# Elastic Constant Matrix: (Units=GPa)
#
#
# Indices 1 2 3 4 5 6 
#
# 1 61.1898 41.0825 34.5187 0.0000 0.0000 0.0000
# 2 41.0825 119.0052 40.4190 0.0000 0.0000 0.0000
# 3 34.5187 40.4190 55.2764 0.0000 0.0000 0.0000
# 4 0.0000 0.0000 0.0000 17.9329 0.0000 0.0000
# 5 0.0000 0.0000 0.0000 0.0000 24.8047 0.0000
# 6 0.0000 0.0000 0.0000 0.0000 0.0000 21.5278
#
#
#
# Elastic Compliance Matrix: (Units=1/GPa)
#
#
# Indices 1 2 3 4 5 6 
#
# 1 0.027153 -0.004809 -0.013440 0.000000 0.000000 0.000000
# 2 -0.004809 0.012031 -0.005794 0.000000 0.000000 0.000000
# 3 -0.013440 -0.005794 0.030721 0.000000 0.000000 0.000000
# 4 0.000000 0.000000 0.000000 0.055764 0.000000 0.000000
# 5 0.000000 0.000000 0.000000 0.000000 0.040315 0.000000
# 6 0.000000 0.000000 0.000000 0.000000 0.000000 0.046451
#
#
# Mechanical properties :
#
#
# Convention : Reuss Voigt Hill
#
# Bulk Modulus (GPa) = 45.83281 51.94575 48.88928
# Shear Modulus (GPa) = 18.67104 20.81650 19.74377
#
# Velocity S-wave (km/s) = 3.45712 3.65034 3.55504
# Velocity P-wave (km/s) = 6.72859 7.14269 6.93873
#
# Compressibility (1/GPa) = 0.02181843
#
# Stress axis : x y z
#
# Youngs Moduli (GPa) = 36.82808 83.11811 32.55125
#
# Poissons Ratio (x) = 0.39971 0.43749
# Poissons Ratio (y) = 0.17710 0.18861
# Poissons Ratio (z) = 0.49497 0.48161
#
# Static dielectric constant tensor:
#      x y z
#    x 2.904960 0.000000 0.000000 
#    y 0.000000 3.255130 0.000000 
#    z 0.000000 0.000000 2.781330 
# 
# 
# High freq. dielectric constant tensor:
#      x y z
#    x 1.591050 0.000000 0.000000 
#    y 0.000000 1.592480 0.000000 
#    z 0.000000 0.000000 1.569130 
# 
# From -- ./inp_files/32219.got.cif
#   From: 2010.03.12/outbox.cif.g09.slc.cpg/sg51_17_cif.got.tgz:32219.got - 2010.04.16 13:43:02.
