data_PCOD8207935
_publ_section_title
;
Structure prediction by ZEFSAII (Michael W. Deem and Ramdas Pophale) SiO2 
 PCOD8207935
Probable space group: P M M A
;
_chemical_formula_sum "Si O2"
_cell_formula_units_Z 64
_cell_length_a 25.472888
_cell_length_b 10.041916
_cell_length_c 15.336174
_cell_angle_alpha 90.000000
_cell_angle_beta 90.000000
_cell_angle_gamma 90.000000
_cell_volume 3922.941190
_symmetry_space_group_name_H-M "P M M A"
_symmetry_group_IT_number 51
_symmetry_cell_setting 'orthorhombic'
loop_
_space_group_symop_operation_xyz
x,y,z
1/2-x,-y,z
1/2+x,-y,-z
-x,y,-z
-x,-y,-z
1/2+x,y,-z
1/2-x,y,z
x,-y,z
loop_
_atom_site_type_symbol
_atom_site_label
_atom_site_fract_x
_atom_site_fract_y
_atom_site_fract_z
Si Si1 0.308199 0.343405 0.385606
Si Si2 0.478424 0.342512 0.632818
Si Si3 0.960338 0.149856 0.209634
Si Si4 0.809588 0.645413 0.988137
Si Si5 0.384905 0.848352 0.944831
Si Si6 0.571022 0.149488 0.870507
Si Si7 0.349323 0.346798 0.198627
Si Si8 0.916897 0.343485 0.538354
O O1 0.250000 0.285921 0.413581
O O2 0.306932 0.500000 0.401662
O O3 0.315747 0.310222 0.283707
O O4 0.358776 0.282506 0.438872
O O5 0.477631 0.500000 0.653215
O O6 0.460631 0.259316 0.715668
O O7 0.435191 0.307297 0.558975
O O8 0.536930 0.295034 0.604189
O O9 0.010019 0.161458 0.147309
O O10 0.911955 0.181401 0.146833
O O11 0.956406 0.000000 0.249181
O O12 0.750000 0.641065 0.015923
O O13 0.835652 0.500000 0.003499
O O14 0.834945 0.753232 0.051305
O O15 0.813864 0.682563 0.885905
O O16 0.365634 0.000000 0.949622
O O17 0.421645 0.814057 0.027790
O O18 0.599931 0.252454 0.806321
O O19 0.591824 0.000000 0.851038
O O20 0.368483 0.500000 0.203599
O O21 0.913192 0.500000 0.550258
#
# Coordination Sequence:
#
# PCOD8207935 Si02
#       8
#     8   8   8   8   8   8   8   8
#     4   9  15  23  40  66  92 116 142 173 211 259
#     4   9  17  30  48  66  86 114 146 182 221 260
#     4  10  19  30  45  66  90 114 144 182 221 258
#     4   9  17  29  44  63  89 117 145 182 223 256
#     4   9  18  31  45  62  86 117 150 180 213 258
#     4   9  17  29  44  62  88 121 149 175 211 254
#     4   9  16  26  42  66  92 116 144 176 210 251
#     4   8  15  28  44  64  89 115 144 177 215 260
#
# _framework density 16.314288999999999
#
# number of rings (size 3 to 8) (size 9 to 14) (size 15 to 20)
#    0.000    3.000    0.000    2.250    0.000    5.250 
#    0.000    1.250    0.000    6.375    0.000    1.750 
#    0.000    0.000    0.000    0.000    0.000    0.000 
#
# Total GULP energy -793067.164704 kJ/mol
# GULP energy per Si atom -12391.674449 kJ/mol
# Density = 1.627716 g / cm^3
# Si number density = 16.314289 Si / 1000 Ang^3
#
#
#
# Elastic Constant Matrix: (Units=GPa)
#
#
# Indices 1 2 3 4 5 6 
#
# 1 101.9059 36.9638 43.8476 0.0000 0.0000 0.0000
# 2 36.9638 58.9947 42.0962 0.0000 0.0000 0.0000
# 3 43.8476 42.0962 76.8869 0.0000 0.0000 0.0000
# 4 0.0000 0.0000 0.0000 20.6692 0.0000 0.0000
# 5 0.0000 0.0000 0.0000 0.0000 21.3417 0.0000
# 6 0.0000 0.0000 0.0000 0.0000 0.0000 19.9248
#
#
#
# Elastic Compliance Matrix: (Units=1/GPa)
#
#
# Indices 1 2 3 4 5 6 
#
# 1 0.013845 -0.004990 -0.005163 0.000000 0.000000 0.000000
# 2 -0.004990 0.029618 -0.013370 0.000000 0.000000 0.000000
# 3 -0.005163 -0.013370 0.023271 0.000000 0.000000 0.000000
# 4 0.000000 0.000000 0.000000 0.048381 0.000000 0.000000
# 5 0.000000 0.000000 0.000000 0.000000 0.046857 0.000000
# 6 0.000000 0.000000 0.000000 0.000000 0.000000 0.050189
#
#
# Mechanical properties :
#
#
# Convention : Reuss Voigt Hill
#
# Bulk Modulus (GPa) = 50.79716 53.73364 52.26540
# Shear Modulus (GPa) = 18.81334 20.04580 19.42957
#
# Velocity S-wave (km/s) = 3.39954 3.50912 3.45476
# Velocity P-wave (km/s) = 6.82740 7.03041 6.92965
#
# Compressibility (1/GPa) = 0.01968614
#
# Stress axis : x y z
#
# Youngs Moduli (GPa) = 72.22998 33.76360 42.97221
#
# Poissons Ratio (x) = 0.16849 0.22188
# Poissons Ratio (y) = 0.36045 0.57454
# Poissons Ratio (z) = 0.37294 0.45142
#
# Static dielectric constant tensor:
#      x y z
#    x 3.294690 0.000000 0.000000 
#    y 0.000000 3.003380 0.000000 
#    z 0.000000 0.000000 2.948370 
# 
# 
# High freq. dielectric constant tensor:
#      x y z
#    x 1.621510 0.000000 0.000000 
#    y 0.000000 1.604990 0.000000 
#    z 0.000000 0.000000 1.610190 
# 
# From -- ./inp_files/18860.got.cif
#   From: 2010.03.12/outbox.cif.g09.slc.cpg/sg51_10_cif.got.tgz:18860.got - 2010.04.16 13:43:02.
