data_PCOD8207954
_publ_section_title
;
Structure prediction by ZEFSAII (Michael W. Deem and Ramdas Pophale) SiO2 
 PCOD8207954
Probable space group: P M M A
;
_chemical_formula_sum "Si O2"
_cell_formula_units_Z 48
_cell_length_a 18.701590
_cell_length_b 8.826365
_cell_length_c 16.353436
_cell_angle_alpha 90.000000
_cell_angle_beta 90.000000
_cell_angle_gamma 90.000000
_cell_volume 2699.413592
_symmetry_space_group_name_H-M "P M M A"
_symmetry_group_IT_number 51
_symmetry_cell_setting 'orthorhombic'
loop_
_space_group_symop_operation_xyz
x,y,z
1/2-x,-y,z
1/2+x,-y,-z
-x,y,-z
-x,-y,-z
1/2+x,y,-z
1/2-x,y,z
x,-y,z
loop_
_atom_site_type_symbol
_atom_site_label
_atom_site_fract_x
_atom_site_fract_y
_atom_site_fract_z
Si Si1 0.963110 0.820804 0.756675
Si Si2 0.406505 0.323278 0.673877
Si Si3 0.328525 0.820048 0.342358
Si Si4 0.972668 0.680204 0.087276
Si Si5 0.828290 0.321802 0.163782
Si Si6 0.833335 0.173240 0.474507
O O1 0.886540 0.763178 0.723022
O O2 0.021928 0.770262 0.691139
O O3 0.974322 0.744939 0.844545
O O4 0.965533 0.000000 0.766807
O O5 0.425264 0.500000 0.677480
O O6 0.348021 0.280862 0.742892
O O7 0.377329 0.280625 0.585494
O O8 0.250000 0.756502 0.317501
O O9 0.348898 0.766497 0.433942
O O10 0.325592 0.000000 0.344732
O O11 0.975591 0.500000 0.092781
O O12 0.891229 0.739008 0.103640
O O13 0.000000 0.740161 0.000000
O O14 0.750000 0.249472 0.143178
O O15 0.822844 0.500000 0.152762
O O16 0.750000 0.187431 0.454142
O O17 0.858840 0.000000 0.463253
#
# Coordination Sequence:
#
# PCOD8207954 Si02
#       6
#     8   8   8   8   8   8
#     4  10  19  32  52  73  92 120 161 202 239 285
#     4  10  19  30  45  68 100 131 159 196 244 292
#     4   8  16  32  51  69  92 126 165 202 240 281
#     4   9  18  33  51  71  98 126 150 187 243 299
#     4   8  14  26  45  66  88 120 158 187 217 271
#     4   9  17  30  48  69  94 126 166 206 237 271
#
# _framework density 17.781641
#
# number of rings (size 3 to 8) (size 9 to 14) (size 15 to 20)
#    0.000    3.000    0.000    3.500    0.000    2.000 
#    0.000    5.833    0.000    9.500    0.000    0.000 
#    0.000    0.000    0.000    0.000    0.000    0.000 
#
# Total GULP energy -594961.277845 kJ/mol
# GULP energy per Si atom -12395.026622 kJ/mol
# Density = 1.774117 g / cm^3
# Si number density = 17.781641 Si / 1000 Ang^3
#
#
#
# Elastic Constant Matrix: (Units=GPa)
#
#
# Indices 1 2 3 4 5 6 
#
# 1 135.5372 17.3318 90.6246 0.0000 0.0000 0.0000
# 2 17.3318 21.7578 20.4090 0.0000 0.0000 0.0000
# 3 90.6246 20.4090 128.9062 0.0000 0.0000 0.0000
# 4 0.0000 0.0000 0.0000 24.9439 0.0000 0.0000
# 5 0.0000 0.0000 0.0000 0.0000 24.8538 0.0000
# 6 0.0000 0.0000 0.0000 0.0000 0.0000 17.8081
#
#
#
# Elastic Compliance Matrix: (Units=1/GPa)
#
#
# Indices 1 2 3 4 5 6 
#
# 1 0.014016 -0.002257 -0.009497 0.000000 0.000000 0.000000
# 2 -0.002257 0.054340 -0.007016 0.000000 0.000000 0.000000
# 3 -0.009497 -0.007016 0.015545 0.000000 0.000000 0.000000
# 4 0.000000 0.000000 0.000000 0.040090 0.000000 0.000000
# 5 0.000000 0.000000 0.000000 0.000000 0.040235 0.000000
# 6 0.000000 0.000000 0.000000 0.000000 0.000000 0.056154
#
#
# Mechanical properties :
#
#
# Convention : Reuss Voigt Hill
#
# Bulk Modulus (GPa) = 21.56993 60.32577 40.94785
# Shear Modulus (GPa) = 18.28988 24.04352 21.16670
#
# Velocity S-wave (km/s) = 3.21063 3.68115 3.45391
# Velocity P-wave (km/s) = 5.08930 7.21577 6.24373
#
# Compressibility (1/GPa) = 0.04636084
#
# Stress axis : x y z
#
# Youngs Moduli (GPa) = 71.34504 18.40258 64.33030
#
# Poissons Ratio (x) = 0.04154 0.61091
# Poissons Ratio (y) = 0.16105 0.45137
# Poissons Ratio (z) = 0.67753 0.12912
#
# Static dielectric constant tensor:
#      x y z
#    x 3.720250 0.000000 0.000000 
#    y 0.000000 2.970590 0.000000 
#    z 0.000000 0.000000 3.282260 
# 
# 
# High freq. dielectric constant tensor:
#      x y z
#    x 1.692110 0.000000 0.000000 
#    y 0.000000 1.658260 0.000000 
#    z 0.000000 0.000000 1.677570 
# 
# From -- ./inp_files/30063.got.cif
#   From: 2010.03.12/outbox.cif.g09.slc.cpg/sg51_16_cif.got.tgz:30063.got - 2010.04.16 13:43:02.
