data_PCOD8207867
_publ_section_title
;
Structure prediction by ZEFSAII (Michael W. Deem and Ramdas Pophale) SiO2 
 PCOD8207867
Probable space group: P M M A
;
_chemical_formula_sum "Si O2"
_cell_formula_units_Z 64
_cell_length_a 19.416626
_cell_length_b 9.226743
_cell_length_c 20.757072
_cell_angle_alpha 90.000000
_cell_angle_beta 90.000000
_cell_angle_gamma 90.000000
_cell_volume 3718.675489
_symmetry_space_group_name_H-M "P M M A"
_symmetry_group_IT_number 51
_symmetry_cell_setting 'orthorhombic'
loop_
_space_group_symop_operation_xyz
x,y,z
1/2-x,-y,z
1/2+x,-y,-z
-x,y,-z
-x,-y,-z
1/2+x,y,-z
1/2-x,y,z
x,-y,z
loop_
_atom_site_type_symbol
_atom_site_label
_atom_site_fract_x
_atom_site_fract_y
_atom_site_fract_z
Si Si1 0.171720 0.831088 0.866932
Si Si2 0.081777 0.340142 0.380198
Si Si3 0.831946 0.339274 0.010778
Si Si4 0.081916 0.336764 0.622874
Si Si5 0.426306 0.828032 0.750106
Si Si6 0.826699 0.672613 0.869926
Si Si7 0.431314 0.671532 0.238439
Si Si8 0.582268 0.837121 0.499729
O O1 0.250000 0.779194 0.854409
O O2 0.127304 0.786339 0.805517
O O3 0.168509 0.000000 0.879805
O O4 0.139751 0.758326 0.931012
O O5 0.110365 0.500000 0.397167
O O6 0.103798 0.294693 0.307874
O O7 0.110726 0.228462 0.433049
O O8 0.999711 0.343291 0.381773
O O9 0.750000 0.344316 0.011906
O O10 0.862603 0.500000 0.020539
O O11 0.853830 0.276213 0.940541
O O12 0.112158 0.500000 0.627333
O O13 0.103455 0.243751 0.685130
O O14 0.111579 0.257951 0.559294
O O15 0.499174 0.761508 0.770392
O O16 0.433637 0.000000 0.739782
O O17 0.750000 0.734557 0.855857
O O18 0.823430 0.500000 0.869600
O O19 0.878754 0.728809 0.815530
O O20 0.447862 0.500000 0.232920
O O21 0.500000 0.835905 0.500000
O O22 0.610567 0.000000 0.493108
#
# Coordination Sequence:
#
# PCOD8207867 Si02
#       8
#     8   8   8   8   8   8   8   8
#     4   9  18  32  48  65  86 114 147 181 219 264
#     4   8  14  23  35  54  81 112 143 175 212 253
#     4   8  14  26  46  69  88 108 141 185 223 254
#     4   9  16  26  40  58  83 113 143 178 218 259
#     4  10  19  30  44  63  89 118 146 179 219 263
#     4   8  14  27  48  71  91 113 146 185 220 256
#     4   9  17  29  45  65  91 121 148 177 218 264
#     4   9  15  22  35  56  81 110 144 180 215 252
#
# _framework density 17.210428
#
# number of rings (size 3 to 8) (size 9 to 14) (size 15 to 20)
#    0.000    3.250    0.000    2.625    0.000    5.500 
#    0.000    1.250    0.000    4.875    0.000    0.875 
#    0.000    3.000    0.000    0.000    0.000    0.000 
#
# Total GULP energy -793209.997616 kJ/mol
# GULP energy per Si atom -12393.906213 kJ/mol
# Density = 1.717126 g / cm^3
# Si number density = 17.210428 Si / 1000 Ang^3
#
#
#
# Elastic Constant Matrix: (Units=GPa)
#
#
# Indices 1 2 3 4 5 6 
#
# 1 35.6733 27.7024 48.3915 0.0000 0.0000 0.0000
# 2 27.7024 88.7783 76.1589 0.0000 0.0000 0.0000
# 3 48.3915 76.1589 183.1332 0.0000 0.0000 0.0000
# 4 0.0000 0.0000 0.0000 24.0471 0.0000 0.0000
# 5 0.0000 0.0000 0.0000 0.0000 4.8157 0.0000
# 6 0.0000 0.0000 0.0000 0.0000 0.0000 11.2997
#
#
#
# Elastic Compliance Matrix: (Units=1/GPa)
#
#
# Indices 1 2 3 4 5 6 
#
# 1 0.045703 -0.006065 -0.009554 0.000000 0.000000 0.000000
# 2 -0.006065 0.018316 -0.006014 0.000000 0.000000 0.000000
# 3 -0.009554 -0.006014 0.010486 0.000000 0.000000 0.000000
# 4 0.000000 0.000000 0.000000 0.041585 0.000000 0.000000
# 5 0.000000 0.000000 0.000000 0.000000 0.207655 0.000000
# 6 0.000000 0.000000 0.000000 0.000000 0.000000 0.088498
#
#
# Mechanical properties :
#
#
# Convention : Reuss Voigt Hill
#
# Bulk Modulus (GPa) = 32.01254 68.01003 50.01128
# Shear Modulus (GPa) = 10.73139 18.38796 14.55967
#
# Velocity S-wave (km/s) = 2.49979 3.27221 2.91173
# Velocity P-wave (km/s) = 5.19355 7.34024 6.35815
#
# Compressibility (1/GPa) = 0.03123776
#
# Stress axis : x y z
#
# Youngs Moduli (GPa) = 21.88059 54.59716 95.36166
#
# Poissons Ratio (x) = 0.33112 0.91113
# Poissons Ratio (y) = 0.13270 0.57355
# Poissons Ratio (z) = 0.20906 0.32837
#
# Static dielectric constant tensor:
#      x y z
#    x 2.751330 0.000000 0.000000 
#    y 0.000000 3.232450 0.000000 
#    z 0.000000 0.000000 3.636640 
# 
# 
# High freq. dielectric constant tensor:
#      x y z
#    x 1.597830 0.000000 0.000000 
#    y 0.000000 1.656640 0.000000 
#    z 0.000000 0.000000 1.684590 
# 
# From -- ./inp_files/34089.got.cif
#   From: 2010.03.12/outbox.cif.g09.slc.cpg/sg51_18_cif.got.tgz:34089.got - 2010.04.16 13:43:02.
