data_PCOD8207391
_publ_section_title
;
Structure prediction by ZEFSAII (Michael W. Deem and Ramdas Pophale) SiO2 
 PCOD8207391
Probable space group: P M M A
;
_chemical_formula_sum "Si O2"
_cell_formula_units_Z 64
_cell_length_a 18.204557
_cell_length_b 13.710533
_cell_length_c 13.377196
_cell_angle_alpha 90.000000
_cell_angle_beta 90.000000
_cell_angle_gamma 90.000000
_cell_volume 3338.870260
_symmetry_space_group_name_H-M "P M M A"
_symmetry_group_IT_number 51
_symmetry_cell_setting 'orthorhombic'
loop_
_space_group_symop_operation_xyz
x,y,z
1/2-x,-y,z
1/2+x,-y,-z
-x,y,-z
-x,-y,-z
1/2+x,y,-z
1/2-x,y,z
x,-y,z
loop_
_atom_site_type_symbol
_atom_site_label
_atom_site_fract_x
_atom_site_fract_y
_atom_site_fract_z
Si Si1 0.833880 0.386234 0.414970
Si Si2 0.045629 0.611709 0.901148
Si Si3 0.166449 0.730462 0.980088
Si Si4 0.884067 0.611410 0.635084
Si Si5 0.666670 0.770290 0.790118
Si Si6 0.471091 0.303823 0.688793
Si Si7 0.530605 0.108044 0.731460
Si Si8 0.060841 0.107481 0.927767
O O1 0.750000 0.357975 0.388878
O O2 0.848417 0.500000 0.395136
O O3 0.849644 0.358980 0.529261
O O4 0.887878 0.324224 0.344216
O O5 0.037862 0.500000 0.867608
O O6 0.129322 0.635085 0.931137
O O7 0.019651 0.679533 0.808724
O O8 0.000000 0.637089 0.000000
O O9 0.250000 0.726454 0.947981
O O10 0.132910 0.826691 0.928878
O O11 0.154780 0.731227 0.098528
O O12 0.864747 0.500000 0.661210
O O13 0.848089 0.678893 0.718644
O O14 0.972480 0.624825 0.631256
O O15 0.750000 0.808182 0.775164
O O16 0.611859 0.859874 0.767706
O O17 0.496138 0.192867 0.660932
O O18 0.472175 0.098726 0.818885
O O19 0.537094 0.000000 0.680124
O O20 0.082577 0.000000 0.968364
O O21 0.000000 0.155852 0.000000
#
# Coordination Sequence:
#
# PCOD8207391 Si02
#       8
#     8   8   8   8   8   8   8   8
#     4  10  21  37  59  87 116 145 181 230 288 340
#     4  11  22  36  54  77 110 152 192 226 265 325
#     4  11  22  34  49  76 114 149 185 229 277 331
#     4  10  20  36  59  86 113 144 184 233 281 332
#     4  10  21  34  53  82 115 149 186 231 284 338
#     4  11  21  36  59  84 111 143 192 234 277 333
#     4  10  20  35  57  80 106 143 186 234 282 332
#     4  10  18  33  56  76 101 141 188 236 282 323
#
# _framework density 19.168161000000001
#
# number of rings (size 3 to 8) (size 9 to 14) (size 15 to 20)
#    0.000    1.625    2.500    3.750    0.000    4.500 
#    0.000    2.500    0.000    6.375    0.000    0.000 
#    0.000    0.000    0.000    0.000    0.000    0.000 
#
# Total GULP energy -793463.322582 kJ/mol
# GULP energy per Si atom -12397.864415 kJ/mol
# Density = 1.912453 g / cm^3
# Si number density = 19.168161 Si / 1000 Ang^3
#
#
#
# Elastic Constant Matrix: (Units=GPa)
#
#
# Indices 1 2 3 4 5 6 
#
# 1 110.3489 27.4996 26.4016 0.0000 0.0000 0.0000
# 2 27.4996 102.2415 30.0968 0.0000 0.0000 0.0000
# 3 26.4016 30.0968 47.8565 0.0000 0.0000 0.0000
# 4 0.0000 0.0000 0.0000 16.0737 0.0000 0.0000
# 5 0.0000 0.0000 0.0000 0.0000 30.1506 0.0000
# 6 0.0000 0.0000 0.0000 0.0000 0.0000 199.6706
#
#
#
# Elastic Compliance Matrix: (Units=1/GPa)
#
#
# Indices 1 2 3 4 5 6 
#
# 1 0.010598 -0.001386 -0.004975 0.000000 0.000000 0.000000
# 2 -0.001386 0.012184 -0.006898 0.000000 0.000000 0.000000
# 3 -0.004975 -0.006898 0.027978 0.000000 0.000000 0.000000
# 4 0.000000 0.000000 0.000000 0.062213 0.000000 0.000000
# 5 0.000000 0.000000 0.000000 0.000000 0.033167 0.000000
# 6 0.000000 0.000000 0.000000 0.000000 0.000000 0.005008
#
#
# Mechanical properties :
#
#
# Convention : Reuss Voigt Hill
#
# Bulk Modulus (GPa) = 41.24966 47.60477 44.42721
# Shear Modulus (GPa) = 26.91826 60.94225 43.93026
#
# Velocity S-wave (km/s) = 3.75149 5.64469 4.79250
# Velocity P-wave (km/s) = 6.35071 8.20808 7.33840
#
# Compressibility (1/GPa) = 0.02424263
#
# Stress axis : x y z
#
# Youngs Moduli (GPa) = 94.35875 82.07433 35.74179
#
# Poissons Ratio (x) = 0.11375 0.17782
# Poissons Ratio (y) = 0.13078 0.24654
# Poissons Ratio (z) = 0.46943 0.56614
#
# Static dielectric constant tensor:
#      x y z
#    x 3.625800 0.000000 0.000000 
#    y 0.000000 3.730510 0.000000 
#    z 0.000000 0.000000 3.292660 
# 
# 
# High freq. dielectric constant tensor:
#      x y z
#    x 1.749180 0.000000 0.000000 
#    y 0.000000 1.742370 0.000000 
#    z 0.000000 0.000000 1.726370 
# 
# From -- ./inp_files/17530.got.cif
#   From: 2010.03.12/outbox.cif.g09.slc.cpg/sg51_9_cif.got.tgz:17530.got - 2010.04.16 13:43:02.
