data_PCOD8207091
_publ_section_title
;
Structure prediction by ZEFSAII (Michael W. Deem and Ramdas Pophale) SiO2 
 PCOD8207091
Probable space group: P M M A
;
_chemical_formula_sum "Si O2"
_cell_formula_units_Z 52
_cell_length_a 9.778233
_cell_length_b 13.236106
_cell_length_c 24.479413
_cell_angle_alpha 90.000000
_cell_angle_beta 90.000000
_cell_angle_gamma 90.000000
_cell_volume 3168.265860
_symmetry_space_group_name_H-M "P M M A"
_symmetry_group_IT_number 51
_symmetry_cell_setting 'orthorhombic'
loop_
_space_group_symop_operation_xyz
x,y,z
1/2-x,-y,z
1/2+x,-y,-z
-x,y,-z
-x,-y,-z
1/2+x,y,-z
1/2-x,y,z
x,-y,z
loop_
_atom_site_type_symbol
_atom_site_label
_atom_site_fract_x
_atom_site_fract_y
_atom_site_fract_z
Si Si1 0.411318 0.389671 0.333843
Si Si2 0.590404 0.000000 0.553446
Si Si3 0.092060 0.883202 0.949745
Si Si4 0.901344 0.116326 0.264524
Si Si5 0.590024 0.174409 0.636808
Si Si6 0.591137 0.237455 0.157747
Si Si7 0.597765 0.382999 0.788600
O O1 0.250000 0.401574 0.329996
O O2 0.470301 0.500000 0.354298
O O3 0.449295 0.293918 0.373182
O O4 0.464511 0.365150 0.272535
O O5 0.500000 0.000000 0.500000
O O6 0.551750 0.102727 0.585948
O O7 0.750000 0.000000 0.537798
O O8 0.250000 0.865404 0.965011
O O9 0.047997 0.818922 0.897322
O O10 0.063822 0.000000 0.936084
O O11 0.000000 0.845902 0.000000
O O12 0.750000 0.153801 0.283257
O O13 0.947956 0.168378 0.208986
O O14 0.010179 0.135314 0.311261
O O15 0.896148 0.000000 0.250076
O O16 0.750000 0.164032 0.649884
O O17 0.750000 0.266885 0.156781
O O18 0.500585 0.337372 0.165083
O O19 0.750000 0.335258 0.792704
O O20 0.605605 0.500000 0.801471
#
# Coordination Sequence:
#
# PCOD8207091 Si02
#       7
#     8   4   8   8   8   8   8
#     4   8  14  26  46  71  98 127 157 193 240 288
#     4  10  22  36  52  74  98 132 171 206 243 282
#     4   9  18  33  50  67  91 124 162 202 240 286
#     4  10  19  29  43  68 101 132 155 183 237 296
#     4  10  18  31  51  73  97 125 163 204 236 278
#     4  10  19  30  46  69  97 128 159 192 239 295
#     4   9  17  29  46  69  97 128 159 192 236 290
#
# _framework density 16.412762000000001
#
# number of rings (size 3 to 8) (size 9 to 14) (size 15 to 20)
#    0.000    2.615    2.308    1.385    0.000    3.385 
#    0.000    0.000    0.000    4.154    0.000    0.000 
#    0.000    0.000    0.000    0.000    0.000    0.000 
#
# Total GULP energy -644415.254477 kJ/mol
# GULP energy per Si atom -12392.601048 kJ/mol
# Density = 1.637541 g / cm^3
# Si number density = 16.412762 Si / 1000 Ang^3
#
#
#
# Elastic Constant Matrix: (Units=GPa)
#
#
# Indices 1 2 3 4 5 6 
#
# 1 52.9080 36.3005 51.4842 0.0000 0.0000 0.0000
# 2 36.3005 100.5093 57.6510 0.0000 0.0000 0.0000
# 3 51.4842 57.6510 105.0292 0.0000 0.0000 0.0000
# 4 0.0000 0.0000 0.0000 15.9245 0.0000 0.0000
# 5 0.0000 0.0000 0.0000 0.0000 27.9262 0.0000
# 6 0.0000 0.0000 0.0000 0.0000 0.0000 19.5361
#
#
#
# Elastic Compliance Matrix: (Units=1/GPa)
#
#
# Indices 1 2 3 4 5 6 
#
# 1 0.037408 -0.004368 -0.015940 0.000000 0.000000 0.000000
# 2 -0.004368 0.015031 -0.006110 0.000000 0.000000 0.000000
# 3 -0.015940 -0.006110 0.020688 0.000000 0.000000 0.000000
# 4 0.000000 0.000000 0.000000 0.062796 0.000000 0.000000
# 5 0.000000 0.000000 0.000000 0.000000 0.035809 0.000000
# 6 0.000000 0.000000 0.000000 0.000000 0.000000 0.051187
#
#
# Mechanical properties :
#
#
# Convention : Reuss Voigt Hill
#
# Bulk Modulus (GPa) = 49.27682 61.03531 55.15606
# Shear Modulus (GPa) = 17.69796 20.21140 18.95468
#
# Velocity S-wave (km/s) = 3.28732 3.51300 3.40203
# Velocity P-wave (km/s) = 6.67063 7.32962 7.00787
#
# Compressibility (1/GPa) = 0.02029352
#
# Stress axis : x y z
#
# Youngs Moduli (GPa) = 26.73224 66.52797 48.33677
#
# Poissons Ratio (x) = 0.29058 0.77046
# Poissons Ratio (y) = 0.11676 0.29532
# Poissons Ratio (z) = 0.42610 0.40647
#
# Static dielectric constant tensor:
#      x y z
#    x 3.068250 0.000000 0.000000 
#    y 0.000000 3.410290 0.000000 
#    z 0.000000 0.000000 2.911160 
# 
# 
# High freq. dielectric constant tensor:
#      x y z
#    x 1.620860 0.000000 0.000000 
#    y 0.000000 1.639370 0.000000 
#    z 0.000000 0.000000 1.599770 
# 
# From -- ./inp_files/31724.got.cif
#   From: 2010.03.12/outbox.cif.g09.slc.cpg/sg51_16_cif.got.tgz:31724.got - 2010.04.16 13:43:02.
