data_PCOD8207259
_publ_section_title
;
Structure prediction by ZEFSAII (Michael W. Deem and Ramdas Pophale) SiO2 
 PCOD8207259
Probable space group: P M M A
;
_chemical_formula_sum "Si O2"
_cell_formula_units_Z 64
_cell_length_a 19.972577
_cell_length_b 8.984687
_cell_length_c 19.958537
_cell_angle_alpha 90.000000
_cell_angle_beta 90.000000
_cell_angle_gamma 90.000000
_cell_volume 3581.506633
_symmetry_space_group_name_H-M "P M M A"
_symmetry_group_IT_number 51
_symmetry_cell_setting 'orthorhombic'
loop_
_space_group_symop_operation_xyz
x,y,z
1/2-x,-y,z
1/2+x,-y,-z
-x,y,-z
-x,-y,-z
1/2+x,y,-z
1/2-x,y,z
x,-y,z
loop_
_atom_site_type_symbol
_atom_site_label
_atom_site_fract_x
_atom_site_fract_y
_atom_site_fract_z
Si Si1 0.174648 0.175768 0.088413
Si Si2 0.926846 0.824877 0.527860
Si Si3 0.940222 0.675786 0.162107
Si Si4 0.413769 0.175702 0.704575
Si Si5 0.452033 0.326817 0.339437
Si Si6 0.426759 0.824497 0.974644
Si Si7 0.590565 0.329682 0.805431
Si Si8 0.824287 0.175975 0.416730
O O1 0.250000 0.234443 0.076512
O O2 0.147850 0.233901 0.159408
O O3 0.172788 0.000000 0.091611
O O4 0.127640 0.232877 0.028194
O O5 0.912974 0.736271 0.596468
O O6 0.872462 0.762954 0.475185
O O7 0.000000 0.786068 0.500000
O O8 0.919450 0.000000 0.541407
O O9 0.930817 0.500000 0.164566
O O10 0.900102 0.746608 0.224237
O O11 0.909868 0.740932 0.094081
O O12 0.017891 0.722397 0.168227
O O13 0.480351 0.234287 0.668995
O O14 0.352203 0.218547 0.656415
O O15 0.420887 0.000000 0.714902
O O16 0.470383 0.500000 0.348152
O O17 0.404868 0.304833 0.274423
O O18 0.422111 0.000000 0.962279
O O19 0.500000 0.777491 0.000000
O O20 0.602680 0.500000 0.824886
O O21 0.750000 0.244825 0.424648
O O22 0.821972 0.000000 0.423517
#
# Coordination Sequence:
#
# PCOD8207259 Si02
#       8
#     8   8   8   8   8   8   8   8
#     4  10  21  36  54  78 107 136 173 221 266 310
#     4  10  18  32  53  80 106 136 178 220 260 310
#     4  10  20  33  52  80 109 135 171 218 264 308
#     4  10  18  32  54  78 104 136 175 218 264 312
#     4  10  20  33  51  79 109 136 171 217 267 310
#     4  10  19  33  54  80 105 137 177 217 260 309
#     4   9  19  34  51  74 104 137 172 211 258 316
#     4   9  18  33  53  77 106 138 175 219 266 315
#
# _framework density 17.869574
#
# number of rings (size 3 to 8) (size 9 to 14) (size 15 to 20)
#    0.000    2.250    2.500    1.875    0.000    3.750 
#    0.000    1.250    0.000    9.375    0.000    0.000 
#    0.000    0.000    0.000    0.000    0.000    0.000 
#
# Total GULP energy -793674.367755 kJ/mol
# GULP energy per Si atom -12401.161996 kJ/mol
# Density = 1.782890 g / cm^3
# Si number density = 17.869574 Si / 1000 Ang^3
#
#
#
# Elastic Constant Matrix: (Units=GPa)
#
#
# Indices 1 2 3 4 5 6 
#
# 1 118.2724 29.4466 69.3013 0.0000 0.0000 0.0000
# 2 29.4466 47.8561 46.4844 0.0000 0.0000 0.0000
# 3 69.3013 46.4844 152.0901 0.0000 0.0000 0.0000
# 4 0.0000 0.0000 0.0000 26.3886 0.0000 0.0000
# 5 0.0000 0.0000 0.0000 0.0000 25.0865 0.0000
# 6 0.0000 0.0000 0.0000 0.0000 0.0000 11.3362
#
#
#
# Elastic Compliance Matrix: (Units=1/GPa)
#
#
# Indices 1 2 3 4 5 6 
#
# 1 0.011811 -0.002901 -0.004495 0.000000 0.000000 0.000000
# 2 -0.002901 0.030432 -0.007979 0.000000 0.000000 0.000000
# 3 -0.004495 -0.007979 0.011062 0.000000 0.000000 0.000000
# 4 0.000000 0.000000 0.000000 0.037895 0.000000 0.000000
# 5 0.000000 0.000000 0.000000 0.000000 0.039862 0.000000
# 6 0.000000 0.000000 0.000000 0.000000 0.000000 0.088213
#
#
# Mechanical properties :
#
#
# Convention : Reuss Voigt Hill
#
# Bulk Modulus (GPa) = 44.33837 67.63147 55.98492
# Shear Modulus (GPa) = 19.41413 24.09468 21.75440
#
# Velocity S-wave (km/s) = 3.29969 3.67599 3.49291
# Velocity P-wave (km/s) = 6.27561 7.47975 6.90398
#
# Compressibility (1/GPa) = 0.02255383
#
# Stress axis : x y z
#
# Youngs Moduli (GPa) = 84.66423 32.86062 90.39947
#
# Poissons Ratio (x) = 0.09534 0.40636
# Poissons Ratio (y) = 0.24564 0.72130
# Poissons Ratio (z) = 0.38058 0.26219
#
# Static dielectric constant tensor:
#      x y z
#    x 3.283710 0.000000 0.000000 
#    y 0.000000 3.137960 0.000000 
#    z 0.000000 0.000000 3.469040 
# 
# 
# High freq. dielectric constant tensor:
#      x y z
#    x 1.663500 0.000000 0.000000 
#    y 0.000000 1.681120 0.000000 
#    z 0.000000 0.000000 1.705620 
# 
# From -- ./inp_files/34124.got.cif
#   From: 2010.03.12/outbox.cif.g09.slc.cpg/sg51_18_cif.got.tgz:34124.got - 2010.04.16 13:43:02.
