data_PCOD8207495
_publ_section_title
;
Structure prediction by ZEFSAII (Michael W. Deem and Ramdas Pophale) SiO2 
 PCOD8207495
Probable space group: P M M A
;
_chemical_formula_sum "Si O2"
_cell_formula_units_Z 64
_cell_length_a 8.812767
_cell_length_b 15.369051
_cell_length_c 23.746858
_cell_angle_alpha 90.000000
_cell_angle_beta 90.000000
_cell_angle_gamma 90.000000
_cell_volume 3216.366240
_symmetry_space_group_name_H-M "P M M A"
_symmetry_group_IT_number 51
_symmetry_cell_setting 'orthorhombic'
loop_
_space_group_symop_operation_xyz
x,y,z
1/2-x,-y,z
1/2+x,-y,-z
-x,y,-z
-x,-y,-z
1/2+x,y,-z
1/2-x,y,z
x,-y,z
loop_
_atom_site_type_symbol
_atom_site_label
_atom_site_fract_x
_atom_site_fract_y
_atom_site_fract_z
Si Si1 0.076350 0.901749 0.366581
Si Si2 0.429170 0.657095 0.753841
Si Si3 0.570891 0.245118 0.439049
Si Si4 0.430351 0.596049 0.635036
Si Si5 0.427730 0.401131 0.873932
Si Si6 0.428097 0.753627 0.059925
Si Si7 0.923604 0.097222 0.129420
Si Si8 0.925275 0.144373 0.254181
O O1 0.250000 0.870988 0.371760
O O2 0.971282 0.839629 0.403523
O O3 0.026796 0.900006 0.301630
O O4 0.057383 0.000000 0.389202
O O5 0.250000 0.646465 0.753370
O O6 0.496934 0.612026 0.697800
O O7 0.492187 0.612158 0.810539
O O8 0.478769 0.756895 0.754030
O O9 0.500000 0.239150 0.500000
O O10 0.750000 0.249243 0.445086
O O11 0.506470 0.331428 0.407892
O O12 0.250000 0.603643 0.637403
O O13 0.481565 0.500000 0.614546
O O14 0.250000 0.378494 0.875849
O O15 0.459321 0.500000 0.892855
O O16 0.512099 0.337829 0.916725
O O17 0.250000 0.746597 0.053011
O O18 0.466437 0.833723 0.100729
O O19 0.500000 0.773969 0.000000
O O20 0.750000 0.125632 0.117518
O O21 0.953033 0.094281 0.196122
O O22 0.955240 0.000000 0.105885
O O23 0.750000 0.139769 0.273166
#
# Coordination Sequence:
#
# PCOD8207495 Si02
#       8
#     8   8   8   8   8   8   8   8
#     4  11  24  40  59  86 120 156 195 242 294 349
#     4   9  15  29  57  91 122 151 188 233 285 345
#     4  11  23  40  61  85 113 153 198 246 297 349
#     4   9  17  31  55  88 120 151 190 233 280 338
#     4  10  20  37  64  94 123 156 196 245 299 356
#     4  12  26  43  63  85 117 159 203 254 302 356
#     4  10  21  39  64  92 123 158 198 245 296 356
#     4  10  18  34  62  92 122 157 195 235 286 349
#
# _framework density 19.898230999999999
#
# number of rings (size 3 to 8) (size 9 to 14) (size 15 to 20)
#    0.000    1.750    2.500    2.625    0.000    5.000 
#    0.000    0.000    0.000    1.125    0.000    0.000 
#    0.000    0.000    0.000    0.000    0.000    0.000 
#
# Total GULP energy -793682.575218 kJ/mol
# GULP energy per Si atom -12401.290238 kJ/mol
# Density = 1.985294 g / cm^3
# Si number density = 19.898231 Si / 1000 Ang^3
#
#
#
# Elastic Constant Matrix: (Units=GPa)
#
#
# Indices 1 2 3 4 5 6 
#
# 1 67.9717 36.2350 30.7422 0.0000 0.0000 0.0000
# 2 36.2350 123.0750 38.9688 0.0000 0.0000 0.0000
# 3 30.7422 38.9688 94.2306 0.0000 0.0000 0.0000
# 4 0.0000 0.0000 0.0000 8.2024 0.0000 0.0000
# 5 0.0000 0.0000 0.0000 0.0000 26.8008 0.0000
# 6 0.0000 0.0000 0.0000 0.0000 0.0000 22.0403
#
#
#
# Elastic Compliance Matrix: (Units=1/GPa)
#
#
# Indices 1 2 3 4 5 6 
#
# 1 0.018950 -0.004167 -0.004459 0.000000 0.000000 0.000000
# 2 -0.004167 0.010266 -0.002886 0.000000 0.000000 0.000000
# 3 -0.004459 -0.002886 0.013260 0.000000 0.000000 0.000000
# 4 0.000000 0.000000 0.000000 0.121916 0.000000 0.000000
# 5 0.000000 0.000000 0.000000 0.000000 0.037312 0.000000
# 6 0.000000 0.000000 0.000000 0.000000 0.000000 0.045371
#
#
# Mechanical properties :
#
#
# Convention : Reuss Voigt Hill
#
# Bulk Modulus (GPa) = 51.40837 55.24104 53.32470
# Shear Modulus (GPa) = 18.07767 23.36412 20.72089
#
# Velocity S-wave (km/s) = 3.01741 3.43035 3.23049
# Velocity P-wave (km/s) = 6.16696 6.59635 6.38527
#
# Compressibility (1/GPa) = 0.01945209
#
# Stress axis : x y z
#
# Youngs Moduli (GPa) = 52.76957 97.41096 75.41246
#
# Poissons Ratio (x) = 0.40595 0.33627
# Poissons Ratio (y) = 0.21991 0.21763
# Poissons Ratio (z) = 0.23530 0.28111
#
# Static dielectric constant tensor:
#      x y z
#    x 3.300880 0.000000 0.000000 
#    y 0.000000 3.762650 0.000000 
#    z 0.000000 0.000000 3.677660 
# 
# 
# High freq. dielectric constant tensor:
#      x y z
#    x 1.741620 0.000000 0.000000 
#    y 0.000000 1.791890 0.000000 
#    z 0.000000 0.000000 1.776550 
# 
# From -- ./inp_files/34927.got.cif
#   From: 2010.03.12/outbox.cif.g09.slc.cpg/sg51_18_cif.got.tgz:34927.got - 2010.04.16 13:43:02.
