data_PCOD8207633
_publ_section_title
;
Structure prediction by ZEFSAII (Michael W. Deem and Ramdas Pophale) SiO2 
 PCOD8207633
Probable space group: P M M A
;
_chemical_formula_sum "Si O2"
_cell_formula_units_Z 64
_cell_length_a 9.223575
_cell_length_b 22.449866
_cell_length_c 20.028217
_cell_angle_alpha 90.000000
_cell_angle_beta 90.000000
_cell_angle_gamma 90.000000
_cell_volume 4147.203294
_symmetry_space_group_name_H-M "P M M A"
_symmetry_group_IT_number 51
_symmetry_cell_setting 'orthorhombic'
loop_
_space_group_symop_operation_xyz
x,y,z
1/2-x,-y,z
1/2+x,-y,-z
-x,y,-z
-x,-y,-z
1/2+x,y,-z
1/2-x,y,z
x,-y,z
loop_
_atom_site_type_symbol
_atom_site_label
_atom_site_fract_x
_atom_site_fract_y
_atom_site_fract_z
Si Si1 0.910120 0.739059 0.642932
Si Si2 0.419426 0.930831 0.805548
Si Si3 0.580213 0.836587 0.737611
Si Si4 0.415939 0.855491 0.932995
Si Si5 0.413481 0.341873 0.226263
Si Si6 0.918968 0.648705 0.433422
Si Si7 0.418280 0.753072 0.840071
Si Si8 0.081480 0.568474 0.692266
O O1 0.750000 0.732327 0.610965
O O2 0.939836 0.808283 0.663031
O O3 0.917618 0.702337 0.711380
O O4 0.025972 0.714013 0.590160
O O5 0.250000 0.918890 0.791802
O O6 0.514378 0.903151 0.744178
O O7 0.469305 0.900229 0.874853
O O8 0.456244 0.000000 0.809676
O O9 0.750000 0.834841 0.757759
O O10 0.482870 0.798124 0.786830
O O11 0.250000 0.868786 0.948537
O O12 0.437637 0.785975 0.911474
O O13 0.500000 0.869757 0.000000
O O14 0.250000 0.356299 0.203704
O O15 0.496905 0.310041 0.164344
O O16 0.492368 0.403126 0.246573
O O17 0.750000 0.653029 0.448155
O O18 0.957457 0.599901 0.377612
O O19 0.000000 0.628029 0.500000
O O20 0.250000 0.741575 0.823593
O O21 0.250000 0.576598 0.708688
O O22 0.036259 0.500000 0.685605
#
# Coordination Sequence:
#
# PCOD8207633 Si02
#       8
#     8   8   8   8   8   8   8   8
#     4   8  15  27  41  58  80 102 128 167 212 253
#     4   9  18  31  43  57  82 115 147 176 207 247
#     4   9  16  26  42  63  82 101 131 173 216 252
#     4   9  18  29  41  58  81 111 145 178 210 244
#     4   9  16  26  42  63  82 102 132 172 215 251
#     4  10  19  29  42  59  81 111 145 177 207 242
#     4   9  16  27  42  59  80 106 134 167 211 258
#     4   9  18  31  44  59  82 114 148 176 205 246
#
# _framework density 15.432086999999999
#
# number of rings (size 3 to 8) (size 9 to 14) (size 15 to 20)
#    0.000    3.000    0.000    3.000    0.000    7.500 
#    0.000    0.000    0.000    0.000    0.000    0.000 
#    0.000    1.000    0.000    3.250    0.000    4.625 
#
# Total GULP energy -793120.766112 kJ/mol
# GULP energy per Si atom -12392.511971 kJ/mol
# Density = 1.539696 g / cm^3
# Si number density = 15.432087 Si / 1000 Ang^3
#
#
#
# Elastic Constant Matrix: (Units=GPa)
#
#
# Indices 1 2 3 4 5 6 
#
# 1 81.2490 52.9247 23.0269 0.0000 0.0000 0.0000
# 2 52.9247 103.9994 44.5419 0.0000 0.0000 0.0000
# 3 23.0269 44.5419 21.3135 0.0000 0.0000 0.0000
# 4 0.0000 0.0000 0.0000 15.7606 0.0000 0.0000
# 5 0.0000 0.0000 0.0000 0.0000 23.5912 0.0000
# 6 0.0000 0.0000 0.0000 0.0000 0.0000 22.6568
#
#
#
# Elastic Compliance Matrix: (Units=1/GPa)
#
#
# Indices 1 2 3 4 5 6 
#
# 1 0.018430 -0.008109 -0.002965 0.000000 0.000000 0.000000
# 2 -0.008109 0.095192 -0.190176 0.000000 0.000000 0.000000
# 3 -0.002965 -0.190176 0.447558 0.000000 0.000000 0.000000
# 4 0.000000 0.000000 0.000000 0.063449 0.000000 0.000000
# 5 0.000000 0.000000 0.000000 0.000000 0.042389 0.000000
# 6 0.000000 0.000000 0.000000 0.000000 0.000000 0.044137
#
#
# Mechanical properties :
#
#
# Convention : Reuss Voigt Hill
#
# Bulk Modulus (GPa) = 6.30193 49.72764 28.01479
# Shear Modulus (GPa) = 4.28615 18.13964 11.21289
#
# Velocity S-wave (km/s) = 1.66837 3.43220 2.69847
# Velocity P-wave (km/s) = 2.79353 6.92822 5.28223
#
# Compressibility (1/GPa) = 0.15868149
#
# Stress axis : x y z
#
# Youngs Moduli (GPa) = 54.25804 10.50504 2.23435
#
# Poissons Ratio (x) = 0.08519 0.00662
# Poissons Ratio (y) = 0.44000 0.42492
# Poissons Ratio (z) = 0.16087 1.99780
#
# Static dielectric constant tensor:
#      x y z
#    x 3.103190 0.000000 0.000000 
#    y 0.000000 3.134240 0.000000 
#    z 0.000000 0.000000 2.752590 
# 
# 
# High freq. dielectric constant tensor:
#      x y z
#    x 1.605240 0.000000 0.000000 
#    y 0.000000 1.576870 0.000000 
#    z 0.000000 0.000000 1.547030 
# 
# From -- ./inp_files/32688.got.cif
#   From: 2010.03.12/outbox.cif.g09.slc.cpg/sg51_17_cif.got.tgz:32688.got - 2010.04.16 13:43:02.
