data_PCOD8207881
_publ_section_title
;
Structure prediction by ZEFSAII (Michael W. Deem and Ramdas Pophale) SiO2 
 PCOD8207881
Probable space group: P M M A
;
_chemical_formula_sum "Si O2"
_cell_formula_units_Z 64
_cell_length_a 8.793134
_cell_length_b 30.956698
_cell_length_c 14.342712
_cell_angle_alpha 90.000000
_cell_angle_beta 90.000000
_cell_angle_gamma 90.000000
_cell_volume 3904.177910
_symmetry_space_group_name_H-M "P M M A"
_symmetry_group_IT_number 51
_symmetry_cell_setting 'orthorhombic'
loop_
_space_group_symop_operation_xyz
x,y,z
1/2-x,-y,z
1/2+x,-y,-z
-x,y,-z
-x,-y,-z
1/2+x,y,-z
1/2-x,y,z
x,-y,z
loop_
_atom_site_type_symbol
_atom_site_label
_atom_site_fract_x
_atom_site_fract_y
_atom_site_fract_z
Si Si1 0.927455 0.545544 0.099982
Si Si2 0.426721 0.050335 0.902734
Si Si3 0.928885 0.153800 0.403375
Si Si4 0.569611 0.360523 0.102638
Si Si5 0.070887 0.253424 0.596978
Si Si6 0.569877 0.879787 0.779283
Si Si7 0.930385 0.715592 0.781627
Si Si8 0.070490 0.798135 0.101351
O O1 0.750000 0.546086 0.083389
O O2 0.973143 0.500000 0.153627
O O3 0.971567 0.591684 0.145940
O O4 0.000000 0.544133 0.000000
O O5 0.250000 0.062355 0.905679
O O6 0.509294 0.075378 0.819929
O O7 0.454205 0.000000 0.884159
O O8 0.500000 0.064987 0.000000
O O9 0.750000 0.146872 0.406662
O O10 0.973150 0.203580 0.385519
O O11 0.000000 0.137546 0.500000
O O12 0.000221 0.124839 0.322793
O O13 0.750000 0.352399 0.097140
O O14 0.492662 0.327576 0.172547
O O15 0.500000 0.354450 0.000000
O O16 0.250000 0.260526 0.594036
O O17 0.000000 0.269639 0.500000
O O18 0.998703 0.281832 0.678513
O O19 0.750000 0.880693 0.771465
O O20 0.513226 0.840576 0.844558
O O21 0.750000 0.714103 0.775111
O O22 0.986687 0.756381 0.842160
O O23 0.250000 0.798032 0.091008
O O24 0.000000 0.797327 0.000000
#
# Coordination Sequence:
#
# PCOD8207881 Si02
#       8
#     8   8   8   8   8   8   8   8
#     4   8  14  25  41  60  84 116 156 203 248 289
#     4  10  21  37  56  79 106 135 168 205 247 294
#     4  10  20  34  54  78 103 131 163 203 247 292
#     4  10  19  30  44  65  93 128 169 205 245 295
#     4  10  20  34  53  74  96 126 162 204 247 290
#     4  11  21  35  54  77 103 132 168 206 245 291
#     4  11  21  34  48  66  96 132 167 202 242 289
#     4  10  22  34  46  66  95 130 165 201 236 278
#
# _framework density 16.392696000000001
#
# number of rings (size 3 to 8) (size 9 to 14) (size 15 to 20)
#    0.000    2.000    1.250    3.000    0.000    6.250 
#    0.000    0.000    0.000    0.375    0.000    0.000 
#    0.000    0.500    0.000    1.375    0.000    2.250 
#
# Total GULP energy -793432.763732 kJ/mol
# GULP energy per Si atom -12397.386933 kJ/mol
# Density = 1.635539 g / cm^3
# Si number density = 16.392696 Si / 1000 Ang^3
#
#
#
# Elastic Constant Matrix: (Units=GPa)
#
#
# Indices 1 2 3 4 5 6 
#
# 1 67.1212 37.5469 45.8737 0.0000 0.0000 0.0000
# 2 37.5469 94.7121 58.9573 0.0000 0.0000 0.0000
# 3 45.8737 58.9573 127.8523 0.0000 0.0000 0.0000
# 4 0.0000 0.0000 0.0000 13.1578 0.0000 0.0000
# 5 0.0000 0.0000 0.0000 0.0000 31.8854 0.0000
# 6 0.0000 0.0000 0.0000 0.0000 0.0000 19.4770
#
#
#
# Elastic Compliance Matrix: (Units=1/GPa)
#
#
# Indices 1 2 3 4 5 6 
#
# 1 0.021422 -0.005200 -0.005288 0.000000 0.000000 0.000000
# 2 -0.005200 0.016072 -0.005545 0.000000 0.000000 0.000000
# 3 -0.005288 -0.005545 0.012276 0.000000 0.000000 0.000000
# 4 0.000000 0.000000 0.000000 0.076000 0.000000 0.000000
# 5 0.000000 0.000000 0.000000 0.000000 0.031362 0.000000
# 6 0.000000 0.000000 0.000000 0.000000 0.000000 0.051343
#
#
# Mechanical properties :
#
#
# Convention : Reuss Voigt Hill
#
# Bulk Modulus (GPa) = 56.49139 63.82682 60.15910
# Shear Modulus (GPa) = 20.28867 22.72456 21.50661
#
# Velocity S-wave (km/s) = 3.52186 3.72729 3.62603
# Velocity P-wave (km/s) = 7.14662 7.58579 7.36948
#
# Compressibility (1/GPa) = 0.01770181
#
# Stress axis : x y z
#
# Youngs Moduli (GPa) = 46.68198 62.22040 81.45952
#
# Poissons Ratio (x) = 0.32358 0.43076
# Poissons Ratio (y) = 0.24277 0.45172
# Poissons Ratio (z) = 0.24685 0.34504
#
# Static dielectric constant tensor:
#      x y z
#    x 3.203660 0.000000 0.000000 
#    y 0.000000 3.400070 0.000000 
#    z 0.000000 0.000000 2.947790 
# 
# 
# High freq. dielectric constant tensor:
#      x y z
#    x 1.646300 0.000000 0.000000 
#    y 0.000000 1.626210 0.000000 
#    z 0.000000 0.000000 1.610190 
# 
# From -- ./inp_files/14817.got.cif
#   From: 2010.03.12/outbox.cif.g09.slc.cpg/sg51_8_cif.got.tgz:14817.got - 2010.04.16 13:43:02.
