data_PCOD8207154
_publ_section_title
;
Structure prediction by ZEFSAII (Michael W. Deem and Ramdas Pophale) SiO2 
 PCOD8207154
Probable space group: P M M A
;
_chemical_formula_sum "Si O2"
_cell_formula_units_Z 40
_cell_length_a 8.790415
_cell_length_b 15.602473
_cell_length_c 14.523024
_cell_angle_alpha 90.000000
_cell_angle_beta 90.000000
_cell_angle_gamma 90.000000
_cell_volume 1991.864877
_symmetry_space_group_name_H-M "P M M A"
_symmetry_group_IT_number 51
_symmetry_cell_setting 'orthorhombic'
loop_
_space_group_symop_operation_xyz
x,y,z
1/2-x,-y,z
1/2+x,-y,-z
-x,y,-z
-x,-y,-z
1/2+x,y,-z
1/2-x,y,z
x,-y,z
loop_
_atom_site_type_symbol
_atom_site_label
_atom_site_fract_x
_atom_site_fract_y
_atom_site_fract_z
Si Si1 0.926761 0.156300 0.090102
Si Si2 0.424258 0.903803 0.711053
Si Si3 0.069452 0.405913 0.286841
Si Si4 0.929995 0.658981 0.907187
Si Si5 0.070825 0.754715 0.400584
O O1 0.750000 0.174490 0.071692
O O2 0.952223 0.097721 0.179281
O O3 0.012749 0.244984 0.106564
O O4 0.000000 0.110477 0.000000
O O5 0.250000 0.879227 0.688656
O O6 0.533176 0.837923 0.659611
O O7 0.461113 0.000000 0.676794
O O8 0.250000 0.399864 0.289367
O O9 0.013926 0.500000 0.321059
O O10 0.014108 0.394002 0.181714
O O11 0.002737 0.331124 0.352317
O O12 0.750000 0.658404 0.915984
O O13 0.000000 0.617548 0.000000
O O14 0.250000 0.748003 0.410654
O O15 0.000000 0.765043 0.500000
#
# Coordination Sequence:
#
# PCOD8207154 Si02
#       5
#     8   8   8   8   8
#     4  10  19  32  54  82 116 153 191 232 277 330
#     4  10  22  40  61  86 117 152 191 236 285 337
#     4   9  19  36  58  84 116 152 189 231 282 339
#     4  10  18  31  53  81 114 153 193 230 275 329
#     4  11  23  41  64  87 113 147 188 236 292 346
#
# _framework density 20.081683999999999
#
# number of rings (size 3 to 8) (size 9 to 14) (size 15 to 20)
#    0.000    2.000    2.000    3.000    0.000    2.800 
#    0.000    0.000    0.000    8.400    0.000    0.000 
#    0.000    0.000    0.000    0.000    0.000    0.000 
#
# Total GULP energy -495908.496277 kJ/mol
# GULP energy per Si atom -12397.712407 kJ/mol
# Density = 2.003598 g / cm^3
# Si number density = 20.081684 Si / 1000 Ang^3
#
#
#
# Elastic Constant Matrix: (Units=GPa)
#
#
# Indices 1 2 3 4 5 6 
#
# 1 69.6478 23.3660 36.8523 0.0000 0.0000 0.0000
# 2 23.3660 110.6094 49.4742 0.0000 0.0000 0.0000
# 3 36.8523 49.4742 118.8276 0.0000 0.0000 0.0000
# 4 0.0000 0.0000 0.0000 10.8956 0.0000 0.0000
# 5 0.0000 0.0000 0.0000 0.0000 29.8598 0.0000
# 6 0.0000 0.0000 0.0000 0.0000 0.0000 20.4192
#
#
#
# Elastic Compliance Matrix: (Units=1/GPa)
#
#
# Indices 1 2 3 4 5 6 
#
# 1 0.017390 -0.001550 -0.004748 0.000000 0.000000 0.000000
# 2 -0.001550 0.011248 -0.004202 0.000000 0.000000 0.000000
# 3 -0.004748 -0.004202 0.011638 0.000000 0.000000 0.000000
# 4 0.000000 0.000000 0.000000 0.091780 0.000000 0.000000
# 5 0.000000 0.000000 0.000000 0.000000 0.033490 0.000000
# 6 0.000000 0.000000 0.000000 0.000000 0.000000 0.048973
#
#
# Mechanical properties :
#
#
# Convention : Reuss Voigt Hill
#
# Bulk Modulus (GPa) = 51.88003 57.60777 54.74390
# Shear Modulus (GPa) = 20.66588 24.86109 22.76349
#
# Velocity S-wave (km/s) = 3.21143 3.52234 3.37047
# Velocity P-wave (km/s) = 6.29616 6.72989 6.51664
#
# Compressibility (1/GPa) = 0.01927524
#
# Stress axis : x y z
#
# Youngs Moduli (GPa) = 57.50371 88.90518 85.92734
#
# Poissons Ratio (x) = 0.13780 0.40798
# Poissons Ratio (y) = 0.08913 0.36110
# Poissons Ratio (z) = 0.27302 0.37362
#
# Static dielectric constant tensor:
#      x y z
#    x 3.491070 0.000000 0.000000 
#    y 0.000000 3.642320 0.000000 
#    z 0.000000 0.000000 3.832750 
# 
# 
# High freq. dielectric constant tensor:
#      x y z
#    x 1.768230 0.000000 0.000000 
#    y 0.000000 1.778880 0.000000 
#    z 0.000000 0.000000 1.789670 
# 
# From -- ./inp_files/20468.got.cif
#   From: 2010.03.12/outbox.cif.g09.slc.cpg/sg51_11_cif.got.tgz:20468.got - 2010.04.16 13:43:02.
