data_PCOD8207643
_publ_section_title
;
Structure prediction by ZEFSAII (Michael W. Deem and Ramdas Pophale) SiO2 
 PCOD8207643
Probable space group: P M M A
;
_chemical_formula_sum "Si O2"
_cell_formula_units_Z 44
_cell_length_a 9.075817
_cell_length_b 12.329601
_cell_length_c 24.994225
_cell_angle_alpha 90.000000
_cell_angle_beta 90.000000
_cell_angle_gamma 90.000000
_cell_volume 2796.883830
_symmetry_space_group_name_H-M "P M M A"
_symmetry_group_IT_number 51
_symmetry_cell_setting 'orthorhombic'
loop_
_space_group_symop_operation_xyz
x,y,z
1/2-x,-y,z
1/2+x,-y,-z
-x,y,-z
-x,-y,-z
1/2+x,y,-z
1/2-x,y,z
x,-y,z
loop_
_atom_site_type_symbol
_atom_site_label
_atom_site_fract_x
_atom_site_fract_y
_atom_site_fract_z
Si Si1 0.924532 0.706511 0.626021
Si Si2 0.585203 0.370865 0.832908
Si Si3 0.920528 0.127076 0.445638
Si Si4 0.077685 0.376070 0.050616
Si Si5 0.077259 0.500000 0.443348
Si Si6 0.080029 0.372210 0.728947
O O1 0.750000 0.722166 0.627079
O O2 0.972922 0.605153 0.589615
O O3 0.001591 0.813893 0.603621
O O4 0.981795 0.689513 0.685780
O O5 0.750000 0.329797 0.818693
O O6 0.587545 0.500000 0.836751
O O7 0.535744 0.324299 0.891316
O O8 0.472291 0.331498 0.787361
O O9 0.750000 0.160896 0.449656
O O10 0.000000 0.164108 0.500000
O O11 0.939659 0.000000 0.435679
O O12 0.250000 0.367267 0.041531
O O13 0.023409 0.500000 0.051497
O O14 0.000000 0.316118 0.000000
O O15 0.250000 0.500000 0.453288
O O16 0.000000 0.500000 0.500000
O O17 0.250000 0.341216 0.721276
O O18 0.053244 0.500000 0.722682
#
# Coordination Sequence:
#
# PCOD8207643 Si02
#       6
#     8   8   8   8   4   8
#     4  11  21  34  50  68  91 119 149 179 218 264
#     4   8  14  24  36  49  70 102 137 174 215 258
#     4  10  21  37  55  74  94 115 143 179 218 261
#     4   8  13  20  30  45  65  92 128 171 216 254
#     4  10  22  34  46  66  90 116 141 172 213 256
#     4  10  19  29  42  61  84 112 145 181 219 260
#
# _framework density 15.731794000000001
#
# number of rings (size 3 to 8) (size 9 to 14) (size 15 to 20)
#    0.000    2.545    0.909    3.273    0.000    5.455 
#    0.000    3.636    0.000    0.000    0.000    0.000 
#    0.000    0.000    0.000    0.000    0.000    0.909 
#
# Total GULP energy -545449.931727 kJ/mol
# GULP energy per Si atom -12396.589357 kJ/mol
# Density = 1.569599 g / cm^3
# Si number density = 15.731794 Si / 1000 Ang^3
#
#
#
# Elastic Constant Matrix: (Units=GPa)
#
#
# Indices 1 2 3 4 5 6 
#
# 1 85.2361 26.1024 59.8949 0.0000 0.0000 0.0000
# 2 26.1024 27.9887 27.6486 0.0000 0.0000 0.0000
# 3 59.8949 27.6486 140.1598 0.0000 0.0000 0.0000
# 4 0.0000 0.0000 0.0000 8.6171 0.0000 0.0000
# 5 0.0000 0.0000 0.0000 0.0000 34.9877 0.0000
# 6 0.0000 0.0000 0.0000 0.0000 0.0000 16.4577
#
#
#
# Elastic Compliance Matrix: (Units=1/GPa)
#
#
# Indices 1 2 3 4 5 6 
#
# 1 0.019770 -0.012534 -0.005976 0.000000 0.000000 0.000000
# 2 -0.012534 0.052323 -0.004965 0.000000 0.000000 0.000000
# 3 -0.005976 -0.004965 0.010668 0.000000 0.000000 0.000000
# 4 0.000000 0.000000 0.000000 0.116049 0.000000 0.000000
# 5 0.000000 0.000000 0.000000 0.000000 0.028581 0.000000
# 6 0.000000 0.000000 0.000000 0.000000 0.000000 0.060762
#
#
# Mechanical properties :
#
#
# Convention : Reuss Voigt Hill
#
# Bulk Modulus (GPa) = 27.92490 53.40850 40.66670
# Shear Modulus (GPa) = 14.40758 21.32840 17.86799
#
# Velocity S-wave (km/s) = 3.02954 3.68605 3.37380
# Velocity P-wave (km/s) = 5.47966 7.22074 6.40959
#
# Compressibility (1/GPa) = 0.03581033
#
# Stress axis : x y z
#
# Youngs Moduli (GPa) = 50.58265 19.11198 93.74027
#
# Poissons Ratio (x) = 0.23955 0.56016
# Poissons Ratio (y) = 0.63402 0.46544
# Poissons Ratio (z) = 0.30226 0.09490
#
# Static dielectric constant tensor:
#      x y z
#    x 3.056140 0.000000 0.000000 
#    y 0.000000 2.524630 0.000000 
#    z 0.000000 0.000000 3.309230 
# 
# 
# High freq. dielectric constant tensor:
#      x y z
#    x 1.614110 0.000000 0.000000 
#    y 0.000000 1.532670 0.000000 
#    z 0.000000 0.000000 1.619600 
# 
# From -- ./inp_files/34475.got.cif
#   From: 2010.03.12/outbox.cif.g09.slc.cpg/sg51_18_cif.got.tgz:34475.got - 2010.04.16 13:43:02.
