data_PCOD8207647
_publ_section_title
;
Structure prediction by ZEFSAII (Michael W. Deem and Ramdas Pophale) SiO2 
 PCOD8207647
Probable space group: P M M A
;
_chemical_formula_sum "Si O2"
_cell_formula_units_Z 64
_cell_length_a 9.352184
_cell_length_b 14.271101
_cell_length_c 31.089185
_cell_angle_alpha 90.000000
_cell_angle_beta 90.000000
_cell_angle_gamma 90.000000
_cell_volume 4149.347997
_symmetry_space_group_name_H-M "P M M A"
_symmetry_group_IT_number 51
_symmetry_cell_setting 'orthorhombic'
loop_
_space_group_symop_operation_xyz
x,y,z
1/2-x,-y,z
1/2+x,-y,-z
-x,y,-z
-x,-y,-z
1/2+x,y,-z
1/2-x,y,z
x,-y,z
loop_
_atom_site_type_symbol
_atom_site_label
_atom_site_fract_x
_atom_site_fract_y
_atom_site_fract_z
Si Si1 0.584236 0.608780 0.376395
Si Si2 0.088208 0.611468 0.459491
Si Si3 0.583823 0.103582 0.835096
Si Si4 0.582272 0.707500 0.873494
Si Si5 0.416065 0.295610 0.711096
Si Si6 0.583863 0.390869 0.957966
Si Si7 0.916338 0.390391 0.787745
Si Si8 0.414594 0.103817 0.749294
O O1 0.750000 0.625144 0.387952
O O2 0.554999 0.500000 0.366070
O O3 0.489792 0.644863 0.416128
O O4 0.534575 0.669604 0.335621
O O5 0.250000 0.650917 0.460481
O O6 0.089823 0.500000 0.461676
O O7 0.000000 0.652048 0.500000
O O8 0.750000 0.108729 0.823493
O O9 0.545815 0.181415 0.870997
O O10 0.503349 0.128559 0.791498
O O11 0.541401 0.000000 0.852434
O O12 0.750000 0.687349 0.874902
O O13 0.517448 0.665413 0.917366
O O14 0.520428 0.656217 0.831186
O O15 0.250000 0.318933 0.718212
O O16 0.502333 0.351047 0.746815
O O17 0.446306 0.183627 0.713804
O O18 0.750000 0.368250 0.965299
O O19 0.558223 0.500000 0.948869
O O20 0.500000 0.356759 0.000000
O O21 0.750000 0.365843 0.782083
O O22 0.943674 0.500000 0.791220
O O23 0.250000 0.106174 0.763224
O O24 0.455485 0.000000 0.731280
#
# Coordination Sequence:
#
# PCOD8207647 Si02
#       8
#     8   8   8   8   8   8   8   8
#     4   9  17  28  40  55  80 115 149 177 208 249
#     4   9  16  26  41  60  81 107 142 182 219 253
#     4   9  16  27  45  66  84 105 138 177 213 252
#     4   9  16  28  45  64  85 109 138 172 212 255
#     4  10  19  30  43  60  86 119 149 178 215 256
#     4   9  17  30  47  64  83 108 137 170 209 252
#     4  10  19  29  42  61  85 114 146 177 208 248
#     4   9  17  29  44  62  85 113 145 181 220 258
#
# _framework density 15.424109
#
# number of rings (size 3 to 8) (size 9 to 14) (size 15 to 20)
#    0.000    2.750    1.250    1.125    0.000    4.250 
#    0.000    2.500    0.000    1.875    0.000    0.000 
#    0.000    0.500    0.000    0.875    0.000    1.250 
#
# Total GULP energy -793393.060540 kJ/mol
# GULP energy per Si atom -12396.766571 kJ/mol
# Density = 1.538900 g / cm^3
# Si number density = 15.424109 Si / 1000 Ang^3
#
#
#
# Elastic Constant Matrix: (Units=GPa)
#
#
# Indices 1 2 3 4 5 6 
#
# 1 51.8673 31.6707 53.3810 0.0000 0.0000 0.0000
# 2 31.6707 80.6609 63.9164 0.0000 0.0000 0.0000
# 3 53.3810 63.9164 142.2752 0.0000 0.0000 0.0000
# 4 0.0000 0.0000 0.0000 12.5399 0.0000 0.0000
# 5 0.0000 0.0000 0.0000 0.0000 25.9181 0.0000
# 6 0.0000 0.0000 0.0000 0.0000 0.0000 15.0207
#
#
#
# Elastic Compliance Matrix: (Units=1/GPa)
#
#
# Indices 1 2 3 4 5 6 
#
# 1 0.032573 -0.004822 -0.010055 0.000000 0.000000 0.000000
# 2 -0.004822 0.019964 -0.007160 0.000000 0.000000 0.000000
# 3 -0.010055 -0.007160 0.014018 0.000000 0.000000 0.000000
# 4 0.000000 0.000000 0.000000 0.079746 0.000000 0.000000
# 5 0.000000 0.000000 0.000000 0.000000 0.038583 0.000000
# 6 0.000000 0.000000 0.000000 0.000000 0.000000 0.066575
#
#
# Mechanical properties :
#
#
# Convention : Reuss Voigt Hill
#
# Bulk Modulus (GPa) = 44.48062 63.63772 54.05917
# Shear Modulus (GPa) = 16.50031 19.08476 17.79254
#
# Velocity S-wave (km/s) = 3.27429 3.52139 3.40008
# Velocity P-wave (km/s) = 6.57234 7.60801 7.10906
#
# Compressibility (1/GPa) = 0.02248170
#
# Stress axis : x y z
#
# Youngs Moduli (GPa) = 30.70071 50.08962 71.33844
#
# Poissons Ratio (x) = 0.24151 0.71731
# Poissons Ratio (y) = 0.14803 0.51077
# Poissons Ratio (z) = 0.30869 0.35863
#
# Static dielectric constant tensor:
#      x y z
#    x 3.118530 0.000000 0.000000 
#    y 0.000000 3.043640 0.000000 
#    z 0.000000 0.000000 2.969260 
# 
# 
# High freq. dielectric constant tensor:
#      x y z
#    x 1.583100 0.000000 0.000000 
#    y 0.000000 1.576500 0.000000 
#    z 0.000000 0.000000 1.578860 
# 
# From -- ./inp_files/37616.got.cif
#   From: 2010.03.12/outbox.cif.g09.slc.cpg/sg51_19_cif.got.tgz:37616.got - 2010.04.16 13:43:02.
