data_PCOD8207717
_publ_section_title
;
Structure prediction by ZEFSAII (Michael W. Deem and Ramdas Pophale) SiO2 
 PCOD8207717
Probable space group: P M M A
;
_chemical_formula_sum "Si O2"
_cell_formula_units_Z 56
_cell_length_a 8.982977
_cell_length_b 20.130814
_cell_length_c 15.224734
_cell_angle_alpha 90.000000
_cell_angle_beta 90.000000
_cell_angle_gamma 90.000000
_cell_volume 2753.159279
_symmetry_space_group_name_H-M "P M M A"
_symmetry_group_IT_number 51
_symmetry_cell_setting 'orthorhombic'
loop_
_space_group_symop_operation_xyz
x,y,z
1/2-x,-y,z
1/2+x,-y,-z
-x,y,-z
-x,-y,-z
1/2+x,y,-z
1/2-x,y,z
x,-y,z
loop_
_atom_site_type_symbol
_atom_site_label
_atom_site_fract_x
_atom_site_fract_y
_atom_site_fract_z
Si Si1 0.926925 0.665983 0.909512
Si Si2 0.924487 0.387154 0.589036
Si Si3 0.576463 0.891026 0.415787
Si Si4 0.074966 0.926810 0.775980
Si Si5 0.919112 0.200155 0.825919
Si Si6 0.581543 0.235779 0.627879
Si Si7 0.079189 0.575405 0.765162
O O1 0.750000 0.656699 0.912423
O O2 0.970098 0.743593 0.894972
O O3 0.989390 0.621439 0.831553
O O4 0.000000 0.641950 0.000000
O O5 0.750000 0.404727 0.589761
O O6 0.952800 0.308766 0.594363
O O7 0.000000 0.414136 0.500000
O O8 0.003749 0.422709 0.669971
O O9 0.500000 0.926366 0.500000
O O10 0.750000 0.902572 0.424351
O O11 0.514970 0.921320 0.324374
O O12 0.535691 0.812992 0.418351
O O13 0.250000 0.916949 0.775413
O O14 0.009483 0.868635 0.837108
O O15 0.030503 0.000000 0.812230
O O16 0.750000 0.179742 0.841883
O O17 0.943664 0.234100 0.731995
O O18 0.750000 0.213334 0.604618
O O19 0.250000 0.600008 0.758765
O O20 0.072184 0.500000 0.799940
#
# Coordination Sequence:
#
# PCOD8207717 Si02
#       7
#     8   8   8   8   8   8   8
#     4  11  23  42  68  99 128 157 195 244 300 365
#     4  11  22  37  58  86 120 162 208 256 305 358
#     4  10  19  29  43  67 100 142 189 240 294 346
#     4   9  19  34  51  75 108 148 194 240 292 353
#     4   9  18  35  58  85 116 148 189 239 291 349
#     4   9  17  32  52  76 107 144 189 241 295 347
#     4  11  25  44  65  91 124 163 206 251 302 360
#
# _framework density 20.340268999999999
#
# number of rings (size 3 to 8) (size 9 to 14) (size 15 to 20)
#    0.000    2.000    1.429    2.143    0.000    6.286 
#    0.000    0.000    0.000    0.429    0.000    0.000 
#    0.000    0.000    0.000    0.000    0.000    0.000 
#
# Total GULP energy -694361.698255 kJ/mol
# GULP energy per Si atom -12399.316040 kJ/mol
# Density = 2.029397 g / cm^3
# Si number density = 20.340269 Si / 1000 Ang^3
#
#
#
# Elastic Constant Matrix: (Units=GPa)
#
#
# Indices 1 2 3 4 5 6 
#
# 1 98.3477 48.5743 39.8763 0.0000 0.0000 0.0000
# 2 48.5743 97.7746 34.1072 0.0000 0.0000 0.0000
# 3 39.8763 34.1072 87.8107 0.0000 0.0000 0.0000
# 4 0.0000 0.0000 0.0000 2.6524 0.0000 0.0000
# 5 0.0000 0.0000 0.0000 0.0000 31.2732 0.0000
# 6 0.0000 0.0000 0.0000 0.0000 0.0000 27.1989
#
#
#
# Elastic Compliance Matrix: (Units=1/GPa)
#
#
# Indices 1 2 3 4 5 6 
#
# 1 0.014861 -0.005817 -0.004489 0.000000 0.000000 0.000000
# 2 -0.005817 0.014108 -0.002838 0.000000 0.000000 0.000000
# 3 -0.004489 -0.002838 0.014529 0.000000 0.000000 0.000000
# 4 0.000000 0.000000 0.000000 0.377019 0.000000 0.000000
# 5 0.000000 0.000000 0.000000 0.000000 0.031976 0.000000
# 6 0.000000 0.000000 0.000000 0.000000 0.000000 0.036766
#
#
# Mechanical properties :
#
#
# Convention : Reuss Voigt Hill
#
# Bulk Modulus (GPa) = 58.10833 58.78317 58.44575
# Shear Modulus (GPa) = 9.59170 22.98324 16.28747
#
# Velocity S-wave (km/s) = 2.17390 3.36510 2.83282
# Velocity P-wave (km/s) = 5.91027 6.63786 6.28460
#
# Compressibility (1/GPa) = 0.01720924
#
# Stress axis : x y z
#
# Youngs Moduli (GPa) = 67.28874 70.88424 68.82726
#
# Poissons Ratio (x) = 0.41234 0.30899
# Poissons Ratio (y) = 0.39142 0.19533
# Poissons Ratio (z) = 0.30208 0.20117
#
# Static dielectric constant tensor:
#      x y z
#    x 3.655950 0.000000 0.000000 
#    y 0.000000 3.660170 0.000000 
#    z 0.000000 0.000000 3.625670 
# 
# 
# High freq. dielectric constant tensor:
#      x y z
#    x 1.794730 0.000000 0.000000 
#    y 0.000000 1.793080 0.000000 
#    z 0.000000 0.000000 1.778050 
# 
# From -- ./inp_files/21828.got.cif
#   From: 2010.03.12/outbox.cif.g09.slc.cpg/sg51_11_cif.got.tgz:21828.got - 2010.04.16 13:43:02.
