data_PCOD8207074
_publ_section_title
;
Structure prediction by ZEFSAII (Michael W. Deem and Ramdas Pophale) SiO2 
 PCOD8207074
Probable space group: P M M A
;
_chemical_formula_sum "Si O2"
_cell_formula_units_Z 64
_cell_length_a 20.058381
_cell_length_b 9.331535
_cell_length_c 19.990198
_cell_angle_alpha 90.000000
_cell_angle_beta 90.000000
_cell_angle_gamma 90.000000
_cell_volume 3741.674993
_symmetry_space_group_name_H-M "P M M A"
_symmetry_group_IT_number 51
_symmetry_cell_setting 'orthorhombic'
loop_
_space_group_symop_operation_xyz
x,y,z
1/2-x,-y,z
1/2+x,-y,-z
-x,y,-z
-x,-y,-z
1/2+x,y,-z
1/2-x,y,z
x,-y,z
loop_
_atom_site_type_symbol
_atom_site_label
_atom_site_fract_x
_atom_site_fract_y
_atom_site_fract_z
Si Si1 0.075411 0.666150 0.483601
Si Si2 0.550695 0.831236 0.158284
Si Si3 0.427462 0.668724 0.971206
Si Si4 0.453734 0.663638 0.338481
Si Si5 0.823351 0.668544 0.919139
Si Si6 0.580004 0.334077 0.806539
Si Si7 0.325372 0.167544 0.578411
Si Si8 0.918414 0.164576 0.304635
O O1 0.085411 0.500000 0.501596
O O2 0.088794 0.698207 0.404887
O O3 0.129105 0.755457 0.524143
O O4 0.000000 0.714700 0.500000
O O5 0.587507 0.753561 0.097104
O O6 0.477045 0.767333 0.164777
O O7 0.591712 0.795997 0.226417
O O8 0.546081 0.000000 0.144341
O O9 0.421331 0.500000 0.957406
O O10 0.500000 0.707406 0.000000
O O11 0.372638 0.726341 0.023574
O O12 0.477345 0.500000 0.340161
O O13 0.409099 0.694782 0.272536
O O14 0.521608 0.751161 0.338534
O O15 0.750000 0.739650 0.925663
O O16 0.817179 0.500000 0.927745
O O17 0.852397 0.705297 0.845620
O O18 0.559769 0.500000 0.820459
O O19 0.250000 0.226261 0.573909
O O20 0.351494 0.198607 0.653789
O O21 0.328012 0.000000 0.562437
O O22 0.939087 0.000000 0.310605
#
# Coordination Sequence:
#
# PCOD8207074 Si02
#       8
#     8   8   8   8   8   8   8   8
#     4  10  19  32  50  77 107 133 163 207 261 308
#     4  10  19  30  48  75 101 125 159 204 253 293
#     4  10  18  31  50  73  97 126 164 204 246 290
#     4   9  17  29  49  75 101 126 160 204 248 293
#     4   9  17  30  49  71  95 124 160 200 241 288
#     4   9  16  30  50  72  97 127 163 201 242 289
#     4  10  21  36  53  73  99 136 179 215 251 302
#     4   9  18  32  49  71  98 127 164 207 249 293
#
# _framework density 17.104638999999999
#
# number of rings (size 3 to 8) (size 9 to 14) (size 15 to 20)
#    0.000    2.500    2.500    0.375    0.000    1.750 
#    0.000    1.250    0.000    4.500    0.000    0.000 
#    0.000    0.000    0.000    0.000    0.000    0.000 
#
# Total GULP energy -793367.192848 kJ/mol
# GULP energy per Si atom -12396.362388 kJ/mol
# Density = 1.706571 g / cm^3
# Si number density = 17.104639 Si / 1000 Ang^3
#
#
#
# Elastic Constant Matrix: (Units=GPa)
#
#
# Indices 1 2 3 4 5 6 
#
# 1 129.7323 37.0884 80.0801 0.0000 0.0000 0.0000
# 2 37.0884 45.7252 44.5357 0.0000 0.0000 0.0000
# 3 80.0801 44.5357 145.4121 0.0000 0.0000 0.0000
# 4 0.0000 0.0000 0.0000 27.6073 0.0000 0.0000
# 5 0.0000 0.0000 0.0000 0.0000 23.0683 0.0000
# 6 0.0000 0.0000 0.0000 0.0000 0.0000 16.0692
#
#
#
# Elastic Compliance Matrix: (Units=1/GPa)
#
#
# Indices 1 2 3 4 5 6 
#
# 1 0.012390 -0.004851 -0.005337 0.000000 0.000000 0.000000
# 2 -0.004851 0.033066 -0.007456 0.000000 0.000000 0.000000
# 3 -0.005337 -0.007456 0.012100 0.000000 0.000000 0.000000
# 4 0.000000 0.000000 0.000000 0.036222 0.000000 0.000000
# 5 0.000000 0.000000 0.000000 0.000000 0.043350 0.000000
# 6 0.000000 0.000000 0.000000 0.000000 0.000000 0.062231
#
#
# Mechanical properties :
#
#
# Convention : Reuss Voigt Hill
#
# Bulk Modulus (GPa) = 44.90843 71.58644 58.24743
# Shear Modulus (GPa) = 20.65523 23.95996 22.30759
#
# Velocity S-wave (km/s) = 3.47880 3.74677 3.61527
# Velocity P-wave (km/s) = 6.51522 7.78849 7.18014
#
# Compressibility (1/GPa) = 0.02226754
#
# Stress axis : x y z
#
# Youngs Moduli (GPa) = 80.71285 30.24232 82.64523
#
# Poissons Ratio (x) = 0.14670 0.44111
# Poissons Ratio (y) = 0.39152 0.61619
# Poissons Ratio (z) = 0.43080 0.22548
#
# Static dielectric constant tensor:
#      x y z
#    x 3.123030 0.000000 0.000000 
#    y 0.000000 3.080310 0.000000 
#    z 0.000000 0.000000 3.583670 
# 
# 
# High freq. dielectric constant tensor:
#      x y z
#    x 1.628800 0.000000 0.000000 
#    y 0.000000 1.645070 0.000000 
#    z 0.000000 0.000000 1.678830 
# 
# From -- ./inp_files/34164.got.cif
#   From: 2010.03.12/outbox.cif.g09.slc.cpg/sg51_18_cif.got.tgz:34164.got - 2010.04.16 13:43:02.
