data_PCOD8207853
_publ_section_title
;
Structure prediction by ZEFSAII (Michael W. Deem and Ramdas Pophale) SiO2 
 PCOD8207853
Probable space group: P M M A
;
_chemical_formula_sum "Si O2"
_cell_formula_units_Z 64
_cell_length_a 9.209450
_cell_length_b 20.034730
_cell_length_c 20.289739
_cell_angle_alpha 90.000000
_cell_angle_beta 90.000000
_cell_angle_gamma 90.000000
_cell_volume 3743.636292
_symmetry_space_group_name_H-M "P M M A"
_symmetry_group_IT_number 51
_symmetry_cell_setting 'orthorhombic'
loop_
_space_group_symop_operation_xyz
x,y,z
1/2-x,-y,z
1/2+x,-y,-z
-x,y,-z
-x,-y,-z
1/2+x,y,-z
1/2-x,y,z
x,-y,z
loop_
_atom_site_type_symbol
_atom_site_label
_atom_site_fract_x
_atom_site_fract_y
_atom_site_fract_z
Si Si1 0.413719 0.925313 0.191300
Si Si2 0.417443 0.397115 0.935688
Si Si3 0.920644 0.712679 0.759686
Si Si4 0.081621 0.572833 0.195782
Si Si5 0.579436 0.923468 0.567044
Si Si6 0.422058 0.838293 0.311577
Si Si7 0.587499 0.745825 0.112686
Si Si8 0.417771 0.110538 0.935722
O O1 0.250000 0.902900 0.171883
O O2 0.480185 0.878032 0.247852
O O3 0.516097 0.924111 0.128109
O O4 0.412051 0.000000 0.220090
O O5 0.250000 0.419693 0.938844
O O6 0.488329 0.427965 0.870492
O O7 0.434708 0.317440 0.934410
O O8 0.500000 0.424904 0.000000
O O9 0.750000 0.717500 0.764028
O O10 0.968781 0.634054 0.755643
O O11 0.970276 0.759774 0.697746
O O12 0.978009 0.745193 0.826569
O O13 0.250000 0.583325 0.176657
O O14 0.059401 0.500000 0.230457
O O15 0.500000 0.903980 0.500000
O O16 0.750000 0.913575 0.556194
O O17 0.515838 0.872327 0.622161
O O18 0.544853 0.000000 0.587642
O O19 0.250000 0.846189 0.314524
O O20 0.750000 0.746070 0.142472
O O21 0.558700 0.810094 0.068313
O O22 0.250000 0.090453 0.941191
O O23 0.500000 0.083334 0.000000
#
# Coordination Sequence:
#
# PCOD8207853 Si02
#       8
#     8   8   8   8   8   8   8   8
#     4  10  20  34  51  69  88 113 148 190 234 279
#     4  10  19  30  44  62  83 109 144 183 227 281
#     4   9  16  28  49  70  88 114 149 186 224 269
#     4   9  18  31  45  63  88 115 142 179 229 280
#     4   9  17  30  48  72 104 137 164 189 220 264
#     4   9  16  29  51  75  95 121 157 192 225 266
#     4   9  18  31  45  64  87 110 140 185 236 281
#     4  11  22  34  48  64  85 113 147 191 242 289
#
# _framework density 17.095677999999999
#
# number of rings (size 3 to 8) (size 9 to 14) (size 15 to 20)
#    0.000    2.500    1.250    1.500    0.000    3.500 
#    0.000    1.250    0.000    1.500    0.000    0.000 
#    0.000    0.500    0.000    0.375    0.000    0.750 
#
# Total GULP energy -793140.129206 kJ/mol
# GULP energy per Si atom -12392.814519 kJ/mol
# Density = 1.705677 g / cm^3
# Si number density = 17.095678 Si / 1000 Ang^3
#
#
#
# Elastic Constant Matrix: (Units=GPa)
#
#
# Indices 1 2 3 4 5 6 
#
# 1 46.7777 28.3584 29.8753 0.0000 0.0000 0.0000
# 2 28.3584 113.6042 55.9935 0.0000 0.0000 0.0000
# 3 29.8753 55.9935 98.7117 0.0000 0.0000 0.0000
# 4 0.0000 0.0000 0.0000 16.0320 0.0000 0.0000
# 5 0.0000 0.0000 0.0000 0.0000 19.9951 0.0000
# 6 0.0000 0.0000 0.0000 0.0000 0.0000 14.2411
#
#
#
# Elastic Compliance Matrix: (Units=1/GPa)
#
#
# Indices 1 2 3 4 5 6 
#
# 1 0.027667 -0.003858 -0.006185 0.000000 0.000000 0.000000
# 2 -0.003858 0.012757 -0.006069 0.000000 0.000000 0.000000
# 3 -0.006185 -0.006069 0.015445 0.000000 0.000000 0.000000
# 4 0.000000 0.000000 0.000000 0.062375 0.000000 0.000000
# 5 0.000000 0.000000 0.000000 0.000000 0.050012 0.000000
# 6 0.000000 0.000000 0.000000 0.000000 0.000000 0.070219
#
#
# Mechanical properties :
#
#
# Convention : Reuss Voigt Hill
#
# Bulk Modulus (GPa) = 42.29175 54.17198 48.23187
# Shear Modulus (GPa) = 17.94821 19.71140 18.82981
#
# Velocity S-wave (km/s) = 3.24368 3.39928 3.32239
# Velocity P-wave (km/s) = 6.23062 6.86754 6.55682
#
# Compressibility (1/GPa) = 0.02364527
#
# Stress axis : x y z
#
# Youngs Moduli (GPa) = 36.14463 78.39119 64.74688
#
# Poissons Ratio (x) = 0.30241 0.40046
# Poissons Ratio (y) = 0.13944 0.39292
# Poissons Ratio (z) = 0.22356 0.47572
#
# Static dielectric constant tensor:
#      x y z
#    x 3.154970 0.000000 0.000000 
#    y 0.000000 3.563750 0.000000 
#    z 0.000000 0.000000 2.922750 
# 
# 
# High freq. dielectric constant tensor:
#      x y z
#    x 1.649940 0.000000 0.000000 
#    y 0.000000 1.670930 0.000000 
#    z 0.000000 0.000000 1.611410 
# 
# From -- ./inp_files/32658.got.cif
#   From: 2010.03.12/outbox.cif.g09.slc.cpg/sg51_17_cif.got.tgz:32658.got - 2010.04.16 13:43:02.
