data_PCOD8207825
_publ_section_title
;
Structure prediction by ZEFSAII (Michael W. Deem and Ramdas Pophale) SiO2 
 PCOD8207825
Probable space group: P M M A
;
_chemical_formula_sum "Si O2"
_cell_formula_units_Z 56
_cell_length_a 8.820142
_cell_length_b 22.544468
_cell_length_c 14.731697
_cell_angle_alpha 90.000000
_cell_angle_beta 90.000000
_cell_angle_gamma 90.000000
_cell_volume 2929.330316
_symmetry_space_group_name_H-M "P M M A"
_symmetry_group_IT_number 51
_symmetry_cell_setting 'orthorhombic'
loop_
_space_group_symop_operation_xyz
x,y,z
1/2-x,-y,z
1/2+x,-y,-z
-x,y,-z
-x,-y,-z
1/2+x,y,-z
1/2-x,y,z
x,-y,z
loop_
_atom_site_type_symbol
_atom_site_label
_atom_site_fract_x
_atom_site_fract_y
_atom_site_fract_z
Si Si1 0.431563 0.299274 0.407517
Si Si2 0.580828 0.773853 0.849423
Si Si3 0.074502 0.569725 0.094539
Si Si4 0.570962 0.113567 0.089052
Si Si5 0.415849 0.174336 0.349625
Si Si6 0.428624 0.934439 0.718556
Si Si7 0.069753 0.660487 0.777576
O O1 0.500000 0.326845 0.500000
O O2 0.250000 0.304312 0.404260
O O3 0.484669 0.229868 0.405284
O O4 0.499644 0.335161 0.323066
O O5 0.750000 0.762232 0.888763
O O6 0.488042 0.818701 0.912585
O O7 0.595477 0.803408 0.752164
O O8 0.489061 0.712711 0.843148
O O9 0.250000 0.589053 0.094747
O O10 0.055743 0.500000 0.108364
O O11 0.985821 0.599329 0.178233
O O12 0.000000 0.590282 0.000000
O O13 0.750000 0.112671 0.081867
O O14 0.514381 0.079602 0.179325
O O15 0.500000 0.081732 0.000000
O O16 0.250000 0.157783 0.387389
O O17 0.514839 0.114339 0.354272
O O18 0.250000 0.932162 0.716504
O O19 0.488366 0.000000 0.691413
O O20 0.250000 0.662790 0.770240
#
# Coordination Sequence:
#
# PCOD8207825 Si02
#       7
#     8   8   8   8   8   8   8
#     4  10  20  35  56  84 115 144 178 219 268 325
#     4   9  17  31  48  67  93 124 162 206 255 309
#     4  10  21  38  59  83 113 150 192 235 275 315
#     4  10  19  30  43  61  88 121 159 205 260 318
#     4   8  16  30  48  70  95 123 156 199 249 303
#     4   9  18  31  46  64  87 119 161 207 255 311
#     4  11  21  34  55  83 114 147 183 223 270 321
#
# _framework density 19.116997000000001
#
# number of rings (size 3 to 8) (size 9 to 14) (size 15 to 20)
#    0.000    2.429    0.000    3.857    0.000    6.571 
#    0.000    2.857    0.000    0.857    0.000    0.000 
#    0.000    0.000    0.000    0.000    0.000    0.000 
#
# Total GULP energy -694154.586459 kJ/mol
# GULP energy per Si atom -12395.617615 kJ/mol
# Density = 1.907349 g / cm^3
# Si number density = 19.116997 Si / 1000 Ang^3
#
#
#
# Elastic Constant Matrix: (Units=GPa)
#
#
# Indices 1 2 3 4 5 6 
#
# 1 106.9264 37.1134 34.2705 0.0000 0.0000 0.0000
# 2 37.1134 73.3712 34.7459 0.0000 0.0000 0.0000
# 3 34.2705 34.7459 76.6896 0.0000 0.0000 0.0000
# 4 0.0000 0.0000 0.0000 18.1864 0.0000 0.0000
# 5 0.0000 0.0000 0.0000 0.0000 27.4619 0.0000
# 6 0.0000 0.0000 0.0000 0.0000 0.0000 28.5712
#
#
#
# Elastic Compliance Matrix: (Units=1/GPa)
#
#
# Indices 1 2 3 4 5 6 
#
# 1 0.011972 -0.004485 -0.003318 0.000000 0.000000 0.000000
# 2 -0.004485 0.019032 -0.006619 0.000000 0.000000 0.000000
# 3 -0.003318 -0.006619 0.017521 0.000000 0.000000 0.000000
# 4 0.000000 0.000000 0.000000 0.054986 0.000000 0.000000
# 5 0.000000 0.000000 0.000000 0.000000 0.036414 0.000000
# 6 0.000000 0.000000 0.000000 0.000000 0.000000 0.035000
#
#
# Mechanical properties :
#
#
# Convention : Reuss Voigt Hill
#
# Bulk Modulus (GPa) = 50.80714 52.13856 51.47285
# Shear Modulus (GPa) = 23.77209 24.90106 24.33657
#
# Velocity S-wave (km/s) = 3.53016 3.61302 3.57183
# Velocity P-wave (km/s) = 6.57653 6.68863 6.63282
#
# Compressibility (1/GPa) = 0.01968227
#
# Stress axis : x y z
#
# Youngs Moduli (GPa) = 83.52608 52.54241 57.07347
#
# Poissons Ratio (x) = 0.23563 0.18939
# Poissons Ratio (y) = 0.37458 0.37777
# Poissons Ratio (z) = 0.27716 0.34778
#
# Static dielectric constant tensor:
#      x y z
#    x 3.584450 0.000000 0.000000 
#    y 0.000000 3.481470 0.000000 
#    z 0.000000 0.000000 3.425070 
# 
# 
# High freq. dielectric constant tensor:
#      x y z
#    x 1.750870 0.000000 0.000000 
#    y 0.000000 1.724230 0.000000 
#    z 0.000000 0.000000 1.726410 
# 
# From -- ./inp_files/21848.got.cif
#   From: 2010.03.12/outbox.cif.g09.slc.cpg/sg51_11_cif.got.tgz:21848.got - 2010.04.16 13:43:02.
