data_PCOD8207645
_publ_section_title
;
Structure prediction by ZEFSAII (Michael W. Deem and Ramdas Pophale) SiO2 
 PCOD8207645
Probable space group: P M M A
;
_chemical_formula_sum "Si O2"
_cell_formula_units_Z 64
_cell_length_a 19.986222
_cell_length_b 9.271015
_cell_length_c 18.852930
_cell_angle_alpha 90.000000
_cell_angle_beta 90.000000
_cell_angle_gamma 90.000000
_cell_volume 3493.307738
_symmetry_space_group_name_H-M "P M M A"
_symmetry_group_IT_number 51
_symmetry_cell_setting 'orthorhombic'
loop_
_space_group_symop_operation_xyz
x,y,z
1/2-x,-y,z
1/2+x,-y,-z
-x,y,-z
-x,-y,-z
1/2+x,y,-z
1/2-x,y,z
x,-y,z
loop_
_atom_site_type_symbol
_atom_site_label
_atom_site_fract_x
_atom_site_fract_y
_atom_site_fract_z
Si Si1 0.535348 0.667059 0.574105
Si Si2 0.048927 0.336416 0.155618
Si Si3 0.172845 0.158395 0.614807
Si Si4 0.605000 0.661915 0.109984
Si Si5 0.423095 0.836635 0.022169
Si Si6 0.825140 0.665611 0.517014
Si Si7 0.869771 0.159954 0.237298
Si Si8 0.481306 0.161277 0.285361
O O1 0.500000 0.713168 0.500000
O O2 0.518554 0.500000 0.589800
O O3 0.616510 0.691041 0.574626
O O4 0.508040 0.764985 0.637957
O O5 0.076764 0.500000 0.159523
O O6 0.088757 0.245434 0.096376
O O7 0.062470 0.260884 0.232166
O O8 0.971797 0.340320 0.133450
O O9 0.250000 0.139883 0.599273
O O10 0.144661 0.257274 0.552553
O O11 0.161161 0.230219 0.691510
O O12 0.137561 0.000000 0.613256
O O13 0.631382 0.500000 0.098136
O O14 0.648607 0.737462 0.171665
O O15 0.617374 0.751404 0.038271
O O16 0.395898 0.000000 0.028920
O O17 0.500000 0.838925 0.000000
O O18 0.750000 0.719215 0.541308
O O19 0.820066 0.500000 0.496056
O O20 0.948670 0.146283 0.246159
O O21 0.839298 0.000000 0.223923
O O22 0.450110 0.000000 0.294412
#
# Coordination Sequence:
#
# PCOD8207645 Si02
#       8
#     8   8   8   8   8   8   8   8
#     4  10  20  32  46  65  89 116 146 181 222 267
#     4   9  16  26  39  55  79 110 142 175 210 251
#     4   9  17  29  45  63  82 107 141 179 217 257
#     4   9  16  24  36  55  78 108 144 176 207 247
#     4   9  15  23  36  54  78 108 141 175 210 249
#     4   9  18  32  48  65  86 113 145 181 221 264
#     4   9  17  28  40  57  84 114 142 175 215 256
#     4  10  19  29  42  61  85 113 144 177 216 261
#
# _framework density 18.320746
#
# number of rings (size 3 to 8) (size 9 to 14) (size 15 to 20)
#    0.000    2.750    0.000    2.250    0.000    6.250 
#    0.000    0.000    0.000    0.000    0.000    0.000 
#    0.000    1.000    0.000    2.750    0.000    4.000 
#
# Total GULP energy -793087.896659 kJ/mol
# GULP energy per Si atom -12391.998385 kJ/mol
# Density = 1.827905 g / cm^3
# Si number density = 18.320746 Si / 1000 Ang^3
#
#
#
# Elastic Constant Matrix: (Units=GPa)
#
#
# Indices 1 2 3 4 5 6 
#
# 1 20.8902 4.8557 -1.7085 0.0000 0.0000 0.0000
# 2 4.8557 124.1708 61.0454 0.0000 0.0000 0.0000
# 3 -1.7085 61.0454 106.5287 0.0000 0.0000 0.0000
# 4 0.0000 0.0000 0.0000 32.9126 0.0000 0.0000
# 5 0.0000 0.0000 0.0000 0.0000 17.0258 0.0000
# 6 0.0000 0.0000 0.0000 0.0000 0.0000 9.0024
#
#
#
# Elastic Compliance Matrix: (Units=1/GPa)
#
#
# Indices 1 2 3 4 5 6 
#
# 1 0.048825 -0.003194 0.002613 0.000000 0.000000 0.000000
# 2 -0.003194 0.011421 -0.006596 0.000000 0.000000 0.000000
# 3 0.002613 -0.006596 0.013209 0.000000 0.000000 0.000000
# 4 0.000000 0.000000 0.000000 0.030384 0.000000 0.000000
# 5 0.000000 0.000000 0.000000 0.000000 0.058734 0.000000
# 6 0.000000 0.000000 0.000000 0.000000 0.000000 0.111081
#
#
# Mechanical properties :
#
#
# Convention : Reuss Voigt Hill
#
# Bulk Modulus (GPa) = 16.91990 42.21943 29.56966
# Shear Modulus (GPa) = 16.24915 24.28130 20.26522
#
# Velocity S-wave (km/s) = 2.98136 3.64448 3.32947
# Velocity P-wave (km/s) = 4.59421 6.38782 5.56377
#
# Compressibility (1/GPa) = 0.05910201
#
# Stress axis : x y z
#
# Youngs Moduli (GPa) = 20.48110 87.55745 75.70695
#
# Poissons Ratio (x) = 0.27967 -0.19785
# Poissons Ratio (y) = 0.06542 0.49936
# Poissons Ratio (z) = -0.05353 0.57753
#
# Static dielectric constant tensor:
#      x y z
#    x 2.931190 0.000000 0.000000 
#    y 0.000000 3.730300 0.000000 
#    z 0.000000 0.000000 3.400700 
# 
# 
# High freq. dielectric constant tensor:
#      x y z
#    x 1.643410 0.000000 0.000000 
#    y 0.000000 1.720130 0.000000 
#    z 0.000000 0.000000 1.707510 
# 
# From -- ./inp_files/30907.got.cif
#   From: 2010.03.12/outbox.cif.g09.slc.cpg/sg51_16_cif.got.tgz:30907.got - 2010.04.16 13:43:02.
