data_PCOD8207231
_publ_section_title
;
Structure prediction by ZEFSAII (Michael W. Deem and Ramdas Pophale) SiO2 
 PCOD8207231
Probable space group: P M M A
;
_chemical_formula_sum "Si O2"
_cell_formula_units_Z 64
_cell_length_a 16.717894
_cell_length_b 21.711076
_cell_length_c 9.234845
_cell_angle_alpha 90.000000
_cell_angle_beta 90.000000
_cell_angle_gamma 90.000000
_cell_volume 3351.911360
_symmetry_space_group_name_H-M "P M M A"
_symmetry_group_IT_number 51
_symmetry_cell_setting 'orthorhombic'
loop_
_space_group_symop_operation_xyz
x,y,z
1/2-x,-y,z
1/2+x,-y,-z
-x,y,-z
-x,-y,-z
1/2+x,y,-z
1/2-x,y,z
x,-y,z
loop_
_atom_site_type_symbol
_atom_site_label
_atom_site_fract_x
_atom_site_fract_y
_atom_site_fract_z
Si Si1 0.343240 0.143294 0.324729
Si Si2 0.660074 0.326118 0.015837
Si Si3 0.591264 0.647813 0.461614
Si Si4 0.655428 0.569576 0.222208
Si Si5 0.527709 0.071352 0.838894
Si Si6 0.428163 0.866679 0.601074
Si Si7 0.841078 0.245457 0.278537
Si Si8 0.842767 0.716727 0.719072
O O1 0.250000 0.135596 0.289167
O O2 0.392876 0.110316 0.197615
O O3 0.362448 0.111493 0.481507
O O4 0.371619 0.215388 0.332310
O O5 0.750000 0.347567 0.979585
O O6 0.619296 0.384159 0.099810
O O7 0.661664 0.264103 0.111328
O O8 0.614669 0.306622 0.868077
O O9 0.500000 0.638546 0.500000
O O10 0.621855 0.586324 0.381385
O O11 0.604051 0.705318 0.357828
O O12 0.640893 0.662484 0.605761
O O13 0.750000 0.578853 0.231608
O O14 0.630950 0.500000 0.182683
O O15 0.460573 0.081751 0.712859
O O16 0.550629 0.000000 0.838106
O O17 0.500000 0.091409 0.000000
O O18 0.500000 0.840106 0.500000
O O19 0.386364 0.818364 0.706868
O O20 0.750000 0.242931 0.343235
O O21 0.750000 0.723165 0.750850
#
# Coordination Sequence:
#
# PCOD8207231 Si02
#       8
#     8   8   8   8   8   8   8   8
#     4  10  21  36  60  90 117 152 194 246 299 355
#     4   8  17  31  51  78 105 137 176 224 280 328
#     4  11  21  32  52  79 114 148 182 227 280 338
#     4   9  18  36  58  77 103 148 197 233 275 337
#     4  10  24  44  61  82 117 160 198 240 293 353
#     4  10  20  34  57  84 113 146 186 229 282 346
#     4  10  18  32  52  77 109 144 179 225 281 338
#     4  10  19  34  54  83 117 141 175 233 294 341
#
# _framework density 19.093584
#
# number of rings (size 3 to 8) (size 9 to 14) (size 15 to 20)
#    0.000    2.250    1.250    2.625    3.500    2.750 
#    0.000    3.750    0.000    5.625    0.000    0.000 
#    0.000    0.000    0.000    0.000    0.000    0.000 
#
# Total GULP energy -792994.517092 kJ/mol
# GULP energy per Si atom -12390.539330 kJ/mol
# Density = 1.905013 g / cm^3
# Si number density = 19.093584 Si / 1000 Ang^3
#
#
#
# Elastic Constant Matrix: (Units=GPa)
#
#
# Indices 1 2 3 4 5 6 
#
# 1 56.1469 31.5285 29.3103 0.0000 0.0000 0.0000
# 2 31.5285 72.4728 38.6882 0.0000 0.0000 0.0000
# 3 29.3103 38.6882 133.2734 0.0000 0.0000 0.0000
# 4 0.0000 0.0000 0.0000 22.0889 0.0000 0.0000
# 5 0.0000 0.0000 0.0000 0.0000 21.2658 0.0000
# 6 0.0000 0.0000 0.0000 0.0000 0.0000 25.8118
#
#
#
# Elastic Compliance Matrix: (Units=1/GPa)
#
#
# Indices 1 2 3 4 5 6 
#
# 1 0.024362 -0.009157 -0.002700 0.000000 0.000000 0.000000
# 2 -0.009157 0.019771 -0.003725 0.000000 0.000000 0.000000
# 3 -0.002700 -0.003725 0.009179 0.000000 0.000000 0.000000
# 4 0.000000 0.000000 0.000000 0.045272 0.000000 0.000000
# 5 0.000000 0.000000 0.000000 0.000000 0.047024 0.000000
# 6 0.000000 0.000000 0.000000 0.000000 0.000000 0.038742
#
#
# Mechanical properties :
#
#
# Convention : Reuss Voigt Hill
#
# Bulk Modulus (GPa) = 45.15329 51.21633 48.18481
# Shear Modulus (GPa) = 22.43209 24.65771 23.54490
#
# Velocity S-wave (km/s) = 3.43133 3.59752 3.51541
# Velocity P-wave (km/s) = 6.27682 6.64367 6.46284
#
# Compressibility (1/GPa) = 0.02214678
#
# Stress axis : x y z
#
# Youngs Moduli (GPa) = 41.04795 50.57980 108.95018
#
# Poissons Ratio (x) = 0.46317 0.29411
# Poissons Ratio (y) = 0.37589 0.40588
# Poissons Ratio (z) = 0.11081 0.18843
#
# Static dielectric constant tensor:
#      x y z
#    x 3.334040 0.000000 0.000000 
#    y 0.000000 3.395400 0.000000 
#    z 0.000000 0.000000 3.819620 
# 
# 
# High freq. dielectric constant tensor:
#      x y z
#    x 1.726490 0.000000 0.000000 
#    y 0.000000 1.717450 0.000000 
#    z 0.000000 0.000000 1.753390 
# 
# From -- ./inp_files/10098.got.cif
#   From: 2010.03.12/outbox.cif.g09.slc.cpg/sg51_6_cif.got.tgz:10098.got - 2010.04.16 13:43:02.
