data_PCOD8207697
_publ_section_title
;
Structure prediction by ZEFSAII (Michael W. Deem and Ramdas Pophale) SiO2 
 PCOD8207697
Probable space group: P M M A
;
_chemical_formula_sum "Si O2"
_cell_formula_units_Z 64
_cell_length_a 9.376108
_cell_length_b 14.563943
_cell_length_c 28.492646
_cell_angle_alpha 90.000000
_cell_angle_beta 90.000000
_cell_angle_gamma 90.000000
_cell_volume 3890.759209
_symmetry_space_group_name_H-M "P M M A"
_symmetry_group_IT_number 51
_symmetry_cell_setting 'orthorhombic'
loop_
_space_group_symop_operation_xyz
x,y,z
1/2-x,-y,z
1/2+x,-y,-z
-x,y,-z
-x,-y,-z
1/2+x,y,-z
1/2-x,y,z
x,-y,z
loop_
_atom_site_type_symbol
_atom_site_label
_atom_site_fract_x
_atom_site_fract_y
_atom_site_fract_z
Si Si1 0.088828 0.391075 0.456113
Si Si2 0.581644 0.216837 0.954288
Si Si3 0.083748 0.393588 0.635416
Si Si4 0.584651 0.286734 0.273125
Si Si5 0.912811 0.606288 0.803829
Si Si6 0.584910 0.897110 0.227992
Si Si7 0.419103 0.400207 0.091238
Si Si8 0.087072 0.106619 0.136369
O O1 0.250000 0.351197 0.456361
O O2 0.094204 0.500000 0.460012
O O3 0.000000 0.350401 0.500000
O O4 0.008674 0.361364 0.408835
O O5 0.750000 0.206674 0.962547
O O6 0.533507 0.322258 0.945281
O O7 0.530418 0.158604 0.909582
O O8 0.500000 0.180127 0.000000
O O9 0.250000 0.379281 0.623376
O O10 0.053996 0.500000 0.648576
O O11 0.031221 0.327774 0.677515
O O12 0.750000 0.310130 0.267572
O O13 0.506397 0.334785 0.230756
O O14 0.556160 0.176441 0.269756
O O15 0.750000 0.639519 0.799520
O O16 0.926202 0.500000 0.790166
O O17 0.972977 0.623378 0.856320
O O18 0.750000 0.897959 0.214189
O O19 0.501547 0.863825 0.181846
O O20 0.536030 0.000000 0.243935
O O21 0.250000 0.405088 0.094516
O O22 0.479266 0.500000 0.074947
O O23 0.250000 0.134282 0.146474
O O24 0.069283 0.000000 0.125718
#
# Coordination Sequence:
#
# PCOD8207697 Si02
#       8
#     8   8   8   8   8   8   8   8
#     4   9  16  26  41  60  83 115 155 194 227 258
#     4  10  20  32  46  64  85 107 132 165 205 250
#     4   9  17  28  40  57  86 122 155 184 216 257
#     4  10  19  29  43  64  92 123 149 179 223 267
#     4   9  17  29  46  66  86 112 147 181 212 253
#     4   9  18  32  49  69  91 115 146 183 220 260
#     4   8  15  29  46  61  79 106 138 169 202 242
#     4   9  18  33  51  68  85 107 136 169 208 257
#
# _framework density 16.449231999999999
#
# number of rings (size 3 to 8) (size 9 to 14) (size 15 to 20)
#    0.000    2.875    0.000    2.250    0.000    5.250 
#    0.000    1.875    0.000    0.750    0.000    0.000 
#    0.000    0.500    0.000    0.875    0.000    1.250 
#
# Total GULP energy -793357.011648 kJ/mol
# GULP energy per Si atom -12396.203307 kJ/mol
# Density = 1.641179 g / cm^3
# Si number density = 16.449232 Si / 1000 Ang^3
#
#
#
# Elastic Constant Matrix: (Units=GPa)
#
#
# Indices 1 2 3 4 5 6 
#
# 1 47.3632 26.8593 39.1741 0.0000 0.0000 0.0000
# 2 26.8593 63.4208 53.6704 0.0000 0.0000 0.0000
# 3 39.1741 53.6704 98.9915 0.0000 0.0000 0.0000
# 4 0.0000 0.0000 0.0000 18.2202 0.0000 0.0000
# 5 0.0000 0.0000 0.0000 0.0000 27.2896 0.0000
# 6 0.0000 0.0000 0.0000 0.0000 0.0000 16.0148
#
#
#
# Elastic Compliance Matrix: (Units=1/GPa)
#
#
# Indices 1 2 3 4 5 6 
#
# 1 0.032320 -0.005292 -0.009921 0.000000 0.000000 0.000000
# 2 -0.005292 0.030002 -0.014172 0.000000 0.000000 0.000000
# 3 -0.009921 -0.014172 0.021711 0.000000 0.000000 0.000000
# 4 0.000000 0.000000 0.000000 0.054884 0.000000 0.000000
# 5 0.000000 0.000000 0.000000 0.000000 0.036644 0.000000
# 6 0.000000 0.000000 0.000000 0.000000 0.000000 0.062442
#
#
# Mechanical properties :
#
#
# Convention : Reuss Voigt Hill
#
# Bulk Modulus (GPa) = 39.58261 49.90924 44.74592
# Shear Modulus (GPa) = 16.38294 18.30972 17.34633
#
# Velocity S-wave (km/s) = 3.15932 3.33994 3.25089
# Velocity P-wave (km/s) = 6.11753 6.72911 6.43059
#
# Compressibility (1/GPa) = 0.02526362
#
# Stress axis : x y z
#
# Youngs Moduli (GPa) = 30.94050 33.33079 46.05860
#
# Poissons Ratio (x) = 0.17640 0.45693
# Poissons Ratio (y) = 0.16375 0.65274
# Poissons Ratio (z) = 0.30695 0.47236
#
# Static dielectric constant tensor:
#      x y z
#    x 3.038120 0.000000 0.000000 
#    y 0.000000 3.249060 0.000000 
#    z 0.000000 0.000000 3.052250 
# 
# 
# High freq. dielectric constant tensor:
#      x y z
#    x 1.621850 0.000000 0.000000 
#    y 0.000000 1.618490 0.000000 
#    z 0.000000 0.000000 1.619660 
# 
# From -- ./inp_files/37678.got.cif
#   From: 2010.03.12/outbox.cif.g09.slc.cpg/sg51_19_cif.got.tgz:37678.got - 2010.04.16 13:43:02.
