data_PCOD8207466
_publ_section_title
;
Structure prediction by ZEFSAII (Michael W. Deem and Ramdas Pophale) SiO2 
 PCOD8207466
Probable space group: P M M A
;
_chemical_formula_sum "Si O2"
_cell_formula_units_Z 64
_cell_length_a 14.598274
_cell_length_b 9.098342
_cell_length_c 25.844984
_cell_angle_alpha 90.000000
_cell_angle_beta 90.000000
_cell_angle_gamma 90.000000
_cell_volume 3432.733087
_symmetry_space_group_name_H-M "P M M A"
_symmetry_group_IT_number 51
_symmetry_cell_setting 'orthorhombic'
loop_
_space_group_symop_operation_xyz
x,y,z
1/2-x,-y,z
1/2+x,-y,-z
-x,y,-z
-x,-y,-z
1/2+x,y,-z
1/2-x,y,z
x,-y,z
loop_
_atom_site_type_symbol
_atom_site_label
_atom_site_fract_x
_atom_site_fract_y
_atom_site_fract_z
Si Si1 0.999453 0.167914 0.785275
Si Si2 0.144329 0.171226 0.871617
Si Si3 0.854542 0.164020 0.607843
Si Si4 0.107342 0.335741 0.495225
Si Si5 0.500244 0.670401 0.060689
Si Si6 0.855610 0.828902 0.872164
Si Si7 0.349864 0.672522 0.606858
Si Si8 0.990165 0.674458 0.678482
O O1 0.091247 0.201546 0.817987
O O2 0.908094 0.200936 0.818379
O O3 0.999306 0.275895 0.737165
O O4 0.999110 0.000000 0.765897
O O5 0.250000 0.223795 0.866685
O O6 0.093062 0.258288 0.917021
O O7 0.139009 0.000000 0.885767
O O8 0.750000 0.156126 0.624363
O O9 0.863055 0.232703 0.551259
O O10 0.900064 0.262416 0.651973
O O11 0.897284 0.000000 0.606971
O O12 0.147684 0.500000 0.485996
O O13 0.143869 0.263623 0.548640
O O14 0.000000 0.345659 0.500000
O O15 0.500599 0.500000 0.075541
O O16 0.407144 0.741027 0.082764
O O17 0.500000 0.697271 0.000000
O O18 0.750000 0.776341 0.867417
O O19 0.861078 0.000000 0.886565
O O20 0.250000 0.708246 0.630116
O O21 0.368342 0.500000 0.601855
O O22 0.424167 0.739437 0.645857
O O23 0.986123 0.500000 0.677147
#
# Coordination Sequence:
#
# PCOD8207466 Si02
#       8
#     8   8   8   8   8   8   8   8
#     4   9  19  36  56  80 110 141 175 223 281 327
#     4   9  19  37  60  83 109 147 193 233 271 324
#     4  11  24  39  55  78 108 141 177 220 270 320
#     4  10  18  34  59  82 104 136 174 214 262 317
#     4  10  21  35  52  81 121 156 185 226 278 325
#     4   9  19  37  60  82 106 143 189 232 275 328
#     4   9  18  33  53  77 106 138 170 208 258 316
#     4  11  22  37  56  80 108 139 180 222 265 321
#
# _framework density 18.644034999999999
#
# number of rings (size 3 to 8) (size 9 to 14) (size 15 to 20)
#    0.000    2.250    1.250    2.250    0.000    6.750 
#    0.000    3.750    0.000    1.875    0.000    0.000 
#    0.000    0.000    0.000    0.000    0.000    0.000 
#
# Total GULP energy -793555.267183 kJ/mol
# GULP energy per Si atom -12399.301050 kJ/mol
# Density = 1.860160 g / cm^3
# Si number density = 18.644035 Si / 1000 Ang^3
#
#
#
# Elastic Constant Matrix: (Units=GPa)
#
#
# Indices 1 2 3 4 5 6 
#
# 1 147.8911 48.4357 61.2377 0.0000 0.0000 0.0000
# 2 48.4357 88.0041 63.8059 0.0000 0.0000 0.0000
# 3 61.2377 63.8059 122.7079 0.0000 0.0000 0.0000
# 4 0.0000 0.0000 0.0000 32.4299 0.0000 0.0000
# 5 0.0000 0.0000 0.0000 0.0000 -4.5591 0.0000
# 6 0.0000 0.0000 0.0000 0.0000 0.0000 20.8073
#
#
#
# Elastic Compliance Matrix: (Units=1/GPa)
#
#
# Indices 1 2 3 4 5 6 
#
# 1 0.008904 -0.002695 -0.003042 0.000000 0.000000 0.000000
# 2 -0.002695 0.019055 -0.008563 0.000000 0.000000 0.000000
# 3 -0.003042 -0.008563 0.014121 0.000000 0.000000 0.000000
# 4 0.000000 0.000000 0.000000 0.030836 0.000000 0.000000
# 5 0.000000 0.000000 0.000000 0.000000 -0.219343 0.000000
# 6 0.000000 0.000000 0.000000 0.000000 0.000000 0.048060
#
#
# Mechanical properties :
#
#
# Convention : Reuss Voigt Hill
#
# Bulk Modulus (GPa) = 74.19230 78.39575 76.29403
# Shear Modulus (GPa) = -76.60080 22.07722 -27.26179
#
# Velocity S-wave (km/s) = -6.41679 3.44487 -3.82805
# Velocity P-wave (km/s) = 3.87552 7.61333 4.63374
#
# Compressibility (1/GPa) = 0.01347849
#
# Stress axis : x y z
#
# Youngs Moduli (GPa) = 112.30837 52.47951 70.81879
#
# Poissons Ratio (x) = 0.14142 0.21545
# Poissons Ratio (y) = 0.30265 0.60645
# Poissons Ratio (z) = 0.34168 0.44940
#
# Static dielectric constant tensor:
#      x y z
#    x 3.669870 0.000000 0.000000 
#    y 0.000000 3.359120 0.000000 
#    z 0.000000 0.000000 3.441010 
# 
# 
# High freq. dielectric constant tensor:
#      x y z
#    x 1.734500 0.000000 0.000000 
#    y 0.000000 1.711210 0.000000 
#    z 0.000000 0.000000 1.719770 
# 
# From -- ./inp_files/35635.got.cif
#   From: 2010.03.12/outbox.cif.g09.slc.cpg/sg51_18_cif.got.tgz:35635.got - 2010.04.16 13:43:02.
