data_PCOD8207055
_publ_section_title
;
Structure prediction by ZEFSAII (Michael W. Deem and Ramdas Pophale) SiO2 
 PCOD8207055
Probable space group: P M M A
;
_chemical_formula_sum "Si O2"
_cell_formula_units_Z 56
_cell_length_a 20.595082
_cell_length_b 9.042948
_cell_length_c 17.799250
_cell_angle_alpha 90.000000
_cell_angle_beta 90.000000
_cell_angle_gamma 90.000000
_cell_volume 3314.936869
_symmetry_space_group_name_H-M "P M M A"
_symmetry_group_IT_number 51
_symmetry_cell_setting 'orthorhombic'
loop_
_space_group_symop_operation_xyz
x,y,z
1/2-x,-y,z
1/2+x,-y,-z
-x,y,-z
-x,-y,-z
1/2+x,y,-z
1/2-x,y,z
x,-y,z
loop_
_atom_site_type_symbol
_atom_site_label
_atom_site_fract_x
_atom_site_fract_y
_atom_site_fract_z
Si Si1 0.423528 0.665742 0.514644
Si Si2 0.058273 0.833549 0.658678
Si Si3 0.398713 0.826301 0.209741
Si Si4 0.066270 0.825641 0.956819
Si Si5 0.178473 0.174606 0.066747
Si Si6 0.094037 0.163690 0.373226
Si Si7 0.034972 0.324115 0.806741
O O1 0.500000 0.671654 0.500000
O O2 0.399243 0.500000 0.528191
O O3 0.404710 0.760670 0.587891
O O4 0.386534 0.727738 0.440930
O O5 0.072006 0.739221 0.733549
O O6 0.982331 0.833999 0.641954
O O7 0.084421 0.000000 0.669634
O O8 0.342784 0.782588 0.151278
O O9 0.372661 0.789811 0.294018
O O10 0.461285 0.730759 0.189571
O O11 0.418206 0.000000 0.203748
O O12 0.071918 0.735642 0.879823
O O13 0.070221 0.000000 0.939989
O O14 0.126271 0.766635 0.006868
O O15 0.000000 0.787184 0.000000
O O16 0.250000 0.243247 0.051560
O O17 0.181602 0.000000 0.059615
O O18 0.116258 0.000000 0.397499
O O19 0.036903 0.500000 0.803849
#
# Coordination Sequence:
#
# PCOD8207055 Si02
#       7
#     8   8   8   8   8   8   8
#     4   9  15  22  33  52  81 113 146 182 221 264
#     4   9  16  26  39  55  81 115 150 184 226 272
#     4   9  16  29  45  63  88 118 153 190 231 273
#     4  10  18  31  50  68  90 120 154 192 237 283
#     4   9  17  30  50  72  91 116 155 198 235 275
#     4   8  14  22  35  53  77 112 149 180 214 264
#     4  11  20  28  42  65  91 117 153 193 231 276
#
# _framework density 16.893232999999999
#
# number of rings (size 3 to 8) (size 9 to 14) (size 15 to 20)
#    0.000    2.714    1.429    3.000    0.000    5.429 
#    0.000    0.000    0.000    1.714    0.000    0.000 
#    0.000    1.143    0.000    9.714    0.000    4.429 
#
# Total GULP energy -694128.242457 kJ/mol
# GULP energy per Si atom -12395.147187 kJ/mol
# Density = 1.685478 g / cm^3
# Si number density = 16.893233 Si / 1000 Ang^3
#
#
#
# Elastic Constant Matrix: (Units=GPa)
#
#
# Indices 1 2 3 4 5 6 
#
# 1 59.2483 23.3602 48.5266 0.0000 0.0000 0.0000
# 2 23.3602 100.0593 67.9099 0.0000 0.0000 0.0000
# 3 48.5266 67.9099 161.6294 0.0000 0.0000 0.0000
# 4 0.0000 0.0000 0.0000 20.1365 0.0000 0.0000
# 5 0.0000 0.0000 0.0000 0.0000 11.7060 0.0000
# 6 0.0000 0.0000 0.0000 0.0000 0.0000 4.6007
#
#
#
# Elastic Compliance Matrix: (Units=1/GPa)
#
#
# Indices 1 2 3 4 5 6 
#
# 1 0.022444 -0.000932 -0.006347 0.000000 0.000000 0.000000
# 2 -0.000932 0.014020 -0.005611 0.000000 0.000000 0.000000
# 3 -0.006347 -0.005611 0.010450 0.000000 0.000000 0.000000
# 4 0.000000 0.000000 0.000000 0.049661 0.000000 0.000000
# 5 0.000000 0.000000 0.000000 0.000000 0.085426 0.000000
# 6 0.000000 0.000000 0.000000 0.000000 0.000000 0.217357
#
#
# Mechanical properties :
#
#
# Convention : Reuss Voigt Hill
#
# Bulk Modulus (GPa) = 47.31679 66.72562 57.02121
# Shear Modulus (GPa) = 11.56921 19.36465 15.46693
#
# Velocity S-wave (km/s) = 2.61979 3.38937 3.02912
# Velocity P-wave (km/s) = 6.10092 7.40954 6.78684
#
# Compressibility (1/GPa) = 0.02113415
#
# Stress axis : x y z
#
# Youngs Moduli (GPa) = 44.55550 71.32882 95.69574
#
# Poissons Ratio (x) = 0.06651 0.60735
# Poissons Ratio (y) = 0.04154 0.53690
# Poissons Ratio (z) = 0.28278 0.40019
#
# Static dielectric constant tensor:
#      x y z
#    x 2.731910 0.000000 0.000000 
#    y 0.000000 3.080840 0.000000 
#    z 0.000000 0.000000 3.536930 
# 
# 
# High freq. dielectric constant tensor:
#      x y z
#    x 1.573780 0.000000 0.000000 
#    y 0.000000 1.639490 0.000000 
#    z 0.000000 0.000000 1.673110 
# 
# From -- ./inp_files/30476.got.cif
#   From: 2010.03.12/outbox.cif.g09.slc.cpg/sg51_16_cif.got.tgz:30476.got - 2010.04.16 13:43:02.
