data_PCOD8207200
_publ_section_title
;
Structure prediction by ZEFSAII (Michael W. Deem and Ramdas Pophale) SiO2 
 PCOD8207200
Probable space group: P M M A
;
_chemical_formula_sum "Si O2"
_cell_formula_units_Z 36
_cell_length_a 8.758648
_cell_length_b 12.391362
_cell_length_c 20.425563
_cell_angle_alpha 90.000000
_cell_angle_beta 90.000000
_cell_angle_gamma 90.000000
_cell_volume 2216.818584
_symmetry_space_group_name_H-M "P M M A"
_symmetry_group_IT_number 51
_symmetry_cell_setting 'orthorhombic'
loop_
_space_group_symop_operation_xyz
x,y,z
1/2-x,-y,z
1/2+x,-y,-z
-x,y,-z
-x,-y,-z
1/2+x,y,-z
1/2-x,y,z
x,-y,z
loop_
_atom_site_type_symbol
_atom_site_label
_atom_site_fract_x
_atom_site_fract_y
_atom_site_fract_z
Si Si1 0.432031 0.000000 0.072392
Si Si2 0.578875 0.628260 0.303617
Si Si3 0.921897 0.371273 0.565732
Si Si4 0.569662 0.783326 0.071350
Si Si5 0.074525 0.372890 0.170889
O O1 0.496469 0.109421 0.105386
O O2 0.250000 0.000000 0.072766
O O3 0.500000 0.000000 0.000000
O O4 0.750000 0.673340 0.295238
O O5 0.579744 0.500000 0.307157
O O6 0.509043 0.675069 0.370790
O O7 0.477376 0.667259 0.242558
O O8 0.750000 0.327918 0.567865
O O9 0.925781 0.500000 0.565891
O O10 0.000000 0.326088 0.500000
O O11 0.750000 0.797418 0.064807
O O12 0.530287 0.681788 0.116302
O O13 0.500000 0.762257 0.000000
O O14 0.250000 0.340125 0.160542
O O15 0.049657 0.500000 0.163626
#
# Coordination Sequence:
#
# PCOD8207200 Si02
#       5
#     4   8   8   8   8
#     4  10  18  32  52  72  92 112 139 176 221 268
#     4   9  16  26  39  55  77 107 142 178 216 259
#     4   9  15  22  33  50  72 100 136 177 216 253
#     4  11  21  34  51  70  91 115 146 183 224 267
#     4  10  20  33  47  64  88 119 153 186 222 265
#
# _framework density 16.239488999999999
#
# number of rings (size 3 to 8) (size 9 to 14) (size 15 to 20)
#    0.000    2.222    0.000    6.333    0.000    7.111 
#    0.000    0.000    0.000    0.000    0.000    0.000 
#    0.000    0.000    0.000    1.000    0.000   14.444 
#
# Total GULP energy -446342.952965 kJ/mol
# GULP energy per Si atom -12398.415360 kJ/mol
# Density = 1.620253 g / cm^3
# Si number density = 16.239489 Si / 1000 Ang^3
#
#
#
# Elastic Constant Matrix: (Units=GPa)
#
#
# Indices 1 2 3 4 5 6 
#
# 1 143.1578 30.0766 46.9515 0.0000 0.0000 0.0000
# 2 30.0766 34.5669 31.9238 0.0000 0.0000 0.0000
# 3 46.9515 31.9238 105.3708 0.0000 0.0000 0.0000
# 4 0.0000 0.0000 0.0000 0.6298 0.0000 0.0000
# 5 0.0000 0.0000 0.0000 0.0000 33.1895 0.0000
# 6 0.0000 0.0000 0.0000 0.0000 0.0000 19.4144
#
#
#
# Elastic Compliance Matrix: (Units=1/GPa)
#
#
# Indices 1 2 3 4 5 6 
#
# 1 0.008917 -0.005678 -0.002253 0.000000 0.000000 0.000000
# 2 -0.005678 0.043784 -0.010735 0.000000 0.000000 0.000000
# 3 -0.002253 -0.010735 0.013747 0.000000 0.000000 0.000000
# 4 0.000000 0.000000 0.000000 1.587823 0.000000 0.000000
# 5 0.000000 0.000000 0.000000 0.000000 0.030130 0.000000
# 6 0.000000 0.000000 0.000000 0.000000 0.000000 0.051508
#
#
# Mechanical properties :
#
#
# Convention : Reuss Voigt Hill
#
# Bulk Modulus (GPa) = 34.34599 55.66661 45.00630
# Shear Modulus (GPa) = 2.80435 22.25632 12.53033
#
# Velocity S-wave (km/s) = 1.31553 3.70605 2.78078
# Velocity P-wave (km/s) = 4.84800 7.25714 6.17127
#
# Compressibility (1/GPa) = 0.02911548
#
# Stress axis : x y z
#
# Youngs Moduli (GPa) = 112.14327 22.83938 72.74529
#
# Poissons Ratio (x) = 0.12968 0.16390
# Poissons Ratio (y) = 0.63675 0.78092
# Poissons Ratio (z) = 0.25267 0.24518
#
# Static dielectric constant tensor:
#      x y z
#    x 3.284670 0.000000 0.000000 
#    y 0.000000 2.875400 0.000000 
#    z 0.000000 0.000000 3.114100 
# 
# 
# High freq. dielectric constant tensor:
#      x y z
#    x 1.649910 0.000000 0.000000 
#    y 0.000000 1.560110 0.000000 
#    z 0.000000 0.000000 1.621870 
# 
# From -- ./inp_files/27005.got.cif
#   From: 2010.03.12/outbox.cif.g09.slc.cpg/sg51_14_cif.got.tgz:27005.got - 2010.04.16 13:43:02.
