data_PCOD8207659
_publ_section_title
;
Structure prediction by ZEFSAII (Michael W. Deem and Ramdas Pophale) SiO2 
 PCOD8207659
Probable space group: P M M A
;
_chemical_formula_sum "Si O2"
_cell_formula_units_Z 64
_cell_length_a 20.602845
_cell_length_b 9.433997
_cell_length_c 20.419208
_cell_angle_alpha 90.000000
_cell_angle_beta 90.000000
_cell_angle_gamma 90.000000
_cell_volume 3968.823834
_symmetry_space_group_name_H-M "P M M A"
_symmetry_group_IT_number 51
_symmetry_cell_setting 'orthorhombic'
loop_
_space_group_symop_operation_xyz
x,y,z
1/2-x,-y,z
1/2+x,-y,-z
-x,y,-z
-x,-y,-z
1/2+x,y,-z
1/2-x,y,z
x,-y,z
loop_
_atom_site_type_symbol
_atom_site_label
_atom_site_fract_x
_atom_site_fract_y
_atom_site_fract_z
Si Si1 0.947587 0.836414 0.054434
Si Si2 0.993121 0.842870 0.703621
Si Si3 0.319272 0.831504 0.412182
Si Si4 0.323220 0.840134 0.027903
Si Si5 0.156409 0.844183 0.269036
Si Si6 0.141920 0.339453 0.152010
Si Si7 0.989567 0.337867 0.176533
Si Si8 0.540638 0.830623 0.560743
O O1 0.952111 0.742435 0.119106
O O2 0.961401 0.000000 0.072670
O O3 0.874345 0.812476 0.029826
O O4 0.000000 0.786296 0.000000
O O5 0.920365 0.858166 0.727979
O O6 0.028643 0.735434 0.753636
O O7 0.992757 0.781563 0.629028
O O8 0.025910 0.000000 0.705768
O O9 0.250000 0.782671 0.445023
O O10 0.317256 0.780328 0.336973
O O11 0.384850 0.771922 0.446428
O O12 0.324385 0.000000 0.412842
O O13 0.250000 0.818938 0.000690
O O14 0.336771 0.730699 0.084984
O O15 0.332849 0.000000 0.055082
O O16 0.178251 0.739776 0.211304
O O17 0.186089 0.000000 0.255448
O O18 0.166322 0.500000 0.151397
O O19 0.065193 0.329361 0.160717
O O20 0.965725 0.500000 0.180003
O O21 0.500000 0.767935 0.500000
O O22 0.541353 0.000000 0.559825
#
# Coordination Sequence:
#
# PCOD8207659 Si02
#       8
#     8   8   8   8   8   8   8   8
#     4  10  19  32  51  70  86 111 148 186 223 265
#     4   8  14  25  41  61  86 115 146 179 215 258
#     4   8  13  21  34  54  79 107 139 173 207 245
#     4  10  21  35  48  63  85 113 145 181 222 269
#     4   8  14  24  38  55  79 112 148 178 204 243
#     4  10  19  29  42  62  88 116 145 178 216 255
#     4  10  19  29  45  68  92 116 145 186 225 258
#     4   8  13  22  38  61  86 111 140 176 214 254
#
# _framework density 16.125684
#
# number of rings (size 3 to 8) (size 9 to 14) (size 15 to 20)
#    0.000    3.000    1.250    2.250    0.000    2.500 
#    0.000    1.250    0.000    0.375    0.000    0.875 
#    0.000    5.000    0.000    0.000    0.000    0.000 
#
# Total GULP energy -792986.731878 kJ/mol
# GULP energy per Si atom -12390.417686 kJ/mol
# Density = 1.608898 g / cm^3
# Si number density = 16.125684 Si / 1000 Ang^3
#
#
#
# Elastic Constant Matrix: (Units=GPa)
#
#
# Indices 1 2 3 4 5 6 
#
# 1 70.6238 32.8694 49.6472 0.0000 0.0000 0.0000
# 2 32.8694 71.3149 50.2081 0.0000 0.0000 0.0000
# 3 49.6472 50.2081 112.4315 0.0000 0.0000 0.0000
# 4 0.0000 0.0000 0.0000 2.6315 0.0000 0.0000
# 5 0.0000 0.0000 0.0000 0.0000 10.6173 0.0000
# 6 0.0000 0.0000 0.0000 0.0000 0.0000 5.9510
#
#
#
# Elastic Compliance Matrix: (Units=1/GPa)
#
#
# Indices 1 2 3 4 5 6 
#
# 1 0.021570 -0.004720 -0.007417 0.000000 0.000000 0.000000
# 2 -0.004720 0.021485 -0.007510 0.000000 0.000000 0.000000
# 3 -0.007417 -0.007510 0.015524 0.000000 0.000000 0.000000
# 4 0.000000 0.000000 0.000000 0.380017 0.000000 0.000000
# 5 0.000000 0.000000 0.000000 0.000000 0.094186 0.000000
# 6 0.000000 0.000000 0.000000 0.000000 0.000000 0.168038
#
#
# Mechanical properties :
#
#
# Convention : Reuss Voigt Hill
#
# Bulk Modulus (GPa) = 51.85622 57.75774 54.80698
# Shear Modulus (GPa) = 6.69754 11.94966 9.32360
#
# Velocity S-wave (km/s) = 2.04018 2.72515 2.40715
# Velocity P-wave (km/s) = 6.14631 6.76734 6.46429
#
# Compressibility (1/GPa) = 0.01928409
#
# Stress axis : x y z
#
# Youngs Moduli (GPa) = 46.35970 46.54338 64.41835
#
# Poissons Ratio (x) = 0.21968 0.47781
# Poissons Ratio (y) = 0.21881 0.48381
# Poissons Ratio (z) = 0.34386 0.34956
#
# Static dielectric constant tensor:
#      x y z
#    x 3.088360 0.000000 0.000000 
#    y 0.000000 3.019000 0.000000 
#    z 0.000000 0.000000 3.054860 
# 
# 
# High freq. dielectric constant tensor:
#      x y z
#    x 1.597050 0.000000 0.000000 
#    y 0.000000 1.595980 0.000000 
#    z 0.000000 0.000000 1.601340 
# 
# From -- ./inp_files/34144.got.cif
#   From: 2010.03.12/outbox.cif.g09.slc.cpg/sg51_18_cif.got.tgz:34144.got - 2010.04.16 13:43:02.
