data_PCOD8207950
_publ_section_title
;
Structure prediction by ZEFSAII (Michael W. Deem and Ramdas Pophale) SiO2 
 PCOD8207950
Probable space group: P M M A
;
_chemical_formula_sum "Si O2"
_cell_formula_units_Z 48
_cell_length_a 25.733850
_cell_length_b 10.101020
_cell_length_c 11.234242
_cell_angle_alpha 90.000000
_cell_angle_beta 90.000000
_cell_angle_gamma 90.000000
_cell_volume 2920.207897
_symmetry_space_group_name_H-M "P M M A"
_symmetry_group_IT_number 51
_symmetry_cell_setting 'orthorhombic'
loop_
_space_group_symop_operation_xyz
x,y,z
1/2-x,-y,z
1/2+x,-y,-z
-x,y,-z
-x,-y,-z
1/2+x,y,-z
1/2-x,y,z
x,-y,z
loop_
_atom_site_type_symbol
_atom_site_label
_atom_site_fract_x
_atom_site_fract_y
_atom_site_fract_z
Si Si1 0.469614 0.756809 0.111910
Si Si2 0.559663 0.346664 0.466815
Si Si3 0.126844 0.853191 0.976395
Si Si4 0.310056 0.655286 0.118043
Si Si5 0.604918 0.350963 0.706243
Si Si6 0.064856 0.147895 0.745936
O O1 0.443033 0.651253 0.200010
O O2 0.509236 0.843376 0.189161
O O3 0.500000 0.687838 0.000000
O O4 0.423944 0.849006 0.060670
O O5 0.500000 0.334016 0.500000
O O6 0.573514 0.500000 0.438255
O O7 0.591342 0.283989 0.579541
O O8 0.573253 0.257967 0.353913
O O9 0.110707 0.827773 0.840417
O O10 0.151104 0.000000 0.991138
O O11 0.169761 0.741974 0.007187
O O12 0.250000 0.683444 0.142140
O O13 0.320736 0.500000 0.091216
O O14 0.342241 0.705040 0.234232
O O15 0.614881 0.500000 0.670706
O O16 0.068710 0.000000 0.691265
#
# Coordination Sequence:
#
# PCOD8207950 Si02
#       6
#     8   8   8   8   8   8
#     4   9  16  27  43  65  94 126 157 190 228 276
#     4  10  19  31  45  64  95 132 166 197 230 273
#     4   9  18  31  47  69  96 123 153 191 236 285
#     4   9  18  33  53  74  93 115 150 197 244 289
#     4   9  17  30  45  66  95 125 157 195 238 279
#     4  10  19  30  45  67  96 129 162 191 226 274
#
# _framework density 16.437186000000001
#
# number of rings (size 3 to 8) (size 9 to 14) (size 15 to 20)
#    0.000    2.667    1.667    0.500    0.000    3.667 
#    0.000    4.167    0.000    1.000    0.000    2.333 
#    0.000    0.000    0.000    0.000    0.000    0.000 
#
# Total GULP energy -594716.558083 kJ/mol
# GULP energy per Si atom -12389.928293 kJ/mol
# Density = 1.639977 g / cm^3
# Si number density = 16.437186 Si / 1000 Ang^3
#
#
#
# Elastic Constant Matrix: (Units=GPa)
#
#
# Indices 1 2 3 4 5 6 
#
# 1 89.1962 42.3118 45.7672 0.0000 0.0000 0.0000
# 2 42.3118 76.7562 56.5901 0.0000 0.0000 0.0000
# 3 45.7672 56.5901 115.4165 0.0000 0.0000 0.0000
# 4 0.0000 0.0000 0.0000 23.8449 0.0000 0.0000
# 5 0.0000 0.0000 0.0000 0.0000 14.5770 0.0000
# 6 0.0000 0.0000 0.0000 0.0000 0.0000 17.3996
#
#
#
# Elastic Compliance Matrix: (Units=1/GPa)
#
#
# Indices 1 2 3 4 5 6 
#
# 1 0.015875 -0.006437 -0.003139 0.000000 0.000000 0.000000
# 2 -0.006437 0.023014 -0.008732 0.000000 0.000000 0.000000
# 3 -0.003139 -0.008732 0.014190 0.000000 0.000000 0.000000
# 4 0.000000 0.000000 0.000000 0.041938 0.000000 0.000000
# 5 0.000000 0.000000 0.000000 0.000000 0.068601 0.000000
# 6 0.000000 0.000000 0.000000 0.000000 0.000000 0.057473
#
#
# Mechanical properties :
#
#
# Convention : Reuss Voigt Hill
#
# Bulk Modulus (GPa) = 60.73669 63.41190 62.07430
# Shear Modulus (GPa) = 18.99731 20.27762 19.63746
#
# Velocity S-wave (km/s) = 3.40332 3.51614 3.46019
# Velocity P-wave (km/s) = 7.24393 7.42606 7.33556
#
# Compressibility (1/GPa) = 0.01646451
#
# Stress axis : x y z
#
# Youngs Moduli (GPa) = 62.99041 43.45134 70.47071
#
# Poissons Ratio (x) = 0.27969 0.22122
# Poissons Ratio (y) = 0.40547 0.61533
# Poissons Ratio (z) = 0.19773 0.37940
#
# Static dielectric constant tensor:
#      x y z
#    x 2.966140 0.000000 0.000000 
#    y 0.000000 2.966800 0.000000 
#    z 0.000000 0.000000 3.295540 
# 
# 
# High freq. dielectric constant tensor:
#      x y z
#    x 1.606700 0.000000 0.000000 
#    y 0.000000 1.619430 0.000000 
#    z 0.000000 0.000000 1.631140 
# 
# From -- ./inp_files/11643.got.cif
#   From: 2010.03.12/outbox.cif.g09.slc.cpg/sg51_6_cif.got.tgz:11643.got - 2010.04.16 13:43:02.
