data_PCOD8207621
_publ_section_title
;
Structure prediction by ZEFSAII (Michael W. Deem and Ramdas Pophale) SiO2 
 PCOD8207621
Probable space group: P M M A
;
_chemical_formula_sum "Si O2"
_cell_formula_units_Z 52
_cell_length_a 9.094264
_cell_length_b 12.698756
_cell_length_c 29.993511
_cell_angle_alpha 90.000000
_cell_angle_beta 90.000000
_cell_angle_gamma 90.000000
_cell_volume 3463.825798
_symmetry_space_group_name_H-M "P M M A"
_symmetry_group_IT_number 51
_symmetry_cell_setting 'orthorhombic'
loop_
_space_group_symop_operation_xyz
x,y,z
1/2-x,-y,z
1/2+x,-y,-z
-x,y,-z
-x,-y,-z
1/2+x,y,-z
1/2-x,y,z
x,-y,z
loop_
_atom_site_type_symbol
_atom_site_label
_atom_site_fract_x
_atom_site_fract_y
_atom_site_fract_z
Si Si1 0.922132 0.805273 0.392158
Si Si2 0.921262 0.381156 0.455369
Si Si3 0.583897 0.874722 0.217575
Si Si4 0.422393 0.877608 0.306280
Si Si5 0.583610 0.874405 0.869210
Si Si6 0.422147 0.000000 0.547078
Si Si7 0.083662 0.874481 0.956434
O O1 0.750000 0.815106 0.380661
O O2 0.963179 0.693890 0.414370
O O3 0.014405 0.810826 0.347039
O O4 0.971468 0.897563 0.425484
O O5 0.750000 0.374224 0.465626
O O6 0.970171 0.500000 0.442995
O O7 0.000000 0.341186 0.500000
O O8 0.750000 0.830690 0.218010
O O9 0.499418 0.835492 0.261501
O O10 0.499831 0.830139 0.174281
O O11 0.584456 0.000000 0.215935
O O12 0.250000 0.858181 0.301564
O O13 0.459480 0.000000 0.314364
O O14 0.750000 0.831269 0.869373
O O15 0.499993 0.831560 0.912838
O O16 0.583820 0.000000 0.868939
O O17 0.500000 0.000000 0.500000
O O18 0.250000 0.000000 0.537939
O O19 0.250000 0.831142 0.956407
O O20 0.084206 0.000000 0.956514
O O21 0.000000 0.831272 0.000000
#
# Coordination Sequence:
#
# PCOD8207621 Si02
#       7
#     8   8   8   8   8   4   8
#     4  10  19  31  45  61  83 108 131 157 190 231
#     4   9  18  32  49  67  85 106 132 161 192 226
#     4   9  16  25  37  50  66  90 117 146 181 224
#     4  10  19  29  41  58  78 100 126 156 189 228
#     4   9  15  22  31  43  59  79 107 143 181 223
#     4  10  20  30  42  60  82 106 130 154 185 224
#     4   9  15  21  28  38  53  74 102 138 183 231
#
# _framework density 15.012302
#
# number of rings (size 3 to 8) (size 9 to 14) (size 15 to 20)
#    0.000    2.615    0.769    2.308    0.000    7.385 
#    0.000    0.000    0.000    0.000    0.000    0.000 
#    0.000    0.000    0.000    0.000    0.000    0.000 
#
# Total GULP energy -644812.465238 kJ/mol
# GULP energy per Si atom -12400.239716 kJ/mol
# Density = 1.497813 g / cm^3
# Si number density = 15.012302 Si / 1000 Ang^3
#
#
#
# Elastic Constant Matrix: (Units=GPa)
#
#
# Indices 1 2 3 4 5 6 
#
# 1 110.6641 20.9485 78.9015 0.0000 0.0000 0.0000
# 2 20.9485 33.5768 29.4128 0.0000 0.0000 0.0000
# 3 78.9015 29.4128 157.3365 0.0000 0.0000 0.0000
# 4 0.0000 0.0000 0.0000 6.8468 0.0000 0.0000
# 5 0.0000 0.0000 0.0000 0.0000 36.6270 0.0000
# 6 0.0000 0.0000 0.0000 0.0000 0.0000 7.4830
#
#
#
# Elastic Compliance Matrix: (Units=1/GPa)
#
#
# Indices 1 2 3 4 5 6 
#
# 1 0.014341 -0.003166 -0.006600 0.000000 0.000000 0.000000
# 2 -0.003166 0.036314 -0.005201 0.000000 0.000000 0.000000
# 3 -0.006600 -0.005201 0.010638 0.000000 0.000000 0.000000
# 4 0.000000 0.000000 0.000000 0.146053 0.000000 0.000000
# 5 0.000000 0.000000 0.000000 0.000000 0.027302 0.000000
# 6 0.000000 0.000000 0.000000 0.000000 0.000000 0.133636
#
#
# Mechanical properties :
#
#
# Convention : Reuss Voigt Hill
#
# Bulk Modulus (GPa) = 31.88873 62.23366 47.06120
# Shear Modulus (GPa) = 12.23476 21.67901 16.95689
#
# Velocity S-wave (km/s) = 2.85789 3.80423 3.36450
# Velocity P-wave (km/s) = 5.67255 7.80009 6.81980
#
# Compressibility (1/GPa) = 0.03135904
#
# Stress axis : x y z
#
# Youngs Moduli (GPa) = 69.72802 27.53790 94.00345
#
# Poissons Ratio (x) = 0.08718 0.62043
# Poissons Ratio (y) = 0.22076 0.48890
# Poissons Ratio (z) = 0.46021 0.14322
#
# Static dielectric constant tensor:
#      x y z
#    x 3.028450 0.000000 0.000000 
#    y 0.000000 2.414650 0.000000 
#    z 0.000000 0.000000 3.021770 
# 
# 
# High freq. dielectric constant tensor:
#      x y z
#    x 1.590070 0.000000 0.000000 
#    y 0.000000 1.493230 0.000000 
#    z 0.000000 0.000000 1.587440 
# 
# From -- ./inp_files/37333.got.cif
#   From: 2010.03.12/outbox.cif.g09.slc.cpg/sg51_19_cif.got.tgz:37333.got - 2010.04.16 13:43:02.
