data_PCOD8207688
_publ_section_title
;
Structure prediction by ZEFSAII (Michael W. Deem and Ramdas Pophale) SiO2 
 PCOD8207688
Probable space group: P M M A
;
_chemical_formula_sum "Si O2"
_cell_formula_units_Z 48
_cell_length_a 25.189465
_cell_length_b 9.379391
_cell_length_c 12.613293
_cell_angle_alpha 90.000000
_cell_angle_beta 90.000000
_cell_angle_gamma 90.000000
_cell_volume 2980.039829
_symmetry_space_group_name_H-M "P M M A"
_symmetry_group_IT_number 51
_symmetry_cell_setting 'orthorhombic'
loop_
_space_group_symop_operation_xyz
x,y,z
1/2-x,-y,z
1/2+x,-y,-z
-x,y,-z
-x,-y,-z
1/2+x,y,-z
1/2-x,y,z
x,-y,z
loop_
_atom_site_type_symbol
_atom_site_label
_atom_site_fract_x
_atom_site_fract_y
_atom_site_fract_z
Si Si1 0.313113 0.841872 0.028556
Si Si2 0.690750 0.830128 0.203505
Si Si3 0.189513 0.335004 0.225887
Si Si4 0.991920 0.156758 0.624914
Si Si5 0.106413 0.332428 0.404698
Si Si6 0.391743 0.168516 0.622261
O O1 0.250000 0.848013 0.032164
O O2 0.334914 0.744476 0.123596
O O3 0.336993 0.000000 0.044386
O O4 0.329281 0.778731 0.912951
O O5 0.750000 0.771435 0.228376
O O6 0.650752 0.773646 0.292966
O O7 0.691963 0.000000 0.202004
O O8 0.250000 0.287471 0.249181
O O9 0.186127 0.500000 0.198079
O O10 0.155778 0.297354 0.329349
O O11 0.946885 0.272424 0.652227
O O12 0.000000 0.148824 0.500000
O O13 0.049686 0.200408 0.671311
O O14 0.974637 0.000000 0.667305
O O15 0.098940 0.500000 0.424551
O O16 0.118317 0.254009 0.514507
O O17 0.385422 0.000000 0.598578
#
# Coordination Sequence:
#
# PCOD8207688 Si02
#       6
#     8   8   8   8   8   8
#     4   8  14  26  45  66  84 106 141 178 206 241
#     4   8  14  26  45  68  91 112 136 171 213 252
#     4   9  18  31  44  60  86 116 141 171 214 255
#     4   8  15  28  44  61  82 110 144 178 208 243
#     4  10  19  29  43  63  86 113 144 176 210 249
#     4   9  17  29  45  65  89 115 140 169 210 255
#
# _framework density 16.107168000000001
#
# number of rings (size 3 to 8) (size 9 to 14) (size 15 to 20)
#    0.000    3.333    0.000    2.500    0.000    5.000 
#    0.000    0.833    0.000    2.000    0.000    7.000 
#    0.000    0.000    0.000    0.000    0.000    0.000 
#
# Total GULP energy -594833.336516 kJ/mol
# GULP energy per Si atom -12392.361177 kJ/mol
# Density = 1.607051 g / cm^3
# Si number density = 16.107168 Si / 1000 Ang^3
#
#
#
# Elastic Constant Matrix: (Units=GPa)
#
#
# Indices 1 2 3 4 5 6 
#
# 1 91.7375 44.7082 59.6358 0.0000 0.0000 0.0000
# 2 44.7082 62.5924 53.8374 0.0000 0.0000 0.0000
# 3 59.6358 53.8374 101.4878 0.0000 0.0000 0.0000
# 4 0.0000 0.0000 0.0000 12.6369 0.0000 0.0000
# 5 0.0000 0.0000 0.0000 0.0000 3.9061 0.0000
# 6 0.0000 0.0000 0.0000 0.0000 0.0000 19.2804
#
#
#
# Elastic Compliance Matrix: (Units=1/GPa)
#
#
# Indices 1 2 3 4 5 6 
#
# 1 0.019352 -0.007434 -0.007428 0.000000 0.000000 0.000000
# 2 -0.007434 0.032239 -0.012734 0.000000 0.000000 0.000000
# 3 -0.007428 -0.012734 0.020974 0.000000 0.000000 0.000000
# 4 0.000000 0.000000 0.000000 0.079133 0.000000 0.000000
# 5 0.000000 0.000000 0.000000 0.000000 0.256013 0.000000
# 6 0.000000 0.000000 0.000000 0.000000 0.000000 0.051866
#
#
# Mechanical properties :
#
#
# Convention : Reuss Voigt Hill
#
# Bulk Modulus (GPa) = 57.56103 63.57562 60.56832
# Shear Modulus (GPa) = 9.60504 13.67376 11.63940
#
# Velocity S-wave (km/s) = 2.44462 2.91679 2.69108
# Velocity P-wave (km/s) = 6.61680 7.13440 6.88047
#
# Compressibility (1/GPa) = 0.01737287
#
# Stress axis : x y z
#
# Youngs Moduli (GPa) = 51.67320 31.01836 47.67888
#
# Poissons Ratio (x) = 0.23058 0.35418
# Poissons Ratio (y) = 0.38412 0.60715
# Poissons Ratio (z) = 0.38385 0.39499
#
# Static dielectric constant tensor:
#      x y z
#    x 3.350730 0.000000 0.000000 
#    y 0.000000 3.005680 0.000000 
#    z 0.000000 0.000000 3.065310 
# 
# 
# High freq. dielectric constant tensor:
#      x y z
#    x 1.607070 0.000000 0.000000 
#    y 0.000000 1.603510 0.000000 
#    z 0.000000 0.000000 1.602510 
# 
# From -- ./inp_files/26023.got.cif
#   From: 2010.03.12/outbox.cif.g09.slc.cpg/sg51_14_cif.got.tgz:26023.got - 2010.04.16 13:43:02.
