data_PCOD8207832
_publ_section_title
;
Structure prediction by ZEFSAII (Michael W. Deem and Ramdas Pophale) SiO2 
 PCOD8207832
Probable space group: P M M A
;
_chemical_formula_sum "Si O2"
_cell_formula_units_Z 56
_cell_length_a 9.028209
_cell_length_b 15.200110
_cell_length_c 30.979683
_cell_angle_alpha 90.000000
_cell_angle_beta 90.000000
_cell_angle_gamma 90.000000
_cell_volume 4251.334770
_symmetry_space_group_name_H-M "P M M A"
_symmetry_group_IT_number 51
_symmetry_cell_setting 'orthorhombic'
loop_
_space_group_symop_operation_xyz
x,y,z
1/2-x,-y,z
1/2+x,-y,-z
-x,y,-z
-x,-y,-z
1/2+x,y,-z
1/2-x,y,z
x,-y,z
loop_
_atom_site_type_symbol
_atom_site_label
_atom_site_fract_x
_atom_site_fract_y
_atom_site_fract_z
Si Si1 0.082721 0.104878 0.872851
Si Si2 0.417266 0.104888 0.042384
Si Si3 0.917378 0.895084 0.788015
Si Si4 0.580294 0.895735 0.617660
Si Si5 0.074768 0.783739 0.546598
Si Si6 0.917204 0.895285 0.296615
Si Si7 0.921753 0.407126 0.454744
O O1 0.250000 0.140960 0.872555
O O2 0.000528 0.141175 0.915325
O O3 0.998658 0.141029 0.830679
O O4 0.082200 0.000000 0.872900
O O5 0.250000 0.140929 0.042460
O O6 0.417940 0.000000 0.042387
O O7 0.500000 0.141158 0.000000
O O8 0.750000 0.859078 0.787459
O O9 0.002759 0.858351 0.746134
O O10 0.917760 0.000000 0.787884
O O11 0.750000 0.864364 0.617159
O O12 0.493248 0.856641 0.577405
O O13 0.505909 0.861185 0.661733
O O14 0.568086 0.000000 0.614192
O O15 0.250000 0.799897 0.542139
O O16 0.038183 0.686479 0.567593
O O17 0.000000 0.793557 0.500000
O O18 0.750000 0.858475 0.298278
O O19 0.916286 0.000000 0.295433
O O20 0.750000 0.405417 0.465208
O O21 0.961299 0.500000 0.429360
O O22 0.000000 0.409917 0.500000
#
# Coordination Sequence:
#
# PCOD8207832 Si02
#       7
#     8   8   8   8   8   8   8
#     4   9  15  21  28  38  51  66  85 110 140 174
#     4   9  15  21  27  34  45  62  83 106 134 171
#     4   9  15  22  32  45  59  73  90 115 148 184
#     4  10  20  32  43  54  70  93 119 145 171 199
#     4  10  19  30  44  60  77  96 117 141 167 196
#     4   9  16  26  39  52  64  79 101 129 160 193
#     4   8  14  25  41  60  79  96 113 134 162 195
#
# _framework density 13.172333
#
# number of rings (size 3 to 8) (size 9 to 14) (size 15 to 20)
#    0.000    2.857    0.000    2.571    0.000    8.571 
#    0.000    0.000    0.000    0.000    0.000    0.000 
#    0.000    0.000    0.000    0.000    0.000    0.000 
#
# Total GULP energy -693879.036545 kJ/mol
# GULP energy per Si atom -12390.697081 kJ/mol
# Density = 1.314235 g / cm^3
# Si number density = 13.172333 Si / 1000 Ang^3
#
#
#
# Elastic Constant Matrix: (Units=GPa)
#
#
# Indices 1 2 3 4 5 6 
#
# 1 117.3361 16.6446 60.6846 0.0000 0.0000 0.0000
# 2 16.6446 15.3332 17.8095 0.0000 0.0000 0.0000
# 3 60.6846 17.8095 109.7423 0.0000 0.0000 0.0000
# 4 0.0000 0.0000 0.0000 0.1082 0.0000 0.0000
# 5 0.0000 0.0000 0.0000 0.0000 28.4264 0.0000
# 6 0.0000 0.0000 0.0000 0.0000 0.0000 6.2104
#
#
#
# Elastic Compliance Matrix: (Units=1/GPa)
#
#
# Indices 1 2 3 4 5 6 
#
# 1 0.012490 -0.006822 -0.005799 0.000000 0.000000 0.000000
# 2 -0.006822 0.084092 -0.009875 0.000000 0.000000 0.000000
# 3 -0.005799 -0.009875 0.013922 0.000000 0.000000 0.000000
# 4 0.000000 0.000000 0.000000 9.243762 0.000000 0.000000
# 5 0.000000 0.000000 0.000000 0.000000 0.035179 0.000000
# 6 0.000000 0.000000 0.000000 0.000000 0.000000 0.161020
#
#
# Mechanical properties :
#
#
# Convention : Reuss Voigt Hill
#
# Bulk Modulus (GPa) = 15.26438 48.07656 31.67047
# Shear Modulus (GPa) = 0.51990 16.76720 8.64355
#
# Velocity S-wave (km/s) = 0.62892 3.57166 2.56440
# Velocity P-wave (km/s) = 3.48436 7.32027 5.73267
#
# Compressibility (1/GPa) = 0.06551201
#
# Stress axis : x y z
#
# Youngs Moduli (GPa) = 80.06694 11.89170 71.83071
#
# Poissons Ratio (x) = 0.08112 0.41657
# Poissons Ratio (y) = 0.54620 0.70930
# Poissons Ratio (z) = 0.46433 0.11743
#
# Static dielectric constant tensor:
#      x y z
#    x 2.884800 0.000000 0.000000 
#    y 0.000000 2.361490 0.000000 
#    z 0.000000 0.000000 2.676240 
# 
# 
# High freq. dielectric constant tensor:
#      x y z
#    x 1.525400 0.000000 0.000000 
#    y 0.000000 1.423150 0.000000 
#    z 0.000000 0.000000 1.496640 
# 
# From -- ./inp_files/37458.got.cif
#   From: 2010.03.12/outbox.cif.g09.slc.cpg/sg51_19_cif.got.tgz:37458.got - 2010.04.16 13:43:02.
