data_PCOD8207537
_publ_section_title
;
Structure prediction by ZEFSAII (Michael W. Deem and Ramdas Pophale) SiO2 
 PCOD8207537
Probable space group: P M M A
;
_chemical_formula_sum "Si O2"
_cell_formula_units_Z 64
_cell_length_a 15.012771
_cell_length_b 18.265102
_cell_length_c 15.901518
_cell_angle_alpha 90.000000
_cell_angle_beta 90.000000
_cell_angle_gamma 90.000000
_cell_volume 4360.351969
_symmetry_space_group_name_H-M "P M M A"
_symmetry_group_IT_number 51
_symmetry_cell_setting 'orthorhombic'
loop_
_space_group_symop_operation_xyz
x,y,z
1/2-x,-y,z
1/2+x,-y,-z
-x,y,-z
-x,-y,-z
1/2+x,y,-z
1/2-x,y,z
x,-y,z
loop_
_atom_site_type_symbol
_atom_site_label
_atom_site_fract_x
_atom_site_fract_y
_atom_site_fract_z
Si Si1 0.150916 0.580854 0.398100
Si Si2 0.499461 0.309424 0.600689
Si Si3 0.646773 0.082469 0.585998
Si Si4 0.651326 0.419391 0.402720
Si Si5 0.652622 0.086527 0.399770
Si Si6 0.005007 0.842054 0.307606
Si Si7 0.994664 0.913009 0.867929
Si Si8 0.649088 0.914376 0.006090
O O1 0.250000 0.599841 0.365175
O O2 0.121883 0.500000 0.364207
O O3 0.085692 0.645294 0.369298
O O4 0.149493 0.577329 0.497642
O O5 0.500000 0.290519 0.500000
O O6 0.415475 0.357705 0.628329
O O7 0.491662 0.240393 0.661836
O O8 0.750000 0.084596 0.609111
O O9 0.629354 0.115792 0.493217
O O10 0.596548 0.131576 0.652279
O O11 0.609541 0.000000 0.591494
O O12 0.750000 0.398845 0.370413
O O13 0.623744 0.500000 0.368374
O O14 0.750000 0.116474 0.372184
O O15 0.579815 0.111016 0.334511
O O16 0.656641 0.000000 0.404971
O O17 0.012538 0.856179 0.208796
O O18 0.907784 0.893282 0.923518
O O19 0.993267 0.000000 0.843160
O O20 0.087948 0.892966 0.913840
O O21 0.750000 0.878658 0.007872
O O22 0.662653 0.000000 0.006977
#
# Coordination Sequence:
#
# PCOD8207537 Si02
#       8
#     8   8   8   8   8   8   8   8
#     4   8  14  26  43  58  72  98 141 186 216 239
#     4  10  19  27  37  57  85 116 145 172 206 245
#     4   9  18  31  43  53  70 106 155 192 210 229
#     4   8  14  26  43  58  72  98 141 186 216 239
#     4   9  18  31  43  53  70 106 155 192 210 229
#     4  12  21  28  40  61  89 114 134 168 216 258
#     4   9  18  30  45  66  84 102 135 171 206 256
#     4   8  15  31  52  67  79  96 123 167 217 258
#
# _framework density 14.677714999999999
#
# number of rings (size 3 to 8) (size 9 to 14) (size 15 to 20)
#    0.000    2.875    0.000    4.875    0.000    4.500 
#    0.000    5.000    0.000    0.000    0.000    0.000 
#    0.000    0.000    0.000    9.000    0.000   23.000 
#
# Total GULP energy -792917.628641 kJ/mol
# GULP energy per Si atom -12389.337948 kJ/mol
# Density = 1.464431 g / cm^3
# Si number density = 14.677715 Si / 1000 Ang^3
#
#
#
# Elastic Constant Matrix: (Units=GPa)
#
#
# Indices 1 2 3 4 5 6 
#
# 1 78.5615 24.3300 17.8519 0.0000 0.0000 0.0000
# 2 24.3300 56.2239 24.6988 0.0000 0.0000 0.0000
# 3 17.8519 24.6988 47.2062 0.0000 0.0000 0.0000
# 4 0.0000 0.0000 0.0000 4.4926 0.0000 0.0000
# 5 0.0000 0.0000 0.0000 0.0000 12.7885 0.0000
# 6 0.0000 0.0000 0.0000 0.0000 0.0000 -24.4613
#
#
#
# Elastic Compliance Matrix: (Units=1/GPa)
#
#
# Indices 1 2 3 4 5 6 
#
# 1 0.015010 -0.005196 -0.002958 0.000000 0.000000 0.000000
# 2 -0.005196 0.024893 -0.011059 0.000000 0.000000 0.000000
# 3 -0.002958 -0.011059 0.028088 0.000000 0.000000 0.000000
# 4 0.000000 0.000000 0.000000 0.222587 0.000000 0.000000
# 5 0.000000 0.000000 0.000000 0.000000 0.078195 0.000000
# 6 0.000000 0.000000 0.000000 0.000000 0.000000 -0.040881
#
#
# Mechanical properties :
#
#
# Convention : Reuss Voigt Hill
#
# Bulk Modulus (GPa) = 33.82330 35.08367 34.45349
# Shear Modulus (GPa) = 13.29171 6.23802 9.76487
#
# Velocity S-wave (km/s) = 3.01254 2.06379 2.58211
# Velocity P-wave (km/s) = 5.93250 5.44367 5.69333
#
# Compressibility (1/GPa) = 0.02956542
#
# Stress axis : x y z
#
# Youngs Moduli (GPa) = 66.62151 40.17233 35.60179
#
# Poissons Ratio (x) = 0.20874 0.10530
# Poissons Ratio (y) = 0.34617 0.39373
# Poissons Ratio (z) = 0.19705 0.44427
#
# Static dielectric constant tensor:
#      x y z
#    x 3.156600 0.000000 0.000000 
#    y 0.000000 2.765360 0.000000 
#    z 0.000000 0.000000 2.526600 
# 
# 
# High freq. dielectric constant tensor:
#      x y z
#    x 1.584400 0.000000 0.000000 
#    y 0.000000 1.534480 0.000000 
#    z 0.000000 0.000000 1.508940 
# 
# From -- ./inp_files/24449.got.cif
#   From: 2010.03.12/outbox.cif.g09.slc.cpg/sg51_13_cif.got.tgz:24449.got - 2010.04.16 13:43:02.
