data_PCOD8207081
_publ_section_title
;
Structure prediction by ZEFSAII (Michael W. Deem and Ramdas Pophale) SiO2 
 PCOD8207081
Probable space group: P M M A
;
_chemical_formula_sum "Si O2"
_cell_formula_units_Z 48
_cell_length_a 8.778661
_cell_length_b 16.304711
_cell_length_c 18.250053
_cell_angle_alpha 90.000000
_cell_angle_beta 90.000000
_cell_angle_gamma 90.000000
_cell_volume 2612.194519
_symmetry_space_group_name_H-M "P M M A"
_symmetry_group_IT_number 51
_symmetry_cell_setting 'orthorhombic'
loop_
_space_group_symop_operation_xyz
x,y,z
1/2-x,-y,z
1/2+x,-y,-z
-x,y,-z
-x,-y,-z
1/2+x,y,-z
1/2-x,y,z
x,-y,z
loop_
_atom_site_type_symbol
_atom_site_label
_atom_site_fract_x
_atom_site_fract_y
_atom_site_fract_z
Si Si1 0.068302 0.000000 0.580789
Si Si2 0.072282 0.742777 0.705358
Si Si3 0.428841 0.171510 0.854040
Si Si4 0.426537 0.677346 0.073436
Si Si5 0.573241 0.593830 0.777557
Si Si6 0.929687 0.000000 0.080438
Si Si7 0.070012 0.164134 0.420341
O O1 0.000000 0.000000 0.500000
O O2 0.003734 0.082671 0.617537
O O3 0.250000 0.000000 0.581885
O O4 0.250000 0.749565 0.686664
O O5 0.025010 0.804849 0.770876
O O6 0.031909 0.649605 0.726181
O O7 0.973407 0.762230 0.633498
O O8 0.250000 0.182216 0.864617
O O9 0.509014 0.232485 0.910340
O O10 0.482929 0.079355 0.872976
O O11 0.250000 0.687391 0.059971
O O12 0.464270 0.613716 0.138040
O O13 0.500000 0.640948 0.000000
O O14 0.750000 0.612413 0.760948
O O15 0.531326 0.500000 0.761469
O O16 0.750000 0.000000 0.070516
O O17 0.000000 0.000000 0.000000
O O18 0.250000 0.154054 0.428358
O O19 0.000000 0.181742 0.500000
#
# Coordination Sequence:
#
# PCOD8207081 Si02
#       7
#     4   8   8   8   8   4   8
#     4  10  18  31  50  75 107 140 174 212 253 295
#     4  10  20  35  55  79 105 136 173 214 262 315
#     4   9  19  34  50  69  97 133 173 214 258 308
#     4  10  19  31  49  72  99 130 166 210 259 311
#     4   9  19  36  55  75 101 134 170 210 260 317
#     4  10  20  33  48  69  96 132 176 218 257 295
#     4  11  21  35  55  81 112 145 180 217 259 309
#
# _framework density 18.375354000000002
#
# number of rings (size 3 to 8) (size 9 to 14) (size 15 to 20)
#    0.000    2.167    0.000    4.750    0.000    4.667 
#    0.000    1.667    0.000    0.500    0.000    0.000 
#    0.000    0.000    0.000    0.000    0.000    0.000 
#
# Total GULP energy -595227.065912 kJ/mol
# GULP energy per Si atom -12400.563873 kJ/mol
# Density = 1.833353 g / cm^3
# Si number density = 18.375354 Si / 1000 Ang^3
#
#
#
# Elastic Constant Matrix: (Units=GPa)
#
#
# Indices 1 2 3 4 5 6 
#
# 1 93.4296 38.5763 44.2286 0.0000 0.0000 0.0000
# 2 38.5763 110.3740 46.5095 0.0000 0.0000 0.0000
# 3 44.2286 46.5095 93.8453 0.0000 0.0000 0.0000
# 4 0.0000 0.0000 0.0000 20.4132 0.0000 0.0000
# 5 0.0000 0.0000 0.0000 0.0000 30.4897 0.0000
# 6 0.0000 0.0000 0.0000 0.0000 0.0000 28.6973
#
#
#
# Elastic Compliance Matrix: (Units=1/GPa)
#
#
# Indices 1 2 3 4 5 6 
#
# 1 0.014408 -0.002748 -0.005428 0.000000 0.000000 0.000000
# 2 -0.002748 0.011976 -0.004640 0.000000 0.000000 0.000000
# 3 -0.005428 -0.004640 0.015514 0.000000 0.000000 0.000000
# 4 0.000000 0.000000 0.000000 0.048988 0.000000 0.000000
# 5 0.000000 0.000000 0.000000 0.000000 0.032798 0.000000
# 6 0.000000 0.000000 0.000000 0.000000 0.000000 0.034847
#
#
# Mechanical properties :
#
#
# Convention : Reuss Voigt Hill
#
# Bulk Modulus (GPa) = 61.48423 61.80865 61.64644
# Shear Modulus (GPa) = 26.37359 27.14234 26.75796
#
# Velocity S-wave (km/s) = 3.79261 3.84748 3.82014
# Velocity P-wave (km/s) = 7.26025 7.31076 7.28555
#
# Compressibility (1/GPa) = 0.01626433
#
# Stress axis : x y z
#
# Youngs Moduli (GPa) = 69.40781 83.50164 64.45922
#
# Poissons Ratio (x) = 0.22948 0.34990
# Poissons Ratio (y) = 0.19075 0.29909
# Poissons Ratio (z) = 0.37676 0.38745
#
# Static dielectric constant tensor:
#      x y z
#    x 3.386560 0.000000 0.000000 
#    y 0.000000 3.522640 0.000000 
#    z 0.000000 0.000000 3.221510 
# 
# 
# High freq. dielectric constant tensor:
#      x y z
#    x 1.719450 0.000000 0.000000 
#    y 0.000000 1.705960 0.000000 
#    z 0.000000 0.000000 1.699310 
# 
# From -- ./inp_files/27675.got.cif
#   From: 2010.03.12/outbox.cif.g09.slc.cpg/sg51_14_cif.got.tgz:27675.got - 2010.04.16 13:43:02.
