data_PCOD8207341
_publ_section_title
;
Structure prediction by ZEFSAII (Michael W. Deem and Ramdas Pophale) SiO2 
 PCOD8207341
Probable space group: P M M A
;
_chemical_formula_sum "Si O2"
_cell_formula_units_Z 64
_cell_length_a 30.664694
_cell_length_b 8.912490
_cell_length_c 12.042470
_cell_angle_alpha 90.000000
_cell_angle_beta 90.000000
_cell_angle_gamma 90.000000
_cell_volume 3291.192343
_symmetry_space_group_name_H-M "P M M A"
_symmetry_group_IT_number 51
_symmetry_cell_setting 'orthorhombic'
loop_
_space_group_symop_operation_xyz
x,y,z
1/2-x,-y,z
1/2+x,-y,-z
-x,y,-z
-x,-y,-z
1/2+x,y,-z
1/2-x,y,z
x,-y,z
loop_
_atom_site_type_symbol
_atom_site_label
_atom_site_fract_x
_atom_site_fract_y
_atom_site_fract_z
Si Si1 0.548565 0.178371 0.986624
Si Si2 0.820739 0.170638 0.746553
Si Si3 0.548670 0.325375 0.534024
Si Si4 0.798902 0.671226 0.528643
Si Si5 0.577333 0.170220 0.746807
Si Si6 0.701258 0.821930 0.990814
Si Si7 0.124144 0.821148 0.855687
Si Si8 0.375126 0.177946 0.603889
O O1 0.567631 0.232240 0.869312
O O2 0.547474 0.000000 0.991992
O O3 0.500000 0.245416 0.000000
O O4 0.580341 0.238962 0.083751
O O5 0.797369 0.271260 0.654923
O O6 0.871784 0.176426 0.722942
O O7 0.809583 0.238460 0.867507
O O8 0.803481 0.000000 0.737200
O O9 0.500000 0.283066 0.500000
O O10 0.558709 0.500000 0.520715
O O11 0.552954 0.277950 0.661628
O O12 0.582122 0.235846 0.457512
O O13 0.750000 0.684493 0.479756
O O14 0.815298 0.500000 0.527922
O O15 0.830844 0.768855 0.453525
O O16 0.559885 0.000000 0.733203
O O17 0.750000 0.771548 0.025936
O O18 0.696849 0.000000 0.987813
O O19 0.666662 0.756967 0.079637
O O20 0.124443 0.761024 0.730046
O O21 0.125104 0.000000 0.857738
O O22 0.375923 0.000000 0.599591
#
# Coordination Sequence:
#
# PCOD8207341 Si02
#       8
#     8   8   8   8   8   8   8   8
#     4   9  17  30  51  81 116 148 177 223 284 336
#     4  10  18  32  56  87 116 142 181 234 284 331
#     4  11  25  42  59  81 115 156 194 236 287 342
#     4  11  24  40  58  81 114 156 195 234 285 343
#     4  10  19  33  59  89 115 144 184 236 285 332
#     4   9  16  28  49  78 113 147 176 219 280 335
#     4   9  18  32  49  78 114 143 179 225 278 336
#     4  11  23  38  60  87 115 148 191 243 286 332
#
# _framework density 19.445838999999999
#
# number of rings (size 3 to 8) (size 9 to 14) (size 15 to 20)
#    0.000    2.000    2.500    1.500    1.750    3.000 
#    0.000    1.250    0.000    3.375    0.000    1.750 
#    0.000    0.000    0.000    0.000    0.000    0.000 
#
# Total GULP energy -793649.419203 kJ/mol
# GULP energy per Si atom -12400.772175 kJ/mol
# Density = 1.940158 g / cm^3
# Si number density = 19.445839 Si / 1000 Ang^3
#
#
#
# Elastic Constant Matrix: (Units=GPa)
#
#
# Indices 1 2 3 4 5 6 
#
# 1 123.6212 34.0439 56.3843 0.0000 0.0000 0.0000
# 2 34.0439 48.5091 33.0238 0.0000 0.0000 0.0000
# 3 56.3843 33.0238 144.0416 0.0000 0.0000 0.0000
# 4 0.0000 0.0000 0.0000 -1.1931 0.0000 0.0000
# 5 0.0000 0.0000 0.0000 0.0000 28.7412 0.0000
# 6 0.0000 0.0000 0.0000 0.0000 0.0000 15.5483
#
#
#
# Elastic Compliance Matrix: (Units=1/GPa)
#
#
# Indices 1 2 3 4 5 6 
#
# 1 0.011031 -0.005690 -0.003013 0.000000 0.000000 0.000000
# 2 -0.005690 0.027362 -0.004046 0.000000 0.000000 0.000000
# 3 -0.003013 -0.004046 0.009050 0.000000 0.000000 0.000000
# 4 0.000000 0.000000 0.000000 -0.838157 0.000000 0.000000
# 5 0.000000 0.000000 0.000000 0.000000 0.034793 0.000000
# 6 0.000000 0.000000 0.000000 0.000000 0.000000 0.064316
#
#
# Mechanical properties :
#
#
# Convention : Reuss Voigt Hill
#
# Bulk Modulus (GPa) = 45.57049 62.56398 54.06724
# Shear Modulus (GPa) = -7.58964 21.46727 6.93882
#
# Velocity S-wave (km/s) = -1.97773 3.32618 1.89104
# Velocity P-wave (km/s) = 4.27437 6.85526 5.71248
#
# Compressibility (1/GPa) = 0.02194403
#
# Stress axis : x y z
#
# Youngs Moduli (GPa) = 90.65720 36.54674 110.50207
#
# Poissons Ratio (x) = 0.20795 0.33298
# Poissons Ratio (y) = 0.51583 0.44709
# Poissons Ratio (z) = 0.27318 0.14787
#
# Static dielectric constant tensor:
#      x y z
#    x 3.716620 0.000000 0.000000 
#    y 0.000000 3.137680 0.000000 
#    z 0.000000 0.000000 3.732060 
# 
# 
# High freq. dielectric constant tensor:
#      x y z
#    x 1.772010 0.000000 0.000000 
#    y 0.000000 1.711060 0.000000 
#    z 0.000000 0.000000 1.764800 
# 
# From -- ./inp_files/19442.got.cif
#   From: 2010.03.12/outbox.cif.g09.slc.cpg/sg51_10_cif.got.tgz:19442.got - 2010.04.16 13:43:02.
