data_PCOD8207209
_publ_section_title
;
Structure prediction by ZEFSAII (Michael W. Deem and Ramdas Pophale) SiO2 
 PCOD8207209
Probable space group: P M M A
;
_chemical_formula_sum "Si O2"
_cell_formula_units_Z 36
_cell_length_a 8.715213
_cell_length_b 15.326922
_cell_length_c 14.521638
_cell_angle_alpha 90.000000
_cell_angle_beta 90.000000
_cell_angle_gamma 90.000000
_cell_volume 1939.762501
_symmetry_space_group_name_H-M "P M M A"
_symmetry_group_IT_number 51
_symmetry_cell_setting 'orthorhombic'
loop_
_space_group_symop_operation_xyz
x,y,z
1/2-x,-y,z
1/2+x,-y,-z
-x,y,-z
-x,-y,-z
1/2+x,y,-z
1/2-x,y,z
x,-y,z
loop_
_atom_site_type_symbol
_atom_site_label
_atom_site_fract_x
_atom_site_fract_y
_atom_site_fract_z
Si Si1 0.069322 0.098180 0.404058
Si Si2 0.933053 0.500000 0.898381
Si Si3 0.931571 0.751236 0.730587
Si Si4 0.568732 0.676880 0.100355
Si Si5 0.569384 0.401972 0.597954
O O1 0.250000 0.102226 0.415237
O O2 0.015664 0.161363 0.322061
O O3 0.000000 0.131590 0.500000
O O4 0.012660 0.000000 0.381311
O O5 0.750000 0.500000 0.894945
O O6 0.997436 0.411412 0.853596
O O7 0.000000 0.500000 0.000000
O O8 0.750000 0.749277 0.747779
O O9 0.988779 0.667387 0.672741
O O10 0.019054 0.752633 0.828804
O O11 0.750000 0.668591 0.090639
O O12 0.500000 0.697153 0.000000
O O13 0.500000 0.376740 0.500000
O O14 0.750000 0.395397 0.587556
O O15 0.519747 0.500000 0.628386
#
# Coordination Sequence:
#
# PCOD8207209 Si02
#       5
#     8   4   8   8   8
#     4   9  18  33  54  80 109 139 174 218 268 318
#     4  10  18  32  52  72  99 134 173 216 260 304
#     4  10  20  33  51  75 103 138 176 217 265 316
#     4  11  22  36  53  76 104 137 178 222 267 312
#     4   9  18  31  46  67  97 134 170 206 249 300
#
# _framework density 18.558973999999999
#
# number of rings (size 3 to 8) (size 9 to 14) (size 15 to 20)
#    0.000    2.222    0.000    5.000    1.556    1.778 
#    0.000    0.000    0.000    0.667    0.000    0.000 
#    0.000    0.000    0.000    0.000    0.000    0.000 
#
# Total GULP energy -446327.533920 kJ/mol
# GULP energy per Si atom -12397.987053 kJ/mol
# Density = 1.851673 g / cm^3
# Si number density = 18.558974 Si / 1000 Ang^3
#
#
#
# Elastic Constant Matrix: (Units=GPa)
#
#
# Indices 1 2 3 4 5 6 
#
# 1 82.9138 36.3204 44.4320 0.0000 0.0000 0.0000
# 2 36.3204 98.3669 72.3871 0.0000 0.0000 0.0000
# 3 44.4320 72.3871 123.8798 0.0000 0.0000 0.0000
# 4 0.0000 0.0000 0.0000 27.5998 0.0000 0.0000
# 5 0.0000 0.0000 0.0000 0.0000 32.0503 0.0000
# 6 0.0000 0.0000 0.0000 0.0000 0.0000 17.3713
#
#
#
# Elastic Compliance Matrix: (Units=1/GPa)
#
#
# Indices 1 2 3 4 5 6 
#
# 1 0.015369 -0.002839 -0.003854 0.000000 0.000000 0.000000
# 2 -0.002839 0.018360 -0.009710 0.000000 0.000000 0.000000
# 3 -0.003854 -0.009710 0.015128 0.000000 0.000000 0.000000
# 4 0.000000 0.000000 0.000000 0.036232 0.000000 0.000000
# 5 0.000000 0.000000 0.000000 0.000000 0.031201 0.000000
# 6 0.000000 0.000000 0.000000 0.000000 0.000000 0.057566
#
#
# Mechanical properties :
#
#
# Convention : Reuss Voigt Hill
#
# Bulk Modulus (GPa) = 62.29629 67.93773 65.11701
# Shear Modulus (GPa) = 23.58350 25.53903 24.56126
#
# Velocity S-wave (km/s) = 3.56860 3.71361 3.64183
# Velocity P-wave (km/s) = 7.11473 7.42117 7.26956
#
# Compressibility (1/GPa) = 0.01605232
#
# Stress axis : x y z
#
# Youngs Moduli (GPa) = 65.06414 54.46713 66.10128
#
# Poissons Ratio (x) = 0.15464 0.25473
# Poissons Ratio (y) = 0.18472 0.64183
# Poissons Ratio (z) = 0.25073 0.52887
#
# Static dielectric constant tensor:
#      x y z
#    x -149.130720 0.000000 0.000000 
#    y 0.000000 3.819270 0.000000 
#    z 0.000000 0.000000 3.365280 
# 
# 
# High freq. dielectric constant tensor:
#      x y z
#    x 1.715360 0.000000 0.000000 
#    y 0.000000 1.704850 0.000000 
#    z 0.000000 0.000000 1.717350 
# 
# From -- ./inp_files/20307.got.cif
#   From: 2010.03.12/outbox.cif.g09.slc.cpg/sg51_11_cif.got.tgz:20307.got - 2010.04.16 13:43:02.
