data_PCOD8207936
_publ_section_title
;
Structure prediction by ZEFSAII (Michael W. Deem and Ramdas Pophale) SiO2 
 PCOD8207936
Probable space group: P M M A
;
_chemical_formula_sum "Si O2"
_cell_formula_units_Z 56
_cell_length_a 9.083076
_cell_length_b 21.349917
_cell_length_c 18.208425
_cell_angle_alpha 90.000000
_cell_angle_beta 90.000000
_cell_angle_gamma 90.000000
_cell_volume 3531.030921
_symmetry_space_group_name_H-M "P M M A"
_symmetry_group_IT_number 51
_symmetry_cell_setting 'orthorhombic'
loop_
_space_group_symop_operation_xyz
x,y,z
1/2-x,-y,z
1/2+x,-y,-z
-x,y,-z
-x,-y,-z
1/2+x,y,-z
1/2-x,y,z
x,-y,z
loop_
_atom_site_type_symbol
_atom_site_label
_atom_site_fract_x
_atom_site_fract_y
_atom_site_fract_z
Si Si1 0.420061 0.356588 0.785100
Si Si2 0.920670 0.757848 0.713366
Si Si3 0.579400 0.926650 0.925262
Si Si4 0.580201 0.316336 0.575641
Si Si5 0.424283 0.829932 0.828765
Si Si6 0.579162 0.429582 0.676372
Si Si7 0.083301 0.711248 0.925448
O O1 0.250000 0.345330 0.762021
O O2 0.527242 0.305231 0.751501
O O3 0.482546 0.421375 0.751499
O O4 0.433848 0.350350 0.873509
O O5 0.750000 0.770103 0.730919
O O6 0.945870 0.745502 0.626408
O O7 0.015461 0.815561 0.746359
O O8 0.750000 0.907477 0.930725
O O9 0.501570 0.892731 0.857182
O O10 0.559488 0.000000 0.911636
O O11 0.500000 0.905266 0.000000
O O12 0.500000 0.304319 0.500000
O O13 0.750000 0.325406 0.557628
O O14 0.522815 0.380249 0.614963
O O15 0.250000 0.839231 0.824922
O O16 0.472165 0.772989 0.882261
O O17 0.750000 0.417393 0.695223
O O18 0.553744 0.500000 0.647031
O O19 0.250000 0.722719 0.948071
O O20 0.000000 0.698696 0.000000
#
# Coordination Sequence:
#
# PCOD8207936 Si02
#       7
#     8   8   8   8   8   8   8
#     4   9  17  29  43  62  85 107 138 179 220 261
#     4   9  17  30  46  64  87 116 147 179 219 263
#     4  10  20  32  45  63  91 128 165 198 232 268
#     4   9  18  30  45  66  92 119 143 173 214 260
#     4  10  19  30  45  66  90 117 152 191 227 264
#     4   9  18  32  47  63  84 112 146 178 211 258
#     4   9  18  28  40  61  85 107 135 175 220 264
#
# _framework density 15.859392
#
# number of rings (size 3 to 8) (size 9 to 14) (size 15 to 20)
#    0.000    2.714    0.000    3.857    0.000    8.857 
#    0.000    0.000    0.000    0.429    0.000    0.000 
#    0.000    0.571    0.000    1.857    0.000    2.286 
#
# Total GULP energy -694003.323695 kJ/mol
# GULP energy per Si atom -12392.916495 kJ/mol
# Density = 1.582330 g / cm^3
# Si number density = 15.859392 Si / 1000 Ang^3
#
#
#
# Elastic Constant Matrix: (Units=GPa)
#
#
# Indices 1 2 3 4 5 6 
#
# 1 84.1628 35.2319 54.7757 0.0000 0.0000 0.0000
# 2 35.2319 52.4278 38.8407 0.0000 0.0000 0.0000
# 3 54.7757 38.8407 98.2896 0.0000 0.0000 0.0000
# 4 0.0000 0.0000 0.0000 21.4259 0.0000 0.0000
# 5 0.0000 0.0000 0.0000 0.0000 31.3069 0.0000
# 6 0.0000 0.0000 0.0000 0.0000 0.0000 22.3329
#
#
#
# Elastic Compliance Matrix: (Units=1/GPa)
#
#
# Indices 1 2 3 4 5 6 
#
# 1 0.020551 -0.007530 -0.008477 0.000000 0.000000 0.000000
# 2 -0.007530 0.029728 -0.007551 0.000000 0.000000 0.000000
# 3 -0.008477 -0.007551 0.017882 0.000000 0.000000 0.000000
# 4 0.000000 0.000000 0.000000 0.046673 0.000000 0.000000
# 5 0.000000 0.000000 0.000000 0.000000 0.031942 0.000000
# 6 0.000000 0.000000 0.000000 0.000000 0.000000 0.044777
#
#
# Mechanical properties :
#
#
# Convention : Reuss Voigt Hill
#
# Bulk Modulus (GPa) = 47.51813 54.73074 51.12443
# Shear Modulus (GPa) = 20.35120 22.08192 21.21656
#
# Velocity S-wave (km/s) = 3.58610 3.73548 3.66155
# Velocity P-wave (km/s) = 6.86833 7.29314 7.08392
#
# Compressibility (1/GPa) = 0.02104460
#
# Stress axis : x y z
#
# Youngs Moduli (GPa) = 48.65871 33.63782 55.92141
#
# Poissons Ratio (x) = 0.25330 0.47406
# Poissons Ratio (y) = 0.36641 0.42227
# Poissons Ratio (z) = 0.41249 0.25400
#
# Static dielectric constant tensor:
#      x y z
#    x 3.420980 0.000000 0.000000 
#    y 0.000000 2.936410 0.000000 
#    z 0.000000 0.000000 3.088640 
# 
# 
# High freq. dielectric constant tensor:
#      x y z
#    x 1.622680 0.000000 0.000000 
#    y 0.000000 1.576220 0.000000 
#    z 0.000000 0.000000 1.593530 
# 
# From -- ./inp_files/28245.got.cif
#   From: 2010.03.12/outbox.cif.g09.slc.cpg/sg51_15_cif.got.tgz:28245.got - 2010.04.16 13:43:02.
