data_PCOD8207873
_publ_section_title
;
Structure prediction by ZEFSAII (Michael W. Deem and Ramdas Pophale) SiO2 
 PCOD8207873
Probable space group: P M M A
;
_chemical_formula_sum "Si O2"
_cell_formula_units_Z 56
_cell_length_a 8.787111
_cell_length_b 21.266923
_cell_length_c 18.363044
_cell_angle_alpha 90.000000
_cell_angle_beta 90.000000
_cell_angle_gamma 90.000000
_cell_volume 3431.590414
_symmetry_space_group_name_H-M "P M M A"
_symmetry_group_IT_number 51
_symmetry_cell_setting 'orthorhombic'
loop_
_space_group_symop_operation_xyz
x,y,z
1/2-x,-y,z
1/2+x,-y,-z
-x,y,-z
-x,-y,-z
1/2+x,y,-z
1/2-x,y,z
x,-y,z
loop_
_atom_site_type_symbol
_atom_site_label
_atom_site_fract_x
_atom_site_fract_y
_atom_site_fract_z
Si Si1 0.069080 0.310507 0.078789
Si Si2 0.073043 0.926742 0.576567
Si Si3 0.569252 0.290875 0.422242
Si Si4 0.071189 0.430980 0.165089
Si Si5 0.930571 0.177758 0.666456
Si Si6 0.917498 0.368410 0.290282
Si Si7 0.420492 0.239694 0.796910
O O1 0.250000 0.309423 0.075450
O O2 0.007251 0.377385 0.110790
O O3 0.011886 0.252852 0.128572
O O4 0.000000 0.300993 0.000000
O O5 0.250000 0.908406 0.575056
O O6 0.000000 0.906679 0.500000
O O7 0.987274 0.890489 0.641116
O O8 0.048060 0.000000 0.591939
O O9 0.500000 0.306506 0.500000
O O10 0.750000 0.280436 0.425819
O O11 0.494403 0.228126 0.390735
O O12 0.528378 0.351708 0.372091
O O13 0.250000 0.431751 0.159915
O O14 0.005929 0.500000 0.143328
O O15 0.029001 0.416187 0.249059
O O16 0.750000 0.181516 0.667488
O O17 0.992126 0.188090 0.748478
O O18 0.750000 0.399208 0.290808
O O19 0.912864 0.302752 0.248919
O O20 0.250000 0.215820 0.815237
#
# Coordination Sequence:
#
# PCOD8207873 Si02
#       7
#     8   8   8   8   8   8   8
#     4  10  19  31  47  68  95 123 149 179 221 268
#     4  10  20  33  47  64  91 128 166 201 236 271
#     4  10  19  30  44  64  88 112 144 185 230 275
#     4   9  18  31  46  64  86 114 148 182 216 261
#     4  11  20  30  46  67  92 121 154 190 228 270
#     4   8  16  29  44  62  83 108 139 179 224 268
#     4   9  17  31  48  66  89 116 149 186 225 268
#
# _framework density 16.318964000000001
#
# number of rings (size 3 to 8) (size 9 to 14) (size 15 to 20)
#    0.000    2.429    0.000    4.286    0.000    6.000 
#    0.000    0.000    0.000    0.429    0.000    0.000 
#    0.000    0.571    0.000    2.143    0.000    3.286 
#
# Total GULP energy -694229.247084 kJ/mol
# GULP energy per Si atom -12396.950841 kJ/mol
# Density = 1.628182 g / cm^3
# Si number density = 16.318964 Si / 1000 Ang^3
#
#
#
# Elastic Constant Matrix: (Units=GPa)
#
#
# Indices 1 2 3 4 5 6 
#
# 1 95.6758 32.0050 48.6999 0.0000 0.0000 0.0000
# 2 32.0050 55.5806 47.4517 0.0000 0.0000 0.0000
# 3 48.6999 47.4517 129.3709 0.0000 0.0000 0.0000
# 4 0.0000 0.0000 0.0000 12.1776 0.0000 0.0000
# 5 0.0000 0.0000 0.0000 0.0000 30.6876 0.0000
# 6 0.0000 0.0000 0.0000 0.0000 0.0000 21.3182
#
#
#
# Elastic Compliance Matrix: (Units=1/GPa)
#
#
# Indices 1 2 3 4 5 6 
#
# 1 0.013869 -0.005138 -0.003336 0.000000 0.000000 0.000000
# 2 -0.005138 0.028098 -0.008372 0.000000 0.000000 0.000000
# 3 -0.003336 -0.008372 0.012056 0.000000 0.000000 0.000000
# 4 0.000000 0.000000 0.000000 0.082118 0.000000 0.000000
# 5 0.000000 0.000000 0.000000 0.000000 0.032586 0.000000
# 6 0.000000 0.000000 0.000000 0.000000 0.000000 0.046908
#
#
# Mechanical properties :
#
#
# Convention : Reuss Voigt Hill
#
# Bulk Modulus (GPa) = 49.18568 59.66006 54.42287
# Shear Modulus (GPa) = 19.52326 23.00138 21.26232
#
# Velocity S-wave (km/s) = 3.46259 3.75839 3.61352
# Velocity P-wave (km/s) = 6.79644 7.44796 7.12965
#
# Compressibility (1/GPa) = 0.02033112
#
# Stress axis : x y z
#
# Youngs Moduli (GPa) = 72.10421 35.58984 82.94397
#
# Poissons Ratio (x) = 0.18285 0.27672
# Poissons Ratio (y) = 0.37046 0.69440
# Poissons Ratio (z) = 0.24056 0.29796
#
# Static dielectric constant tensor:
#      x y z
#    x 3.221200 0.000000 0.000000 
#    y 0.000000 2.998570 0.000000 
#    z 0.000000 0.000000 3.249570 
# 
# 
# High freq. dielectric constant tensor:
#      x y z
#    x 1.640930 0.000000 0.000000 
#    y 0.000000 1.593600 0.000000 
#    z 0.000000 0.000000 1.618290 
# 
# From -- ./inp_files/28178.got.cif
#   From: 2010.03.12/outbox.cif.g09.slc.cpg/sg51_15_cif.got.tgz:28178.got - 2010.04.16 13:43:02.
