data_PCOD8207897
_publ_section_title
;
Structure prediction by ZEFSAII (Michael W. Deem and Ramdas Pophale) SiO2 
 PCOD8207897
Probable space group: P M M A
;
_chemical_formula_sum "Si O2"
_cell_formula_units_Z 64
_cell_length_a 28.769643
_cell_length_b 9.075221
_cell_length_c 15.546797
_cell_angle_alpha 90.000000
_cell_angle_beta 90.000000
_cell_angle_gamma 90.000000
_cell_volume 4059.126728
_symmetry_space_group_name_H-M "P M M A"
_symmetry_group_IT_number 51
_symmetry_cell_setting 'orthorhombic'
loop_
_space_group_symop_operation_xyz
x,y,z
1/2-x,-y,z
1/2+x,-y,-z
-x,y,-z
-x,-y,-z
1/2+x,y,-z
1/2-x,y,z
x,-y,z
loop_
_atom_site_type_symbol
_atom_site_label
_atom_site_fract_x
_atom_site_fract_y
_atom_site_fract_z
Si Si1 0.608507 0.671489 0.838564
Si Si2 0.444795 0.837137 0.494364
Si Si3 0.800229 0.824946 0.090772
Si Si4 0.547501 0.175237 0.318784
Si Si5 0.950227 0.670567 0.671565
Si Si6 0.446517 0.173530 0.010491
Si Si7 0.394536 0.175141 0.840635
Si Si8 0.197248 0.172491 0.105312
O O1 0.611304 0.500000 0.860367
O O2 0.587820 0.700234 0.744316
O O3 0.575063 0.747152 0.907555
O O4 0.660391 0.738492 0.837543
O O5 0.500000 0.844801 0.500000
O O6 0.429054 0.781652 0.589348
O O7 0.428680 0.727832 0.418880
O O8 0.424582 0.000000 0.474685
O O9 0.750000 0.762569 0.121821
O O10 0.841286 0.766388 0.152740
O O11 0.798725 0.000000 0.092148
O O12 0.810067 0.775901 0.993038
O O13 0.497206 0.245263 0.304019
O O14 0.581735 0.238107 0.245302
O O15 0.540648 0.000000 0.312934
O O16 0.962360 0.500000 0.661439
O O17 0.439573 0.000000 0.023952
O O18 0.500000 0.216830 0.000000
O O19 0.421632 0.231056 0.924476
O O20 0.395722 0.000000 0.837686
O O21 0.250000 0.208545 0.135235
O O22 0.186900 0.000000 0.115189
#
# Coordination Sequence:
#
# PCOD8207897 Si02
#       8
#     8   8   8   8   8   8   8   8
#     4  11  22  32  43  64  94 124 152 187 228 270
#     4   8  15  28  45  65  86 110 144 186 229 264
#     4   8  13  23  42  66  87 107 138 182 221 253
#     4   9  17  29  46  67  89 114 147 186 225 264
#     4  10  20  31  43  62  89 121 153 182 218 265
#     4  10  19  30  45  63  86 122 162 189 214 258
#     4   9  15  25  42  64  88 114 145 180 217 262
#     4   9  17  31  51  70  87 112 151 194 229 266
#
# _framework density 15.766938
#
# number of rings (size 3 to 8) (size 9 to 14) (size 15 to 20)
#    0.000    2.750    1.250    3.000    0.000    5.750 
#    0.000    0.625    0.000    0.000    0.000    0.875 
#    0.000    3.000    0.000    0.000    0.000    0.000 
#
# Total GULP energy -793237.479591 kJ/mol
# GULP energy per Si atom -12394.335619 kJ/mol
# Density = 1.573105 g / cm^3
# Si number density = 15.766938 Si / 1000 Ang^3
#
#
#
# Elastic Constant Matrix: (Units=GPa)
#
#
# Indices 1 2 3 4 5 6 
#
# 1 111.1115 36.1798 55.6290 0.0000 0.0000 0.0000
# 2 36.1798 48.0338 38.0055 0.0000 0.0000 0.0000
# 3 55.6290 38.0055 106.9664 0.0000 0.0000 0.0000
# 4 0.0000 0.0000 0.0000 17.2874 0.0000 0.0000
# 5 0.0000 0.0000 0.0000 0.0000 13.2392 0.0000
# 6 0.0000 0.0000 0.0000 0.0000 0.0000 10.9703
#
#
#
# Elastic Compliance Matrix: (Units=1/GPa)
#
#
# Indices 1 2 3 4 5 6 
#
# 1 0.013445 -0.006391 -0.004721 0.000000 0.000000 0.000000
# 2 -0.006391 0.031998 -0.008045 0.000000 0.000000 0.000000
# 3 -0.004721 -0.008045 0.014663 0.000000 0.000000 0.000000
# 4 0.000000 0.000000 0.000000 0.057845 0.000000 0.000000
# 5 0.000000 0.000000 0.000000 0.000000 0.075533 0.000000
# 6 0.000000 0.000000 0.000000 0.000000 0.000000 0.091155
#
#
# Mechanical properties :
#
#
# Convention : Reuss Voigt Hill
#
# Bulk Modulus (GPa) = 45.89242 58.41558 52.15400
# Shear Modulus (GPa) = 15.14148 17.38587 16.26368
#
# Velocity S-wave (km/s) = 3.10228 3.32426 3.21519
# Velocity P-wave (km/s) = 6.48091 7.20168 6.85078
#
# Compressibility (1/GPa) = 0.02179009
#
# Stress axis : x y z
#
# Youngs Moduli (GPa) = 74.37799 31.25175 68.20079
#
# Poissons Ratio (x) = 0.19974 0.32200
# Poissons Ratio (y) = 0.47537 0.54869
# Poissons Ratio (z) = 0.35116 0.25143
#
# Static dielectric constant tensor:
#      x y z
#    x 3.129580 0.000000 0.000000 
#    y 0.000000 2.790170 0.000000 
#    z 0.000000 0.000000 3.276380 
# 
# 
# High freq. dielectric constant tensor:
#      x y z
#    x 1.590900 0.000000 0.000000 
#    y 0.000000 1.582220 0.000000 
#    z 0.000000 0.000000 1.597740 
# 
# From -- ./inp_files/26630.got.cif
#   From: 2010.03.12/outbox.cif.g09.slc.cpg/sg51_14_cif.got.tgz:26630.got - 2010.04.16 13:43:02.
