data_PCOD8207207
_publ_section_title
;
Structure prediction by ZEFSAII (Michael W. Deem and Ramdas Pophale) SiO2 
 PCOD8207207
Probable space group: P M M A
;
_chemical_formula_sum "Si O2"
_cell_formula_units_Z 48
_cell_length_a 18.206934
_cell_length_b 17.216185
_cell_length_c 9.498832
_cell_angle_alpha 90.000000
_cell_angle_beta 90.000000
_cell_angle_gamma 90.000000
_cell_volume 2977.446354
_symmetry_space_group_name_H-M "P M M A"
_symmetry_group_IT_number 51
_symmetry_cell_setting 'orthorhombic'
loop_
_space_group_symop_operation_xyz
x,y,z
1/2-x,-y,z
1/2+x,-y,-z
-x,y,-z
-x,-y,-z
1/2+x,y,-z
1/2-x,y,z
x,-y,z
loop_
_atom_site_type_symbol
_atom_site_label
_atom_site_fract_x
_atom_site_fract_y
_atom_site_fract_z
Si Si1 0.335155 0.589579 0.481482
Si Si2 0.049793 0.087398 0.365028
Si Si3 0.329687 0.299360 0.244641
Si Si4 0.472050 0.227316 0.153911
Si Si5 0.669660 0.175217 0.509661
Si Si6 0.935319 0.712329 0.385584
O O1 0.250000 0.603123 0.524602
O O2 0.357206 0.500000 0.488280
O O3 0.348444 0.618466 0.320200
O O4 0.388161 0.634207 0.591446
O O5 0.031459 0.147008 0.240311
O O6 0.133285 0.099332 0.419499
O O7 0.000000 0.103941 0.500000
O O8 0.040291 0.000000 0.307268
O O9 0.250000 0.303108 0.166188
O O10 0.392991 0.270318 0.139256
O O11 0.323800 0.241170 0.374090
O O12 0.527280 0.287201 0.231737
O O13 0.500000 0.206816 0.000000
O O14 0.750000 0.152946 0.449309
O O15 0.617671 0.211889 0.389623
O O16 0.000000 0.720585 0.500000
#
# Coordination Sequence:
#
# PCOD8207207 Si02
#       6
#     8   8   8   8   8   8
#     4   9  17  29  51  80 102 124 161 211 259 295
#     4  10  18  32  52  72  97 126 160 205 252 293
#     4   8  15  30  48  69  96 126 163 205 243 288
#     4  11  20  32  49  72 101 132 170 204 237 293
#     4   9  15  27  49  72  93 122 160 203 246 286
#     4  11  16  31  49  72  99 126 163 208 245 282
#
# _framework density 16.121196999999999
#
# number of rings (size 3 to 8) (size 9 to 14) (size 15 to 20)
#    0.000    2.333    6.667    1.500    0.000    1.000 
#    0.000    1.667    0.000    2.000    0.000    2.333 
#    0.000    0.000    0.000    0.000    0.000    0.000 
#
# Total GULP energy -594711.744927 kJ/mol
# GULP energy per Si atom -12389.828019 kJ/mol
# Density = 1.608450 g / cm^3
# Si number density = 16.121197 Si / 1000 Ang^3
#
#
#
# Elastic Constant Matrix: (Units=GPa)
#
#
# Indices 1 2 3 4 5 6 
#
# 1 121.3490 48.4344 45.2959 0.0000 0.0000 0.0000
# 2 48.4344 101.2083 37.2021 0.0000 0.0000 0.0000
# 3 45.2959 37.2021 69.7055 0.0000 0.0000 0.0000
# 4 0.0000 0.0000 0.0000 10.9928 0.0000 0.0000
# 5 0.0000 0.0000 0.0000 0.0000 17.9532 0.0000
# 6 0.0000 0.0000 0.0000 0.0000 0.0000 19.4571
#
#
#
# Elastic Compliance Matrix: (Units=1/GPa)
#
#
# Indices 1 2 3 4 5 6 
#
# 1 0.011809 -0.003522 -0.005794 0.000000 0.000000 0.000000
# 2 -0.003522 0.013342 -0.004832 0.000000 0.000000 0.000000
# 3 -0.005794 -0.004832 0.020690 0.000000 0.000000 0.000000
# 4 0.000000 0.000000 0.000000 0.090969 0.000000 0.000000
# 5 0.000000 0.000000 0.000000 0.000000 0.055700 0.000000
# 6 0.000000 0.000000 0.000000 0.000000 0.000000 0.051395
#
#
# Mechanical properties :
#
#
# Convention : Reuss Voigt Hill
#
# Bulk Modulus (GPa) = 56.99575 61.56971 59.28273
# Shear Modulus (GPa) = 17.98234 20.43598 19.20916
#
# Velocity S-wave (km/s) = 3.34345 3.56427 3.45562
# Velocity P-wave (km/s) = 7.09480 7.43057 7.26462
#
# Compressibility (1/GPa) = 0.01754517
#
# Stress axis : x y z
#
# Youngs Moduli (GPa) = 84.68054 74.95031 48.33159
#
# Poissons Ratio (x) = 0.26394 0.28005
# Poissons Ratio (y) = 0.29820 0.23356
# Poissons Ratio (z) = 0.49067 0.36219
#
# Static dielectric constant tensor:
#      x y z
#    x 3.761740 0.000000 0.000000 
#    y 0.000000 3.058530 0.000000 
#    z 0.000000 0.000000 2.590330 
# 
# 
# High freq. dielectric constant tensor:
#      x y z
#    x 1.640710 0.000000 0.000000 
#    y 0.000000 1.612010 0.000000 
#    z 0.000000 0.000000 1.558960 
# 
# From -- ./inp_files/9833.got.cif
#   From: 2010.03.12/outbox.cif.g09.slc.cpg/sg51_5_cif.got.tgz:9833.got - 2010.04.16 13:43:02.
