data_PCOD8207829
_publ_section_title
;
Structure prediction by ZEFSAII (Michael W. Deem and Ramdas Pophale) SiO2 
 PCOD8207829
Probable space group: P M M A
;
_chemical_formula_sum "Si O2"
_cell_formula_units_Z 56
_cell_length_a 9.365546
_cell_length_b 25.014803
_cell_length_c 14.411645
_cell_angle_alpha 90.000000
_cell_angle_beta 90.000000
_cell_angle_gamma 90.000000
_cell_volume 3376.321109
_symmetry_space_group_name_H-M "P M M A"
_symmetry_group_IT_number 51
_symmetry_cell_setting 'orthorhombic'
loop_
_space_group_symop_operation_xyz
x,y,z
1/2-x,-y,z
1/2+x,-y,-z
-x,y,-z
-x,-y,-z
1/2+x,y,-z
1/2-x,y,z
x,-y,z
loop_
_atom_site_type_symbol
_atom_site_label
_atom_site_fract_x
_atom_site_fract_y
_atom_site_fract_z
Si Si1 0.914808 0.639444 0.214385
Si Si2 0.081431 0.157631 0.785555
Si Si3 0.416989 0.194211 0.589489
Si Si4 0.085504 0.318045 0.587625
Si Si5 0.416477 0.939538 0.907936
Si Si6 0.415108 0.437440 0.091579
Si Si7 0.416273 0.744005 0.905647
O O1 0.750000 0.621989 0.203458
O O2 0.955240 0.648383 0.321547
O O3 0.944700 0.693582 0.159304
O O4 0.017285 0.592607 0.178958
O O5 0.250000 0.165558 0.781097
O O6 0.023804 0.163262 0.680490
O O7 0.036549 0.099654 0.824796
O O8 0.021408 0.203854 0.853049
O O9 0.500000 0.171683 0.500000
O O10 0.250000 0.184256 0.573323
O O11 0.452448 0.256297 0.605729
O O12 0.250000 0.324414 0.563157
O O13 0.000000 0.341272 0.500000
O O14 0.250000 0.933084 0.930395
O O15 0.454268 0.000000 0.877489
O O16 0.500000 0.922798 0.000000
O O17 0.250000 0.421286 0.078929
O O18 0.432849 0.500000 0.110126
O O19 0.500000 0.419329 0.000000
O O20 0.250000 0.750852 0.929145
O O21 0.500000 0.735277 0.000000
#
# Coordination Sequence:
#
# PCOD8207829 Si02
#       7
#     8   8   8   8   8   8   8
#     4  10  19  32  50  71  97 126 156 191 236 285
#     4   9  16  29  47  64  90 125 154 186 232 281
#     4   9  16  29  47  66  90 121 154 190 231 277
#     4   9  17  30  48  70  95 124 156 192 234 282
#     4   9  17  29  46  67  89 119 160 198 231 272
#     4  10  21  36  53  73  97 127 163 199 233 272
#     4  10  19  30  43  64  94 125 152 182 227 281
#
# _framework density 16.586100999999999
#
# number of rings (size 3 to 8) (size 9 to 14) (size 15 to 20)
#    0.000    2.571    1.429    1.286    0.000    3.143 
#    0.000    1.429    0.000    0.857    0.000    0.000 
#    0.000    0.000    0.000    0.000    0.000    0.000 
#
# Total GULP energy -694414.494725 kJ/mol
# GULP energy per Si atom -12400.258834 kJ/mol
# Density = 1.654835 g / cm^3
# Si number density = 16.586101 Si / 1000 Ang^3
#
#
#
# Elastic Constant Matrix: (Units=GPa)
#
#
# Indices 1 2 3 4 5 6 
#
# 1 62.5164 40.2380 63.9708 0.0000 0.0000 0.0000
# 2 40.2380 66.7432 55.9504 0.0000 0.0000 0.0000
# 3 63.9708 55.9504 146.9429 0.0000 0.0000 0.0000
# 4 0.0000 0.0000 0.0000 21.9293 0.0000 0.0000
# 5 0.0000 0.0000 0.0000 0.0000 30.6247 0.0000
# 6 0.0000 0.0000 0.0000 0.0000 0.0000 17.4243
#
#
#
# Elastic Compliance Matrix: (Units=1/GPa)
#
#
# Indices 1 2 3 4 5 6 
#
# 1 0.034344 -0.012003 -0.010381 0.000000 0.000000 0.000000
# 2 -0.012003 0.026202 -0.004751 0.000000 0.000000 0.000000
# 3 -0.010381 -0.004751 0.013134 0.000000 0.000000 0.000000
# 4 0.000000 0.000000 0.000000 0.045601 0.000000 0.000000
# 5 0.000000 0.000000 0.000000 0.000000 0.032653 0.000000
# 6 0.000000 0.000000 0.000000 0.000000 0.000000 0.057391
#
#
# Mechanical properties :
#
#
# Convention : Reuss Voigt Hill
#
# Bulk Modulus (GPa) = 51.52202 66.28012 58.90107
# Shear Modulus (GPa) = 18.51395 21.73187 20.12291
#
# Velocity S-wave (km/s) = 3.34463 3.62366 3.48694
# Velocity P-wave (km/s) = 6.78574 7.58656 7.19729
#
# Compressibility (1/GPa) = 0.01940918
#
# Stress axis : x y z
#
# Youngs Moduli (GPa) = 29.11713 38.16489 76.13824
#
# Poissons Ratio (x) = 0.45808 0.79042
# Poissons Ratio (y) = 0.34948 0.36177
# Poissons Ratio (z) = 0.30227 0.18134
#
# Static dielectric constant tensor:
#      x y z
#    x 3.025880 0.000000 0.000000 
#    y 0.000000 3.035400 0.000000 
#    z 0.000000 0.000000 3.274290 
# 
# 
# High freq. dielectric constant tensor:
#      x y z
#    x 1.624840 0.000000 0.000000 
#    y 0.000000 1.622430 0.000000 
#    z 0.000000 0.000000 1.641770 
# 
# From -- ./inp_files/21778.got.cif
#   From: 2010.03.12/outbox.cif.g09.slc.cpg/sg51_11_cif.got.tgz:21778.got - 2010.04.16 13:43:02.
