data_PCOD8207255
_publ_section_title
;
Structure prediction by ZEFSAII (Michael W. Deem and Ramdas Pophale) SiO2 
 PCOD8207255
Probable space group: P M M A
;
_chemical_formula_sum "Si O2"
_cell_formula_units_Z 36
_cell_length_a 8.664856
_cell_length_b 22.073045
_cell_length_c 10.104037
_cell_angle_alpha 90.000000
_cell_angle_beta 90.000000
_cell_angle_gamma 90.000000
_cell_volume 1932.495655
_symmetry_space_group_name_H-M "P M M A"
_symmetry_group_IT_number 51
_symmetry_cell_setting 'orthorhombic'
loop_
_space_group_symop_operation_xyz
x,y,z
1/2-x,-y,z
1/2+x,-y,-z
-x,y,-z
-x,-y,-z
1/2+x,y,-z
1/2-x,y,z
x,-y,z
loop_
_atom_site_type_symbol
_atom_site_label
_atom_site_fract_x
_atom_site_fract_y
_atom_site_fract_z
Si Si1 0.929293 0.291257 0.639679
Si Si2 0.571889 0.149339 0.637680
Si Si3 0.932790 0.623105 0.146113
Si Si4 0.931551 0.931751 0.137979
Si Si5 0.066320 0.500000 0.146577
O O1 0.750000 0.309289 0.643361
O O2 0.954692 0.220228 0.660151
O O3 0.000000 0.312675 0.500000
O O4 0.020089 0.322167 0.759360
O O5 0.500000 0.127929 0.500000
O O6 0.750000 0.131705 0.638657
O O7 0.485567 0.113816 0.751044
O O8 0.750000 0.617966 0.134980
O O9 0.001415 0.561468 0.212707
O O10 0.000000 0.634862 0.000000
O O11 0.750000 0.929561 0.127187
O O12 0.989508 0.000000 0.169648
O O13 0.000000 0.908683 0.000000
O O14 0.250000 0.500000 0.148928
O O15 0.000000 0.500000 0.000000
#
# Coordination Sequence:
#
# PCOD8207255 Si02
#       5
#     8   8   8   8   4
#     4  10  21  38  57  80 109 143 180 221 271 322
#     4  10  21  37  58  81 108 142 181 223 267 319
#     4  11  21  35  56  82 110 143 182 224 268 318
#     4  10  21  37  57  81 110 143 179 221 270 321
#     4  10  18  32  53  78 109 142 177 222 270 318
#
# _framework density 18.62876
#
# number of rings (size 3 to 8) (size 9 to 14) (size 15 to 20)
#    0.000    1.778    0.000    6.333    0.000    5.333 
#    0.000    0.556    0.000    0.000    0.000    0.000 
#    0.000    0.000    0.000    0.000    0.000    0.000 
#
# Total GULP energy -446477.963309 kJ/mol
# GULP energy per Si atom -12402.165647 kJ/mol
# Density = 1.858636 g / cm^3
# Si number density = 18.628760 Si / 1000 Ang^3
#
#
#
# Elastic Constant Matrix: (Units=GPa)
#
#
# Indices 1 2 3 4 5 6 
#
# 1 138.7273 41.2208 54.5392 0.0000 0.0000 0.0000
# 2 41.2208 58.2050 55.6049 0.0000 0.0000 0.0000
# 3 54.5392 55.6049 122.7781 0.0000 0.0000 0.0000
# 4 0.0000 0.0000 0.0000 51.8766 0.0000 0.0000
# 5 0.0000 0.0000 0.0000 0.0000 37.3409 0.0000
# 6 0.0000 0.0000 0.0000 0.0000 0.0000 34.4723
#
#
#
# Elastic Compliance Matrix: (Units=1/GPa)
#
#
# Indices 1 2 3 4 5 6 
#
# 1 0.009413 -0.004709 -0.002049 0.000000 0.000000 0.000000
# 2 -0.004709 0.032639 -0.012690 0.000000 0.000000 0.000000
# 3 -0.002049 -0.012690 0.014802 0.000000 0.000000 0.000000
# 4 0.000000 0.000000 0.000000 0.019277 0.000000 0.000000
# 5 0.000000 0.000000 0.000000 0.000000 0.026780 0.000000
# 6 0.000000 0.000000 0.000000 0.000000 0.000000 0.029009
#
#
# Mechanical properties :
#
#
# Convention : Reuss Voigt Hill
#
# Bulk Modulus (GPa) = 55.68463 69.16004 62.42234
# Shear Modulus (GPa) = 28.28042 35.96100 32.12071
#
# Velocity S-wave (km/s) = 3.90051 4.39840 4.15692
# Velocity P-wave (km/s) = 7.08816 7.93729 7.52471
#
# Compressibility (1/GPa) = 0.01795828
#
# Stress axis : x y z
#
# Youngs Moduli (GPa) = 106.23538 30.63844 67.55895
#
# Poissons Ratio (x) = 0.14428 0.13840
# Poissons Ratio (y) = 0.50029 0.85731
# Poissons Ratio (z) = 0.21763 0.38880
#
# Static dielectric constant tensor:
#      x y z
#    x 3.559440 0.000000 0.000000 
#    y 0.000000 3.730440 0.000000 
#    z 0.000000 0.000000 3.329520 
# 
# 
# High freq. dielectric constant tensor:
#      x y z
#    x 1.745710 0.000000 0.000000 
#    y 0.000000 1.727080 0.000000 
#    z 0.000000 0.000000 1.714370 
# 
# From -- ./inp_files/5242.got.cif
#   From: 2010.03.12/outbox.cif.g09.slc.cpg/sg51_3_cif.got.tgz:5242.got - 2010.04.16 13:43:02.
