data_PCOD8207160
_publ_section_title
;
Structure prediction by ZEFSAII (Michael W. Deem and Ramdas Pophale) SiO2 
 PCOD8207160
Probable space group: P M M A
;
_chemical_formula_sum "Si O2"
_cell_formula_units_Z 64
_cell_length_a 28.845675
_cell_length_b 9.098062
_cell_length_c 12.626251
_cell_angle_alpha 90.000000
_cell_angle_beta 90.000000
_cell_angle_gamma 90.000000
_cell_volume 3313.630024
_symmetry_space_group_name_H-M "P M M A"
_symmetry_group_IT_number 51
_symmetry_cell_setting 'orthorhombic'
loop_
_space_group_symop_operation_xyz
x,y,z
1/2-x,-y,z
1/2+x,-y,-z
-x,y,-z
-x,-y,-z
1/2+x,y,-z
1/2-x,y,z
x,-y,z
loop_
_atom_site_type_symbol
_atom_site_label
_atom_site_fract_x
_atom_site_fract_y
_atom_site_fract_z
Si Si1 0.135111 0.325418 0.110616
Si Si2 0.847556 0.170447 0.280140
Si Si3 0.126057 0.675063 0.346905
Si Si4 0.562699 0.669974 0.258706
Si Si5 0.977050 0.673593 0.606822
Si Si6 0.802899 0.169721 0.500151
Si Si7 0.450106 0.672012 0.982580
Si Si8 0.802974 0.673583 0.080473
O O1 0.132183 0.500000 0.111407
O O2 0.141495 0.267675 0.230279
O O3 0.087042 0.260155 0.063919
O O4 0.176699 0.274903 0.033274
O O5 0.897436 0.235342 0.315600
O O6 0.812260 0.198081 0.376251
O O7 0.829437 0.251078 0.176306
O O8 0.853014 0.000000 0.253711
O O9 0.126250 0.500000 0.351554
O O10 0.074486 0.737756 0.372983
O O11 0.163070 0.733103 0.429976
O O12 0.571211 0.500000 0.287591
O O13 0.511452 0.717473 0.297325
O O14 0.567557 0.701491 0.135031
O O15 0.972128 0.500000 0.597109
O O16 0.000000 0.738702 0.500000
O O17 0.750000 0.216105 0.523799
O O18 0.811482 0.000000 0.528439
O O19 0.454925 0.500000 0.005465
O O20 0.500000 0.748306 0.000000
O O21 0.750000 0.723666 0.082255
O O22 0.809129 0.500000 0.095096
#
# Coordination Sequence:
#
# PCOD8207160 Si02
#       8
#     8   8   8   8   8   8   8   8
#     4   9  17  31  50  79 114 140 172 222 273 322
#     4  11  22  37  57  81 111 144 185 236 286 331
#     4  10  20  35  58  86 114 143 183 231 278 330
#     4  10  18  31  54  81 113 150 186 223 271 329
#     4   9  17  29  48  80 116 146 180 227 275 318
#     4  10  23  42  59  76 104 144 186 232 288 342
#     4   9  15  25  47  78 108 141 179 215 258 315
#     4  10  20  35  56  81 109 142 180 226 282 340
#
# _framework density 19.314166
#
# number of rings (size 3 to 8) (size 9 to 14) (size 15 to 20)
#    0.000    2.250    1.250    2.250    0.000    6.500 
#    0.000    2.500    0.000    2.625    0.000    0.000 
#    0.000    0.000    0.000    0.000    0.000    0.000 
#
# Total GULP energy -793457.822820 kJ/mol
# GULP energy per Si atom -12397.778482 kJ/mol
# Density = 1.927021 g / cm^3
# Si number density = 19.314166 Si / 1000 Ang^3
#
#
#
# Elastic Constant Matrix: (Units=GPa)
#
#
# Indices 1 2 3 4 5 6 
#
# 1 149.4237 32.7702 54.0647 0.0000 0.0000 0.0000
# 2 32.7702 26.7178 28.2316 0.0000 0.0000 0.0000
# 3 54.0647 28.2316 101.8695 0.0000 0.0000 0.0000
# 4 0.0000 0.0000 0.0000 12.3337 0.0000 0.0000
# 5 0.0000 0.0000 0.0000 0.0000 34.3984 0.0000
# 6 0.0000 0.0000 0.0000 0.0000 0.0000 13.0772
#
#
#
# Elastic Compliance Matrix: (Units=1/GPa)
#
#
# Indices 1 2 3 4 5 6 
#
# 1 0.009617 -0.009053 -0.002595 0.000000 0.000000 0.000000
# 2 -0.009053 0.061450 -0.012225 0.000000 0.000000 0.000000
# 3 -0.002595 -0.012225 0.014582 0.000000 0.000000 0.000000
# 4 0.000000 0.000000 0.000000 0.081079 0.000000 0.000000
# 5 0.000000 0.000000 0.000000 0.000000 0.029071 0.000000
# 6 0.000000 0.000000 0.000000 0.000000 0.000000 0.076469
#
#
# Mechanical properties :
#
#
# Convention : Reuss Voigt Hill
#
# Bulk Modulus (GPa) = 26.38388 56.46045 41.42217
# Shear Modulus (GPa) = 15.03088 22.82483 18.92786
#
# Velocity S-wave (km/s) = 2.79271 3.44141 3.13389
# Velocity P-wave (km/s) = 4.90805 6.71470 5.88116
#
# Compressibility (1/GPa) = 0.03790193
#
# Stress axis : x y z
#
# Youngs Moduli (GPa) = 103.98528 16.27330 68.57936
#
# Poissons Ratio (x) = 0.14733 0.17795
# Poissons Ratio (y) = 0.94142 0.83840
# Poissons Ratio (z) = 0.26982 0.19894
#
# Static dielectric constant tensor:
#      x y z
#    x 3.831890 0.000000 0.000000 
#    y 0.000000 3.049660 0.000000 
#    z 0.000000 0.000000 3.655480 
# 
# 
# High freq. dielectric constant tensor:
#      x y z
#    x 1.768900 0.000000 0.000000 
#    y 0.000000 1.693940 0.000000 
#    z 0.000000 0.000000 1.760830 
# 
# From -- ./inp_files/19554.got.cif
#   From: 2010.03.12/outbox.cif.g09.slc.cpg/sg51_10_cif.got.tgz:19554.got - 2010.04.16 13:43:02.
