data_PCOD8207956
_publ_section_title
;
Structure prediction by ZEFSAII (Michael W. Deem and Ramdas Pophale) SiO2 
 PCOD8207956
Probable space group: P M M A
;
_chemical_formula_sum "Si O2"
_cell_formula_units_Z 64
_cell_length_a 28.388693
_cell_length_b 9.036476
_cell_length_c 15.490132
_cell_angle_alpha 90.000000
_cell_angle_beta 90.000000
_cell_angle_gamma 90.000000
_cell_volume 3973.741541
_symmetry_space_group_name_H-M "P M M A"
_symmetry_group_IT_number 51
_symmetry_cell_setting 'orthorhombic'
loop_
_space_group_symop_operation_xyz
x,y,z
1/2-x,-y,z
1/2+x,-y,-z
-x,y,-z
-x,-y,-z
1/2+x,y,-z
1/2-x,y,z
x,-y,z
loop_
_atom_site_type_symbol
_atom_site_label
_atom_site_fract_x
_atom_site_fract_y
_atom_site_fract_z
Si Si1 0.651247 0.675730 0.337081
Si Si2 0.446291 0.325448 0.589415
Si Si3 0.695530 0.170438 0.497113
Si Si4 0.304477 0.173241 0.169531
Si Si5 0.694028 0.666784 0.001237
Si Si6 0.805176 0.172764 0.173029
Si Si7 0.638397 0.825194 0.664338
Si Si8 0.549762 0.325000 0.604906
O O1 0.655609 0.500000 0.330008
O O2 0.597428 0.729157 0.353141
O O3 0.684182 0.729972 0.414603
O O4 0.666864 0.748227 0.248632
O O5 0.446132 0.500000 0.580862
O O6 0.496355 0.277182 0.631151
O O7 0.440897 0.264734 0.492056
O O8 0.750000 0.188803 0.521360
O O9 0.665816 0.228228 0.578786
O O10 0.683701 0.000000 0.475138
O O11 0.250000 0.211654 0.186129
O O12 0.333210 0.230184 0.252181
O O13 0.311314 0.000000 0.153107
O O14 0.324878 0.257799 0.086084
O O15 0.750000 0.668758 0.999894
O O16 0.674430 0.500000 0.007401
O O17 0.676094 0.759495 0.083362
O O18 0.750000 0.203554 0.186184
O O19 0.816533 0.000000 0.173607
O O20 0.586520 0.754299 0.668205
O O21 0.633889 0.000000 0.665316
O O22 0.556867 0.500000 0.612384
#
# Coordination Sequence:
#
# PCOD8207956 Si02
#       8
#     8   8   8   8   8   8   8   8
#     4  11  20  31  47  68  91 119 157 197 232 269
#     4   8  16  30  48  66  87 118 154 193 238 282
#     4  10  20  32  43  59  91 131 162 187 221 268
#     4   9  17  30  47  66  93 129 160 186 225 277
#     4   9  17  30  48  70  93 117 152 198 235 263
#     4  10  20  33  48  67  94 127 157 185 226 280
#     4  10  19  30  45  68  94 122 158 195 228 267
#     4   9  16  31  50  65  86 119 156 193 236 282
#
# _framework density 16.105729
#
# number of rings (size 3 to 8) (size 9 to 14) (size 15 to 20)
#    0.000    2.500    1.250    2.625    0.000    6.000 
#    0.000    2.500    0.000    2.250    0.000    0.875 
#    0.000    7.000    0.000    0.000    0.000    0.000 
#
# Total GULP energy -793528.191645 kJ/mol
# GULP energy per Si atom -12398.877994 kJ/mol
# Density = 1.606907 g / cm^3
# Si number density = 16.105729 Si / 1000 Ang^3
#
#
#
# Elastic Constant Matrix: (Units=GPa)
#
#
# Indices 1 2 3 4 5 6 
#
# 1 83.6855 32.2010 45.1290 0.0000 0.0000 0.0000
# 2 32.2010 55.1247 42.6832 0.0000 0.0000 0.0000
# 3 45.1290 42.6832 115.2697 0.0000 0.0000 0.0000
# 4 0.0000 0.0000 0.0000 24.2709 0.0000 0.0000
# 5 0.0000 0.0000 0.0000 0.0000 12.6694 0.0000
# 6 0.0000 0.0000 0.0000 0.0000 0.0000 22.4316
#
#
#
# Elastic Compliance Matrix: (Units=1/GPa)
#
#
# Indices 1 2 3 4 5 6 
#
# 1 0.016690 -0.006575 -0.004100 0.000000 0.000000 0.000000
# 2 -0.006575 0.028023 -0.007802 0.000000 0.000000 0.000000
# 3 -0.004100 -0.007802 0.013169 0.000000 0.000000 0.000000
# 4 0.000000 0.000000 0.000000 0.041202 0.000000 0.000000
# 5 0.000000 0.000000 0.000000 0.000000 0.078930 0.000000
# 6 0.000000 0.000000 0.000000 0.000000 0.000000 0.044580
#
#
# Mechanical properties :
#
#
# Convention : Reuss Voigt Hill
#
# Bulk Modulus (GPa) = 47.78221 54.90069 51.34145
# Shear Modulus (GPa) = 18.75994 20.81216 19.78605
#
# Velocity S-wave (km/s) = 3.41662 3.59865 3.50881
# Velocity P-wave (km/s) = 6.73028 7.17138 6.95433
#
# Compressibility (1/GPa) = 0.02092829
#
# Stress axis : x y z
#
# Youngs Moduli (GPa) = 59.91468 35.68497 75.93303
#
# Poissons Ratio (x) = 0.23464 0.31130
# Poissons Ratio (y) = 0.39396 0.59246
# Poissons Ratio (z) = 0.24563 0.27843
#
# Static dielectric constant tensor:
#      x y z
#    x 3.114080 0.000000 0.000000 
#    y 0.000000 2.988920 0.000000 
#    z 0.000000 0.000000 3.068390 
# 
# 
# High freq. dielectric constant tensor:
#      x y z
#    x 1.600780 0.000000 0.000000 
#    y 0.000000 1.614830 0.000000 
#    z 0.000000 0.000000 1.609060 
# 
# From -- ./inp_files/26588.got.cif
#   From: 2010.03.12/outbox.cif.g09.slc.cpg/sg51_14_cif.got.tgz:26588.got - 2010.04.16 13:43:02.
