data_PCOD8207555
_publ_section_title
;
Structure prediction by ZEFSAII (Michael W. Deem and Ramdas Pophale) SiO2 
 PCOD8207555
Probable space group: P M M A
;
_chemical_formula_sum "Si O2"
_cell_formula_units_Z 64
_cell_length_a 9.249893
_cell_length_b 21.066504
_cell_length_c 21.631946
_cell_angle_alpha 90.000000
_cell_angle_beta 90.000000
_cell_angle_gamma 90.000000
_cell_volume 4215.263901
_symmetry_space_group_name_H-M "P M M A"
_symmetry_group_IT_number 51
_symmetry_cell_setting 'orthorhombic'
loop_
_space_group_symop_operation_xyz
x,y,z
1/2-x,-y,z
1/2+x,-y,-z
-x,y,-z
-x,-y,-z
1/2+x,y,-z
1/2-x,y,z
x,-y,z
loop_
_atom_site_type_symbol
_atom_site_label
_atom_site_fract_x
_atom_site_fract_y
_atom_site_fract_z
Si Si1 0.582321 0.427976 0.438551
Si Si2 0.411268 0.844185 0.157395
Si Si3 0.910998 0.574254 0.785116
Si Si4 0.587802 0.654152 0.130052
Si Si5 0.090777 0.741034 0.053750
Si Si6 0.583795 0.074979 0.062279
Si Si7 0.581003 0.355327 0.316932
Si Si8 0.410699 0.758180 0.762404
O O1 0.500000 0.407108 0.500000
O O2 0.750000 0.426388 0.454347
O O3 0.537985 0.500000 0.417781
O O4 0.544821 0.374616 0.387224
O O5 0.250000 0.871088 0.172441
O O6 0.395524 0.785563 0.112092
O O7 0.509167 0.897134 0.123936
O O8 0.484315 0.817548 0.220869
O O9 0.750000 0.604318 0.790027
O O10 0.900170 0.500000 0.782021
O O11 0.004399 0.592896 0.844834
O O12 0.986289 0.597432 0.723136
O O13 0.750000 0.635468 0.110627
O O14 0.500827 0.678396 0.070377
O O15 0.589117 0.707803 0.182435
O O16 0.250000 0.722230 0.029794
O O17 0.000000 0.776704 0.000000
O O18 0.750000 0.099061 0.057379
O O19 0.578312 0.000000 0.069886
O O20 0.500000 0.096025 0.000000
O O21 0.750000 0.367157 0.301725
O O22 0.542419 0.281371 0.299716
O O23 0.250000 0.786658 0.753616
#
# Coordination Sequence:
#
# PCOD8207555 Si02
#       8
#     8   8   8   8   8   8   8   8
#     4   9  17  28  41  58  82 112 145 178 210 246
#     4  10  19  29  43  62  83 106 131 163 201 239
#     4  10  19  28  40  59  79  97 119 152 194 237
#     4   9  17  29  43  57  74  96 121 151 189 233
#     4  10  19  29  42  60  79  98 122 153 191 234
#     4  10  20  32  45  61  83 112 144 176 207 240
#     4   9  17  29  44  60  79 105 136 169 204 242
#     4   8  15  27  42  59  78 100 128 164 203 241
#
# _framework density 15.182917
#
# number of rings (size 3 to 8) (size 9 to 14) (size 15 to 20)
#    0.000    2.625    0.000    3.375    0.000    8.250 
#    0.000    1.250    0.000    0.375    0.000    0.000 
#    0.000    0.000    0.000    0.000    0.000    0.625 
#
# Total GULP energy -793135.185371 kJ/mol
# GULP energy per Si atom -12392.737271 kJ/mol
# Density = 1.514836 g / cm^3
# Si number density = 15.182917 Si / 1000 Ang^3
#
#
#
# Elastic Constant Matrix: (Units=GPa)
#
#
# Indices 1 2 3 4 5 6 
#
# 1 110.8736 31.8071 32.0278 0.0000 0.0000 0.0000
# 2 31.8071 39.6226 25.6170 0.0000 0.0000 0.0000
# 3 32.0278 25.6170 51.0540 0.0000 0.0000 0.0000
# 4 0.0000 0.0000 0.0000 23.5672 0.0000 0.0000
# 5 0.0000 0.0000 0.0000 0.0000 23.1210 0.0000
# 6 0.0000 0.0000 0.0000 0.0000 0.0000 18.8873
#
#
#
# Elastic Compliance Matrix: (Units=1/GPa)
#
#
# Indices 1 2 3 4 5 6 
#
# 1 0.012265 -0.007210 -0.004077 0.000000 0.000000 0.000000
# 2 -0.007210 0.041596 -0.016348 0.000000 0.000000 0.000000
# 3 -0.004077 -0.016348 0.030347 0.000000 0.000000 0.000000
# 4 0.000000 0.000000 0.000000 0.042432 0.000000 0.000000
# 5 0.000000 0.000000 0.000000 0.000000 0.043251 0.000000
# 6 0.000000 0.000000 0.000000 0.000000 0.000000 0.052946
#
#
# Mechanical properties :
#
#
# Convention : Reuss Voigt Hill
#
# Bulk Modulus (GPa) = 34.55596 42.27269 38.41432
# Shear Modulus (GPa) = 17.37608 20.58833 18.98220
#
# Velocity S-wave (km/s) = 3.38664 3.68641 3.53970
# Velocity P-wave (km/s) = 6.17265 6.78397 6.48552
#
# Compressibility (1/GPa) = 0.02893857
#
# Stress axis : x y z
#
# Youngs Moduli (GPa) = 81.53039 24.04100 32.95203
#
# Poissons Ratio (x) = 0.17335 0.13433
# Poissons Ratio (y) = 0.58787 0.53869
# Poissons Ratio (z) = 0.33236 0.39302
#
# Static dielectric constant tensor:
#      x y z
#    x 3.334550 0.000000 0.000000 
#    y 0.000000 2.724410 0.000000 
#    z 0.000000 0.000000 2.808280 
# 
# 
# High freq. dielectric constant tensor:
#      x y z
#    x 1.602400 0.000000 0.000000 
#    y 0.000000 1.547360 0.000000 
#    z 0.000000 0.000000 1.544020 
# 
# From -- ./inp_files/32624.got.cif
#   From: 2010.03.12/outbox.cif.g09.slc.cpg/sg51_17_cif.got.tgz:32624.got - 2010.04.16 13:43:02.
