data_PCOD8207106
_publ_section_title
;
Structure prediction by ZEFSAII (Michael W. Deem and Ramdas Pophale) SiO2 
 PCOD8207106
Probable space group: P M M A
;
_chemical_formula_sum "Si O2"
_cell_formula_units_Z 48
_cell_length_a 17.950784
_cell_length_b 17.336749
_cell_length_c 9.034572
_cell_angle_alpha 90.000000
_cell_angle_beta 90.000000
_cell_angle_gamma 90.000000
_cell_volume 2811.633220
_symmetry_space_group_name_H-M "P M M A"
_symmetry_group_IT_number 51
_symmetry_cell_setting 'orthorhombic'
loop_
_space_group_symop_operation_xyz
x,y,z
1/2-x,-y,z
1/2+x,-y,-z
-x,y,-z
-x,-y,-z
1/2+x,y,-z
1/2-x,y,z
x,-y,z
loop_
_atom_site_type_symbol
_atom_site_label
_atom_site_fract_x
_atom_site_fract_y
_atom_site_fract_z
Si Si1 0.041922 0.088421 0.346073
Si Si2 0.965357 0.793238 0.158376
Si Si3 0.421852 0.586531 0.079638
Si Si4 0.166084 0.267408 0.991954
Si Si5 0.953196 0.672565 0.639090
Si Si6 0.335548 0.210462 0.323432
O O1 0.121862 0.130651 0.356616
O O2 0.000000 0.098656 0.500000
O O3 0.988553 0.122187 0.216093
O O4 0.057620 0.000000 0.307125
O O5 0.876911 0.782177 0.134165
O O6 0.994593 0.733157 0.277545
O O7 0.000000 0.772765 0.000000
O O8 0.390579 0.500000 0.059808
O O9 0.432256 0.601511 0.255180
O O10 0.500000 0.597006 0.000000
O O11 0.364094 0.645455 0.005960
O O12 0.250000 0.272196 0.936244
O O13 0.158840 0.224182 0.148033
O O14 0.877459 0.718637 0.592860
O O15 0.000000 0.640722 0.500000
O O16 0.250000 0.205447 0.377586
#
# Coordination Sequence:
#
# PCOD8207106 Si02
#       6
#     8   8   8   8   8   8
#     4  10  21  35  52  75 103 134 167 205 252 309
#     4  11  16  33  53  74  98 128 172 212 244 294
#     4  10  18  32  53  74 100 135 173 210 250 298
#     4  10  18  31  51  77 103 127 166 216 259 293
#     4  10  18  31  51  75 105 134 170 211 248 300
#     4   9  17  31  51  75  99 129 170 211 250 297
#
# _framework density 17.071928
#
# number of rings (size 3 to 8) (size 9 to 14) (size 15 to 20)
#    0.000    2.000    6.667    2.000    0.000    1.333 
#    0.000    3.333    0.000    1.500    0.000    0.000 
#    0.000    0.000    0.000    0.000    0.000    0.000 
#
# Total GULP energy -595012.020034 kJ/mol
# GULP energy per Si atom -12396.083751 kJ/mol
# Density = 1.703307 g / cm^3
# Si number density = 17.071928 Si / 1000 Ang^3
#
#
#
# Elastic Constant Matrix: (Units=GPa)
#
#
# Indices 1 2 3 4 5 6 
#
# 1 137.3248 46.9215 25.5020 0.0000 0.0000 0.0000
# 2 46.9215 91.7506 13.1347 0.0000 0.0000 0.0000
# 3 25.5020 13.1347 41.9601 0.0000 0.0000 0.0000
# 4 0.0000 0.0000 0.0000 19.0462 0.0000 0.0000
# 5 0.0000 0.0000 0.0000 0.0000 21.3290 0.0000
# 6 0.0000 0.0000 0.0000 0.0000 0.0000 19.7140
#
#
#
# Elastic Compliance Matrix: (Units=1/GPa)
#
#
# Indices 1 2 3 4 5 6 
#
# 1 0.009567 -0.004251 -0.004484 0.000000 0.000000 0.000000
# 2 -0.004251 0.013299 -0.001580 0.000000 0.000000 0.000000
# 3 -0.004484 -0.001580 0.027052 0.000000 0.000000 0.000000
# 4 0.000000 0.000000 0.000000 0.052504 0.000000 0.000000
# 5 0.000000 0.000000 0.000000 0.000000 0.046884 0.000000
# 6 0.000000 0.000000 0.000000 0.000000 0.000000 0.050725
#
#
# Mechanical properties :
#
#
# Convention : Reuss Voigt Hill
#
# Bulk Modulus (GPa) = 34.14190 49.12799 41.63494
# Shear Modulus (GPa) = 21.69920 24.38301 23.04111
#
# Velocity S-wave (km/s) = 3.56904 3.78332 3.67774
# Velocity P-wave (km/s) = 6.08493 6.92273 6.51731
#
# Compressibility (1/GPa) = 0.02928953
#
# Stress axis : x y z
#
# Youngs Moduli (GPa) = 104.52479 75.19324 36.96609
#
# Poissons Ratio (x) = 0.31963 0.16576
# Poissons Ratio (y) = 0.44431 0.05839
# Poissons Ratio (z) = 0.46869 0.11877
#
# Static dielectric constant tensor:
#      x y z
#    x 3.531820 0.000000 0.000000 
#    y 0.000000 3.207620 0.000000 
#    z 0.000000 0.000000 3.194700 
# 
# 
# High freq. dielectric constant tensor:
#      x y z
#    x 1.655190 0.000000 0.000000 
#    y 0.000000 1.646960 0.000000 
#    z 0.000000 0.000000 1.644320 
# 
# From -- ./inp_files/9809.got.cif
#   From: 2010.03.12/outbox.cif.g09.slc.cpg/sg51_5_cif.got.tgz:9809.got - 2010.04.16 13:43:02.
