data_PCOD8207507
_publ_section_title
;
Structure prediction by ZEFSAII (Michael W. Deem and Ramdas Pophale) SiO2 
 PCOD8207507
Probable space group: P M M A
;
_chemical_formula_sum "Si O2"
_cell_formula_units_Z 48
_cell_length_a 14.871790
_cell_length_b 9.553063
_cell_length_c 17.192793
_cell_angle_alpha 90.000000
_cell_angle_beta 90.000000
_cell_angle_gamma 90.000000
_cell_volume 2442.599818
_symmetry_space_group_name_H-M "P M M A"
_symmetry_group_IT_number 51
_symmetry_cell_setting 'orthorhombic'
loop_
_space_group_symop_operation_xyz
x,y,z
1/2-x,-y,z
1/2+x,-y,-z
-x,y,-z
-x,-y,-z
1/2+x,y,-z
1/2-x,y,z
x,-y,z
loop_
_atom_site_type_symbol
_atom_site_label
_atom_site_fract_x
_atom_site_fract_y
_atom_site_fract_z
Si Si1 0.484168 0.658365 0.746511
Si Si2 0.499500 0.779344 0.590221
Si Si3 0.349609 0.000000 0.588390
Si Si4 0.649960 0.000000 0.591939
Si Si5 0.152939 0.665890 0.159191
Si Si6 0.353361 0.839978 0.841486
Si Si7 0.605467 0.657640 0.009660
O O1 0.465230 0.500000 0.774810
O O2 0.496167 0.654061 0.652651
O O3 0.573752 0.723517 0.786261
O O4 0.403839 0.758467 0.772752
O O5 0.500000 0.727862 0.500000
O O6 0.409126 0.865487 0.609198
O O7 0.590044 0.864305 0.611467
O O8 0.331372 0.000000 0.498214
O O9 0.250000 0.000000 0.629956
O O10 0.750000 0.000000 0.632930
O O11 0.250000 0.715302 0.192225
O O12 0.145591 0.500000 0.158759
O O13 0.145361 0.718759 0.070473
O O14 0.250000 0.838717 0.817602
O O15 0.388764 0.000000 0.847531
O O16 0.366300 0.763002 0.923197
O O17 0.641357 0.500000 0.027761
O O18 0.500000 0.652443 0.000000
#
# Coordination Sequence:
#
# PCOD8207507 Si02
#       7
#     8   8   4   4   8   8   8
#     4  11  23  39  58  82 118 156 194 244 294 345
#     4   9  19  34  55  84 113 147 195 240 288 346
#     4   8  15  31  56  81 107 142 181 232 288 346
#     4   8  15  31  56  83 111 142 181 230 286 348
#     4   9  18  34  57  83 111 149 192 229 276 343
#     4  11  25  41  59  85 118 156 196 241 292 343
#     4  10  18  35  63  89 114 148 191 235 284 346
#
# _framework density 19.651192999999999
#
# number of rings (size 3 to 8) (size 9 to 14) (size 15 to 20)
#    0.000    2.333    1.667    2.000    2.333    4.000 
#    0.000    0.000    0.000    0.000    0.000    7.000 
#    0.000    0.000    0.000    0.000    0.000    0.000 
#
# Total GULP energy -594747.469971 kJ/mol
# GULP energy per Si atom -12390.572291 kJ/mol
# Density = 1.960647 g / cm^3
# Si number density = 19.651193 Si / 1000 Ang^3
#
#
#
# Elastic Constant Matrix: (Units=GPa)
#
#
# Indices 1 2 3 4 5 6 
#
# 1 132.3510 35.8762 31.8361 0.0000 0.0000 0.0000
# 2 35.8762 84.8607 41.6744 0.0000 0.0000 0.0000
# 3 31.8361 41.6744 119.9241 0.0000 0.0000 0.0000
# 4 0.0000 0.0000 0.0000 32.9018 0.0000 0.0000
# 5 0.0000 0.0000 0.0000 0.0000 5.1639 0.0000
# 6 0.0000 0.0000 0.0000 0.0000 0.0000 20.7235
#
#
#
# Elastic Compliance Matrix: (Units=1/GPa)
#
#
# Indices 1 2 3 4 5 6 
#
# 1 0.008684 -0.003062 -0.001241 0.000000 0.000000 0.000000
# 2 -0.003062 0.015288 -0.004500 0.000000 0.000000 0.000000
# 3 -0.001241 -0.004500 0.010232 0.000000 0.000000 0.000000
# 4 0.000000 0.000000 0.000000 0.030393 0.000000 0.000000
# 5 0.000000 0.000000 0.000000 0.000000 0.193652 0.000000
# 6 0.000000 0.000000 0.000000 0.000000 0.000000 0.048255
#
#
# Mechanical properties :
#
#
# Convention : Reuss Voigt Hill
#
# Bulk Modulus (GPa) = 60.24755 61.76768 61.00762
# Shear Modulus (GPa) = 15.16790 26.94111 21.05450
#
# Velocity S-wave (km/s) = 2.78124 3.70667 3.27679
# Velocity P-wave (km/s) = 6.40615 7.05829 6.74011
#
# Compressibility (1/GPa) = 0.01659819
#
# Stress axis : x y z
#
# Youngs Moduli (GPa) = 115.15133 65.40940 97.73316
#
# Poissons Ratio (x) = 0.20027 0.12133
# Poissons Ratio (y) = 0.35256 0.43980
# Poissons Ratio (z) = 0.14295 0.29434
#
# Static dielectric constant tensor:
#      x y z
#    x 4.132080 0.000000 0.000000 
#    y 0.000000 3.293360 0.000000 
#    z 0.000000 0.000000 3.965870 
# 
# 
# High freq. dielectric constant tensor:
#      x y z
#    x 1.780500 0.000000 0.000000 
#    y 0.000000 1.728110 0.000000 
#    z 0.000000 0.000000 1.763860 
# 
# From -- ./inp_files/29601.got.cif
#   From: 2010.03.12/outbox.cif.g09.slc.cpg/sg51_15_cif.got.tgz:29601.got - 2010.04.16 13:43:02.
