data_PCOD8207732
_publ_section_title
;
Structure prediction by ZEFSAII (Michael W. Deem and Ramdas Pophale) SiO2 
 PCOD8207732
Probable space group: P M M A
;
_chemical_formula_sum "Si O2"
_cell_formula_units_Z 64
_cell_length_a 27.412250
_cell_length_b 26.479910
_cell_length_c 5.048556
_cell_angle_alpha 90.000000
_cell_angle_beta 90.000000
_cell_angle_gamma 90.000000
_cell_volume 3664.615098
_symmetry_space_group_name_H-M "P M M A"
_symmetry_group_IT_number 51
_symmetry_cell_setting 'orthorhombic'
loop_
_space_group_symop_operation_xyz
x,y,z
1/2-x,-y,z
1/2+x,-y,-z
-x,y,-z
-x,-y,-z
1/2+x,y,-z
1/2-x,y,z
x,-y,z
loop_
_atom_site_type_symbol
_atom_site_label
_atom_site_fract_x
_atom_site_fract_y
_atom_site_fract_z
Si Si1 0.192543 0.618878 0.544747
Si Si2 0.554217 0.777702 0.532295
Si Si3 0.807331 0.220015 0.947865
Si Si4 0.193422 0.941607 0.553654
Si Si5 0.807413 0.556061 0.963611
Si Si6 0.652043 0.109398 0.948585
Si Si7 0.151646 0.727628 0.552633
Si Si8 0.054204 0.155295 0.966942
O O1 0.250000 0.631357 0.555371
O O2 0.179403 0.579103 0.318379
O O3 0.163824 0.670074 0.488926
O O4 0.172322 0.593551 0.812242
O O5 0.500000 0.754365 0.500000
O O6 0.593424 0.734055 0.477375
O O7 0.562254 0.798723 0.827882
O O8 0.561510 0.823920 0.328926
O O9 0.750000 0.222118 0.988966
O O10 0.826196 0.164226 0.009589
O O11 0.820485 0.235419 0.649381
O O12 0.832011 0.259021 0.150630
O O13 0.250000 0.927369 0.530737
O O14 0.163719 0.907533 0.348466
O O15 0.184440 0.000000 0.489900
O O16 0.175043 0.930540 0.849237
O O17 0.750000 0.551375 0.004127
O O18 0.830715 0.500000 0.985655
O O19 0.593457 0.111204 0.982095
O O20 0.000000 0.132032 0.000000
#
# Coordination Sequence:
#
# PCOD8207732 Si02
#       8
#     8   8   8   8   8   8   8   8
#     4  10  19  29  44  66  98 137 165 200 256 304
#     4  10  19  35  54  74 102 137 175 213 251 294
#     4  12  23  33  50  76 108 144 170 202 241 303
#     4  11  24  40  58  80 107 138 172 214 259 302
#     4   9  17  30  46  64  88 126 178 221 247 284
#     4  12  21  38  59  80 104 136 179 212 252 305
#     4  12  21  35  48  74 111 140 170 207 251 312
#     4  10  20  36  57  80 102 130 172 215 256 299
#
# _framework density 17.464317000000001
#
# number of rings (size 3 to 8) (size 9 to 14) (size 15 to 20)
#    0.000    1.250    2.500    5.250    0.000    3.500 
#    0.000    0.000    0.000    2.250    0.000    0.000 
#    0.000    3.000    0.000    0.000    0.000    0.000 
#
# Total GULP energy -793905.836066 kJ/mol
# GULP energy per Si atom -12404.778689 kJ/mol
# Density = 1.742457 g / cm^3
# Si number density = 17.464317 Si / 1000 Ang^3
#
#
#
# Elastic Constant Matrix: (Units=GPa)
#
#
# Indices 1 2 3 4 5 6 
#
# 1 92.0857 44.9826 10.3750 0.0000 0.0000 0.0000
# 2 44.9826 70.9631 10.3506 0.0000 0.0000 0.0000
# 3 10.3750 10.3506 70.9362 0.0000 0.0000 0.0000
# 4 0.0000 0.0000 0.0000 14.6237 0.0000 0.0000
# 5 0.0000 0.0000 0.0000 0.0000 21.5015 0.0000
# 6 0.0000 0.0000 0.0000 0.0000 0.0000 9.3582
#
#
#
# Elastic Compliance Matrix: (Units=1/GPa)
#
#
# Indices 1 2 3 4 5 6 
#
# 1 0.015782 -0.009878 -0.000867 0.000000 0.000000 0.000000
# 2 -0.009878 0.020580 -0.001558 0.000000 0.000000 0.000000
# 3 -0.000867 -0.001558 0.014451 0.000000 0.000000 0.000000
# 4 0.000000 0.000000 0.000000 0.068382 0.000000 0.000000
# 5 0.000000 0.000000 0.000000 0.000000 0.046508 0.000000
# 6 0.000000 0.000000 0.000000 0.000000 0.000000 0.106858
#
#
# Mechanical properties :
#
#
# Convention : Reuss Voigt Hill
#
# Bulk Modulus (GPa) = 38.15612 40.60016 39.37814
# Shear Modulus (GPa) = 16.34496 20.31514 18.33005
#
# Velocity S-wave (km/s) = 3.06258 3.41433 3.24322
# Velocity P-wave (km/s) = 5.86526 6.23229 6.05156
#
# Compressibility (1/GPa) = 0.02620812
#
# Stress axis : x y z
#
# Youngs Moduli (GPa) = 63.36231 48.58980 69.19767
#
# Poissons Ratio (x) = 0.47996 0.05999
# Poissons Ratio (y) = 0.62587 0.10783
# Poissons Ratio (z) = 0.05494 0.07572
#
# Static dielectric constant tensor:
#      x y z
#    x 3.298660 0.000000 0.000000 
#    y 0.000000 3.083500 0.000000 
#    z 0.000000 0.000000 3.398970 
# 
# 
# High freq. dielectric constant tensor:
#      x y z
#    x 1.654920 0.000000 0.000000 
#    y 0.000000 1.653150 0.000000 
#    z 0.000000 0.000000 1.699090 
# 
# From -- ./inp_files/3688.got.cif
#   From: 2010.03.12/outbox.cif.g09.slc.cpg/sg51_2_cif.got.tgz:3688.got - 2010.04.16 13:43:02.
