data_PCOD8207172
_publ_section_title
;
Structure prediction by ZEFSAII (Michael W. Deem and Ramdas Pophale) SiO2 
 PCOD8207172
Probable space group: P M M A
;
_chemical_formula_sum "Si O2"
_cell_formula_units_Z 48
_cell_length_a 15.432669
_cell_length_b 16.876324
_cell_length_c 9.194409
_cell_angle_alpha 90.000000
_cell_angle_beta 90.000000
_cell_angle_gamma 90.000000
_cell_volume 2394.653687
_symmetry_space_group_name_H-M "P M M A"
_symmetry_group_IT_number 51
_symmetry_cell_setting 'orthorhombic'
loop_
_space_group_symop_operation_xyz
x,y,z
1/2-x,-y,z
1/2+x,-y,-z
-x,y,-z
-x,-y,-z
1/2+x,y,-z
1/2-x,y,z
x,-y,z
loop_
_atom_site_type_symbol
_atom_site_label
_atom_site_fract_x
_atom_site_fract_y
_atom_site_fract_z
Si Si1 0.849116 0.197698 0.216638
Si Si2 0.003470 0.088462 0.172880
Si Si3 0.059080 0.656339 0.628389
Si Si4 0.346138 0.799105 0.128989
Si Si5 0.152557 0.500000 0.633022
Si Si6 0.938370 0.648502 0.880341
Si Si7 0.347665 0.500000 0.978803
O O1 0.750000 0.176052 0.264890
O O2 0.878404 0.276622 0.302622
O O3 0.918016 0.127165 0.247595
O O4 0.851239 0.209096 0.044416
O O5 0.089689 0.138867 0.207141
O O6 0.012383 0.000000 0.237737
O O7 0.000000 0.084402 0.000000
O O8 0.111771 0.580657 0.567998
O O9 0.000000 0.693433 0.500000
O O10 0.996836 0.618005 0.749225
O O11 0.250000 0.822529 0.180386
O O12 0.370723 0.711718 0.185357
O O13 0.250000 0.500000 0.577201
O O14 0.147078 0.500000 0.806637
O O15 0.892986 0.576640 0.959007
O O16 0.000000 0.692212 0.000000
O O17 0.250000 0.500000 0.034853
#
# Coordination Sequence:
#
# PCOD8207172 Si02
#       7
#     8   8   8   8   4   8   4
#     4  10  19  35  58  83 114 154 198 239 286 355
#     4   9  17  31  53  87 123 150 185 242 299 344
#     4  12  24  38  57  84 116 156 201 245 301 349
#     4  10  18  31  55  86 116 153 196 239 288 349
#     4  11  22  39  59  84 112 151 201 243 292 356
#     4  12  19  36  57  80 114 148 197 244 296 351
#     4  11  22  34  57  89 112 147 201 251 292 346
#
# _framework density 20.044653
#
# number of rings (size 3 to 8) (size 9 to 14) (size 15 to 20)
#    0.000    1.333    5.000    2.500    0.000    3.333 
#    0.000    7.500    0.000    0.500    0.000    0.000 
#    0.000    0.000    0.000    0.000    0.000    0.000 
#
# Total GULP energy -594914.031814 kJ/mol
# GULP energy per Si atom -12394.042329 kJ/mol
# Density = 1.999903 g / cm^3
# Si number density = 20.044653 Si / 1000 Ang^3
#
#
#
# Elastic Constant Matrix: (Units=GPa)
#
#
# Indices 1 2 3 4 5 6 
#
# 1 175.7180 72.0426 23.2995 0.0000 0.0000 0.0000
# 2 72.0426 145.2406 -1.0045 0.0000 0.0000 0.0000
# 3 23.2995 -1.0045 30.0924 0.0000 0.0000 0.0000
# 4 0.0000 0.0000 0.0000 9.0080 0.0000 0.0000
# 5 0.0000 0.0000 0.0000 0.0000 20.1519 0.0000
# 6 0.0000 0.0000 0.0000 0.0000 0.0000 -15.7395
#
#
#
# Elastic Compliance Matrix: (Units=1/GPa)
#
#
# Indices 1 2 3 4 5 6 
#
# 1 0.008254 -0.004139 -0.006529 0.000000 0.000000 0.000000
# 2 -0.004139 0.008962 0.003504 0.000000 0.000000 0.000000
# 3 -0.006529 0.003504 0.038403 0.000000 0.000000 0.000000
# 4 0.000000 0.000000 0.000000 0.111013 0.000000 0.000000
# 5 0.000000 0.000000 0.000000 0.000000 0.049623 0.000000
# 6 0.000000 0.000000 0.000000 0.000000 0.000000 -0.063534
#
#
# Mechanical properties :
#
#
# Convention : Reuss Voigt Hill
#
# Bulk Modulus (GPa) = 24.21820 59.96958 42.09389
# Shear Modulus (GPa) = 27.65306 19.79831 23.72569
#
# Velocity S-wave (km/s) = 3.71829 3.14620 3.44414
# Velocity P-wave (km/s) = 5.52654 6.57123 6.07139
#
# Compressibility (1/GPa) = 0.04129126
#
# Stress axis : x y z
#
# Youngs Moduli (GPa) = 121.15916 111.57644 26.03976
#
# Poissons Ratio (x) = 0.46183 0.17000
# Poissons Ratio (y) = 0.50149 -0.09124
# Poissons Ratio (z) = 0.79100 -0.39096
#
# Static dielectric constant tensor:
#      x y z
#    x 4.108110 0.000000 0.000000 
#    y 0.000000 3.789300 0.000000 
#    z 0.000000 0.000000 3.204300 
# 
# 
# High freq. dielectric constant tensor:
#      x y z
#    x 1.800120 0.000000 0.000000 
#    y 0.000000 1.777690 0.000000 
#    z 0.000000 0.000000 1.729060 
# 
# From -- ./inp_files/8350.got.cif
#   From: 2010.03.12/outbox.cif.g09.slc.cpg/sg51_5_cif.got.tgz:8350.got - 2010.04.16 13:43:02.
