data_PCOD8207728
_publ_section_title
;
Structure prediction by ZEFSAII (Michael W. Deem and Ramdas Pophale) SiO2 
 PCOD8207728
Probable space group: P M M A
;
_chemical_formula_sum "Si O2"
_cell_formula_units_Z 64
_cell_length_a 8.981627
_cell_length_b 19.694390
_cell_length_c 19.899333
_cell_angle_alpha 90.000000
_cell_angle_beta 90.000000
_cell_angle_gamma 90.000000
_cell_volume 3519.946549
_symmetry_space_group_name_H-M "P M M A"
_symmetry_group_IT_number 51
_symmetry_cell_setting 'orthorhombic'
loop_
_space_group_symop_operation_xyz
x,y,z
1/2-x,-y,z
1/2+x,-y,-z
-x,y,-z
-x,-y,-z
1/2+x,y,-z
1/2-x,y,z
x,-y,z
loop_
_atom_site_type_symbol
_atom_site_label
_atom_site_fract_x
_atom_site_fract_y
_atom_site_fract_z
Si Si1 0.923262 0.392192 0.565069
Si Si2 0.576543 0.575651 0.713462
Si Si3 0.922850 0.707153 0.243999
Si Si4 0.578613 0.889369 0.433462
Si Si5 0.927393 0.830735 0.817436
Si Si6 0.919330 0.263044 0.396742
Si Si7 0.424852 0.077234 0.928433
Si Si8 0.417049 0.075144 0.302785
O O1 0.750000 0.402101 0.555320
O O2 0.977189 0.424779 0.635453
O O3 0.000000 0.427151 0.500000
O O4 0.966573 0.312934 0.566445
O O5 0.750000 0.595558 0.716446
O O6 0.548238 0.500000 0.742643
O O7 0.485921 0.630071 0.757645
O O8 0.750000 0.705054 0.224230
O O9 0.950302 0.738898 0.317236
O O10 0.009801 0.754115 0.190254
O O11 0.500000 0.917750 0.500000
O O12 0.750000 0.907240 0.439573
O O13 0.547251 0.809813 0.426950
O O14 0.517846 0.926964 0.368414
O O15 0.750000 0.829237 0.826066
O O16 0.979182 0.872647 0.752002
O O17 0.000341 0.867457 0.880593
O O18 0.750000 0.287042 0.410474
O O19 0.250000 0.092310 0.933936
O O20 0.452936 0.000000 0.902583
O O21 0.500000 0.087361 0.000000
O O22 0.250000 0.096302 0.323759
O O23 0.419603 0.000000 0.270490
#
# Coordination Sequence:
#
# PCOD8207728 Si02
#       8
#     8   8   8   8   8   8   8   8
#     4  10  19  29  44  65  89 120 159 203 257 320
#     4   9  19  35  51  69  97 133 171 213 267 328
#     4  10  19  33  53  78 105 131 171 220 266 316
#     4  11  22  35  50  68  90 121 162 212 271 328
#     4  11  21  35  58  84 112 145 182 223 268 316
#     4   9  18  32  48  67  91 119 156 206 262 319
#     4  10  21  37  58  86 122 161 196 229 267 313
#     4  10  22  38  54  73  97 128 169 216 266 320
#
# _framework density 18.182095
#
# number of rings (size 3 to 8) (size 9 to 14) (size 15 to 20)
#    0.000    2.000    1.250    2.625    0.000    5.750 
#    0.000    0.000    0.000    0.000    0.000    0.000 
#    0.000    0.500    0.000    1.875    0.000    2.875 
#
# Total GULP energy -793603.185652 kJ/mol
# GULP energy per Si atom -12400.049776 kJ/mol
# Density = 1.814071 g / cm^3
# Si number density = 18.182095 Si / 1000 Ang^3
#
#
#
# Elastic Constant Matrix: (Units=GPa)
#
#
# Indices 1 2 3 4 5 6 
#
# 1 90.4086 49.2917 40.3838 0.0000 0.0000 0.0000
# 2 49.2917 99.3672 43.0876 0.0000 0.0000 0.0000
# 3 40.3838 43.0876 70.6155 0.0000 0.0000 0.0000
# 4 0.0000 0.0000 0.0000 10.2403 0.0000 0.0000
# 5 0.0000 0.0000 0.0000 0.0000 28.7792 0.0000
# 6 0.0000 0.0000 0.0000 0.0000 0.0000 24.2106
#
#
#
# Elastic Compliance Matrix: (Units=1/GPa)
#
#
# Indices 1 2 3 4 5 6 
#
# 1 0.016950 -0.005718 -0.006205 0.000000 0.000000 0.000000
# 2 -0.005718 0.015613 -0.006257 0.000000 0.000000 0.000000
# 3 -0.006205 -0.006257 0.021527 0.000000 0.000000 0.000000
# 4 0.000000 0.000000 0.000000 0.097654 0.000000 0.000000
# 5 0.000000 0.000000 0.000000 0.000000 0.034747 0.000000
# 6 0.000000 0.000000 0.000000 0.000000 0.000000 0.041304
#
#
# Mechanical properties :
#
#
# Convention : Reuss Voigt Hill
#
# Bulk Modulus (GPa) = 56.39520 58.43528 57.41524
# Shear Modulus (GPa) = 18.51417 21.15455 19.83436
#
# Velocity S-wave (km/s) = 3.19449 3.41469 3.30642
# Velocity P-wave (km/s) = 6.68510 6.91053 6.79875
#
# Compressibility (1/GPa) = 0.01773200
#
# Stress axis : x y z
#
# Youngs Moduli (GPa) = 58.99843 64.04913 46.45282
#
# Poissons Ratio (x) = 0.36620 0.28822
# Poissons Ratio (y) = 0.33733 0.29065
# Poissons Ratio (z) = 0.36606 0.40075
#
# Static dielectric constant tensor:
#      x y z
#    x 3.386700 0.000000 0.000000 
#    y 0.000000 3.313200 0.000000 
#    z 0.000000 0.000000 3.068550 
# 
# 
# High freq. dielectric constant tensor:
#      x y z
#    x 1.712980 0.000000 0.000000 
#    y 0.000000 1.702250 0.000000 
#    z 0.000000 0.000000 1.664220 
# 
# From -- ./inp_files/28326.got.cif
#   From: 2010.03.12/outbox.cif.g09.slc.cpg/sg51_15_cif.got.tgz:28326.got - 2010.04.16 13:43:02.
