data_PCOD8207648
_publ_section_title
;
Structure prediction by ZEFSAII (Michael W. Deem and Ramdas Pophale) SiO2 
 PCOD8207648
Probable space group: P M M A
;
_chemical_formula_sum "Si O2"
_cell_formula_units_Z 64
_cell_length_a 35.469051
_cell_length_b 9.098978
_cell_length_c 12.523695
_cell_angle_alpha 90.000000
_cell_angle_beta 90.000000
_cell_angle_gamma 90.000000
_cell_volume 4041.798572
_symmetry_space_group_name_H-M "P M M A"
_symmetry_group_IT_number 51
_symmetry_cell_setting 'orthorhombic'
loop_
_space_group_symop_operation_xyz
x,y,z
1/2-x,-y,z
1/2+x,-y,-z
-x,y,-z
-x,-y,-z
1/2+x,y,-z
1/2-x,y,z
x,-y,z
loop_
_atom_site_type_symbol
_atom_site_label
_atom_site_fract_x
_atom_site_fract_y
_atom_site_fract_z
Si Si1 0.205405 0.331801 0.251117
Si Si2 0.423979 0.666026 0.386379
Si Si3 0.070307 0.334314 0.639911
Si Si4 0.708073 0.825101 0.189645
Si Si5 0.150901 0.172222 0.402309
Si Si6 0.855024 0.827894 0.350606
Si Si7 0.502827 0.833768 0.627180
Si Si8 0.705264 0.836858 0.954806
O O1 0.250000 0.313711 0.261058
O O2 0.192698 0.500000 0.261839
O O3 0.187654 0.237260 0.346054
O O4 0.190495 0.272216 0.136985
O O5 0.422339 0.500000 0.341995
O O6 0.428151 0.665997 0.512882
O O7 0.386141 0.751266 0.353214
O O8 0.459676 0.748858 0.334708
O O9 0.068429 0.500000 0.684309
O O10 0.107222 0.254933 0.686336
O O11 0.033263 0.247112 0.678480
O O12 0.750000 0.761098 0.213421
O O13 0.679219 0.766369 0.278750
O O14 0.693487 0.776113 0.071916
O O15 0.710143 0.000000 0.192405
O O16 0.155195 0.207010 0.527353
O O17 0.147858 0.000000 0.380311
O O18 0.861953 0.000000 0.332916
O O19 0.500000 0.833273 0.500000
O O20 0.504348 0.000000 0.670537
O O21 0.750000 0.846958 0.952153
O O22 0.688341 0.000000 0.934494
#
# Coordination Sequence:
#
# PCOD8207648 Si02
#       8
#     8   8   8   8   8   8   8   8
#     4  10  20  32  45  61  83 111 142 178 219 258
#     4   9  16  26  39  55  79 110 141 173 211 252
#     4   9  16  25  37  54  79 111 143 173 208 249
#     4   8  14  26  45  66  85 107 138 177 218 256
#     4  10  19  29  42  61  86 116 148 178 208 248
#     4   9  17  28  42  61  86 115 145 176 210 250
#     4   9  15  23  37  56  77 103 139 178 211 246
#     4   8  14  27  47  66  81 100 132 175 219 259
#
# _framework density 15.834535000000001
#
# number of rings (size 3 to 8) (size 9 to 14) (size 15 to 20)
#    0.000    3.000    0.000    2.625    0.000    6.250 
#    0.000    1.875    0.000    1.125    0.000    0.000 
#    0.000    1.000    0.000   10.750    0.000    7.875 
#
# Total GULP energy -793409.379593 kJ/mol
# GULP energy per Si atom -12397.021556 kJ/mol
# Density = 1.579850 g / cm^3
# Si number density = 15.834535 Si / 1000 Ang^3
#
#
#
# Elastic Constant Matrix: (Units=GPa)
#
#
# Indices 1 2 3 4 5 6 
#
# 1 81.7897 48.1791 35.7090 0.0000 0.0000 0.0000
# 2 48.1791 102.8726 33.9138 0.0000 0.0000 0.0000
# 3 35.7090 33.9138 51.9923 0.0000 0.0000 0.0000
# 4 0.0000 0.0000 0.0000 11.5824 0.0000 0.0000
# 5 0.0000 0.0000 0.0000 0.0000 2.1790 0.0000
# 6 0.0000 0.0000 0.0000 0.0000 0.0000 27.5316
#
#
#
# Elastic Compliance Matrix: (Units=1/GPa)
#
#
# Indices 1 2 3 4 5 6 
#
# 1 0.020164 -0.006214 -0.009795 0.000000 0.000000 0.000000
# 2 -0.006214 0.014299 -0.005059 0.000000 0.000000 0.000000
# 3 -0.009795 -0.005059 0.029261 0.000000 0.000000 0.000000
# 4 0.000000 0.000000 0.000000 0.086338 0.000000 0.000000
# 5 0.000000 0.000000 0.000000 0.000000 0.458933 0.000000
# 6 0.000000 0.000000 0.000000 0.000000 0.000000 0.036322
#
#
# Mechanical properties :
#
#
# Convention : Reuss Voigt Hill
#
# Bulk Modulus (GPa) = 46.32470 52.47315 49.39892
# Shear Modulus (GPa) = 7.19789 16.18210 11.69000
#
# Velocity S-wave (km/s) = 2.13438 3.20026 2.72004
# Velocity P-wave (km/s) = 5.94921 6.84587 6.41323
#
# Compressibility (1/GPa) = 0.02158676
#
# Stress axis : x y z
#
# Youngs Moduli (GPa) = 49.59443 69.93553 34.17522
#
# Poissons Ratio (x) = 0.43459 0.33475
# Poissons Ratio (y) = 0.30819 0.17289
# Poissons Ratio (z) = 0.48579 0.35380
#
# Static dielectric constant tensor:
#      x y z
#    x 3.073990 0.000000 0.000000 
#    y 0.000000 3.100740 0.000000 
#    z 0.000000 0.000000 2.769970 
# 
# 
# High freq. dielectric constant tensor:
#      x y z
#    x 1.603210 0.000000 0.000000 
#    y 0.000000 1.610960 0.000000 
#    z 0.000000 0.000000 1.556240 
# 
# From -- ./inp_files/26695.got.cif
#   From: 2010.03.12/outbox.cif.g09.slc.cpg/sg51_14_cif.got.tgz:26695.got - 2010.04.16 13:43:02.
