data_PCOD8207734
_publ_section_title
;
Structure prediction by ZEFSAII (Michael W. Deem and Ramdas Pophale) SiO2 
 PCOD8207734
Probable space group: P M M A
;
_chemical_formula_sum "Si O2"
_cell_formula_units_Z 48
_cell_length_a 9.287286
_cell_length_b 13.584847
_cell_length_c 23.874097
_cell_angle_alpha 90.000000
_cell_angle_beta 90.000000
_cell_angle_gamma 90.000000
_cell_volume 3012.107901
_symmetry_space_group_name_H-M "P M M A"
_symmetry_group_IT_number 51
_symmetry_cell_setting 'orthorhombic'
loop_
_space_group_symop_operation_xyz
x,y,z
1/2-x,-y,z
1/2+x,-y,-z
-x,y,-z
-x,-y,-z
1/2+x,y,-z
1/2-x,y,z
x,-y,z
loop_
_atom_site_type_symbol
_atom_site_label
_atom_site_fract_x
_atom_site_fract_y
_atom_site_fract_z
Si Si1 0.086020 0.889559 0.627110
Si Si2 0.920282 0.886944 0.175022
Si Si3 0.081947 0.703545 0.557127
Si Si4 0.914081 0.389117 0.655274
Si Si5 0.908322 0.116582 0.050612
Si Si6 0.082227 0.202889 0.274794
O O1 0.250000 0.874357 0.648235
O O2 0.052380 0.815934 0.576059
O O3 0.981089 0.871013 0.679009
O O4 0.061021 0.000000 0.604691
O O5 0.750000 0.871273 0.180899
O O6 0.972263 0.859357 0.112082
O O7 0.003732 0.813872 0.216043
O O8 0.959986 0.000000 0.189117
O O9 0.250000 0.681833 0.548635
O O10 0.000000 0.682671 0.500000
O O11 0.020860 0.629937 0.603820
O O12 0.750000 0.372832 0.634422
O O13 0.938088 0.500000 0.677232
O O14 0.947603 0.315365 0.706495
O O15 0.750000 0.162893 0.045506
O O16 0.899043 0.000000 0.043761
O O17 0.000000 0.163602 0.000000
O O18 0.250000 0.179971 0.267885
#
# Coordination Sequence:
#
# PCOD8207734 Si02
#       6
#     8   8   8   8   8   8
#     4   9  18  32  47  62  85 118 147 170 204 249
#     4   9  17  28  41  59  88 125 154 174 206 252
#     4  10  20  33  49  69  90 111 139 173 207 249
#     4   9  19  36  53  66  84 110 137 171 218 264
#     4   8  14  24  37  54  79 114 153 185 210 238
#     4  10  19  29  44  67  88 107 140 182 216 250
#
# _framework density 15.935684
#
# number of rings (size 3 to 8) (size 9 to 14) (size 15 to 20)
#    0.000    2.833    0.000    2.500    0.000    5.667 
#    0.000    1.667    0.000    0.000    0.000    0.000 
#    0.000    0.667    0.000    1.500    0.000    2.333 
#
# Total GULP energy -595091.372622 kJ/mol
# GULP energy per Si atom -12397.736930 kJ/mol
# Density = 1.589941 g / cm^3
# Si number density = 15.935684 Si / 1000 Ang^3
#
#
#
# Elastic Constant Matrix: (Units=GPa)
#
#
# Indices 1 2 3 4 5 6 
#
# 1 79.6092 31.8318 60.6060 0.0000 0.0000 0.0000
# 2 31.8318 76.3788 36.3644 0.0000 0.0000 0.0000
# 3 60.6060 36.3644 117.3301 0.0000 0.0000 0.0000
# 4 0.0000 0.0000 0.0000 13.2502 0.0000 0.0000
# 5 0.0000 0.0000 0.0000 0.0000 31.3751 0.0000
# 6 0.0000 0.0000 0.0000 0.0000 0.0000 18.3422
#
#
#
# Elastic Compliance Matrix: (Units=1/GPa)
#
#
# Indices 1 2 3 4 5 6 
#
# 1 0.021887 -0.004386 -0.009946 0.000000 0.000000 0.000000
# 2 -0.004386 0.016238 -0.002767 0.000000 0.000000 0.000000
# 3 -0.009946 -0.002767 0.014518 0.000000 0.000000 0.000000
# 4 0.000000 0.000000 0.000000 0.075470 0.000000 0.000000
# 5 0.000000 0.000000 0.000000 0.000000 0.031872 0.000000
# 6 0.000000 0.000000 0.000000 0.000000 0.000000 0.054519
#
#
# Mechanical properties :
#
#
# Convention : Reuss Voigt Hill
#
# Bulk Modulus (GPa) = 54.21689 58.99139 56.60414
# Shear Modulus (GPa) = 19.61918 22.22789 20.92354
#
# Velocity S-wave (km/s) = 3.51258 3.73882 3.62746
# Velocity P-wave (km/s) = 7.10965 7.46573 7.28987
#
# Compressibility (1/GPa) = 0.01844444
#
# Stress axis : x y z
#
# Youngs Moduli (GPa) = 45.68874 61.58372 68.87908
#
# Poissons Ratio (x) = 0.27012 0.68509
# Poissons Ratio (y) = 0.20040 0.19059
# Poissons Ratio (z) = 0.45443 0.17040
#
# Static dielectric constant tensor:
#      x y z
#    x 3.180770 0.000000 0.000000 
#    y 0.000000 2.830170 0.000000 
#    z 0.000000 0.000000 3.009630 
# 
# 
# High freq. dielectric constant tensor:
#      x y z
#    x 1.620030 0.000000 0.000000 
#    y 0.000000 1.578950 0.000000 
#    z 0.000000 0.000000 1.604150 
# 
# From -- ./inp_files/34629.got.cif
#   From: 2010.03.12/outbox.cif.g09.slc.cpg/sg51_18_cif.got.tgz:34629.got - 2010.04.16 13:43:02.
