data_PCOD8207690
_publ_section_title
;
Structure prediction by ZEFSAII (Michael W. Deem and Ramdas Pophale) SiO2 
 PCOD8207690
Probable space group: P M M A
;
_chemical_formula_sum "Si O2"
_cell_formula_units_Z 64
_cell_length_a 9.242787
_cell_length_b 23.024511
_cell_length_c 17.839424
_cell_angle_alpha 90.000000
_cell_angle_beta 90.000000
_cell_angle_gamma 90.000000
_cell_volume 3796.419434
_symmetry_space_group_name_H-M "P M M A"
_symmetry_group_IT_number 51
_symmetry_cell_setting 'orthorhombic'
loop_
_space_group_symop_operation_xyz
x,y,z
1/2-x,-y,z
1/2+x,-y,-z
-x,y,-z
-x,-y,-z
1/2+x,y,-z
1/2-x,y,z
x,-y,z
loop_
_atom_site_type_symbol
_atom_site_label
_atom_site_fract_x
_atom_site_fract_y
_atom_site_fract_z
Si Si1 0.910758 0.343219 0.801917
Si Si2 0.419297 0.567267 0.076240
Si Si3 0.076027 0.189925 0.424769
Si Si4 0.581816 0.744244 0.290142
Si Si5 0.906189 0.257744 0.937252
Si Si6 0.912355 0.824361 0.146354
Si Si7 0.586686 0.936267 0.224015
Si Si8 0.079903 0.063814 0.374804
O O1 0.750000 0.357352 0.768787
O O2 0.974098 0.398541 0.848856
O O3 0.894432 0.293116 0.862125
O O4 0.015738 0.318887 0.736059
O O5 0.250000 0.581148 0.063877
O O6 0.449272 0.500000 0.092447
O O7 0.500000 0.586954 0.000000
O O8 0.250000 0.197830 0.426745
O O9 0.031398 0.121238 0.420106
O O10 0.000000 0.213387 0.500000
O O11 0.010741 0.229196 0.358314
O O12 0.750000 0.734816 0.313139
O O13 0.567213 0.789869 0.223681
O O14 0.750000 0.245026 0.971717
O O15 0.983679 0.197029 0.919278
O O16 0.000000 0.291658 0.000000
O O17 0.750000 0.816880 0.117214
O O18 0.954592 0.891120 0.159544
O O19 0.750000 0.924074 0.253385
O O20 0.479561 0.928438 0.292235
O O21 0.573343 0.000000 0.188267
O O22 0.250000 0.063244 0.368543
O O23 0.027484 0.000000 0.407943
#
# Coordination Sequence:
#
# PCOD8207690 Si02
#       8
#     8   8   8   8   8   8   8   8
#     4   9  18  31  47  68  95 128 162 196 234 272
#     4   9  17  29  46  70 103 141 176 206 236 274
#     4  11  22  34  49  67  93 125 156 193 238 287
#     4  10  19  32  49  69  91 118 156 196 236 280
#     4  10  19  29  43  63  87 115 147 185 227 270
#     4   9  17  29  45  64  86 110 139 179 225 274
#     4   9  16  27  45  66  85 107 138 178 223 272
#     4   9  18  31  46  65  89 117 149 186 228 278
#
# _framework density 16.857990000000001
#
# number of rings (size 3 to 8) (size 9 to 14) (size 15 to 20)
#    0.000    2.500    1.250    1.500    0.000    2.750 
#    0.000    0.000    0.000    0.375    0.000    0.000 
#    0.000    0.500    0.000    1.375    0.000    2.000 
#
# Total GULP energy -792848.462051 kJ/mol
# GULP energy per Si atom -12388.257220 kJ/mol
# Density = 1.681962 g / cm^3
# Si number density = 16.857990 Si / 1000 Ang^3
#
#
#
# Elastic Constant Matrix: (Units=GPa)
#
#
# Indices 1 2 3 4 5 6 
#
# 1 72.0567 34.1714 37.3369 0.0000 0.0000 0.0000
# 2 34.1714 84.9457 33.1171 0.0000 0.0000 0.0000
# 3 37.3369 33.1171 48.6307 0.0000 0.0000 0.0000
# 4 0.0000 0.0000 0.0000 18.7655 0.0000 0.0000
# 5 0.0000 0.0000 0.0000 0.0000 27.1525 0.0000
# 6 0.0000 0.0000 0.0000 0.0000 0.0000 17.2043
#
#
#
# Elastic Compliance Matrix: (Units=1/GPa)
#
#
# Indices 1 2 3 4 5 6 
#
# 1 0.023716 -0.003324 -0.015945 0.000000 0.000000 0.000000
# 2 -0.003324 0.016493 -0.008680 0.000000 0.000000 0.000000
# 3 -0.015945 -0.008680 0.038716 0.000000 0.000000 0.000000
# 4 0.000000 0.000000 0.000000 0.053289 0.000000 0.000000
# 5 0.000000 0.000000 0.000000 0.000000 0.036829 0.000000
# 6 0.000000 0.000000 0.000000 0.000000 0.000000 0.058125
#
#
# Mechanical properties :
#
#
# Convention : Reuss Voigt Hill
#
# Bulk Modulus (GPa) = 43.42509 46.09821 44.76165
# Shear Modulus (GPa) = 17.19739 19.35831 18.27785
#
# Velocity S-wave (km/s) = 3.19742 3.39236 3.29633
# Velocity P-wave (km/s) = 6.28065 6.53824 6.41074
#
# Compressibility (1/GPa) = 0.02302816
#
# Stress axis : x y z
#
# Youngs Moduli (GPa) = 42.16503 60.63075 25.82931
#
# Poissons Ratio (x) = 0.20155 0.41184
# Poissons Ratio (y) = 0.14016 0.22419
# Poissons Ratio (z) = 0.67231 0.52625
#
# Static dielectric constant tensor:
#      x y z
#    x 3.463520 0.000000 0.000000 
#    y 0.000000 3.311750 0.000000 
#    z 0.000000 0.000000 2.922400 
# 
# 
# High freq. dielectric constant tensor:
#      x y z
#    x 1.658000 0.000000 0.000000 
#    y 0.000000 1.635480 0.000000 
#    z 0.000000 0.000000 1.616510 
# 
# From -- ./inp_files/28581.got.cif
#   From: 2010.03.12/outbox.cif.g09.slc.cpg/sg51_15_cif.got.tgz:28581.got - 2010.04.16 13:43:02.
