data_PCOD8207540
_publ_section_title
;
Structure prediction by ZEFSAII (Michael W. Deem and Ramdas Pophale) SiO2 
 PCOD8207540
Probable space group: P M M A
;
_chemical_formula_sum "Si O2"
_cell_formula_units_Z 64
_cell_length_a 24.142792
_cell_length_b 9.262059
_cell_length_c 18.452902
_cell_angle_alpha 90.000000
_cell_angle_beta 90.000000
_cell_angle_gamma 90.000000
_cell_volume 4126.289656
_symmetry_space_group_name_H-M "P M M A"
_symmetry_group_IT_number 51
_symmetry_cell_setting 'orthorhombic'
loop_
_space_group_symop_operation_xyz
x,y,z
1/2-x,-y,z
1/2+x,-y,-z
-x,y,-z
-x,-y,-z
1/2+x,y,-z
1/2-x,y,z
x,-y,z
loop_
_atom_site_type_symbol
_atom_site_label
_atom_site_fract_x
_atom_site_fract_y
_atom_site_fract_z
Si Si1 0.540212 0.661527 0.893629
Si Si2 0.814973 0.662438 0.285846
Si Si3 0.813791 0.830382 0.430503
Si Si4 0.090162 0.333092 0.507531
Si Si5 0.417681 0.662377 0.956515
Si Si6 0.503753 0.165012 0.765145
Si Si7 0.994279 0.333235 0.617156
Si Si8 0.118227 0.834410 0.828115
O O1 0.555904 0.500000 0.868625
O O2 0.478808 0.663494 0.924526
O O3 0.545323 0.765445 0.824269
O O4 0.581062 0.711575 0.958964
O O5 0.750000 0.656233 0.276104
O O6 0.839336 0.500000 0.293415
O O7 0.831455 0.754154 0.356020
O O8 0.838407 0.739487 0.215461
O O9 0.750000 0.796726 0.451300
O O10 0.854486 0.765008 0.491396
O O11 0.823733 0.000000 0.421953
O O12 0.107330 0.500000 0.514723
O O13 0.049175 0.288571 0.572917
O O14 0.059793 0.304941 0.431608
O O15 0.393281 0.500000 0.950189
O O16 0.381205 0.774599 0.910410
O O17 0.511507 0.238759 0.688197
O O18 0.440984 0.183621 0.790580
O O19 0.521060 0.000000 0.757204
O O20 0.998043 0.500000 0.639645
O O21 0.137477 0.000000 0.829693
#
# Coordination Sequence:
#
# PCOD8207540 Si02
#       8
#     8   8   8   8   8   8   8   8
#     4   8  14  25  40  56  77 107 139 170 201 232
#     4  10  20  32  45  60  79 107 143 179 211 244
#     4  10  20  32  46  65  88 112 139 175 218 259
#     4   9  18  32  48  64  83 111 146 180 214 255
#     4   8  14  25  40  57  77 105 140 170 198 235
#     4  10  19  27  38  60  86 112 142 172 207 252
#     4   9  18  31  45  62  85 113 145 180 216 254
#     4  10  19  28  40  60  85 112 140 172 211 251
#
# _framework density 15.510301999999999
#
# number of rings (size 3 to 8) (size 9 to 14) (size 15 to 20)
#    0.000    2.750    0.000    3.750    0.000    6.500 
#    0.000    3.750    0.000    0.000    0.000    0.000 
#    0.000    1.000    0.000    5.500    0.000    4.250 
#
# Total GULP energy -793411.818452 kJ/mol
# GULP energy per Si atom -12397.059663 kJ/mol
# Density = 1.547500 g / cm^3
# Si number density = 15.510302 Si / 1000 Ang^3
#
#
#
# Elastic Constant Matrix: (Units=GPa)
#
#
# Indices 1 2 3 4 5 6 
#
# 1 35.5519 30.8309 20.5204 0.0000 0.0000 0.0000
# 2 30.8309 107.4214 59.7153 0.0000 0.0000 0.0000
# 3 20.5204 59.7153 99.3299 0.0000 0.0000 0.0000
# 4 0.0000 0.0000 0.0000 20.0861 0.0000 0.0000
# 5 0.0000 0.0000 0.0000 0.0000 21.4107 0.0000
# 6 0.0000 0.0000 0.0000 0.0000 0.0000 20.3695
#
#
#
# Elastic Compliance Matrix: (Units=1/GPa)
#
#
# Indices 1 2 3 4 5 6 
#
# 1 0.037693 -0.009747 -0.001927 0.000000 0.000000 0.000000
# 2 -0.009747 0.016502 -0.007907 0.000000 0.000000 0.000000
# 3 -0.001927 -0.007907 0.015219 0.000000 0.000000 0.000000
# 4 0.000000 0.000000 0.000000 0.049786 0.000000 0.000000
# 5 0.000000 0.000000 0.000000 0.000000 0.046706 0.000000
# 6 0.000000 0.000000 0.000000 0.000000 0.000000 0.049093
#
#
# Mechanical properties :
#
#
# Convention : Reuss Voigt Hill
#
# Bulk Modulus (GPa) = 33.05607 51.60404 42.33005
# Shear Modulus (GPa) = 18.92183 21.12237 20.02210
#
# Velocity S-wave (km/s) = 3.49657 3.69430 3.59679
# Velocity P-wave (km/s) = 6.13677 7.17915 6.67833
#
# Compressibility (1/GPa) = 0.03025163
#
# Stress axis : x y z
#
# Youngs Moduli (GPa) = 26.53025 60.59810 65.70608
#
# Poissons Ratio (x) = 0.59064 0.12663
# Poissons Ratio (y) = 0.25859 0.51955
# Poissons Ratio (z) = 0.05113 0.47916
#
# Static dielectric constant tensor:
#      x y z
#    x 2.682950 0.000000 0.000000 
#    y 0.000000 3.090080 0.000000 
#    z 0.000000 0.000000 3.032170 
# 
# 
# High freq. dielectric constant tensor:
#      x y z
#    x 1.551340 0.000000 0.000000 
#    y 0.000000 1.605170 0.000000 
#    z 0.000000 0.000000 1.588810 
# 
# From -- ./inp_files/30856.got.cif
#   From: 2010.03.12/outbox.cif.g09.slc.cpg/sg51_16_cif.got.tgz:30856.got - 2010.04.16 13:43:02.
