data_PCOD8207194
_publ_section_title
;
Structure prediction by ZEFSAII (Michael W. Deem and Ramdas Pophale) SiO2 
 PCOD8207194
Probable space group: P M M A
;
_chemical_formula_sum "Si O2"
_cell_formula_units_Z 36
_cell_length_a 8.915767
_cell_length_b 12.499672
_cell_length_c 20.460086
_cell_angle_alpha 90.000000
_cell_angle_beta 90.000000
_cell_angle_gamma 90.000000
_cell_volume 2280.157162
_symmetry_space_group_name_H-M "P M M A"
_symmetry_group_IT_number 51
_symmetry_cell_setting 'orthorhombic'
loop_
_space_group_symop_operation_xyz
x,y,z
1/2-x,-y,z
1/2+x,-y,-z
-x,y,-z
-x,-y,-z
1/2+x,y,-z
1/2-x,y,z
x,-y,z
loop_
_atom_site_type_symbol
_atom_site_label
_atom_site_fract_x
_atom_site_fract_y
_atom_site_fract_z
Si Si1 0.430321 0.000000 0.071937
Si Si2 0.415797 0.626973 0.310332
Si Si3 0.082916 0.372363 0.563875
Si Si4 0.571508 0.787190 0.070825
Si Si5 0.075298 0.374909 0.164852
O O1 0.495965 0.892205 0.104995
O O2 0.250000 0.000000 0.071912
O O3 0.500000 0.000000 0.000000
O O4 0.250000 0.674267 0.320117
O O5 0.409756 0.500000 0.315358
O O6 0.516035 0.674780 0.368700
O O7 0.475612 0.658231 0.238349
O O8 0.250000 0.329244 0.559258
O O9 0.074998 0.500000 0.564675
O O10 0.000000 0.326927 0.500000
O O11 0.750000 0.801276 0.064421
O O12 0.532523 0.686151 0.115285
O O13 0.500000 0.767145 0.000000
O O14 0.250000 0.345753 0.153649
O O15 0.049558 0.500000 0.152958
#
# Coordination Sequence:
#
# PCOD8207194 Si02
#       5
#     4   8   8   8   8
#     4  10  18  32  52  70  88 108 135 172 217 264
#     4   8  14  25  39  53  73 103 137 172 209 249
#     4   9  15  21  31  48  70  97 132 172 209 245
#     4  11  21  33  49  68  89 112 142 179 219 261
#     4   9  18  32  47  63  86 117 150 181 216 259
#
# _framework density 15.788385
#
# number of rings (size 3 to 8) (size 9 to 14) (size 15 to 20)
#    0.000    2.667    0.000    6.333    0.000    4.444 
#    0.000    2.222    0.000    0.000    0.000    0.000 
#    0.000    0.000    0.000    1.000    0.000   13.778 
#
# Total GULP energy -446132.058574 kJ/mol
# GULP energy per Si atom -12392.557183 kJ/mol
# Density = 1.575245 g / cm^3
# Si number density = 15.788385 Si / 1000 Ang^3
#
#
#
# Elastic Constant Matrix: (Units=GPa)
#
#
# Indices 1 2 3 4 5 6 
#
# 1 132.7747 34.5478 62.4044 0.0000 0.0000 0.0000
# 2 34.5478 44.2652 35.4180 0.0000 0.0000 0.0000
# 3 62.4044 35.4180 108.9406 0.0000 0.0000 0.0000
# 4 0.0000 0.0000 0.0000 0.0590 0.0000 0.0000
# 5 0.0000 0.0000 0.0000 0.0000 29.9638 0.0000
# 6 0.0000 0.0000 0.0000 0.0000 0.0000 19.2226
#
#
#
# Elastic Compliance Matrix: (Units=1/GPa)
#
#
# Indices 1 2 3 4 5 6 
#
# 1 0.011011 -0.004794 -0.004749 0.000000 0.000000 0.000000
# 2 -0.004794 0.032621 -0.007859 0.000000 0.000000 0.000000
# 3 -0.004749 -0.007859 0.014455 0.000000 0.000000 0.000000
# 4 0.000000 0.000000 0.000000 16.944556 0.000000 0.000000
# 5 0.000000 0.000000 0.000000 0.000000 0.033374 0.000000
# 6 0.000000 0.000000 0.000000 0.000000 0.000000 0.052022
#
#
# Mechanical properties :
#
#
# Convention : Reuss Voigt Hill
#
# Bulk Modulus (GPa) = 42.95082 61.19123 52.07102
# Shear Modulus (GPa) = 0.29188 20.08979 10.19083
#
# Velocity S-wave (km/s) = 0.43043 3.57100 2.54335
# Velocity P-wave (km/s) = 5.24501 7.47288 6.45578
#
# Compressibility (1/GPa) = 0.02328244
#
# Stress axis : x y z
#
# Youngs Moduli (GPa) = 90.81914 30.65483 69.18152
#
# Poissons Ratio (x) = 0.14696 0.32853
# Poissons Ratio (y) = 0.43540 0.54372
# Poissons Ratio (z) = 0.43128 0.24093
#
# Static dielectric constant tensor:
#      x y z
#    x 3.134120 0.000000 0.000000 
#    y 0.000000 2.811650 0.000000 
#    z 0.000000 0.000000 3.103670 
# 
# 
# High freq. dielectric constant tensor:
#      x y z
#    x 1.616950 0.000000 0.000000 
#    y 0.000000 1.546010 0.000000 
#    z 0.000000 0.000000 1.604070 
# 
# From -- ./inp_files/31312.got.cif
#   From: 2010.03.12/outbox.cif.g09.slc.cpg/sg51_16_cif.got.tgz:31312.got - 2010.04.16 13:43:02.
