data_PCOD8207481
_publ_section_title
;
Structure prediction by ZEFSAII (Michael W. Deem and Ramdas Pophale) SiO2 
 PCOD8207481
Probable space group: P M M A
;
_chemical_formula_sum "Si O2"
_cell_formula_units_Z 56
_cell_length_a 14.802282
_cell_length_b 15.699531
_cell_length_c 11.448815
_cell_angle_alpha 90.000000
_cell_angle_beta 90.000000
_cell_angle_gamma 90.000000
_cell_volume 2660.577354
_symmetry_space_group_name_H-M "P M M A"
_symmetry_group_IT_number 51
_symmetry_cell_setting 'orthorhombic'
loop_
_space_group_symop_operation_xyz
x,y,z
1/2-x,-y,z
1/2+x,-y,-z
-x,y,-z
-x,-y,-z
1/2+x,y,-z
1/2-x,y,z
x,-y,z
loop_
_atom_site_type_symbol
_atom_site_label
_atom_site_fract_x
_atom_site_fract_y
_atom_site_fract_z
Si Si1 0.143786 0.407465 0.624667
Si Si2 0.646160 0.594570 0.861778
Si Si3 0.600129 0.235489 0.981507
Si Si4 0.145821 0.670002 0.382823
Si Si5 0.849698 0.906488 0.801065
Si Si6 0.482062 0.830458 0.367413
Si Si7 0.351622 0.244641 0.757804
O O1 0.250000 0.418200 0.616640
O O2 0.100009 0.500000 0.652853
O O3 0.108849 0.374024 0.499892
O O4 0.116862 0.340855 0.725612
O O5 0.750000 0.603805 0.899665
O O6 0.610180 0.500000 0.896488
O O7 0.593408 0.669524 0.927982
O O8 0.636533 0.603388 0.722371
O O9 0.646939 0.169190 0.895191
O O10 0.500000 0.201219 0.000000
O O11 0.652268 0.235437 0.103490
O O12 0.250000 0.701360 0.395623
O O13 0.079946 0.747652 0.357350
O O14 0.750000 0.899711 0.743452
O O15 0.926110 0.902101 0.701104
O O16 0.861177 0.000000 0.860791
O O17 0.500000 0.858972 0.500000
O O18 0.578624 0.819359 0.303510
O O19 0.250000 0.226894 0.709427
#
# Coordination Sequence:
#
# PCOD8207481 Si02
#       7
#     8   8   8   8   8   8   8
#     4   9  18  33  55  85 124 174 226 271 318 376
#     4  10  20  34  58  92 129 174 225 275 325 379
#     4  12  23  42  67  93 131 174 220 275 327 387
#     4  10  18  34  60  88 125 171 222 276 325 379
#     4  11  25  47  76 104 129 165 214 269 329 397
#     4  12  23  40  67  97 131 167 211 262 330 392
#     4  11  23  39  59  90 129 175 218 261 322 385
#
# _framework density 21.048064
#
# number of rings (size 3 to 8) (size 9 to 14) (size 15 to 20)
#    0.000    1.286    4.286    2.143    0.000    3.714 
#    0.000    5.000    0.000    0.429    0.000    0.000 
#    0.000    0.000    0.000    0.000    0.000    0.000 
#
# Total GULP energy -694246.215877 kJ/mol
# GULP energy per Si atom -12397.253855 kJ/mol
# Density = 2.100016 g / cm^3
# Si number density = 21.048064 Si / 1000 Ang^3
#
#
#
# Elastic Constant Matrix: (Units=GPa)
#
#
# Indices 1 2 3 4 5 6 
#
# 1 103.0607 33.2608 31.4105 0.0000 0.0000 0.0000
# 2 33.2608 111.3984 41.5133 0.0000 0.0000 0.0000
# 3 31.4105 41.5133 128.5670 0.0000 0.0000 0.0000
# 4 0.0000 0.0000 0.0000 10.8556 0.0000 0.0000
# 5 0.0000 0.0000 0.0000 0.0000 29.7434 0.0000
# 6 0.0000 0.0000 0.0000 0.0000 0.0000 6.5624
#
#
#
# Elastic Compliance Matrix: (Units=1/GPa)
#
#
# Indices 1 2 3 4 5 6 
#
# 1 0.011119 -0.002623 -0.001870 0.000000 0.000000 0.000000
# 2 -0.002623 0.010824 -0.002854 0.000000 0.000000 0.000000
# 3 -0.001870 -0.002854 0.009156 0.000000 0.000000 0.000000
# 4 0.000000 0.000000 0.000000 0.092119 0.000000 0.000000
# 5 0.000000 0.000000 0.000000 0.000000 0.033621 0.000000
# 6 0.000000 0.000000 0.000000 0.000000 0.000000 0.152383
#
#
# Mechanical properties :
#
#
# Convention : Reuss Voigt Hill
#
# Bulk Modulus (GPa) = 60.95432 61.71057 61.33244
# Shear Modulus (GPa) = 15.17985 25.22172 20.20078
#
# Velocity S-wave (km/s) = 2.68843 3.46539 3.10134
# Velocity P-wave (km/s) = 6.21766 6.73754 6.48281
#
# Compressibility (1/GPa) = 0.01640573
#
# Stress axis : x y z
#
# Youngs Moduli (GPa) = 89.93262 92.39088 109.21417
#
# Poissons Ratio (x) = 0.24237 0.20418
# Poissons Ratio (y) = 0.23592 0.31169
# Poissons Ratio (z) = 0.16814 0.26368
#
# Static dielectric constant tensor:
#      x y z
#    x 3.914560 0.000000 0.000000 
#    y 0.000000 3.770710 0.000000 
#    z 0.000000 0.000000 3.822320 
# 
# 
# High freq. dielectric constant tensor:
#      x y z
#    x 1.830240 0.000000 0.000000 
#    y 0.000000 1.805370 0.000000 
#    z 0.000000 0.000000 1.819460 
# 
# From -- ./inp_files/16638.got.cif
#   From: 2010.03.12/outbox.cif.g09.slc.cpg/sg51_9_cif.got.tgz:16638.got - 2010.04.16 13:43:02.
