data_PCOD8207578
_publ_section_title
;
Structure prediction by ZEFSAII (Michael W. Deem and Ramdas Pophale) SiO2 
 PCOD8207578
Probable space group: P M M A
;
_chemical_formula_sum "Si O2"
_cell_formula_units_Z 52
_cell_length_a 9.261888
_cell_length_b 29.006560
_cell_length_c 11.256073
_cell_angle_alpha 90.000000
_cell_angle_beta 90.000000
_cell_angle_gamma 90.000000
_cell_volume 3024.006032
_symmetry_space_group_name_H-M "P M M A"
_symmetry_group_IT_number 51
_symmetry_cell_setting 'orthorhombic'
loop_
_space_group_symop_operation_xyz
x,y,z
1/2-x,-y,z
1/2+x,-y,-z
-x,y,-z
-x,-y,-z
1/2+x,y,-z
1/2-x,y,z
x,-y,z
loop_
_atom_site_type_symbol
_atom_site_label
_atom_site_fract_x
_atom_site_fract_y
_atom_site_fract_z
Si Si1 0.000000 0.620840 0.000000
Si Si2 0.908312 0.551474 0.811961
Si Si3 0.918410 0.866340 0.875073
Si Si4 0.590033 0.316171 0.208118
Si Si5 0.080798 0.949710 0.874205
Si Si6 0.581678 0.602499 0.377206
Si Si7 0.416772 0.764931 0.123109
O O1 0.900989 0.587293 0.921225
O O2 0.090534 0.653849 0.912883
O O3 0.750000 0.553096 0.752024
O O4 0.942975 0.500000 0.859323
O O5 0.026664 0.563667 0.713363
O O6 0.750000 0.878781 0.891046
O O7 0.935672 0.815655 0.816070
O O8 0.000486 0.907786 0.802157
O O9 0.000000 0.863218 0.000000
O O10 0.750000 0.295545 0.222470
O O11 0.549334 0.347536 0.320670
O O12 0.477683 0.273951 0.210763
O O13 0.250000 0.938468 0.890513
O O14 0.062083 0.000000 0.811199
O O15 0.000000 0.952013 0.000000
O O16 0.500000 0.598286 0.500000
O O17 0.750000 0.594324 0.398168
O O18 0.250000 0.754801 0.096759
O O19 0.500000 0.761344 0.000000
#
# Coordination Sequence:
#
# PCOD8207578 Si02
#       7
#     4   8   8   8   8   8   8
#     4  10  19  32  52  76 102 126 157 184 222 268
#     4  10  21  36  55  78 103 131 158 187 226 269
#     4   9  16  24  33  48  70 101 137 176 219 262
#     4  10  20  32  49  72  95 120 153 187 227 273
#     4   9  15  21  30  44  62  90 131 178 223 263
#     4  10  22  39  57  76  96 121 155 193 231 273
#     4  10  19  28  41  61  88 117 148 183 224 271
#
# _framework density 17.195732
#
# number of rings (size 3 to 8) (size 9 to 14) (size 15 to 20)
#    0.000    2.308    0.769    3.462    0.000    7.077 
#    0.000    0.000    0.000    0.000    0.000    0.000 
#    0.000    0.000    0.000    0.000    0.000    0.769 
#
# Total GULP energy -644204.641931 kJ/mol
# GULP energy per Si atom -12388.550806 kJ/mol
# Density = 1.715659 g / cm^3
# Si number density = 17.195732 Si / 1000 Ang^3
#
#
#
# Elastic Constant Matrix: (Units=GPa)
#
#
# Indices 1 2 3 4 5 6 
#
# 1 123.3761 63.5847 17.8367 0.0000 0.0000 0.0000
# 2 63.5847 138.7118 17.4724 0.0000 0.0000 0.0000
# 3 17.8367 17.4724 43.5242 0.0000 0.0000 0.0000
# 4 0.0000 0.0000 0.0000 6.2689 0.0000 0.0000
# 5 0.0000 0.0000 0.0000 0.0000 17.6786 0.0000
# 6 0.0000 0.0000 0.0000 0.0000 0.0000 30.0844
#
#
#
# Elastic Compliance Matrix: (Units=1/GPa)
#
#
# Indices 1 2 3 4 5 6 
#
# 1 0.010882 -0.004662 -0.002588 0.000000 0.000000 0.000000
# 2 -0.004662 0.009591 -0.001939 0.000000 0.000000 0.000000
# 3 -0.002588 -0.001939 0.024815 0.000000 0.000000 0.000000
# 4 0.000000 0.000000 0.000000 0.159518 0.000000 0.000000
# 5 0.000000 0.000000 0.000000 0.000000 0.056566 0.000000
# 6 0.000000 0.000000 0.000000 0.000000 0.000000 0.033240
#
#
# Mechanical properties :
#
#
# Convention : Reuss Voigt Hill
#
# Bulk Modulus (GPa) = 37.16328 55.93331 46.54830
# Shear Modulus (GPa) = 15.52987 24.58760 20.05874
#
# Velocity S-wave (km/s) = 3.00846 3.78546 3.41910
# Velocity P-wave (km/s) = 5.80746 7.19057 6.53571
#
# Compressibility (1/GPa) = 0.02690828
#
# Stress axis : x y z
#
# Youngs Moduli (GPa) = 91.89208 104.26766 40.29837
#
# Poissons Ratio (x) = 0.48614 0.10429
# Poissons Ratio (y) = 0.42844 0.07815
# Poissons Ratio (z) = 0.23782 0.20222
#
# Static dielectric constant tensor:
#      x y z
#    x 3.352330 0.000000 0.000000 
#    y 0.000000 4.206610 0.000000 
#    z 0.000000 0.000000 2.633270 
# 
# 
# High freq. dielectric constant tensor:
#      x y z
#    x 1.681960 0.000000 0.000000 
#    y 0.000000 1.686780 0.000000 
#    z 0.000000 0.000000 1.582080 
# 
# From -- ./inp_files/14738.got.cif
#   From: 2010.03.12/outbox.cif.g09.slc.cpg/sg51_8_cif.got.tgz:14738.got - 2010.04.16 13:43:02.
