data_PCOD8207712
_publ_section_title
;
Structure prediction by ZEFSAII (Michael W. Deem and Ramdas Pophale) SiO2 
 PCOD8207712
Probable space group: P M M A
;
_chemical_formula_sum "Si O2"
_cell_formula_units_Z 64
_cell_length_a 17.313487
_cell_length_b 13.750607
_cell_length_c 15.262664
_cell_angle_alpha 90.000000
_cell_angle_beta 90.000000
_cell_angle_gamma 90.000000
_cell_volume 3633.597003
_symmetry_space_group_name_H-M "P M M A"
_symmetry_group_IT_number 51
_symmetry_cell_setting 'orthorhombic'
loop_
_space_group_symop_operation_xyz
x,y,z
1/2-x,-y,z
1/2+x,-y,-z
-x,y,-z
-x,-y,-z
1/2+x,y,-z
1/2-x,y,z
x,-y,z
loop_
_atom_site_type_symbol
_atom_site_label
_atom_site_fract_x
_atom_site_fract_y
_atom_site_fract_z
Si Si1 0.075502 0.110783 0.181268
Si Si2 0.162397 0.703592 0.789260
Si Si3 0.161397 0.112039 0.357170
Si Si4 0.833838 0.889644 0.987686
Si Si5 0.545261 0.238385 0.083326
Si Si6 0.910726 0.209915 0.479208
Si Si7 0.160239 0.610746 0.607057
Si Si8 0.837828 0.109458 0.318964
O O1 0.106649 0.140642 0.276299
O O2 0.010590 0.188192 0.153974
O O3 0.042718 0.000000 0.181314
O O4 0.147047 0.118337 0.114920
O O5 0.250000 0.684400 0.822330
O O6 0.099939 0.683041 0.866660
O O7 0.142502 0.633260 0.708638
O O8 0.151877 0.816955 0.762009
O O9 0.250000 0.130991 0.330887
O O10 0.139785 0.180065 0.437865
O O11 0.148587 0.000000 0.383978
O O12 0.750000 0.839663 0.003478
O O13 0.900123 0.844011 0.045316
O O14 0.829252 0.000000 0.018125
O O15 0.500000 0.286685 0.000000
O O16 0.890049 0.321027 0.455635
O O17 0.893376 0.138512 0.398406
O O18 0.000000 0.200881 0.500000
O O19 0.250000 0.631750 0.588483
O O20 0.137582 0.500000 0.586838
O O21 0.750000 0.116634 0.353974
O O22 0.857961 0.000000 0.287744
#
# Coordination Sequence:
#
# PCOD8207712 Si02
#       8
#     8   8   8   8   8   8   8   8
#     4   9  18  29  42  61  89 129 175 214 237 265
#     4   9  18  32  51  74  98 126 163 204 244 294
#     4  10  20  33  48  66  95 139 181 209 233 273
#     4   9  16  27  42  60  87 126 171 209 241 279
#     4  10  19  29  43  66  97 128 154 199 250 299
#     4  11  22  32  48  75 104 129 158 203 248 297
#     4   9  19  38  61  78  95 123 158 200 249 297
#     4   9  18  32  48  67  97 137 175 210 246 284
#
# _framework density 17.613401
#
# number of rings (size 3 to 8) (size 9 to 14) (size 15 to 20)
#    0.000    2.500    0.000    3.375    3.500    6.250 
#    0.000    1.250    0.000    0.375    0.000    0.000 
#    0.000    0.000    0.000    0.000    0.000    0.000 
#
# Total GULP energy -793408.403775 kJ/mol
# GULP energy per Si atom -12397.006309 kJ/mol
# Density = 1.757331 g / cm^3
# Si number density = 17.613401 Si / 1000 Ang^3
#
#
#
# Elastic Constant Matrix: (Units=GPa)
#
#
# Indices 1 2 3 4 5 6 
#
# 1 95.0289 14.4028 39.4882 0.0000 0.0000 0.0000
# 2 14.4028 49.6360 13.0115 0.0000 0.0000 0.0000
# 3 39.4882 13.0115 80.8894 0.0000 0.0000 0.0000
# 4 0.0000 0.0000 0.0000 15.5724 0.0000 0.0000
# 5 0.0000 0.0000 0.0000 0.0000 31.7824 0.0000
# 6 0.0000 0.0000 0.0000 0.0000 0.0000 15.2369
#
#
#
# Elastic Compliance Matrix: (Units=1/GPa)
#
#
# Indices 1 2 3 4 5 6 
#
# 1 0.013443 -0.002276 -0.006196 0.000000 0.000000 0.000000
# 2 -0.002276 0.021419 -0.002334 0.000000 0.000000 0.000000
# 3 -0.006196 -0.002334 0.015763 0.000000 0.000000 0.000000
# 4 0.000000 0.000000 0.000000 0.064216 0.000000 0.000000
# 5 0.000000 0.000000 0.000000 0.000000 0.031464 0.000000
# 6 0.000000 0.000000 0.000000 0.000000 0.000000 0.065630
#
#
# Mechanical properties :
#
#
# Convention : Reuss Voigt Hill
#
# Bulk Modulus (GPa) = 34.46939 39.92881 37.19910
# Shear Modulus (GPa) = 20.55755 23.09510 21.82632
#
# Velocity S-wave (km/s) = 3.42007 3.62501 3.52403
# Velocity P-wave (km/s) = 5.93366 6.34348 6.14199
#
# Compressibility (1/GPa) = 0.02901125
#
# Stress axis : x y z
#
# Youngs Moduli (GPa) = 74.38833 46.68734 63.43999
#
# Poissons Ratio (x) = 0.10628 0.39310
# Poissons Ratio (y) = 0.16934 0.14807
# Poissons Ratio (z) = 0.46094 0.10897
#
# Static dielectric constant tensor:
#      x y z
#    x 3.429970 0.000000 0.000000 
#    y 0.000000 2.913260 0.000000 
#    z 0.000000 0.000000 3.340030 
# 
# 
# High freq. dielectric constant tensor:
#      x y z
#    x 1.691110 0.000000 0.000000 
#    y 0.000000 1.630900 0.000000 
#    z 0.000000 0.000000 1.682980 
# 
# From -- ./inp_files/25338.got.cif
#   From: 2010.03.12/outbox.cif.g09.slc.cpg/sg51_13_cif.got.tgz:25338.got - 2010.04.16 13:43:02.
