data_PCOD8207959
_publ_section_title
;
Structure prediction by ZEFSAII (Michael W. Deem and Ramdas Pophale) SiO2 
 PCOD8207959
Probable space group: P M M A
;
_chemical_formula_sum "Si O2"
_cell_formula_units_Z 64
_cell_length_a 31.392337
_cell_length_b 8.868493
_cell_length_c 12.237486
_cell_angle_alpha 90.000000
_cell_angle_beta 90.000000
_cell_angle_gamma 90.000000
_cell_volume 3406.949400
_symmetry_space_group_name_H-M "P M M A"
_symmetry_group_IT_number 51
_symmetry_cell_setting 'orthorhombic'
loop_
_space_group_symop_operation_xyz
x,y,z
1/2-x,-y,z
1/2+x,-y,-z
-x,y,-z
-x,-y,-z
1/2+x,y,-z
1/2-x,y,z
x,-y,z
loop_
_atom_site_type_symbol
_atom_site_label
_atom_site_fract_x
_atom_site_fract_y
_atom_site_fract_z
Si Si1 0.425966 0.178166 0.128798
Si Si2 0.894308 0.820596 0.256567
Si Si3 0.298842 0.326206 0.131082
Si Si4 0.966262 0.661595 0.588547
Si Si5 0.631951 0.675368 0.044320
Si Si6 0.010814 0.825740 0.771354
Si Si7 0.644261 0.823464 0.697031
Si Si8 0.620653 0.322352 0.484336
O O1 0.476286 0.224029 0.136064
O O2 0.399715 0.224767 0.239468
O O3 0.420306 0.000000 0.108909
O O4 0.408356 0.266506 0.024906
O O5 0.864678 0.766376 0.157387
O O6 0.873352 0.755810 0.367033
O O7 0.942052 0.751188 0.231155
O O8 0.894759 0.000000 0.265167
O O9 0.250000 0.285846 0.107999
O O10 0.305080 0.500000 0.165374
O O11 0.315765 0.222518 0.228671
O O12 0.324509 0.291425 0.020210
O O13 0.956340 0.500000 0.650281
O O14 0.985383 0.793338 0.661301
O O15 0.925506 0.725798 0.526804
O O16 0.000000 0.617684 0.500000
O O17 0.625581 0.500000 0.069320
O O18 0.019539 0.000000 0.783005
O O19 0.651162 0.741194 0.580144
O O20 0.645098 0.000000 0.675625
O O21 0.627533 0.500000 0.470173
#
# Coordination Sequence:
#
# PCOD8207959 Si02
#       8
#     8   8   8   8   8   8   8   8
#     4   9  18  33  51  72 102 139 180 226 272 316
#     4  11  23  36  51  72 104 148 192 231 269 314
#     4   9  19  38  64  90 112 135 166 207 261 326
#     4  10  19  30  45  69 100 136 181 233 275 308
#     4  10  21  37  56  78 105 137 176 222 271 324
#     4  10  20  32  48  70  99 141 189 232 272 316
#     4  10  19  32  54  84 114 140 171 214 265 319
#     4  11  21  33  51  75 107 145 182 222 269 317
#
# _framework density 18.785133999999999
#
# number of rings (size 3 to 8) (size 9 to 14) (size 15 to 20)
#    0.000    2.000    2.500    1.500    0.000    3.500 
#    0.000    2.500    0.000    0.750    0.000    1.750 
#    0.000    0.000    0.000    0.000    0.000    0.000 
#
# Total GULP energy -793141.193967 kJ/mol
# GULP energy per Si atom -12392.831156 kJ/mol
# Density = 1.874238 g / cm^3
# Si number density = 18.785134 Si / 1000 Ang^3
#
#
#
# Elastic Constant Matrix: (Units=GPa)
#
#
# Indices 1 2 3 4 5 6 
#
# 1 69.0846 25.2704 36.6417 0.0000 0.0000 0.0000
# 2 25.2704 58.9328 46.3406 0.0000 0.0000 0.0000
# 3 36.6417 46.3406 132.5494 0.0000 0.0000 0.0000
# 4 0.0000 0.0000 0.0000 36.8183 0.0000 0.0000
# 5 0.0000 0.0000 0.0000 0.0000 14.8610 0.0000
# 6 0.0000 0.0000 0.0000 0.0000 0.0000 20.7834
#
#
#
# Elastic Compliance Matrix: (Units=1/GPa)
#
#
# Indices 1 2 3 4 5 6 
#
# 1 0.018076 -0.005271 -0.003154 0.000000 0.000000 0.000000
# 2 -0.005271 0.024939 -0.007262 0.000000 0.000000 0.000000
# 3 -0.003154 -0.007262 0.010955 0.000000 0.000000 0.000000
# 4 0.000000 0.000000 0.000000 0.027160 0.000000 0.000000
# 5 0.000000 0.000000 0.000000 0.000000 0.067290 0.000000
# 6 0.000000 0.000000 0.000000 0.000000 0.000000 0.048115
#
#
# Mechanical properties :
#
#
# Convention : Reuss Voigt Hill
#
# Bulk Modulus (GPa) = 44.25501 53.00804 48.63153
# Shear Modulus (GPa) = 21.23672 24.64682 22.94177
#
# Velocity S-wave (km/s) = 3.36595 3.62614 3.49846
# Velocity P-wave (km/s) = 6.22220 6.76839 6.50104
#
# Compressibility (1/GPa) = 0.02259631
#
# Stress axis : x y z
#
# Youngs Moduli (GPa) = 55.32220 40.09822 91.28173
#
# Poissons Ratio (x) = 0.21135 0.28792
# Poissons Ratio (y) = 0.29159 0.66287
# Poissons Ratio (z) = 0.17450 0.29119
#
# Static dielectric constant tensor:
#      x y z
#    x 3.293270 0.000000 0.000000 
#    y 0.000000 3.419200 0.000000 
#    z 0.000000 0.000000 3.414220 
# 
# 
# High freq. dielectric constant tensor:
#      x y z
#    x 1.697210 0.000000 0.000000 
#    y 0.000000 1.731940 0.000000 
#    z 0.000000 0.000000 1.724750 
# 
# From -- ./inp_files/19502.got.cif
#   From: 2010.03.12/outbox.cif.g09.slc.cpg/sg51_10_cif.got.tgz:19502.got - 2010.04.16 13:43:02.
