data_PCOD8207390
_publ_section_title
;
Structure prediction by ZEFSAII (Michael W. Deem and Ramdas Pophale) SiO2 
 PCOD8207390
Probable space group: P M M A
;
_chemical_formula_sum "Si O2"
_cell_formula_units_Z 56
_cell_length_a 13.783328
_cell_length_b 15.937028
_cell_length_c 11.715579
_cell_angle_alpha 90.000000
_cell_angle_beta 90.000000
_cell_angle_gamma 90.000000
_cell_volume 2573.505991
_symmetry_space_group_name_H-M "P M M A"
_symmetry_group_IT_number 51
_symmetry_cell_setting 'orthorhombic'
loop_
_space_group_symop_operation_xyz
x,y,z
1/2-x,-y,z
1/2+x,-y,-z
-x,y,-z
-x,-y,-z
1/2+x,y,-z
1/2-x,y,z
x,-y,z
loop_
_atom_site_type_symbol
_atom_site_label
_atom_site_fract_x
_atom_site_fract_y
_atom_site_fract_z
Si Si1 0.481921 0.835808 0.626610
Si Si2 0.861581 0.907104 0.185724
Si Si3 0.634988 0.407768 0.166854
Si Si4 0.364995 0.752846 0.968018
Si Si5 0.864431 0.667658 0.402366
Si Si6 0.635487 0.750236 0.775057
Si Si7 0.863974 0.408091 0.637106
O O1 0.500000 0.872022 0.500000
O O2 0.425023 0.905366 0.699213
O O3 0.413858 0.755471 0.620419
O O4 0.583519 0.814354 0.688963
O O5 0.750000 0.889549 0.217464
O O6 0.873345 0.000000 0.130586
O O7 0.899772 0.835560 0.099467
O O8 0.750000 0.406201 0.154140
O O9 0.595639 0.500000 0.128687
O O10 0.606758 0.394268 0.299316
O O11 0.591957 0.331782 0.090153
O O12 0.250000 0.747547 0.971577
O O13 0.405173 0.761159 0.096621
O O14 0.750000 0.683593 0.408169
O O15 0.906471 0.628611 0.519008
O O16 0.750000 0.768595 0.766004
O O17 0.610493 0.654327 0.740347
O O18 0.750000 0.416307 0.620957
O O19 0.908407 0.500000 0.663697
#
# Coordination Sequence:
#
# PCOD8207390 Si02
#       7
#     8   8   8   8   8   8   8
#     4  12  23  37  62  90 119 158 201 241 302 364
#     4  10  22  43  71  98 121 149 192 247 301 357
#     4   9  16  28  53  86 117 153 198 248 301 357
#     4   9  18  36  60  85 117 159 202 245 299 357
#     4  10  18  33  55  83 118 156 204 257 303 350
#     4  10  22  38  56  83 121 164 204 249 301 355
#     4   9  17  31  53  80 115 163 213 256 300 352
#
# _framework density 21.760197999999999
#
# number of rings (size 3 to 8) (size 9 to 14) (size 15 to 20)
#    0.000    2.143    2.857    0.857    0.000    3.714 
#    0.000    6.429    0.000    2.143    0.000    0.000 
#    0.000    0.000    0.000    0.000    0.000    0.000 
#
# Total GULP energy -694286.363509 kJ/mol
# GULP energy per Si atom -12397.970777 kJ/mol
# Density = 2.171067 g / cm^3
# Si number density = 21.760198 Si / 1000 Ang^3
#
#
#
# Elastic Constant Matrix: (Units=GPa)
#
#
# Indices 1 2 3 4 5 6 
#
# 1 33.5433 26.3718 30.7024 0.0000 0.0000 0.0000
# 2 26.3718 122.9918 60.7596 0.0000 0.0000 0.0000
# 3 30.7024 60.7596 170.5735 0.0000 0.0000 0.0000
# 4 0.0000 0.0000 0.0000 14.0475 0.0000 0.0000
# 5 0.0000 0.0000 0.0000 0.0000 19.2509 0.0000
# 6 0.0000 0.0000 0.0000 0.0000 0.0000 12.6143
#
#
#
# Elastic Compliance Matrix: (Units=1/GPa)
#
#
# Indices 1 2 3 4 5 6 
#
# 1 0.038962 -0.005934 -0.004899 0.000000 0.000000 0.000000
# 2 -0.005934 0.010771 -0.002769 0.000000 0.000000 0.000000
# 3 -0.004899 -0.002769 0.007731 0.000000 0.000000 0.000000
# 4 0.000000 0.000000 0.000000 0.071187 0.000000 0.000000
# 5 0.000000 0.000000 0.000000 0.000000 0.051946 0.000000
# 6 0.000000 0.000000 0.000000 0.000000 0.000000 0.079275
#
#
# Mechanical properties :
#
#
# Convention : Reuss Voigt Hill
#
# Bulk Modulus (GPa) = 33.04726 62.53068 47.78897
# Shear Modulus (GPa) = 16.82594 23.13421 19.98007
#
# Velocity S-wave (km/s) = 2.78374 3.26413 3.03346
# Velocity P-wave (km/s) = 5.05493 6.55779 5.85478
#
# Compressibility (1/GPa) = 0.03025969
#
# Stress axis : x y z
#
# Youngs Moduli (GPa) = 25.66626 92.84498 129.35646
#
# Poissons Ratio (x) = 0.55093 0.63374
# Poissons Ratio (y) = 0.15230 0.35813
# Poissons Ratio (z) = 0.12574 0.25704
#
# Static dielectric constant tensor:
#      x y z
#    x 3.815260 0.000000 0.000000 
#    y 0.000000 3.859410 0.000000 
#    z 0.000000 0.000000 4.245600 
# 
# 
# High freq. dielectric constant tensor:
#      x y z
#    x 1.855760 0.000000 0.000000 
#    y 0.000000 1.835010 0.000000 
#    z 0.000000 0.000000 1.852170 
# 
# From -- ./inp_files/16646.got.cif
#   From: 2010.03.12/outbox.cif.g09.slc.cpg/sg51_9_cif.got.tgz:16646.got - 2010.04.16 13:43:02.
