data_PCOD8207446
_publ_section_title
;
Structure prediction by ZEFSAII (Michael W. Deem and Ramdas Pophale) SiO2 
 PCOD8207446
Probable space group: P M M A
;
_chemical_formula_sum "Si O2"
_cell_formula_units_Z 40
_cell_length_a 9.447146
_cell_length_b 11.859407
_cell_length_c 20.323119
_cell_angle_alpha 90.000000
_cell_angle_beta 90.000000
_cell_angle_gamma 90.000000
_cell_volume 2276.952449
_symmetry_space_group_name_H-M "P M M A"
_symmetry_group_IT_number 51
_symmetry_cell_setting 'orthorhombic'
loop_
_space_group_symop_operation_xyz
x,y,z
1/2-x,-y,z
1/2+x,-y,-z
-x,y,-z
-x,-y,-z
1/2+x,y,-z
1/2-x,y,z
x,-y,z
loop_
_atom_site_type_symbol
_atom_site_label
_atom_site_fract_x
_atom_site_fract_y
_atom_site_fract_z
Si Si1 0.081588 0.000000 0.235332
Si Si2 0.416379 0.375080 0.809709
Si Si3 0.086328 0.199852 0.702854
Si Si4 0.587974 0.246107 0.061699
Si Si5 0.411546 0.129068 0.561276
Si Si6 0.408714 0.000000 0.892826
O O1 0.021748 0.108867 0.270778
O O2 0.250000 0.000000 0.238446
O O3 0.031116 0.000000 0.160656
O O4 0.250000 0.385460 0.817799
O O5 0.485592 0.500000 0.810162
O O6 0.451679 0.316347 0.739767
O O7 0.473951 0.300806 0.870958
O O8 0.250000 0.164406 0.717339
O O9 0.062161 0.209345 0.624396
O O10 0.750000 0.282322 0.051244
O O11 0.572689 0.111020 0.063213
O O12 0.500000 0.293488 0.000000
O O13 0.500000 0.176748 0.500000
O O14 0.250000 0.133377 0.539024
O O15 0.455605 0.000000 0.578756
O O16 0.250000 0.000000 0.860726
#
# Coordination Sequence:
#
# PCOD8207446 Si02
#       6
#     4   8   8   8   8   4
#     4  12  22  29  48  81 107 129 165 213 256 302
#     4   9  18  33  55  78  96 126 177 222 250 290
#     4  10  18  34  55  73 102 139 171 205 251 304
#     4  10  20  33  52  74 102 133 165 206 255 305
#     4   9  17  28  46  72 103 136 166 198 242 300
#     4  10  19  35  53  71  99 139 168 199 254 312
#
# _framework density 17.567340999999999
#
# number of rings (size 3 to 8) (size 9 to 14) (size 15 to 20)
#    0.000    2.200    3.000    1.200    0.000    2.000 
#    0.000    0.000    0.000    2.400    0.000    0.000 
#    0.000    0.000    0.000    0.000    0.000    0.000 
#
# Total GULP energy -495846.557832 kJ/mol
# GULP energy per Si atom -12396.163946 kJ/mol
# Density = 1.752736 g / cm^3
# Si number density = 17.567341 Si / 1000 Ang^3
#
#
#
# Elastic Constant Matrix: (Units=GPa)
#
#
# Indices 1 2 3 4 5 6 
#
# 1 71.7774 26.0527 47.6545 0.0000 0.0000 0.0000
# 2 26.0527 98.5342 51.6892 0.0000 0.0000 0.0000
# 3 47.6545 51.6892 145.0070 0.0000 0.0000 0.0000
# 4 0.0000 0.0000 0.0000 14.4125 0.0000 0.0000
# 5 0.0000 0.0000 0.0000 0.0000 31.0033 0.0000
# 6 0.0000 0.0000 0.0000 0.0000 0.0000 14.9487
#
#
#
# Elastic Compliance Matrix: (Units=1/GPa)
#
#
# Indices 1 2 3 4 5 6 
#
# 1 0.018152 -0.002054 -0.005233 0.000000 0.000000 0.000000
# 2 -0.002054 0.012715 -0.003857 0.000000 0.000000 0.000000
# 3 -0.005233 -0.003857 0.009991 0.000000 0.000000 0.000000
# 4 0.000000 0.000000 0.000000 0.069384 0.000000 0.000000
# 5 0.000000 0.000000 0.000000 0.000000 0.032255 0.000000
# 6 0.000000 0.000000 0.000000 0.000000 0.000000 0.066896
#
#
# Mechanical properties :
#
#
# Convention : Reuss Voigt Hill
#
# Bulk Modulus (GPa) = 53.85368 62.90126 58.37747
# Shear Modulus (GPa) = 21.01969 24.73438 22.87703
#
# Velocity S-wave (km/s) = 3.46283 3.75637 3.61258
# Velocity P-wave (km/s) = 6.83450 7.39576 7.12066
#
# Compressibility (1/GPa) = 0.01856883
#
# Stress axis : x y z
#
# Youngs Moduli (GPa) = 55.09043 78.64455 100.08962
#
# Poissons Ratio (x) = 0.16155 0.52378
# Poissons Ratio (y) = 0.11317 0.38609
# Poissons Ratio (z) = 0.28830 0.30337
#
# Static dielectric constant tensor:
#      x y z
#    x 3.034660 0.000000 0.000000 
#    y 0.000000 3.274430 0.000000 
#    z 0.000000 0.000000 3.312500 
# 
# 
# High freq. dielectric constant tensor:
#      x y z
#    x 1.652180 0.000000 0.000000 
#    y 0.000000 1.652720 0.000000 
#    z 0.000000 0.000000 1.683660 
# 
# From -- ./inp_files/31431.got.cif
#   From: 2010.03.12/outbox.cif.g09.slc.cpg/sg51_16_cif.got.tgz:31431.got - 2010.04.16 13:43:02.
