data_PCOD8207809
_publ_section_title
;
Structure prediction by ZEFSAII (Michael W. Deem and Ramdas Pophale) SiO2 
 PCOD8207809
Probable space group: P M M A
;
_chemical_formula_sum "Si O2"
_cell_formula_units_Z 40
_cell_length_a 8.805899
_cell_length_b 15.724393
_cell_length_c 19.510642
_cell_angle_alpha 90.000000
_cell_angle_beta 90.000000
_cell_angle_gamma 90.000000
_cell_volume 2701.588194
_symmetry_space_group_name_H-M "P M M A"
_symmetry_group_IT_number 51
_symmetry_cell_setting 'orthorhombic'
loop_
_space_group_symop_operation_xyz
x,y,z
1/2-x,-y,z
1/2+x,-y,-z
-x,y,-z
-x,-y,-z
1/2+x,y,-z
1/2-x,y,z
x,-y,z
loop_
_atom_site_type_symbol
_atom_site_label
_atom_site_fract_x
_atom_site_fract_y
_atom_site_fract_z
Si Si1 0.079117 0.101136 0.068143
Si Si2 0.928497 0.316701 0.574256
Si Si3 0.426550 0.900148 0.792275
Si Si4 0.570051 0.000000 0.425293
Si Si5 0.427678 0.500000 0.426777
Si Si6 0.429228 0.846382 0.343164
O O1 0.250000 0.136938 0.073000
O O2 0.983898 0.131604 0.133849
O O3 0.081129 0.000000 0.064528
O O4 0.000000 0.138456 0.000000
O O5 0.750000 0.311548 0.562905
O O6 0.976036 0.409424 0.607450
O O7 0.980979 0.244740 0.627308
O O8 0.000000 0.300557 0.500000
O O9 0.250000 0.878646 0.785066
O O10 0.521436 0.848978 0.735820
O O11 0.457635 0.000000 0.782301
O O12 0.500000 0.000000 0.500000
O O13 0.517806 0.082833 0.385211
O O14 0.750000 0.000000 0.430827
O O15 0.250000 0.500000 0.436673
O O16 0.500000 0.500000 0.500000
O O17 0.250000 0.862143 0.349605
#
# Coordination Sequence:
#
# PCOD8207809 Si02
#       6
#     8   8   8   4   4   8
#     4   9  16  26  41  60  81 106 138 176 213 248
#     4   9  18  30  46  65  83 106 135 172 215 260
#     4  10  19  30  43  59  81 111 145 177 213 251
#     4  12  24  36  46  58  77 108 145 182 218 250
#     4   8  14  28  46  64  84 102 127 164 211 262
#     4  11  21  32  45  62  83 110 143 178 215 253
#
# _framework density 14.806106
#
# number of rings (size 3 to 8) (size 9 to 14) (size 15 to 20)
#    0.000    2.200    1.000    3.300    0.000    6.400 
#    0.000    0.000    0.000    0.000    0.000    0.000 
#    0.000    0.000    0.000    0.900    0.000    9.000 
#
# Total GULP energy -495775.574553 kJ/mol
# GULP energy per Si atom -12394.389364 kJ/mol
# Density = 1.477241 g / cm^3
# Si number density = 14.806106 Si / 1000 Ang^3
#
#
#
# Elastic Constant Matrix: (Units=GPa)
#
#
# Indices 1 2 3 4 5 6 
#
# 1 72.2848 33.9621 35.6541 0.0000 0.0000 0.0000
# 2 33.9621 97.2155 46.8567 0.0000 0.0000 0.0000
# 3 35.6541 46.8567 108.5098 0.0000 0.0000 0.0000
# 4 0.0000 0.0000 0.0000 8.7560 0.0000 0.0000
# 5 0.0000 0.0000 0.0000 0.0000 28.5240 0.0000
# 6 0.0000 0.0000 0.0000 0.0000 0.0000 5.6789
#
#
#
# Elastic Compliance Matrix: (Units=1/GPa)
#
#
# Indices 1 2 3 4 5 6 
#
# 1 0.017828 -0.004300 -0.004001 0.000000 0.000000 0.000000
# 2 -0.004300 0.014027 -0.004644 0.000000 0.000000 0.000000
# 3 -0.004001 -0.004644 0.012536 0.000000 0.000000 0.000000
# 4 0.000000 0.000000 0.000000 0.114208 0.000000 0.000000
# 5 0.000000 0.000000 0.000000 0.000000 0.035058 0.000000
# 6 0.000000 0.000000 0.000000 0.000000 0.000000 0.176092
#
#
# Mechanical properties :
#
#
# Convention : Reuss Voigt Hill
#
# Bulk Modulus (GPa) = 54.05262 56.77287 55.41275
# Shear Modulus (GPa) = 12.44383 19.36091 15.90237
#
# Velocity S-wave (km/s) = 2.90220 3.62004 3.28081
# Velocity P-wave (km/s) = 6.91495 7.47666 7.20128
#
# Compressibility (1/GPa) = 0.01850049
#
# Stress axis : x y z
#
# Youngs Moduli (GPa) = 56.09202 71.29097 79.77020
#
# Poissons Ratio (x) = 0.30652 0.31918
# Poissons Ratio (y) = 0.24117 0.37048
# Poissons Ratio (z) = 0.22444 0.33110
#
# Static dielectric constant tensor:
#      x y z
#    x 2.996240 0.000000 0.000000 
#    y 0.000000 3.043800 0.000000 
#    z 0.000000 0.000000 2.837380 
# 
# 
# High freq. dielectric constant tensor:
#      x y z
#    x 1.583080 0.000000 0.000000 
#    y 0.000000 1.530080 0.000000 
#    z 0.000000 0.000000 1.555640 
# 
# From -- ./inp_files/27784.got.cif
#   From: 2010.03.12/outbox.cif.g09.slc.cpg/sg51_14_cif.got.tgz:27784.got - 2010.04.16 13:43:02.
