data_PCOD8207892
_publ_section_title
;
Structure prediction by ZEFSAII (Michael W. Deem and Ramdas Pophale) SiO2 
 PCOD8207892
Probable space group: P M M A
;
_chemical_formula_sum "Si O2"
_cell_formula_units_Z 56
_cell_length_a 8.823838
_cell_length_b 18.535956
_cell_length_c 21.720142
_cell_angle_alpha 90.000000
_cell_angle_beta 90.000000
_cell_angle_gamma 90.000000
_cell_volume 3552.508913
_symmetry_space_group_name_H-M "P M M A"
_symmetry_group_IT_number 51
_symmetry_cell_setting 'orthorhombic'
loop_
_space_group_symop_operation_xyz
x,y,z
1/2-x,-y,z
1/2+x,-y,-z
-x,y,-z
-x,-y,-z
1/2+x,y,-z
1/2-x,y,z
x,-y,z
loop_
_atom_site_type_symbol
_atom_site_label
_atom_site_fract_x
_atom_site_fract_y
_atom_site_fract_z
Si Si1 0.571406 0.666268 0.563196
Si Si2 0.929843 0.831523 0.181866
Si Si3 0.427219 0.579215 0.318488
Si Si4 0.926618 0.213006 0.369531
Si Si5 0.428822 0.920520 0.700523
Si Si6 0.072330 0.716716 0.252835
Si Si7 0.928910 0.081895 0.063224
O O1 0.500000 0.637405 0.500000
O O2 0.750000 0.663903 0.557557
O O3 0.509443 0.616239 0.618936
O O4 0.520358 0.749341 0.575593
O O5 0.750000 0.820355 0.183356
O O6 0.988472 0.883963 0.236495
O O7 0.984962 0.866447 0.118046
O O8 0.012604 0.753002 0.189422
O O9 0.250000 0.569755 0.328234
O O10 0.502263 0.500000 0.308544
O O11 0.457350 0.630146 0.258519
O O12 0.750000 0.224087 0.383359
O O13 0.967741 0.128065 0.359991
O O14 0.968968 0.248855 0.305157
O O15 0.250000 0.927417 0.707284
O O16 0.502322 0.000000 0.692556
O O17 0.250000 0.733101 0.263651
O O18 0.750000 0.084549 0.057273
O O19 0.983476 0.000000 0.076578
O O20 0.000000 0.111136 0.000000
#
# Coordination Sequence:
#
# PCOD8207892 Si02
#       7
#     8   8   8   8   8   8   8
#     4  10  19  30  45  62  81 106 136 167 196 235
#     4   9  16  26  41  59  82 112 143 173 204 243
#     4   8  15  28  44  62  85 110 132 158 197 242
#     4   9  16  27  43  60  80 105 132 165 204 245
#     4   8  13  22  39  61  79  98 129 167 204 241
#     4   9  16  26  42  62  83 107 135 168 202 239
#     4   9  17  28  41  58  83 117 153 185 216 247
#
# _framework density 15.763507000000001
#
# number of rings (size 3 to 8) (size 9 to 14) (size 15 to 20)
#    0.000    3.143    0.000    3.429    0.000    2.571 
#    0.000    0.000    0.000   29.571    0.000    0.000 
#    0.000    0.571    0.000    1.286    0.000    2.000 
#
# Total GULP energy -693736.208893 kJ/mol
# GULP energy per Si atom -12388.146587 kJ/mol
# Density = 1.572763 g / cm^3
# Si number density = 15.763507 Si / 1000 Ang^3
#
#
#
# Elastic Constant Matrix: (Units=GPa)
#
#
# Indices 1 2 3 4 5 6 
#
# 1 30.6759 25.5911 16.5327 0.0000 0.0000 0.0000
# 2 25.5911 128.2596 55.9804 0.0000 0.0000 0.0000
# 3 16.5327 55.9804 68.9593 0.0000 0.0000 0.0000
# 4 0.0000 0.0000 0.0000 19.7787 0.0000 0.0000
# 5 0.0000 0.0000 0.0000 0.0000 22.9256 0.0000
# 6 0.0000 0.0000 0.0000 0.0000 0.0000 15.3942
#
#
#
# Elastic Compliance Matrix: (Units=1/GPa)
#
#
# Indices 1 2 3 4 5 6 
#
# 1 0.040122 -0.005896 -0.004833 0.000000 0.000000 0.000000
# 2 -0.005896 0.012942 -0.009092 0.000000 0.000000 0.000000
# 3 -0.004833 -0.009092 0.023041 0.000000 0.000000 0.000000
# 4 0.000000 0.000000 0.000000 0.050560 0.000000 0.000000
# 5 0.000000 0.000000 0.000000 0.000000 0.043619 0.000000
# 6 0.000000 0.000000 0.000000 0.000000 0.000000 0.064960
#
#
# Mechanical properties :
#
#
# Convention : Reuss Voigt Hill
#
# Bulk Modulus (GPa) = 27.42542 47.12259 37.27400
# Shear Modulus (GPa) = 17.41920 20.27239 18.84579
#
# Velocity S-wave (km/s) = 3.32781 3.59002 3.46140
# Velocity P-wave (km/s) = 5.67464 6.86605 6.29858
#
# Compressibility (1/GPa) = 0.03646253
#
# Stress axis : x y z
#
# Youngs Moduli (GPa) = 24.92381 77.27067 43.40109
#
# Poissons Ratio (x) = 0.45560 0.20975
# Poissons Ratio (y) = 0.14695 0.39461
# Poissons Ratio (z) = 0.12045 0.70256
#
# Static dielectric constant tensor:
#      x y z
#    x 2.831610 0.000000 0.000000 
#    y 0.000000 3.505870 0.000000 
#    z 0.000000 0.000000 2.932980 
# 
# 
# High freq. dielectric constant tensor:
#      x y z
#    x 1.589740 0.000000 0.000000 
#    y 0.000000 1.598520 0.000000 
#    z 0.000000 0.000000 1.571670 
# 
# From -- ./inp_files/32272.got.cif
#   From: 2010.03.12/outbox.cif.g09.slc.cpg/sg51_17_cif.got.tgz:32272.got - 2010.04.16 13:43:02.
