data_PCOD8207139
_publ_section_title
;
Structure prediction by ZEFSAII (Michael W. Deem and Ramdas Pophale) SiO2 
 PCOD8207139
Probable space group: P M M A
;
_chemical_formula_sum "Si O2"
_cell_formula_units_Z 56
_cell_length_a 8.951992
_cell_length_b 14.319565
_cell_length_c 25.845802
_cell_angle_alpha 90.000000
_cell_angle_beta 90.000000
_cell_angle_gamma 90.000000
_cell_volume 3313.137984
_symmetry_space_group_name_H-M "P M M A"
_symmetry_group_IT_number 51
_symmetry_cell_setting 'orthorhombic'
loop_
_space_group_symop_operation_xyz
x,y,z
1/2-x,-y,z
1/2+x,-y,-z
-x,y,-z
-x,-y,-z
1/2+x,y,-z
1/2-x,y,z
x,-y,z
loop_
_atom_site_type_symbol
_atom_site_label
_atom_site_fract_x
_atom_site_fract_y
_atom_site_fract_z
Si Si1 0.576268 0.894036 0.090267
Si Si2 0.427021 0.101151 0.792516
Si Si3 0.425646 0.607026 0.345605
Si Si4 0.073754 0.717205 0.051644
Si Si5 0.925333 0.293494 0.250824
Si Si6 0.922546 0.390887 0.143618
Si Si7 0.418291 0.388806 0.550677
O O1 0.750000 0.865971 0.085678
O O2 0.517929 0.882462 0.149016
O O3 0.478387 0.824754 0.055717
O O4 0.550596 0.000000 0.071124
O O5 0.250000 0.099073 0.794581
O O6 0.479529 0.186099 0.756284
O O7 0.486519 0.000000 0.771924
O O8 0.250000 0.616658 0.351540
O O9 0.474144 0.500000 0.336289
O O10 0.481089 0.667363 0.297946
O O11 0.498681 0.646974 0.397968
O O12 0.250000 0.712213 0.046348
O O13 0.023453 0.657851 0.100887
O O14 0.000000 0.673545 0.000000
O O15 0.750000 0.300879 0.263399
O O16 0.965690 0.351385 0.199670
O O17 0.750000 0.368952 0.131278
O O18 0.957183 0.500000 0.143524
O O19 0.500000 0.347767 0.500000
O O20 0.250000 0.350509 0.551388
O O21 0.421720 0.500000 0.548810
#
# Coordination Sequence:
#
# PCOD8207139 Si02
#       7
#     8   8   8   8   8   8   8
#     4   9  17  34  59  81 102 127 156 193 240 295
#     4   8  14  27  51  78 100 124 154 190 235 291
#     4  10  20  31  43  65 100 138 175 212 247 284
#     4  12  25  39  56  75 100 128 160 201 244 296
#     4  10  18  31  53  76 100 128 162 200 241 291
#     4  10  21  38  58  77  98 126 163 205 249 298
#     4   9  16  27  44  65  92 129 172 213 253 294
#
# _framework density 16.902405000000002
#
# number of rings (size 3 to 8) (size 9 to 14) (size 15 to 20)
#    0.000    2.286    1.429    3.429    0.000    4.857 
#    0.000    0.000    0.000    0.429    0.000    0.000 
#    0.000    0.571    0.000    1.571    0.000    2.286 
#
# Total GULP energy -694346.512953 kJ/mol
# GULP energy per Si atom -12399.044874 kJ/mol
# Density = 1.686393 g / cm^3
# Si number density = 16.902405 Si / 1000 Ang^3
#
#
#
# Elastic Constant Matrix: (Units=GPa)
#
#
# Indices 1 2 3 4 5 6 
#
# 1 89.0650 36.5703 55.7145 0.0000 0.0000 0.0000
# 2 36.5703 82.4392 45.2040 0.0000 0.0000 0.0000
# 3 55.7145 45.2040 117.2154 0.0000 0.0000 0.0000
# 4 0.0000 0.0000 0.0000 8.1955 0.0000 0.0000
# 5 0.0000 0.0000 0.0000 0.0000 31.9360 0.0000
# 6 0.0000 0.0000 0.0000 0.0000 0.0000 19.6224
#
#
#
# Elastic Compliance Matrix: (Units=1/GPa)
#
#
# Indices 1 2 3 4 5 6 
#
# 1 0.016925 -0.003927 -0.006530 0.000000 0.000000 0.000000
# 2 -0.003927 0.016294 -0.004417 0.000000 0.000000 0.000000
# 3 -0.006530 -0.004417 0.013339 0.000000 0.000000 0.000000
# 4 0.000000 0.000000 0.000000 0.122017 0.000000 0.000000
# 5 0.000000 0.000000 0.000000 0.000000 0.031313 0.000000
# 6 0.000000 0.000000 0.000000 0.000000 0.000000 0.050962
#
#
# Mechanical properties :
#
#
# Convention : Reuss Voigt Hill
#
# Bulk Modulus (GPa) = 59.49267 62.63304 61.06286
# Shear Modulus (GPa) = 17.47009 22.03285 19.75147
#
# Velocity S-wave (km/s) = 3.21843 3.61436 3.42213
# Velocity P-wave (km/s) = 7.00609 7.38609 7.19860
#
# Compressibility (1/GPa) = 0.01680879
#
# Stress axis : x y z
#
# Youngs Moduli (GPa) = 59.08287 61.37061 74.96943
#
# Poissons Ratio (x) = 0.24103 0.48958
# Poissons Ratio (y) = 0.23204 0.33115
# Poissons Ratio (z) = 0.38583 0.27109
#
# Static dielectric constant tensor:
#      x y z
#    x 3.027240 0.000000 0.000000 
#    y 0.000000 3.398150 0.000000 
#    z 0.000000 0.000000 3.141010 
# 
# 
# High freq. dielectric constant tensor:
#      x y z
#    x 1.641140 0.000000 0.000000 
#    y 0.000000 1.632810 0.000000 
#    z 0.000000 0.000000 1.644540 
# 
# From -- ./inp_files/31970.got.cif
#   From: 2010.03.12/outbox.cif.g09.slc.cpg/sg51_16_cif.got.tgz:31970.got - 2010.04.16 13:43:02.
