data_PCOD8207145
_publ_section_title
;
Structure prediction by ZEFSAII (Michael W. Deem and Ramdas Pophale) SiO2 
 PCOD8207145
Probable space group: P M M A
;
_chemical_formula_sum "Si O2"
_cell_formula_units_Z 64
_cell_length_a 18.948921
_cell_length_b 9.075990
_cell_length_c 20.072353
_cell_angle_alpha 90.000000
_cell_angle_beta 90.000000
_cell_angle_gamma 90.000000
_cell_volume 3452.047635
_symmetry_space_group_name_H-M "P M M A"
_symmetry_group_IT_number 51
_symmetry_cell_setting 'orthorhombic'
loop_
_space_group_symop_operation_xyz
x,y,z
1/2-x,-y,z
1/2+x,-y,-z
-x,y,-z
-x,-y,-z
1/2+x,y,-z
1/2-x,y,z
x,-y,z
loop_
_atom_site_type_symbol
_atom_site_label
_atom_site_fract_x
_atom_site_fract_y
_atom_site_fract_z
Si Si1 0.919979 0.171811 0.520263
Si Si2 0.427031 0.669852 0.345319
Si Si3 0.669214 0.668220 0.778211
Si Si4 0.563115 0.174940 0.286705
Si Si5 0.671252 0.174842 0.396180
Si Si6 0.563586 0.824940 0.136267
Si Si7 0.670167 0.175793 0.026301
Si Si8 0.591440 0.825296 0.895370
O O1 0.900199 0.263369 0.585449
O O2 0.870065 0.231548 0.461220
O O3 0.000000 0.202778 0.500000
O O4 0.907423 0.000000 0.534731
O O5 0.447741 0.500000 0.354792
O O6 0.362763 0.690255 0.294670
O O7 0.494341 0.756245 0.318920
O O8 0.750000 0.717355 0.774723
O O9 0.660957 0.500000 0.802231
O O10 0.629901 0.772657 0.829441
O O11 0.630974 0.225492 0.329242
O O12 0.573476 0.234012 0.211466
O O13 0.552979 0.000000 0.288547
O O14 0.750000 0.242383 0.395071
O O15 0.674275 0.000000 0.398275
O O16 0.627469 0.764912 0.090626
O O17 0.489405 0.768629 0.105697
O O18 0.564583 0.000000 0.136493
O O19 0.750000 0.237659 0.028940
O O20 0.670853 0.000000 0.025322
O O21 0.631242 0.237199 0.960416
O O22 0.593247 0.000000 0.895792
#
# Coordination Sequence:
#
# PCOD8207145 Si02
#       8
#     8   8   8   8   8   8   8   8
#     4  10  19  34  56  78 104 137 170 210 259 307
#     4  11  22  35  54  78 104 135 173 214 258 309
#     4  10  22  38  53  73 105 140 171 210 262 312
#     4  10  18  33  55  78 104 139 177 215 259 307
#     4   9  18  32  52  79 107 134 170 215 260 303
#     4   9  17  28  48  75 104 137 174 216 259 307
#     4   9  17  28  44  74 112 141 169 213 268 315
#     4  10  18  31  53  78 104 135 175 219 261 308
#
# _framework density 18.539722000000001
#
# number of rings (size 3 to 8) (size 9 to 14) (size 15 to 20)
#    0.000    2.250    2.500    1.125    0.000    4.000 
#    0.000    2.500    0.000    3.375    0.000    0.000 
#    0.000    0.000    0.000    0.000    0.000    0.000 
#
# Total GULP energy -793610.444441 kJ/mol
# GULP energy per Si atom -12400.163194 kJ/mol
# Density = 1.849752 g / cm^3
# Si number density = 18.539722 Si / 1000 Ang^3
#
#
#
# Elastic Constant Matrix: (Units=GPa)
#
#
# Indices 1 2 3 4 5 6 
#
# 1 155.5434 18.2066 78.2143 0.0000 0.0000 0.0000
# 2 18.2066 20.2019 23.8693 0.0000 0.0000 0.0000
# 3 78.2143 23.8693 154.2640 0.0000 0.0000 0.0000
# 4 0.0000 0.0000 0.0000 11.2675 0.0000 0.0000
# 5 0.0000 0.0000 0.0000 0.0000 35.5306 0.0000
# 6 0.0000 0.0000 0.0000 0.0000 0.0000 8.3752
#
#
#
# Elastic Compliance Matrix: (Units=1/GPa)
#
#
# Indices 1 2 3 4 5 6 
#
# 1 0.008800 -0.003254 -0.003958 0.000000 0.000000 0.000000
# 2 -0.003254 0.061778 -0.007909 0.000000 0.000000 0.000000
# 3 -0.003958 -0.007909 0.009713 0.000000 0.000000 0.000000
# 4 0.000000 0.000000 0.000000 0.088751 0.000000 0.000000
# 5 0.000000 0.000000 0.000000 0.000000 0.028145 0.000000
# 6 0.000000 0.000000 0.000000 0.000000 0.000000 0.119401
#
#
# Mechanical properties :
#
#
# Convention : Reuss Voigt Hill
#
# Bulk Modulus (GPa) = 19.98076 63.39887 41.68981
# Shear Modulus (GPa) = 13.75463 25.01592 19.38528
#
# Velocity S-wave (km/s) = 2.72674 3.67729 3.23709
# Velocity P-wave (km/s) = 4.55128 7.23190 6.04212
#
# Compressibility (1/GPa) = 0.05004814
#
# Stress axis : x y z
#
# Youngs Moduli (GPa) = 113.63023 16.18706 102.95330
#
# Poissons Ratio (x) = 0.05268 0.40754
# Poissons Ratio (y) = 0.36978 0.81425
# Poissons Ratio (z) = 0.44980 0.12802
#
# Static dielectric constant tensor:
#      x y z
#    x 3.659980 0.000000 0.000000 
#    y 0.000000 2.988680 0.000000 
#    z 0.000000 0.000000 3.697980 
# 
# 
# High freq. dielectric constant tensor:
#      x y z
#    x 1.726980 0.000000 0.000000 
#    y 0.000000 1.669770 0.000000 
#    z 0.000000 0.000000 1.734760 
# 
# From -- ./inp_files/30591.got.cif
#   From: 2010.03.12/outbox.cif.g09.slc.cpg/sg51_16_cif.got.tgz:30591.got - 2010.04.16 13:43:02.
