data_PCOD8207612
_publ_section_title
;
Structure prediction by ZEFSAII (Michael W. Deem and Ramdas Pophale) SiO2 
 PCOD8207612
Probable space group: P M M A
;
_chemical_formula_sum "Si O2"
_cell_formula_units_Z 64
_cell_length_a 9.167524
_cell_length_b 17.982745
_cell_length_c 27.742789
_cell_angle_alpha 90.000000
_cell_angle_beta 90.000000
_cell_angle_gamma 90.000000
_cell_volume 4573.599801
_symmetry_space_group_name_H-M "P M M A"
_symmetry_group_IT_number 51
_symmetry_cell_setting 'orthorhombic'
loop_
_space_group_symop_operation_xyz
x,y,z
1/2-x,-y,z
1/2+x,-y,-z
-x,y,-z
-x,-y,-z
1/2+x,y,-z
1/2-x,y,z
x,-y,z
loop_
_atom_site_type_symbol
_atom_site_label
_atom_site_fract_x
_atom_site_fract_y
_atom_site_fract_z
Si Si1 0.086000 0.412483 0.360281
Si Si2 0.088018 0.418744 0.096849
Si Si3 0.083978 0.310876 0.186476
Si Si4 0.415535 0.411322 0.547137
Si Si5 0.592049 0.685657 0.041490
Si Si6 0.576682 0.413960 0.262374
Si Si7 0.588044 0.798977 0.126955
Si Si8 0.578978 0.085969 0.049256
O O1 0.250000 0.378627 0.356621
O O2 0.098813 0.500000 0.366576
O O3 0.001398 0.379261 0.406483
O O4 0.991999 0.392581 0.313530
O O5 0.250000 0.421315 0.075396
O O6 0.036715 0.500000 0.114527
O O7 0.082926 0.364000 0.141285
O O8 0.983457 0.392470 0.054041
O O9 0.250000 0.297185 0.204736
O O10 0.988386 0.353236 0.226128
O O11 0.014033 0.230543 0.170882
O O12 0.500000 0.382191 0.500000
O O13 0.250000 0.380489 0.546963
O O14 0.412600 0.500000 0.548205
O O15 0.750000 0.668970 0.019991
O O16 0.602421 0.733769 0.088849
O O17 0.500000 0.727549 0.000000
O O18 0.750000 0.404326 0.264725
O O19 0.536821 0.500000 0.248437
O O20 0.750000 0.817875 0.147559
O O21 0.522650 0.869455 0.096912
O O22 0.750000 0.102643 0.041928
O O23 0.546096 0.000000 0.059588
O O24 0.500000 0.111764 0.000000
#
# Coordination Sequence:
#
# PCOD8207612 Si02
#       8
#     8   8   8   8   8   8   8   8
#     4   9  16  25  36  50  68  90 118 153 192 232
#     4   9  18  31  43  53  66  84 108 139 172 206
#     4  10  19  30  44  59  73  92 119 149 182 217
#     4   9  15  22  32  46  65  89 117 149 188 235
#     4  10  19  29  41  55  70  89 111 135 164 198
#     4  10  19  29  41  56  74  96 122 155 195 235
#     4   9  18  31  44  59  79  99 119 142 169 206
#     4   9  17  29  46  67  88 107 124 143 170 206
#
# _framework density 13.993353000000001
#
# number of rings (size 3 to 8) (size 9 to 14) (size 15 to 20)
#    0.000    2.625    0.000    2.625    0.000    6.250 
#    0.000    0.000    0.000    0.000    0.000    0.000 
#    0.000    0.000    0.000    0.000    0.000    0.000 
#
# Total GULP energy -793030.102739 kJ/mol
# GULP energy per Si atom -12391.095355 kJ/mol
# Density = 1.396150 g / cm^3
# Si number density = 13.993353 Si / 1000 Ang^3
#
#
#
# Elastic Constant Matrix: (Units=GPa)
#
#
# Indices 1 2 3 4 5 6 
#
# 1 105.2325 22.9510 48.2675 0.0000 0.0000 0.0000
# 2 22.9510 48.8666 23.0420 0.0000 0.0000 0.0000
# 3 48.2675 23.0420 73.1614 0.0000 0.0000 0.0000
# 4 0.0000 0.0000 0.0000 -8.1597 0.0000 0.0000
# 5 0.0000 0.0000 0.0000 0.0000 27.1771 0.0000
# 6 0.0000 0.0000 0.0000 0.0000 0.0000 12.7103
#
#
#
# Elastic Compliance Matrix: (Units=1/GPa)
#
#
# Indices 1 2 3 4 5 6 
#
# 1 0.013899 -0.002589 -0.008355 0.000000 0.000000 0.000000
# 2 -0.002589 0.024515 -0.006013 0.000000 0.000000 0.000000
# 3 -0.008355 -0.006013 0.021074 0.000000 0.000000 0.000000
# 4 0.000000 0.000000 0.000000 -0.122554 0.000000 0.000000
# 5 0.000000 0.000000 0.000000 0.000000 0.036796 0.000000
# 6 0.000000 0.000000 0.000000 0.000000 0.000000 0.078676
#
#
# Mechanical properties :
#
#
# Convention : Reuss Voigt Hill
#
# Bulk Modulus (GPa) = 39.09965 46.19796 42.64880
# Shear Modulus (GPa) = 52.71756 15.21221 33.96488
#
# Velocity S-wave (km/s) = 6.14452 3.30070 4.93202
# Velocity P-wave (km/s) = 8.85112 6.90015 7.93582
#
# Compressibility (1/GPa) = 0.02557568
#
# Stress axis : x y z
#
# Youngs Moduli (GPa) = 71.94529 40.79129 47.45131
#
# Poissons Ratio (x) = 0.10559 0.39644
# Poissons Ratio (y) = 0.18624 0.28533
# Poissons Ratio (z) = 0.60109 0.24529
#
# Static dielectric constant tensor:
#      x y z
#    x 3.139270 0.000000 0.000000 
#    y 0.000000 2.503950 0.000000 
#    z 0.000000 0.000000 2.720210 
# 
# 
# High freq. dielectric constant tensor:
#      x y z
#    x 1.552470 0.000000 0.000000 
#    y 0.000000 1.478990 0.000000 
#    z 0.000000 0.000000 1.515210 
# 
# From -- ./inp_files/36468.got.cif
#   From: 2010.03.12/outbox.cif.g09.slc.cpg/sg51_19_cif.got.tgz:36468.got - 2010.04.16 13:43:02.
