data_PCOD8207135
_publ_section_title
;
Structure prediction by ZEFSAII (Michael W. Deem and Ramdas Pophale) SiO2 
 PCOD8207135
Probable space group: P M M A
;
_chemical_formula_sum "Si O2"
_cell_formula_units_Z 64
_cell_length_a 29.082388
_cell_length_b 9.074588
_cell_length_c 12.420134
_cell_angle_alpha 90.000000
_cell_angle_beta 90.000000
_cell_angle_gamma 90.000000
_cell_volume 3277.806123
_symmetry_space_group_name_H-M "P M M A"
_symmetry_group_IT_number 51
_symmetry_cell_setting 'orthorhombic'
loop_
_space_group_symop_operation_xyz
x,y,z
1/2-x,-y,z
1/2+x,-y,-z
-x,y,-z
-x,-y,-z
1/2+x,y,-z
1/2-x,y,z
x,-y,z
loop_
_atom_site_type_symbol
_atom_site_label
_atom_site_fract_x
_atom_site_fract_y
_atom_site_fract_z
Si Si1 0.353205 0.832420 0.778947
Si Si2 0.138820 0.324885 0.169453
Si Si3 0.930633 0.672004 0.502689
Si Si4 0.957494 0.327992 0.745793
Si Si5 0.661451 0.168181 0.460861
Si Si6 0.045301 0.825935 0.708242
Si Si7 0.800398 0.334206 0.638038
Si Si8 0.697228 0.675010 0.031478
O O1 0.326992 0.818059 0.664983
O O2 0.406331 0.781489 0.764043
O O3 0.325696 0.728022 0.858538
O O4 0.351424 0.000000 0.821452
O O5 0.142567 0.500000 0.169563
O O6 0.085262 0.276389 0.178334
O O7 0.164904 0.265110 0.274811
O O8 0.164719 0.261761 0.064165
O O9 0.935682 0.500000 0.477527
O O10 0.947751 0.709700 0.621730
O O11 0.878434 0.721489 0.496229
O O12 0.959394 0.757826 0.411503
O O13 0.966856 0.500000 0.763086
O O14 0.003270 0.237848 0.780019
O O15 0.703116 0.227122 0.533794
O O16 0.647962 0.000000 0.487731
O O17 0.041763 0.000000 0.697630
O O18 0.750000 0.338142 0.691303
O O19 0.815474 0.500000 0.604562
O O20 0.750000 0.732847 0.020517
O O21 0.697201 0.500000 0.031201
#
# Coordination Sequence:
#
# PCOD8207135 Si02
#       8
#     8   8   8   8   8   8   8   8
#     4   9  21  40  57  76 109 150 186 226 279 332
#     4   9  18  36  57  82 114 144 179 228 283 335
#     4  10  18  31  52  79 111 148 189 225 264 324
#     4  10  19  32  53  80 112 150 187 222 271 333
#     4  10  20  34  52  77 112 149 183 224 277 331
#     4  10  21  35  52  79 114 151 189 229 276 326
#     4  10  19  33  55  80 109 146 182 222 279 343
#     4  10  21  38  63  89 107 134 184 240 285 331
#
# _framework density 19.525257
#
# number of rings (size 3 to 8) (size 9 to 14) (size 15 to 20)
#    0.000    2.250    1.250    2.625    0.000    8.000 
#    0.000    4.375    0.000    5.250    0.000    0.000 
#    0.000    0.000    0.000    0.000    0.000    0.000 
#
# Total GULP energy -793284.323023 kJ/mol
# GULP energy per Si atom -12395.067547 kJ/mol
# Density = 1.948082 g / cm^3
# Si number density = 19.525257 Si / 1000 Ang^3
#
#
#
# Elastic Constant Matrix: (Units=GPa)
#
#
# Indices 1 2 3 4 5 6 
#
# 1 90.8119 25.4263 44.3670 0.0000 0.0000 0.0000
# 2 25.4263 42.3777 32.4009 0.0000 0.0000 0.0000
# 3 44.3670 32.4009 85.6538 0.0000 0.0000 0.0000
# 4 0.0000 0.0000 0.0000 8.8188 0.0000 0.0000
# 5 0.0000 0.0000 0.0000 0.0000 22.0612 0.0000
# 6 0.0000 0.0000 0.0000 0.0000 0.0000 20.5996
#
#
#
# Elastic Compliance Matrix: (Units=1/GPa)
#
#
# Indices 1 2 3 4 5 6 
#
# 1 0.015302 -0.004391 -0.006265 0.000000 0.000000 0.000000
# 2 -0.004391 0.034459 -0.010761 0.000000 0.000000 0.000000
# 3 -0.006265 -0.010761 0.018991 0.000000 0.000000 0.000000
# 4 0.000000 0.000000 0.000000 0.113395 0.000000 0.000000
# 5 0.000000 0.000000 0.000000 0.000000 0.045328 0.000000
# 6 0.000000 0.000000 0.000000 0.000000 0.000000 0.048545
#
#
# Mechanical properties :
#
#
# Convention : Reuss Voigt Hill
#
# Bulk Modulus (GPa) = 38.58279 47.02575 42.80427
# Shear Modulus (GPa) = 15.26752 18.07254 16.67003
#
# Velocity S-wave (km/s) = 2.79935 3.04566 2.92510
# Velocity P-wave (km/s) = 5.50016 6.04193 5.77740
#
# Compressibility (1/GPa) = 0.02591829
#
# Stress axis : x y z
#
# Youngs Moduli (GPa) = 65.35048 29.01983 52.65740
#
# Poissons Ratio (x) = 0.12742 0.32991
# Poissons Ratio (y) = 0.28695 0.56663
# Poissons Ratio (z) = 0.40943 0.31227
#
# Static dielectric constant tensor:
#      x y z
#    x 3.828270 0.000000 0.000000 
#    y 0.000000 3.343250 0.000000 
#    z 0.000000 0.000000 3.448880 
# 
# 
# High freq. dielectric constant tensor:
#      x y z
#    x 1.772090 0.000000 0.000000 
#    y 0.000000 1.741590 0.000000 
#    z 0.000000 0.000000 1.738720 
# 
# From -- ./inp_files/19600.got.cif
#   From: 2010.03.12/outbox.cif.g09.slc.cpg/sg51_10_cif.got.tgz:19600.got - 2010.04.16 13:43:02.
