data_PCOD8207364
_publ_section_title
;
Structure prediction by ZEFSAII (Michael W. Deem and Ramdas Pophale) SiO2 
 PCOD8207364
Probable space group: P M M A
;
_chemical_formula_sum "Si O2"
_cell_formula_units_Z 52
_cell_length_a 8.996068
_cell_length_b 15.881469
_cell_length_c 20.920764
_cell_angle_alpha 90.000000
_cell_angle_beta 90.000000
_cell_angle_gamma 90.000000
_cell_volume 2988.965768
_symmetry_space_group_name_H-M "P M M A"
_symmetry_group_IT_number 51
_symmetry_cell_setting 'orthorhombic'
loop_
_space_group_symop_operation_xyz
x,y,z
1/2-x,-y,z
1/2+x,-y,-z
-x,y,-z
-x,-y,-z
1/2+x,y,-z
1/2-x,y,z
x,-y,z
loop_
_atom_site_type_symbol
_atom_site_label
_atom_site_fract_x
_atom_site_fract_y
_atom_site_fract_z
Si Si1 0.925876 0.500000 0.353078
Si Si2 0.413046 0.238508 0.322829
Si Si3 0.917852 0.361039 0.565761
Si Si4 0.921634 0.154507 0.142554
Si Si5 0.417997 0.090345 0.714799
Si Si6 0.929308 0.000000 0.930723
Si Si7 0.076120 0.685529 0.190242
Si Si8 0.424278 0.500000 0.216389
O O1 0.750000 0.500000 0.349542
O O2 0.981960 0.421491 0.392694
O O3 0.988155 0.500000 0.282218
O O4 0.250000 0.209350 0.301670
O O5 0.409797 0.277603 0.392623
O O6 0.510248 0.155977 0.333188
O O7 0.470692 0.298254 0.264696
O O8 0.750000 0.396052 0.553641
O O9 0.000000 0.341673 0.500000
O O10 0.750000 0.157574 0.118842
O O11 0.933666 0.122695 0.213884
O O12 0.989362 0.250183 0.142256
O O13 0.014151 0.086967 0.101420
O O14 0.250000 0.080894 0.693827
O O15 0.498485 0.000000 0.709155
O O16 0.750000 0.000000 0.932053
O O17 0.000000 0.000000 0.000000
O O18 0.250000 0.700407 0.178229
O O19 0.036022 0.586203 0.177088
O O20 0.250000 0.500000 0.234155
#
# Coordination Sequence:
#
# PCOD8207364 Si02
#       8
#     4   8   8   8   8   4   8   4
#     4  12  23  33  48  70  95 127 167 207 256 317
#     4   9  18  31  48  69  94 124 161 206 257 309
#     4  11  22  37  51  66  91 124 163 209 259 314
#     4  10  19  34  52  77 113 146 178 218 259 305
#     4   9  17  30  49  73 102 131 160 201 251 299
#     4  12  24  38  58  84 116 154 189 220 257 306
#     4   9  17  31  51  75 103 140 178 216 266 314
#     4  10  18  33  53  74 107 143 175 221 270 315
#
# _framework density 17.397321000000002
#
# number of rings (size 3 to 8) (size 9 to 14) (size 15 to 20)
#    0.000    2.000    2.308    2.538    0.000    2.769 
#    0.000    0.000    0.000    0.462    0.000    0.538 
#    0.000    0.000    0.000    0.000    0.000    0.000 
#
# Total GULP energy -644262.526942 kJ/mol
# GULP energy per Si atom -12389.663980 kJ/mol
# Density = 1.735772 g / cm^3
# Si number density = 17.397321 Si / 1000 Ang^3
#
#
#
# Elastic Constant Matrix: (Units=GPa)
#
#
# Indices 1 2 3 4 5 6 
#
# 1 100.0309 63.3660 37.5634 0.0000 0.0000 0.0000
# 2 63.3660 151.0046 32.5109 0.0000 0.0000 0.0000
# 3 37.5634 32.5109 47.7150 0.0000 0.0000 0.0000
# 4 0.0000 0.0000 0.0000 -120.3784 0.0000 0.0000
# 5 0.0000 0.0000 0.0000 0.0000 23.6581 0.0000
# 6 0.0000 0.0000 0.0000 0.0000 0.0000 29.0486
#
#
#
# Elastic Compliance Matrix: (Units=1/GPa)
#
#
# Indices 1 2 3 4 5 6 
#
# 1 0.016839 -0.004936 -0.009893 0.000000 0.000000 0.000000
# 2 -0.004936 0.009208 -0.002388 0.000000 0.000000 0.000000
# 3 -0.009893 -0.002388 0.030373 0.000000 0.000000 0.000000
# 4 0.000000 0.000000 0.000000 -0.008307 0.000000 0.000000
# 5 0.000000 0.000000 0.000000 0.000000 0.042269 0.000000
# 6 0.000000 0.000000 0.000000 0.000000 0.000000 0.034425
#
#
# Mechanical properties :
#
#
# Convention : Reuss Voigt Hill
#
# Bulk Modulus (GPa) = 45.48433 62.84788 54.16611
# Shear Modulus (GPa) = 30.01769 -2.51367 13.75201
#
# Velocity S-wave (km/s) = 4.15832 -1.20333 2.81457
# Velocity P-wave (km/s) = 7.01832 5.85430 6.46257
#
# Compressibility (1/GPa) = 0.02198559
#
# Stress axis : x y z
#
# Youngs Moduli (GPa) = 59.38685 108.60423 32.92411
#
# Poissons Ratio (x) = 0.53608 0.32572
# Poissons Ratio (y) = 0.29314 0.07862
# Poissons Ratio (z) = 0.58751 0.25933
#
# Static dielectric constant tensor:
#      x y z
#    x 3.456470 0.000000 0.000000 
#    y 0.000000 3.518340 0.000000 
#    z 0.000000 0.000000 3.001410 
# 
# 
# High freq. dielectric constant tensor:
#      x y z
#    x 1.678610 0.000000 0.000000 
#    y 0.000000 1.681620 0.000000 
#    z 0.000000 0.000000 1.626780 
# 
# From -- ./inp_files/31847.got.cif
#   From: 2010.03.12/outbox.cif.g09.slc.cpg/sg51_16_cif.got.tgz:31847.got - 2010.04.16 13:43:02.
