data_PCOD8207014
_publ_section_title
;
Structure prediction by ZEFSAII (Michael W. Deem and Ramdas Pophale) SiO2 
 PCOD8207014
Probable space group: P M M A
;
_chemical_formula_sum "Si O2"
_cell_formula_units_Z 44
_cell_length_a 8.658056
_cell_length_b 28.842186
_cell_length_c 9.144629
_cell_angle_alpha 90.000000
_cell_angle_beta 90.000000
_cell_angle_gamma 90.000000
_cell_volume 2283.571712
_symmetry_space_group_name_H-M "P M M A"
_symmetry_group_IT_number 51
_symmetry_cell_setting 'orthorhombic'
loop_
_space_group_symop_operation_xyz
x,y,z
1/2-x,-y,z
1/2+x,-y,-z
-x,y,-z
-x,-y,-z
1/2+x,y,-z
1/2-x,y,z
x,-y,z
loop_
_atom_site_type_symbol
_atom_site_label
_atom_site_fract_x
_atom_site_fract_y
_atom_site_fract_z
Si Si1 0.431141 0.951149 0.658848
Si Si2 0.930468 0.407055 0.158828
Si Si3 0.933281 0.850279 0.337616
Si Si4 0.567320 0.500000 0.837666
Si Si5 0.068566 0.316163 0.659171
Si Si6 0.432476 0.767187 0.159398
O O1 0.500000 0.952979 0.500000
O O2 0.250000 0.950484 0.640581
O O3 0.479847 0.901547 0.727851
O O4 0.480608 0.000000 0.741662
O O5 0.750000 0.415527 0.141201
O O6 0.970142 0.363492 0.258312
O O7 0.004916 0.452687 0.236554
O O8 0.000000 0.397384 0.000000
O O9 0.750000 0.842850 0.344698
O O10 0.000000 0.842385 0.500000
O O11 0.006931 0.815216 0.223875
O O12 0.750000 0.500000 0.836666
O O13 0.500000 0.500000 0.000000
O O14 0.250000 0.305708 0.653884
O O15 0.000000 0.321353 0.500000
O O16 0.983549 0.274265 0.737284
O O17 0.250000 0.768798 0.148942
O O18 0.500000 0.758567 0.000000
#
# Coordination Sequence:
#
# PCOD8207014 Si02
#       6
#     8   8   8   4   8   8
#     4   8  14  25  44  72 105 140 177 218 263 312
#     4  10  20  35  57  84 114 147 185 227 271 320
#     4  10  19  33  54  81 113 146 182 224 271 322
#     4  10  18  30  53  82 113 148 186 226 268 316
#     4  11  24  41  61  85 113 146 183 226 276 328
#     4  12  25  41  60  81 108 141 181 227 275 330
#
# _framework density 19.268060999999999
#
# number of rings (size 3 to 8) (size 9 to 14) (size 15 to 20)
#    0.000    1.818    0.000    6.273    0.000    5.091 
#    0.000    0.455    0.000    0.545    0.000    0.000 
#    0.000    0.000    0.000    0.000    0.000    0.000 
#
# Total GULP energy -545229.441550 kJ/mol
# GULP energy per Si atom -12391.578217 kJ/mol
# Density = 1.922421 g / cm^3
# Si number density = 19.268061 Si / 1000 Ang^3
#
#
#
# Elastic Constant Matrix: (Units=GPa)
#
#
# Indices 1 2 3 4 5 6 
#
# 1 115.4182 74.8396 39.0359 0.0000 0.0000 0.0000
# 2 74.8396 175.5652 53.1205 0.0000 0.0000 0.0000
# 3 39.0359 53.1205 82.2200 0.0000 0.0000 0.0000
# 4 0.0000 0.0000 0.0000 31.2068 0.0000 0.0000
# 5 0.0000 0.0000 0.0000 0.0000 28.2316 0.0000
# 6 0.0000 0.0000 0.0000 0.0000 0.0000 32.8018
#
#
#
# Elastic Compliance Matrix: (Units=1/GPa)
#
#
# Indices 1 2 3 4 5 6 
#
# 1 0.012586 -0.004421 -0.003119 0.000000 0.000000 0.000000
# 2 -0.004421 0.008633 -0.003479 0.000000 0.000000 0.000000
# 3 -0.003119 -0.003479 0.015891 0.000000 0.000000 0.000000
# 4 0.000000 0.000000 0.000000 0.032044 0.000000 0.000000
# 5 0.000000 0.000000 0.000000 0.000000 0.035421 0.000000
# 6 0.000000 0.000000 0.000000 0.000000 0.000000 0.030486
#
#
# Mechanical properties :
#
#
# Convention : Reuss Voigt Hill
#
# Bulk Modulus (GPa) = 66.34782 78.57726 72.46254
# Shear Modulus (GPa) = 30.84077 32.19521 31.51799
#
# Velocity S-wave (km/s) = 4.00511 4.09211 4.04884
# Velocity P-wave (km/s) = 7.47641 7.94964 7.71665
#
# Compressibility (1/GPa) = 0.01507209
#
# Stress axis : x y z
#
# Youngs Moduli (GPa) = 79.45373 115.83269 62.93014
#
# Poissons Ratio (x) = 0.51215 0.19627
# Poissons Ratio (y) = 0.35130 0.21890
# Poissons Ratio (z) = 0.24781 0.40292
#
# Static dielectric constant tensor:
#      x y z
#    x 3.691870 0.000000 0.000000 
#    y 0.000000 4.523750 0.000000 
#    z 0.000000 0.000000 3.216700 
# 
# 
# High freq. dielectric constant tensor:
#      x y z
#    x 1.765930 0.000000 0.000000 
#    y 0.000000 1.787440 0.000000 
#    z 0.000000 0.000000 1.706770 
# 
# From -- ./inp_files/5812.got.cif
#   From: 2010.03.12/outbox.cif.g09.slc.cpg/sg51_3_cif.got.tgz:5812.got - 2010.04.16 13:43:02.
