data_PCOD8207372
_publ_section_title
;
Structure prediction by ZEFSAII (Michael W. Deem and Ramdas Pophale) SiO2 
 PCOD8207372
Probable space group: P M M A
;
_chemical_formula_sum "Si O2"
_cell_formula_units_Z 64
_cell_length_a 18.701644
_cell_length_b 19.354444
_cell_length_c 9.847139
_cell_angle_alpha 90.000000
_cell_angle_beta 90.000000
_cell_angle_gamma 90.000000
_cell_volume 3564.269659
_symmetry_space_group_name_H-M "P M M A"
_symmetry_group_IT_number 51
_symmetry_cell_setting 'orthorhombic'
loop_
_space_group_symop_operation_xyz
x,y,z
1/2-x,-y,z
1/2+x,-y,-z
-x,y,-z
-x,-y,-z
1/2+x,y,-z
1/2-x,y,z
x,-y,z
loop_
_atom_site_type_symbol
_atom_site_label
_atom_site_fract_x
_atom_site_fract_y
_atom_site_fract_z
Si Si1 0.831344 0.300646 0.468770
Si Si2 0.833310 0.206256 0.213211
Si Si3 0.585877 0.716581 0.990211
Si Si4 0.334777 0.075292 0.331598
Si Si5 0.567529 0.422060 0.407772
Si Si6 0.068870 0.575272 0.906265
Si Si7 0.333679 0.076045 0.633851
Si Si8 0.334068 0.775813 0.256010
O O1 0.750000 0.322776 0.480622
O O2 0.847572 0.260892 0.330795
O O3 0.872555 0.372236 0.466357
O O4 0.851731 0.250725 0.593155
O O5 0.750000 0.203116 0.171551
O O6 0.879842 0.224872 0.083405
O O7 0.864624 0.132532 0.262751
O O8 0.614462 0.640385 0.037495
O O9 0.500000 0.719997 0.000000
O O10 0.615066 0.730675 0.840113
O O11 0.250000 0.074834 0.344486
O O12 0.367364 0.082556 0.483394
O O13 0.357090 0.142784 0.244537
O O14 0.359657 0.000000 0.269885
O O15 0.500000 0.406771 0.500000
O O16 0.595322 0.500000 0.427920
O O17 0.547882 0.408869 0.249862
O O18 0.109059 0.500000 0.915240
O O19 0.000000 0.570228 0.000000
O O20 0.250000 0.091613 0.620412
O O21 0.348874 0.000000 0.694384
O O22 0.250000 0.766242 0.219840
#
# Coordination Sequence:
#
# PCOD8207372 Si02
#       8
#     8   8   8   8   8   8   8   8
#     4  10  20  33  53  80 110 138 166 210 274 322
#     4  10  18  33  54  78 108 137 169 214 266 312
#     4  11  23  36  53  78 103 140 180 216 257 307
#     4   8  13  25  49  79 105 131 170 217 261 306
#     4  10  21  36  57  82 105 137 180 221 261 305
#     4   9  19  36  54  75 102 134 174 218 261 301
#     4   8  13  24  48  80 106 130 169 218 261 304
#     4  10  20  35  54  79 109 140 172 214 266 316
#
# _framework density 17.955992999999999
#
# number of rings (size 3 to 8) (size 9 to 14) (size 15 to 20)
#    0.000    2.500    2.500    1.125    3.500    0.250 
#    0.000    0.625    0.000    6.750    0.000    1.750 
#    0.000    0.000    0.000    0.000    0.000    0.000 
#
# Total GULP energy -792984.535747 kJ/mol
# GULP energy per Si atom -12390.383371 kJ/mol
# Density = 1.791512 g / cm^3
# Si number density = 17.955993 Si / 1000 Ang^3
#
#
#
# Elastic Constant Matrix: (Units=GPa)
#
#
# Indices 1 2 3 4 5 6 
#
# 1 42.1759 35.2707 21.3647 0.0000 0.0000 0.0000
# 2 35.2707 130.1297 34.3272 0.0000 0.0000 0.0000
# 3 21.3647 34.3272 61.6154 0.0000 0.0000 0.0000
# 4 0.0000 0.0000 0.0000 11.8982 0.0000 0.0000
# 5 0.0000 0.0000 0.0000 0.0000 26.1907 0.0000
# 6 0.0000 0.0000 0.0000 0.0000 0.0000 8.4016
#
#
#
# Elastic Compliance Matrix: (Units=1/GPa)
#
#
# Indices 1 2 3 4 5 6 
#
# 1 0.033502 -0.007053 -0.007688 0.000000 0.000000 0.000000
# 2 -0.007053 0.010493 -0.003401 0.000000 0.000000 0.000000
# 3 -0.007688 -0.003401 0.020790 0.000000 0.000000 0.000000
# 4 0.000000 0.000000 0.000000 0.084046 0.000000 0.000000
# 5 0.000000 0.000000 0.000000 0.000000 0.038182 0.000000
# 6 0.000000 0.000000 0.000000 0.000000 0.000000 0.119025
#
#
# Mechanical properties :
#
#
# Convention : Reuss Voigt Hill
#
# Bulk Modulus (GPa) = 35.08279 46.20512 40.64395
# Shear Modulus (GPa) = 14.21177 18.82866 16.52022
#
# Velocity S-wave (km/s) = 2.81637 3.24172 3.03651
# Velocity P-wave (km/s) = 5.49150 6.30872 5.91424
#
# Compressibility (1/GPa) = 0.02850401
#
# Stress axis : x y z
#
# Youngs Moduli (GPa) = 29.84858 95.29925 48.10053
#
# Poissons Ratio (x) = 0.67212 0.36977
# Poissons Ratio (y) = 0.21051 0.16357
# Poissons Ratio (z) = 0.22946 0.32407
#
# Static dielectric constant tensor:
#      x y z
#    x 2.871470 0.000000 0.000000 
#    y 0.000000 3.912380 0.000000 
#    z 0.000000 0.000000 3.298790 
# 
# 
# High freq. dielectric constant tensor:
#      x y z
#    x 1.640550 0.000000 0.000000 
#    y 0.000000 1.718280 0.000000 
#    z 0.000000 0.000000 1.691070 
# 
# From -- ./inp_files/10060.got.cif
#   From: 2010.03.12/outbox.cif.g09.slc.cpg/sg51_6_cif.got.tgz:10060.got - 2010.04.16 13:43:02.
