data_PCOD8207707
_publ_section_title
;
Structure prediction by ZEFSAII (Michael W. Deem and Ramdas Pophale) SiO2 
 PCOD8207707
Probable space group: P M M A
;
_chemical_formula_sum "Si O2"
_cell_formula_units_Z 56
_cell_length_a 18.736314
_cell_length_b 12.835848
_cell_length_c 14.211491
_cell_angle_alpha 90.000000
_cell_angle_beta 90.000000
_cell_angle_gamma 90.000000
_cell_volume 3417.813541
_symmetry_space_group_name_H-M "P M M A"
_symmetry_group_IT_number 51
_symmetry_cell_setting 'orthorhombic'
loop_
_space_group_symop_operation_xyz
x,y,z
1/2-x,-y,z
1/2+x,-y,-z
-x,y,-z
-x,-y,-z
1/2+x,y,-z
1/2-x,y,z
x,-y,z
loop_
_atom_site_type_symbol
_atom_site_label
_atom_site_fract_x
_atom_site_fract_y
_atom_site_fract_z
Si Si1 0.956517 0.383058 0.210301
Si Si2 0.599302 0.622112 0.704925
Si Si3 0.831448 0.700816 0.317961
Si Si4 0.073756 0.243324 0.960995
Si Si5 0.832073 0.881413 0.179169
Si Si6 0.332705 0.379282 0.100723
Si Si7 0.332589 0.380710 0.482919
O O1 0.979229 0.500000 0.188532
O O2 0.881657 0.380582 0.264524
O O3 0.951706 0.330693 0.110293
O O4 0.020513 0.332324 0.272018
O O5 0.596958 0.500000 0.686627
O O6 0.653182 0.647728 0.790063
O O7 0.626160 0.669857 0.606020
O O8 0.750000 0.665908 0.299403
O O9 0.846729 0.815317 0.274519
O O10 0.848828 0.695108 0.428718
O O11 0.119712 0.155355 0.908158
O O12 0.121024 0.299431 0.039798
O O13 0.000000 0.192598 0.000000
O O14 0.750000 0.869272 0.147748
O O15 0.851381 0.000000 0.203712
O O16 0.250000 0.360080 0.077683
O O17 0.353404 0.500000 0.079299
O O18 0.250000 0.379460 0.456302
O O19 0.355987 0.500000 0.506987
#
# Coordination Sequence:
#
# PCOD8207707 Si02
#       7
#     8   8   8   8   8   8   8
#     4  10  19  29  43  65  97 132 160 191 226 266
#     4   9  17  28  42  63  94 133 166 189 218 256
#     4   9  18  31  47  68  91 118 151 191 241 287
#     4  11  20  31  48  70  96 123 158 195 238 280
#     4   9  19  36  54  71  91 114 148 197 246 292
#     4  10  19  30  45  67  98 136 170 194 220 264
#     4   9  16  27  44  67  96 126 157 192 224 264
#
# _framework density 16.384744999999999
#
# number of rings (size 3 to 8) (size 9 to 14) (size 15 to 20)
#    0.000    2.429    1.429    1.714    0.000    4.571 
#    0.000    2.143    0.000    0.000    0.000    9.000 
#    0.000    4.571    0.000    0.000    0.000    0.000 
#
# Total GULP energy -694100.805551 kJ/mol
# GULP energy per Si atom -12394.657242 kJ/mol
# Density = 1.634745 g / cm^3
# Si number density = 16.384745 Si / 1000 Ang^3
#
#
#
# Elastic Constant Matrix: (Units=GPa)
#
#
# Indices 1 2 3 4 5 6 
#
# 1 87.2700 30.1834 48.3124 0.0000 0.0000 0.0000
# 2 30.1834 56.4763 34.6014 0.0000 0.0000 0.0000
# 3 48.3124 34.6014 114.5797 0.0000 0.0000 0.0000
# 4 0.0000 0.0000 0.0000 11.9992 0.0000 0.0000
# 5 0.0000 0.0000 0.0000 0.0000 32.0120 0.0000
# 6 0.0000 0.0000 0.0000 0.0000 0.0000 13.9111
#
#
#
# Elastic Compliance Matrix: (Units=1/GPa)
#
#
# Indices 1 2 3 4 5 6 
#
# 1 0.016230 -0.005498 -0.005183 0.000000 0.000000 0.000000
# 2 -0.005498 0.023589 -0.004805 0.000000 0.000000 0.000000
# 3 -0.005183 -0.004805 0.012364 0.000000 0.000000 0.000000
# 4 0.000000 0.000000 0.000000 0.083339 0.000000 0.000000
# 5 0.000000 0.000000 0.000000 0.000000 0.031238 0.000000
# 6 0.000000 0.000000 0.000000 0.000000 0.000000 0.071885
#
#
# Mechanical properties :
#
#
# Convention : Reuss Voigt Hill
#
# Bulk Modulus (GPa) = 47.14774 53.83561 50.49168
# Shear Modulus (GPa) = 18.07091 21.26636 19.66863
#
# Velocity S-wave (km/s) = 3.32461 3.60660 3.46847
# Velocity P-wave (km/s) = 6.60116 7.09027 6.85008
#
# Compressibility (1/GPa) = 0.02120992
#
# Stress axis : x y z
#
# Youngs Moduli (GPa) = 61.61606 42.39240 80.88055
#
# Poissons Ratio (x) = 0.23309 0.41918
# Poissons Ratio (y) = 0.33879 0.38864
# Poissons Ratio (z) = 0.31934 0.20370
#
# Static dielectric constant tensor:
#      x y z
#    x 3.361210 0.000000 0.000000 
#    y 0.000000 2.724210 0.000000 
#    z 0.000000 0.000000 3.190200 
# 
# 
# High freq. dielectric constant tensor:
#      x y z
#    x 1.646140 0.000000 0.000000 
#    y 0.000000 1.576460 0.000000 
#    z 0.000000 0.000000 1.636690 
# 
# From -- ./inp_files/18221.got.cif
#   From: 2010.03.12/outbox.cif.g09.slc.cpg/sg51_10_cif.got.tgz:18221.got - 2010.04.16 13:43:02.
