data_PCOD8207215
_publ_section_title
;
Structure prediction by ZEFSAII (Michael W. Deem and Ramdas Pophale) SiO2 
 PCOD8207215
Probable space group: P M M A
;
_chemical_formula_sum "Si O2"
_cell_formula_units_Z 36
_cell_length_a 8.629654
_cell_length_b 15.141737
_cell_length_c 14.618001
_cell_angle_alpha 90.000000
_cell_angle_beta 90.000000
_cell_angle_gamma 90.000000
_cell_volume 1910.104242
_symmetry_space_group_name_H-M "P M M A"
_symmetry_group_IT_number 51
_symmetry_cell_setting 'orthorhombic'
loop_
_space_group_symop_operation_xyz
x,y,z
1/2-x,-y,z
1/2+x,-y,-z
-x,y,-z
-x,-y,-z
1/2+x,y,-z
1/2-x,y,z
x,-y,z
loop_
_atom_site_type_symbol
_atom_site_label
_atom_site_fract_x
_atom_site_fract_y
_atom_site_fract_z
Si Si1 0.067375 0.680049 0.899987
Si Si2 0.567166 0.900947 0.596034
Si Si3 0.565770 0.500000 0.898749
Si Si4 0.931896 0.397869 0.401842
Si Si5 0.566864 0.252527 0.727685
O O1 0.250000 0.673946 0.909006
O O2 0.000594 0.589400 0.854666
O O3 0.014564 0.753930 0.827352
O O4 0.000000 0.701328 0.000000
O O5 0.500000 0.867602 0.500000
O O6 0.750000 0.898519 0.587779
O O7 0.509537 0.834740 0.674541
O O8 0.507860 0.000000 0.618983
O O9 0.750000 0.500000 0.896475
O O10 0.500000 0.500000 0.000000
O O11 0.750000 0.378239 0.401554
O O12 0.968122 0.500000 0.379543
O O13 0.000000 0.371363 0.500000
O O14 0.015161 0.339928 0.325520
O O15 0.750000 0.253991 0.741090
#
# Coordination Sequence:
#
# PCOD8207215 Si02
#       5
#     8   8   4   8   8
#     4  11  22  37  55  77 108 143 184 230 277 324
#     4   9  19  36  58  84 113 143 177 222 275 328
#     4  10  18  32  52  74 101 136 179 224 270 316
#     4  10  21  36  52  73 106 145 184 223 267 320
#     4  11  22  35  55  81 109 143 183 226 274 329
#
# _framework density 18.84714
#
# number of rings (size 3 to 8) (size 9 to 14) (size 15 to 20)
#    0.000    1.778    0.000    6.333    1.556    4.889 
#    0.000    0.000    0.000    0.667    0.000    0.000 
#    0.000    0.000    0.000    0.000    0.000    0.000 
#
# Total GULP energy -446404.813402 kJ/mol
# GULP energy per Si atom -12400.133706 kJ/mol
# Density = 1.880424 g / cm^3
# Si number density = 18.847140 Si / 1000 Ang^3
#
#
#
# Elastic Constant Matrix: (Units=GPa)
#
#
# Indices 1 2 3 4 5 6 
#
# 1 112.9718 38.9668 47.9341 0.0000 0.0000 0.0000
# 2 38.9668 88.0692 70.0171 0.0000 0.0000 0.0000
# 3 47.9341 70.0171 138.2740 0.0000 0.0000 0.0000
# 4 0.0000 0.0000 0.0000 26.0764 0.0000 0.0000
# 5 0.0000 0.0000 0.0000 0.0000 34.7649 0.0000
# 6 0.0000 0.0000 0.0000 0.0000 0.0000 20.0790
#
#
#
# Elastic Compliance Matrix: (Units=1/GPa)
#
#
# Indices 1 2 3 4 5 6 
#
# 1 0.010840 -0.003027 -0.002225 0.000000 0.000000 0.000000
# 2 -0.003027 0.019852 -0.009003 0.000000 0.000000 0.000000
# 3 -0.002225 -0.009003 0.012562 0.000000 0.000000 0.000000
# 4 0.000000 0.000000 0.000000 0.038349 0.000000 0.000000
# 5 0.000000 0.000000 0.000000 0.000000 0.028765 0.000000
# 6 0.000000 0.000000 0.000000 0.000000 0.000000 0.049803
#
#
# Mechanical properties :
#
#
# Convention : Reuss Voigt Hill
#
# Bulk Modulus (GPa) = 67.82579 72.57232 70.19905
# Shear Modulus (GPa) = 25.82720 28.34387 27.08554
#
# Velocity S-wave (km/s) = 3.70584 3.88220 3.79504
# Velocity P-wave (km/s) = 7.37404 7.66059 7.51868
#
# Compressibility (1/GPa) = 0.01474365
#
# Stress axis : x y z
#
# Youngs Moduli (GPa) = 92.25099 50.37392 79.60590
#
# Poissons Ratio (x) = 0.15251 0.17711
# Poissons Ratio (y) = 0.27929 0.71666
# Poissons Ratio (z) = 0.20524 0.45350
#
# Static dielectric constant tensor:
#      x y z
#    x 3.409940 0.000000 0.000000 
#    y 0.000000 3.904050 0.000000 
#    z 0.000000 0.000000 3.419350 
# 
# 
# High freq. dielectric constant tensor:
#      x y z
#    x 1.743600 0.000000 0.000000 
#    y 0.000000 1.713020 0.000000 
#    z 0.000000 0.000000 1.733130 
# 
# From -- ./inp_files/20338.got.cif
#   From: 2010.03.12/outbox.cif.g09.slc.cpg/sg51_11_cif.got.tgz:20338.got - 2010.04.16 13:43:02.
