data_PCOD8207280
_publ_section_title
;
Structure prediction by ZEFSAII (Michael W. Deem and Ramdas Pophale) SiO2 
 PCOD8207280
Probable space group: P M M A
;
_chemical_formula_sum "Si O2"
_cell_formula_units_Z 52
_cell_length_a 8.910351
_cell_length_b 15.129019
_cell_length_c 19.783415
_cell_angle_alpha 90.000000
_cell_angle_beta 90.000000
_cell_angle_gamma 90.000000
_cell_volume 2666.900679
_symmetry_space_group_name_H-M "P M M A"
_symmetry_group_IT_number 51
_symmetry_cell_setting 'orthorhombic'
loop_
_space_group_symop_operation_xyz
x,y,z
1/2-x,-y,z
1/2+x,-y,-z
-x,y,-z
-x,-y,-z
1/2+x,y,-z
1/2-x,y,z
x,-y,z
loop_
_atom_site_type_symbol
_atom_site_label
_atom_site_fract_x
_atom_site_fract_y
_atom_site_fract_z
Si Si1 0.574151 0.751155 0.694746
Si Si2 0.428794 0.677273 0.573030
Si Si3 0.425819 0.399633 0.202027
Si Si4 0.917503 0.394954 0.065675
Si Si5 0.418443 0.105171 0.933927
Si Si6 0.925532 0.100249 0.798566
Si Si7 0.430780 0.500000 0.425933
O O1 0.750000 0.749578 0.676718
O O2 0.476574 0.753581 0.625661
O O3 0.527093 0.665089 0.737731
O O4 0.529815 0.839641 0.734954
O O5 0.500000 0.698094 0.500000
O O6 0.250000 0.668252 0.565799
O O7 0.503403 0.589104 0.606905
O O8 0.250000 0.395856 0.188825
O O9 0.476223 0.500000 0.220458
O O10 0.501723 0.363953 0.133872
O O11 0.750000 0.356817 0.066462
O O12 0.918223 0.500000 0.061766
O O13 0.000000 0.355067 0.000000
O O14 0.250000 0.141095 0.934293
O O15 0.496625 0.138925 0.865563
O O16 0.425132 0.000000 0.935879
O O17 0.500000 0.144564 0.000000
O O18 0.750000 0.105007 0.812932
O O19 0.977306 0.000000 0.782597
O O20 0.250000 0.500000 0.424275
O O21 0.500000 0.500000 0.500000
#
# Coordination Sequence:
#
# PCOD8207280 Si02
#       7
#     8   8   8   8   8   8   4
#     4  10  21  36  55  80 108 141 178 218 268 327
#     4  11  22  37  57  83 113 146 182 222 266 317
#     4   9  18  32  49  71 100 134 169 208 257 311
#     4   9  16  27  45  67  92 127 171 217 258 300
#     4   9  16  27  47  75 105 137 175 220 273 331
#     4   9  18  34  55  78 107 142 181 226 276 329
#     4  10  18  32  54  80 112 146 181 216 257 310
#
# _framework density 19.498287999999999
#
# number of rings (size 3 to 8) (size 9 to 14) (size 15 to 20)
#    0.000    2.462    0.000    3.923    1.077    4.923 
#    0.000    0.769    0.000    0.462    0.000    0.000 
#    0.000    0.000    0.000    0.000    0.000    0.000 
#
# Total GULP energy -644665.687097 kJ/mol
# GULP energy per Si atom -12397.417060 kJ/mol
# Density = 1.945391 g / cm^3
# Si number density = 19.498288 Si / 1000 Ang^3
#
#
#
# Elastic Constant Matrix: (Units=GPa)
#
#
# Indices 1 2 3 4 5 6 
#
# 1 111.3674 33.4665 67.7052 0.0000 0.0000 0.0000
# 2 33.4665 67.1567 51.2374 0.0000 0.0000 0.0000
# 3 67.7052 51.2374 144.9953 0.0000 0.0000 0.0000
# 4 0.0000 0.0000 0.0000 5.7853 0.0000 0.0000
# 5 0.0000 0.0000 0.0000 0.0000 37.3660 0.0000
# 6 0.0000 0.0000 0.0000 0.0000 0.0000 12.3339
#
#
#
# Elastic Compliance Matrix: (Units=1/GPa)
#
#
# Indices 1 2 3 4 5 6 
#
# 1 0.012838 -0.002497 -0.005112 0.000000 0.000000 0.000000
# 2 -0.002497 0.020873 -0.006210 0.000000 0.000000 0.000000
# 3 -0.005112 -0.006210 0.011478 0.000000 0.000000 0.000000
# 4 0.000000 0.000000 0.000000 0.172853 0.000000 0.000000
# 5 0.000000 0.000000 0.000000 0.000000 0.026762 0.000000
# 6 0.000000 0.000000 0.000000 0.000000 0.000000 0.081077
#
#
# Mechanical properties :
#
#
# Convention : Reuss Voigt Hill
#
# Bulk Modulus (GPa) = 56.97850 69.81531 63.39691
# Shear Modulus (GPa) = 13.91327 22.50438 18.20883
#
# Velocity S-wave (km/s) = 2.67416 3.40100 3.05924
# Velocity P-wave (km/s) = 6.23062 7.16282 6.71292
#
# Compressibility (1/GPa) = 0.01755048
#
# Stress axis : x y z
#
# Youngs Moduli (GPa) = 77.89658 47.90933 87.12156
#
# Poissons Ratio (x) = 0.11964 0.44537
# Poissons Ratio (y) = 0.19452 0.54101
# Poissons Ratio (z) = 0.39821 0.29751
#
# Static dielectric constant tensor:
#      x y z
#    x 3.564170 0.000000 0.000000 
#    y 0.000000 3.617290 0.000000 
#    z 0.000000 0.000000 3.545010 
# 
# 
# High freq. dielectric constant tensor:
#      x y z
#    x 1.759340 0.000000 0.000000 
#    y 0.000000 1.730900 0.000000 
#    z 0.000000 0.000000 1.758660 
# 
# From -- ./inp_files/31779.got.cif
#   From: 2010.03.12/outbox.cif.g09.slc.cpg/sg51_16_cif.got.tgz:31779.got - 2010.04.16 13:43:02.
