data_PCOD8207482
_publ_section_title
;
Structure prediction by ZEFSAII (Michael W. Deem and Ramdas Pophale) SiO2 
 PCOD8207482
Probable space group: P M M A
;
_chemical_formula_sum "Si O2"
_cell_formula_units_Z 56
_cell_length_a 14.795980
_cell_length_b 8.667327
_cell_length_c 21.976721
_cell_angle_alpha 90.000000
_cell_angle_beta 90.000000
_cell_angle_gamma 90.000000
_cell_volume 2818.329797
_symmetry_space_group_name_H-M "P M M A"
_symmetry_group_IT_number 51
_symmetry_cell_setting 'orthorhombic'
loop_
_space_group_symop_operation_xyz
x,y,z
1/2-x,-y,z
1/2+x,-y,-z
-x,y,-z
-x,-y,-z
1/2+x,y,-z
1/2-x,y,z
x,-y,z
loop_
_atom_site_type_symbol
_atom_site_label
_atom_site_fract_x
_atom_site_fract_y
_atom_site_fract_z
Si Si1 0.556320 0.823169 0.438610
Si Si2 0.853766 0.324134 0.137168
Si Si3 0.151109 0.179887 0.118496
Si Si4 0.494653 0.181503 0.211887
Si Si5 0.105267 0.826812 0.988890
Si Si6 0.750000 0.183068 0.483510
Si Si7 0.935991 0.319962 0.663209
Si Si8 0.250000 0.182858 0.379201
O O1 0.500000 0.809227 0.500000
O O2 0.659135 0.761871 0.448782
O O3 0.507629 0.718648 0.389179
O O4 0.557423 0.000000 0.415875
O O5 0.750000 0.303357 0.154817
O O6 0.885558 0.500000 0.145691
O O7 0.907545 0.214907 0.183608
O O8 0.868939 0.279464 0.067280
O O9 0.250000 0.209765 0.146677
O O10 0.078524 0.251751 0.164448
O O11 0.128181 0.000000 0.111725
O O12 0.147578 0.248382 0.050161
O O13 0.482712 0.269389 0.274649
O O14 0.482034 0.000000 0.222900
O O15 0.142435 0.000000 0.976398
O O16 0.000000 0.832401 0.000000
O O17 0.750000 0.250462 0.552116
O O18 0.750000 0.000000 0.488574
O O19 0.916890 0.500000 0.663246
O O20 0.839947 0.236418 0.655345
O O21 0.250000 0.000000 0.379745
#
# Coordination Sequence:
#
# PCOD8207482 Si02
#       8
#     8   8   8   8   8   4   8   4
#     4  10  19  38  66  94 124 163 212 259 301 358
#     4  11  24  41  61  87 121 160 201 255 321 378
#     4   9  18  33  56  87 117 147 192 248 300 351
#     4  11  23  42  65  87 115 161 213 256 301 364
#     4  10  18  34  60  89 118 151 198 252 301 361
#     4   9  18  35  65  99 125 155 210 267 302 345
#     4  12  26  42  60  93 134 169 203 254 318 374
#     4  11  21  41  69  97 125 167 212 251 296 363
#
# _framework density 19.869924999999999
#
# number of rings (size 3 to 8) (size 9 to 14) (size 15 to 20)
#    0.000    1.571    2.857    2.786    1.000    2.286 
#    1.286    0.357    0.000    0.857    0.000    0.000 
#    0.000    0.000    0.000    0.000    0.000    0.000 
#
# Total GULP energy -694442.884345 kJ/mol
# GULP energy per Si atom -12400.765792 kJ/mol
# Density = 1.982470 g / cm^3
# Si number density = 19.869925 Si / 1000 Ang^3
#
#
#
# Elastic Constant Matrix: (Units=GPa)
#
#
# Indices 1 2 3 4 5 6 
#
# 1 123.0978 29.6139 38.1537 0.0000 0.0000 0.0000
# 2 29.6139 67.2058 31.1371 0.0000 0.0000 0.0000
# 3 38.1537 31.1371 107.2974 0.0000 0.0000 0.0000
# 4 0.0000 0.0000 0.0000 21.7585 0.0000 0.0000
# 5 0.0000 0.0000 0.0000 0.0000 13.2598 0.0000
# 6 0.0000 0.0000 0.0000 0.0000 0.0000 32.3434
#
#
#
# Elastic Compliance Matrix: (Units=1/GPa)
#
#
# Indices 1 2 3 4 5 6 
#
# 1 0.009651 -0.003076 -0.002539 0.000000 0.000000 0.000000
# 2 -0.003076 0.018172 -0.004179 0.000000 0.000000 0.000000
# 3 -0.002539 -0.004179 0.011436 0.000000 0.000000 0.000000
# 4 0.000000 0.000000 0.000000 0.045959 0.000000 0.000000
# 5 0.000000 0.000000 0.000000 0.000000 0.075416 0.000000
# 6 0.000000 0.000000 0.000000 0.000000 0.000000 0.030918
#
#
# Mechanical properties :
#
#
# Convention : Reuss Voigt Hill
#
# Bulk Modulus (GPa) = 50.84247 55.04560 52.94403
# Shear Modulus (GPa) = 22.96777 26.71875 24.84326
#
# Velocity S-wave (km/s) = 3.40355 3.67097 3.53979
# Velocity P-wave (km/s) = 6.41005 6.76248 6.58862
#
# Compressibility (1/GPa) = 0.01966860
#
# Stress axis : x y z
#
# Youngs Moduli (GPa) = 103.62047 55.03115 87.44646
#
# Poissons Ratio (x) = 0.16928 0.22202
# Poissons Ratio (y) = 0.31875 0.36548
# Poissons Ratio (z) = 0.26309 0.23000
#
# Static dielectric constant tensor:
#      x y z
#    x 3.801700 0.000000 0.000000 
#    y 0.000000 3.396620 0.000000 
#    z 0.000000 0.000000 3.404940 
# 
# 
# High freq. dielectric constant tensor:
#      x y z
#    x 1.790780 0.000000 0.000000 
#    y 0.000000 1.748410 0.000000 
#    z 0.000000 0.000000 1.773670 
# 
# From -- ./inp_files/33524.got.cif
#   From: 2010.03.12/outbox.cif.g09.slc.cpg/sg51_17_cif.got.tgz:33524.got - 2010.04.16 13:43:02.
