data_PCOD8207335
_publ_section_title
;
Structure prediction by ZEFSAII (Michael W. Deem and Ramdas Pophale) SiO2 
 PCOD8207335
Probable space group: P M M A
;
_chemical_formula_sum "Si O2"
_cell_formula_units_Z 28
_cell_length_a 8.966257
_cell_length_b 9.358497
_cell_length_c 19.498589
_cell_angle_alpha 90.000000
_cell_angle_beta 90.000000
_cell_angle_gamma 90.000000
_cell_volume 1636.140042
_symmetry_space_group_name_H-M "P M M A"
_symmetry_group_IT_number 51
_symmetry_cell_setting 'orthorhombic'
loop_
_space_group_symop_operation_xyz
x,y,z
1/2-x,-y,z
1/2+x,-y,-z
-x,y,-z
-x,-y,-z
1/2+x,y,-z
1/2-x,y,z
x,-y,z
loop_
_atom_site_type_symbol
_atom_site_label
_atom_site_fract_x
_atom_site_fract_y
_atom_site_fract_z
Si Si1 0.074923 0.836231 0.930792
Si Si2 0.072673 0.000000 0.573890
Si Si3 0.419157 0.843279 0.314607
Si Si4 0.923343 0.666643 0.201186
O O1 0.250000 0.818268 0.939760
O O2 0.015732 0.743383 0.867120
O O3 0.028770 0.000000 0.917500
O O4 0.000000 0.777415 0.000000
O O5 0.000000 0.000000 0.500000
O O6 0.014712 0.141613 0.614827
O O7 0.250000 0.000000 0.568575
O O8 0.250000 0.798779 0.332776
O O9 0.489226 0.723289 0.266830
O O10 0.422093 0.000000 0.277537
O O11 0.750000 0.701861 0.211968
O O12 0.954319 0.500000 0.193335
#
# Coordination Sequence:
#
# PCOD8207335 Si02
#       4
#     8   4   8   8
#     4   9  18  32  49  69  95 130 173 221 269 313
#     4  10  18  32  56  84 111 136 167 210 252 296
#     4   9  19  33  51  78 105 134 172 212 253 303
#     4  10  20  33  50  73 102 138 178 217 261 314
#
# _framework density 17.113451000000001
#
# number of rings (size 3 to 8) (size 9 to 14) (size 15 to 20)
#    0.857    1.714    0.000    2.571    0.000    3.429 
#    0.000    2.857    0.000    0.857    0.000    0.000 
#    0.000    0.000    0.000    0.000    0.000    0.000 
#
# Total GULP energy -347070.299060 kJ/mol
# GULP energy per Si atom -12395.367824 kJ/mol
# Density = 1.707450 g / cm^3
# Si number density = 17.113451 Si / 1000 Ang^3
#
#
#
# Elastic Constant Matrix: (Units=GPa)
#
#
# Indices 1 2 3 4 5 6 
#
# 1 99.3591 41.2416 69.5651 0.0000 0.0000 0.0000
# 2 41.2416 64.6535 54.7254 0.0000 0.0000 0.0000
# 3 69.5651 54.7254 150.8908 0.0000 0.0000 0.0000
# 4 0.0000 0.0000 0.0000 8.7207 0.0000 0.0000
# 5 0.0000 0.0000 0.0000 0.0000 34.9407 0.0000
# 6 0.0000 0.0000 0.0000 0.0000 0.0000 22.1477
#
#
#
# Elastic Compliance Matrix: (Units=1/GPa)
#
#
# Indices 1 2 3 4 5 6 
#
# 1 0.016243 -0.005804 -0.005383 0.000000 0.000000 0.000000
# 2 -0.005804 0.024393 -0.006171 0.000000 0.000000 0.000000
# 3 -0.005383 -0.006171 0.011347 0.000000 0.000000 0.000000
# 4 0.000000 0.000000 0.000000 0.114669 0.000000 0.000000
# 5 0.000000 0.000000 0.000000 0.000000 0.028620 0.000000
# 6 0.000000 0.000000 0.000000 0.000000 0.000000 0.045151
#
#
# Mechanical properties :
#
#
# Convention : Reuss Voigt Hill
#
# Bulk Modulus (GPa) = 57.91791 71.77419 64.84605
# Shear Modulus (GPa) = 17.80017 23.11990 20.46004
#
# Velocity S-wave (km/s) = 3.22860 3.67955 3.46143
# Velocity P-wave (km/s) = 6.91487 7.75135 7.34503
#
# Compressibility (1/GPa) = 0.01726582
#
# Stress axis : x y z
#
# Youngs Moduli (GPa) = 61.56564 40.99545 88.12743
#
# Poissons Ratio (x) = 0.23796 0.47441
# Poissons Ratio (y) = 0.35736 0.54382
# Poissons Ratio (z) = 0.33142 0.25298
#
# Static dielectric constant tensor:
#      x y z
#    x 3.428990 0.000000 0.000000 
#    y 0.000000 2.994220 0.000000 
#    z 0.000000 0.000000 3.127190 
# 
# 
# High freq. dielectric constant tensor:
#      x y z
#    x 1.664680 0.000000 0.000000 
#    y 0.000000 1.636260 0.000000 
#    z 0.000000 0.000000 1.655710 
# 
# From -- ./inp_files/26863.got.cif
#   From: 2010.03.12/outbox.cif.g09.slc.cpg/sg51_14_cif.got.tgz:26863.got - 2010.04.16 13:43:02.
