data_PCOD8207147
_publ_section_title
;
Structure prediction by ZEFSAII (Michael W. Deem and Ramdas Pophale) SiO2 
 PCOD8207147
Probable space group: P M M A
;
_chemical_formula_sum "Si O2"
_cell_formula_units_Z 48
_cell_length_a 20.265583
_cell_length_b 8.479316
_cell_length_c 13.731893
_cell_angle_alpha 90.000000
_cell_angle_beta 90.000000
_cell_angle_gamma 90.000000
_cell_volume 2359.664904
_symmetry_space_group_name_H-M "P M M A"
_symmetry_group_IT_number 51
_symmetry_cell_setting 'orthorhombic'
loop_
_space_group_symop_operation_xyz
x,y,z
1/2-x,-y,z
1/2+x,-y,-z
-x,y,-z
-x,-y,-z
1/2+x,y,-z
1/2-x,y,z
x,-y,z
loop_
_atom_site_type_symbol
_atom_site_label
_atom_site_fract_x
_atom_site_fract_y
_atom_site_fract_z
Si Si1 0.674802 0.182156 0.896078
Si Si2 0.250000 0.314114 0.457100
Si Si3 0.250000 0.311788 0.674398
Si Si4 0.430932 0.684716 0.961990
Si Si5 0.360692 0.686142 0.309583
Si Si6 0.888314 0.688277 0.246801
Si Si7 0.999624 0.312985 0.391192
O O1 0.750000 0.224245 0.923619
O O2 0.662975 0.219657 0.783818
O O3 0.659548 0.000000 0.915580
O O4 0.627169 0.286460 0.961902
O O5 0.250000 0.500000 0.468109
O O6 0.250000 0.240174 0.565100
O O7 0.184693 0.260365 0.399799
O O8 0.250000 0.500000 0.670548
O O9 0.314683 0.249519 0.730825
O O10 0.440985 0.500000 0.948876
O O11 0.411746 0.758052 0.857116
O O12 0.500000 0.759659 0.000000
O O13 0.354256 0.500000 0.289143
O O14 0.434814 0.737487 0.334042
O O15 0.889458 0.500000 0.244903
O O16 0.937153 0.752075 0.330932
O O17 0.995698 0.500000 0.399198
O O18 0.000000 0.240071 0.500000
#
# Coordination Sequence:
#
# PCOD8207147 Si02
#       7
#     8   4   4   8   8   8   8
#     4  11  24  39  55  79 110 147 189 234 282 332
#     4   9  16  26  44  73 104 134 171 213 260 319
#     4   9  16  26  41  69 108 138 165 207 264 323
#     4  10  21  37  58  83 110 142 184 232 280 334
#     4  10  18  31  53  79 107 140 178 223 273 323
#     4   9  17  28  44  71 106 140 170 209 263 319
#     4   9  16  27  47  77 112 143 171 211 264 318
#
# _framework density 20.341871999999999
#
# number of rings (size 3 to 8) (size 9 to 14) (size 15 to 20)
#    0.000    2.333    0.833    2.500    1.167    8.000 
#    0.000    0.000    0.000    0.500    0.000    4.667 
#    0.000    0.000    0.000    0.000    0.000    0.000 
#
# Total GULP energy -595195.863046 kJ/mol
# GULP energy per Si atom -12399.913813 kJ/mol
# Density = 2.029557 g / cm^3
# Si number density = 20.341872 Si / 1000 Ang^3
#
#
#
# Elastic Constant Matrix: (Units=GPa)
#
#
# Indices 1 2 3 4 5 6 
#
# 1 186.2641 10.3334 80.9975 0.0000 0.0000 0.0000
# 2 10.3334 5.1833 3.7474 0.0000 0.0000 0.0000
# 3 80.9975 3.7474 161.3198 0.0000 0.0000 0.0000
# 4 0.0000 0.0000 0.0000 0.5843 0.0000 0.0000
# 5 0.0000 0.0000 0.0000 0.0000 38.3530 0.0000
# 6 0.0000 0.0000 0.0000 0.0000 0.0000 10.0647
#
#
#
# Elastic Compliance Matrix: (Units=1/GPa)
#
#
# Indices 1 2 3 4 5 6 
#
# 1 0.007600 -0.012604 -0.003523 0.000000 0.000000 0.000000
# 2 -0.012604 0.217126 0.001285 0.000000 0.000000 0.000000
# 3 -0.003523 0.001285 0.007938 0.000000 0.000000 0.000000
# 4 0.000000 0.000000 0.000000 1.711349 0.000000 0.000000
# 5 0.000000 0.000000 0.000000 0.000000 0.026074 0.000000
# 6 0.000000 0.000000 0.000000 0.000000 0.000000 0.099357
#
#
# Mechanical properties :
#
#
# Convention : Reuss Voigt Hill
#
# Bulk Modulus (GPa) = 4.92661 60.32486 32.62574
# Shear Modulus (GPa) = 2.30756 26.97966 14.64361
#
# Velocity S-wave (km/s) = 1.06623 3.64581 2.68596
# Velocity P-wave (km/s) = 1.98569 6.88785 5.06880
#
# Compressibility (1/GPa) = 0.20297916
#
# Stress axis : x y z
#
# Youngs Moduli (GPa) = 131.57884 4.60561 125.97702
#
# Poissons Ratio (x) = 0.05805 0.44383
# Poissons Ratio (y) = 1.65845 -0.16184
# Poissons Ratio (z) = 0.46357 -0.00592
#
# Static dielectric constant tensor:
#      x y z
#    x 3.956230 0.000000 0.000000 
#    y 0.000000 2.978040 0.000000 
#    z 0.000000 0.000000 3.920260 
# 
# 
# High freq. dielectric constant tensor:
#      x y z
#    x 1.814360 0.000000 0.000000 
#    y 0.000000 1.724420 0.000000 
#    z 0.000000 0.000000 1.808750 
# 
# From -- ./inp_files/24906.got.cif
#   From: 2010.03.12/outbox.cif.g09.slc.cpg/sg51_13_cif.got.tgz:24906.got - 2010.04.16 13:43:02.
