data_PCOD8207170
_publ_section_title
;
Structure prediction by ZEFSAII (Michael W. Deem and Ramdas Pophale) SiO2 
 PCOD8207170
Probable space group: P M M A
;
_chemical_formula_sum "Si O2"
_cell_formula_units_Z 48
_cell_length_a 18.453750
_cell_length_b 13.910357
_cell_length_c 9.666804
_cell_angle_alpha 90.000000
_cell_angle_beta 90.000000
_cell_angle_gamma 90.000000
_cell_volume 2481.451675
_symmetry_space_group_name_H-M "P M M A"
_symmetry_group_IT_number 51
_symmetry_cell_setting 'orthorhombic'
loop_
_space_group_symop_operation_xyz
x,y,z
1/2-x,-y,z
1/2+x,-y,-z
-x,y,-z
-x,-y,-z
1/2+x,y,-z
1/2-x,y,z
x,-y,z
loop_
_atom_site_type_symbol
_atom_site_label
_atom_site_fract_x
_atom_site_fract_y
_atom_site_fract_z
Si Si1 0.455836 0.611628 0.635700
Si Si2 0.330525 0.306837 0.491271
Si Si3 0.830133 0.106203 0.416121
Si Si4 0.985651 0.891759 0.339723
Si Si5 0.334078 0.387979 0.198647
Si Si6 0.535006 0.272072 0.855185
O O1 0.500000 0.643676 0.500000
O O2 0.442451 0.500000 0.641788
O O3 0.378691 0.664483 0.622983
O O4 0.492560 0.642571 0.778270
O O5 0.250000 0.339777 0.528856
O O6 0.334594 0.190746 0.468550
O O7 0.356269 0.365183 0.356786
O O8 0.750000 0.113333 0.342177
O O9 0.898436 0.118931 0.311187
O O10 0.837663 0.000000 0.486754
O O11 0.000000 0.864973 0.500000
O O12 0.032510 0.822093 0.242078
O O13 0.011491 0.000000 0.307940
O O14 0.250000 0.363712 0.169686
O O15 0.350693 0.500000 0.167362
O O16 0.384447 0.314584 0.111697
O O17 0.500000 0.244194 0.000000
#
# Coordination Sequence:
#
# PCOD8207170 Si02
#       6
#     8   8   8   8   8   8
#     4  11  21  35  56  80 109 146 191 244 289 340
#     4  10  18  31  55  85 114 143 186 247 304 346
#     4   9  17  30  51  81 114 147 184 231 289 350
#     4  10  20  37  62  88 116 152 196 245 294 345
#     4  10  21  38  59  82 112 154 200 242 292 354
#     4  12  24  38  58  86 120 158 193 237 293 353
#
# _framework density 19.343516999999999
#
# number of rings (size 3 to 8) (size 9 to 14) (size 15 to 20)
#    0.000    1.667    3.333    2.500    0.000    2.667 
#    0.000    1.667    0.000    0.500    0.000    0.000 
#    0.000    0.000    0.000    0.000    0.000    0.000 
#
# Total GULP energy -594712.390475 kJ/mol
# GULP energy per Si atom -12389.841468 kJ/mol
# Density = 1.929949 g / cm^3
# Si number density = 19.343517 Si / 1000 Ang^3
#
#
#
# Elastic Constant Matrix: (Units=GPa)
#
#
# Indices 1 2 3 4 5 6 
#
# 1 96.0294 37.9672 25.3486 0.0000 0.0000 0.0000
# 2 37.9672 125.2106 36.7139 0.0000 0.0000 0.0000
# 3 25.3486 36.7139 66.6870 0.0000 0.0000 0.0000
# 4 0.0000 0.0000 0.0000 10.4343 0.0000 0.0000
# 5 0.0000 0.0000 0.0000 0.0000 18.5113 0.0000
# 6 0.0000 0.0000 0.0000 0.0000 0.0000 26.2851
#
#
#
# Elastic Compliance Matrix: (Units=1/GPa)
#
#
# Indices 1 2 3 4 5 6 
#
# 1 0.012360 -0.002827 -0.003142 0.000000 0.000000 0.000000
# 2 -0.002827 0.010170 -0.004525 0.000000 0.000000 0.000000
# 3 -0.003142 -0.004525 0.018681 0.000000 0.000000 0.000000
# 4 0.000000 0.000000 0.000000 0.095838 0.000000 0.000000
# 5 0.000000 0.000000 0.000000 0.000000 0.054021 0.000000
# 6 0.000000 0.000000 0.000000 0.000000 0.000000 0.038044
#
#
# Mechanical properties :
#
#
# Convention : Reuss Voigt Hill
#
# Bulk Modulus (GPa) = 49.44492 54.22071 51.83282
# Shear Modulus (GPa) = 19.46706 23.57263 21.51984
#
# Velocity S-wave (km/s) = 3.17580 3.49468 3.33905
# Velocity P-wave (km/s) = 6.25017 6.66145 6.45909
#
# Compressibility (1/GPa) = 0.02022452
#
# Stress axis : x y z
#
# Youngs Moduli (GPa) = 80.90292 98.32443 53.53066
#
# Poissons Ratio (x) = 0.27793 0.16820
# Poissons Ratio (y) = 0.22869 0.24221
# Poissons Ratio (z) = 0.25421 0.44490
#
# Static dielectric constant tensor:
#      x y z
#    x 4.053790 0.000000 0.000000 
#    y 0.000000 3.736270 0.000000 
#    z 0.000000 0.000000 2.949650 
# 
# 
# High freq. dielectric constant tensor:
#      x y z
#    x 1.776190 0.000000 0.000000 
#    y 0.000000 1.774810 0.000000 
#    z 0.000000 0.000000 1.673190 
# 
# From -- ./inp_files/10811.got.cif
#   From: 2010.03.12/outbox.cif.g09.slc.cpg/sg51_6_cif.got.tgz:10811.got - 2010.04.16 13:43:02.
