data_PCOD8207852
_publ_section_title
;
Structure prediction by ZEFSAII (Michael W. Deem and Ramdas Pophale) SiO2 
 PCOD8207852
Probable space group: P M M A
;
_chemical_formula_sum "Si O2"
_cell_formula_units_Z 64
_cell_length_a 9.540765
_cell_length_b 14.772834
_cell_length_c 25.673475
_cell_angle_alpha 90.000000
_cell_angle_beta 90.000000
_cell_angle_gamma 90.000000
_cell_volume 3618.525793
_symmetry_space_group_name_H-M "P M M A"
_symmetry_group_IT_number 51
_symmetry_cell_setting 'orthorhombic'
loop_
_space_group_symop_operation_xyz
x,y,z
1/2-x,-y,z
1/2+x,-y,-z
-x,y,-z
-x,-y,-z
1/2+x,y,-z
1/2-x,y,z
x,-y,z
loop_
_atom_site_type_symbol
_atom_site_label
_atom_site_fract_x
_atom_site_fract_y
_atom_site_fract_z
Si Si1 0.903176 0.601975 0.127519
Si Si2 0.416313 0.898451 0.161481
Si Si3 0.597273 0.338395 0.956170
Si Si4 0.090349 0.895080 0.354688
Si Si5 0.586665 0.774256 0.744839
Si Si6 0.596185 0.869075 0.954973
Si Si7 0.589268 0.398813 0.249540
Si Si8 0.909406 0.107762 0.451739
O O1 0.750000 0.643391 0.113914
O O2 0.910149 0.500000 0.106482
O O3 0.929524 0.604028 0.188168
O O4 0.025599 0.657919 0.100245
O O5 0.250000 0.889788 0.161943
O O6 0.474064 0.823412 0.202706
O O7 0.472350 0.880576 0.102664
O O8 0.462025 0.000000 0.178746
O O9 0.750000 0.386090 0.954788
O O10 0.616757 0.234552 0.970213
O O11 0.500000 0.386065 0.000000
O O12 0.250000 0.879488 0.373839
O O13 0.058728 0.842739 0.301923
O O14 0.985072 0.859050 0.399049
O O15 0.063463 0.000000 0.342766
O O16 0.750000 0.751307 0.751397
O O17 0.508383 0.681206 0.729030
O O18 0.750000 0.915944 0.955482
O O19 0.500000 0.914683 0.000000
O O20 0.750000 0.380483 0.265744
O O21 0.544551 0.500000 0.269432
O O22 0.750000 0.145517 0.453774
O O23 0.000000 0.146296 0.500000
O O24 0.907566 0.000000 0.454085
#
# Coordination Sequence:
#
# PCOD8207852 Si02
#       8
#     8   8   8   8   8   8   8   8
#     4   9  18  32  47  62  81 105 134 170 216 272
#     4   9  17  30  48  69  93 121 152 187 231 283
#     4  10  19  30  44  62  83 106 134 169 211 262
#     4   9  17  29  45  68 101 138 172 206 245 288
#     4  10  19  31  50  74  97 124 161 201 238 281
#     4   9  18  31  46  63  82 107 142 183 224 267
#     4   9  19  35  52  69  91 120 151 187 238 293
#     4   9  16  26  42  65  95 134 178 218 251 283
#
# _framework density 17.686762000000002
#
# number of rings (size 3 to 8) (size 9 to 14) (size 15 to 20)
#    0.000    2.750    0.000    2.625    0.000    6.500 
#    0.000    1.875    0.000    1.875    0.000    0.000 
#    0.000    0.500    0.000    1.625    0.000    2.375 
#
# Total GULP energy -793111.805831 kJ/mol
# GULP energy per Si atom -12392.371966 kJ/mol
# Density = 1.764651 g / cm^3
# Si number density = 17.686762 Si / 1000 Ang^3
#
#
#
# Elastic Constant Matrix: (Units=GPa)
#
#
# Indices 1 2 3 4 5 6 
#
# 1 101.0597 31.0155 50.3576 0.0000 0.0000 0.0000
# 2 31.0155 66.7440 27.5657 0.0000 0.0000 0.0000
# 3 50.3576 27.5657 90.7091 0.0000 0.0000 0.0000
# 4 0.0000 0.0000 0.0000 -0.7045 0.0000 0.0000
# 5 0.0000 0.0000 0.0000 0.0000 28.1399 0.0000
# 6 0.0000 0.0000 0.0000 0.0000 0.0000 -1.9681
#
#
#
# Elastic Compliance Matrix: (Units=1/GPa)
#
#
# Indices 1 2 3 4 5 6 
#
# 1 0.014519 -0.003909 -0.006873 0.000000 0.000000 0.000000
# 2 -0.003909 0.018185 -0.003356 0.000000 0.000000 0.000000
# 3 -0.006873 -0.003356 0.015860 0.000000 0.000000 0.000000
# 4 0.000000 0.000000 0.000000 -1.419364 0.000000 0.000000
# 5 0.000000 0.000000 0.000000 0.000000 0.035537 0.000000
# 6 0.000000 0.000000 0.000000 0.000000 0.000000 -0.508094
#
#
# Mechanical properties :
#
#
# Convention : Reuss Voigt Hill
#
# Bulk Modulus (GPa) = 49.28852 52.93227 51.11040
# Shear Modulus (GPa) = -2.76500 15.06504 6.15002
#
# Velocity S-wave (km/s) = -1.25168 2.92167 1.86674
# Velocity P-wave (km/s) = 5.08321 6.43228 5.79712
#
# Compressibility (1/GPa) = 0.02028870
#
# Stress axis : x y z
#
# Youngs Moduli (GPa) = 68.87371 54.98993 63.05305
#
# Poissons Ratio (x) = 0.21493 0.43334
# Poissons Ratio (y) = 0.26920 0.21163
# Poissons Ratio (z) = 0.47335 0.18457
#
# Static dielectric constant tensor:
#      x y z
#    x 3.484560 0.000000 0.000000 
#    y 0.000000 3.288490 0.000000 
#    z 0.000000 0.000000 3.145900 
# 
# 
# High freq. dielectric constant tensor:
#      x y z
#    x 1.676370 0.000000 0.000000 
#    y 0.000000 1.660250 0.000000 
#    z 0.000000 0.000000 1.662320 
# 
# From -- ./inp_files/36458.got.cif
#   From: 2010.03.12/outbox.cif.g09.slc.cpg/sg51_19_cif.got.tgz:36458.got - 2010.04.16 13:43:02.
