data_PCOD8207536
_publ_section_title
;
Structure prediction by ZEFSAII (Michael W. Deem and Ramdas Pophale) SiO2 
 PCOD8207536
Probable space group: P M M A
;
_chemical_formula_sum "Si O2"
_cell_formula_units_Z 64
_cell_length_a 26.480190
_cell_length_b 9.128119
_cell_length_c 18.061784
_cell_angle_alpha 90.000000
_cell_angle_beta 90.000000
_cell_angle_gamma 90.000000
_cell_volume 4365.791936
_symmetry_space_group_name_H-M "P M M A"
_symmetry_group_IT_number 51
_symmetry_cell_setting 'orthorhombic'
loop_
_space_group_symop_operation_xyz
x,y,z
1/2-x,-y,z
1/2+x,-y,-z
-x,y,-z
-x,-y,-z
1/2+x,y,-z
1/2-x,y,z
x,-y,z
loop_
_atom_site_type_symbol
_atom_site_label
_atom_site_fract_x
_atom_site_fract_y
_atom_site_fract_z
Si Si1 0.451898 0.839106 0.552286
Si Si2 0.900418 0.171307 0.910363
Si Si3 0.691607 0.329390 0.666243
Si Si4 0.048770 0.837780 0.948257
Si Si5 0.490762 0.331138 0.165505
Si Si6 0.104633 0.173639 0.411927
Si Si7 0.693079 0.831369 0.816288
Si Si8 0.987795 0.330634 0.662932
O O1 0.500000 0.850262 0.500000
O O2 0.406087 0.788998 0.498536
O O3 0.462826 0.724297 0.617719
O O4 0.440832 0.000000 0.586681
O O5 0.938886 0.253823 0.856670
O O6 0.843580 0.206950 0.884605
O O7 0.913464 0.000000 0.903371
O O8 0.906246 0.218558 0.997025
O O9 0.750000 0.300502 0.646974
O O10 0.677920 0.500000 0.664382
O O11 0.658721 0.243648 0.605880
O O12 0.678235 0.269682 0.747412
O O13 0.039334 0.731718 0.878798
O O14 0.060746 0.000000 0.917287
O O15 0.000000 0.840844 0.000000
O O16 0.485457 0.500000 0.145055
O O17 0.500636 0.305357 0.251693
O O18 0.062129 0.240918 0.358245
O O19 0.105335 0.000000 0.398464
O O20 0.750000 0.799000 0.843172
O O21 0.686810 0.000000 0.791301
O O22 0.978125 0.500000 0.644260
#
# Coordination Sequence:
#
# PCOD8207536 Si02
#       8
#     8   8   8   8   8   8   8   8
#     4   8  16  29  42  58  79 103 133 166 197 233
#     4   9  17  28  41  57  77 103 135 165 195 233
#     4  10  20  31  42  59  83 108 136 170 202 233
#     4   8  15  27  40  54  74 101 131 162 196 233
#     4  10  19  27  37  57  81 104 133 164 194 231
#     4  10  19  30  44  60  79 106 139 169 198 236
#     4   9  17  29  44  60  79 105 135 166 199 233
#     4  10  19  28  40  60  84 108 134 164 199 239
#
# _framework density 14.659425000000001
#
# number of rings (size 3 to 8) (size 9 to 14) (size 15 to 20)
#    0.000    2.750    0.000    3.750    0.000   10.250 
#    0.000    0.000    0.000    0.000    0.000    0.000 
#    0.000    1.000    0.000    9.000    0.000    4.250 
#
# Total GULP energy -793325.160019 kJ/mol
# GULP energy per Si atom -12395.705625 kJ/mol
# Density = 1.462606 g / cm^3
# Si number density = 14.659425 Si / 1000 Ang^3
#
#
#
# Elastic Constant Matrix: (Units=GPa)
#
#
# Indices 1 2 3 4 5 6 
#
# 1 76.9195 41.5745 50.1707 0.0000 0.0000 0.0000
# 2 41.5745 86.4792 53.6790 0.0000 0.0000 0.0000
# 3 50.1707 53.6790 82.8481 0.0000 0.0000 0.0000
# 4 0.0000 0.0000 0.0000 22.4747 0.0000 0.0000
# 5 0.0000 0.0000 0.0000 0.0000 27.6626 0.0000
# 6 0.0000 0.0000 0.0000 0.0000 0.0000 18.2450
#
#
#
# Elastic Compliance Matrix: (Units=1/GPa)
#
#
# Indices 1 2 3 4 5 6 
#
# 1 0.022248 -0.003902 -0.010945 0.000000 0.000000 0.000000
# 2 -0.003902 0.020027 -0.010613 0.000000 0.000000 0.000000
# 3 -0.010945 -0.010613 0.025574 0.000000 0.000000 0.000000
# 4 0.000000 0.000000 0.000000 0.044494 0.000000 0.000000
# 5 0.000000 0.000000 0.000000 0.000000 0.036150 0.000000
# 6 0.000000 0.000000 0.000000 0.000000 0.000000 0.054810
#
#
# Mechanical properties :
#
#
# Convention : Reuss Voigt Hill
#
# Bulk Modulus (GPa) = 59.06594 59.67727 59.37161
# Shear Modulus (GPa) = 19.24062 20.39797 19.81929
#
# Velocity S-wave (km/s) = 3.62679 3.73427 3.68092
# Velocity P-wave (km/s) = 7.61037 7.70653 7.65860
#
# Compressibility (1/GPa) = 0.01693023
#
# Stress axis : x y z
#
# Youngs Moduli (GPa) = 44.94690 49.93256 39.10162
#
# Poissons Ratio (x) = 0.19485 0.42796
# Poissons Ratio (y) = 0.17540 0.41498
# Poissons Ratio (z) = 0.49193 0.52992
#
# Static dielectric constant tensor:
#      x y z
#    x 2.878770 0.000000 0.000000 
#    y 0.000000 2.968690 0.000000 
#    z 0.000000 0.000000 2.966600 
# 
# 
# High freq. dielectric constant tensor:
#      x y z
#    x 1.530140 0.000000 0.000000 
#    y 0.000000 1.571640 0.000000 
#    z 0.000000 0.000000 1.545100 
# 
# From -- ./inp_files/30979.got.cif
#   From: 2010.03.12/outbox.cif.g09.slc.cpg/sg51_16_cif.got.tgz:30979.got - 2010.04.16 13:43:02.
