data_PCOD8207708
_publ_section_title
;
Structure prediction by ZEFSAII (Michael W. Deem and Ramdas Pophale) SiO2 
 PCOD8207708
Probable space group: P M M A
;
_chemical_formula_sum "Si O2"
_cell_formula_units_Z 56
_cell_length_a 9.082674
_cell_length_b 20.339567
_cell_length_c 15.451255
_cell_angle_alpha 90.000000
_cell_angle_beta 90.000000
_cell_angle_gamma 90.000000
_cell_volume 2854.428637
_symmetry_space_group_name_H-M "P M M A"
_symmetry_group_IT_number 51
_symmetry_cell_setting 'orthorhombic'
loop_
_space_group_symop_operation_xyz
x,y,z
1/2-x,-y,z
1/2+x,-y,-z
-x,y,-z
-x,-y,-z
1/2+x,y,-z
1/2-x,y,z
x,-y,z
loop_
_atom_site_type_symbol
_atom_site_label
_atom_site_fract_x
_atom_site_fract_y
_atom_site_fract_z
Si Si1 0.918648 0.614742 0.914128
Si Si2 0.578293 0.211729 0.308090
Si Si3 0.918189 0.425147 0.256872
Si Si4 0.077136 0.887640 0.918159
Si Si5 0.919053 0.238142 0.862833
Si Si6 0.422964 0.929734 0.728324
Si Si7 0.580109 0.334737 0.412273
O O1 0.750000 0.592089 0.918881
O O2 0.932989 0.693057 0.910994
O O3 0.988448 0.582250 0.829700
O O4 0.000000 0.588576 0.000000
O O5 0.750000 0.210212 0.279387
O O6 0.484572 0.245904 0.233228
O O7 0.521873 0.135835 0.322852
O O8 0.555923 0.256753 0.392709
O O9 0.750000 0.404662 0.236339
O O10 0.928397 0.500000 0.289500
O O11 0.981842 0.378737 0.333269
O O12 0.250000 0.885979 0.933851
O O13 0.035306 0.924175 0.829498
O O14 0.015630 0.813679 0.915641
O O15 0.000000 0.923782 0.000000
O O16 0.750000 0.214527 0.857018
O O17 0.250000 0.933876 0.717209
O O18 0.490828 0.000000 0.694474
O O19 0.500000 0.354101 0.500000
O O20 0.750000 0.351114 0.426047
#
# Coordination Sequence:
#
# PCOD8207708 Si02
#       7
#     8   8   8   8   8   8   8
#     4  11  23  36  55  82 112 150 192 234 278 325
#     4   9  17  32  55  79 106 141 176 221 273 320
#     4  10  22  41  62  83 113 150 185 227 277 327
#     4  10  19  29  43  65  97 136 179 227 277 323
#     4  10  19  31  50  76 104 138 181 227 277 324
#     4   8  15  28  47  71  98 133 178 222 269 324
#     4  10  21  37  60  89 116 144 181 223 275 334
#
# _framework density 19.618638000000001
#
# number of rings (size 3 to 8) (size 9 to 14) (size 15 to 20)
#    0.000    2.286    1.429    2.571    0.000    5.143 
#    0.000    0.000    0.000   10.714    0.000    0.000 
#    0.000    0.000    0.000    0.000    0.000    0.000 
#
# Total GULP energy -694094.603614 kJ/mol
# GULP energy per Si atom -12394.546493 kJ/mol
# Density = 1.957399 g / cm^3
# Si number density = 19.618638 Si / 1000 Ang^3
#
#
#
# Elastic Constant Matrix: (Units=GPa)
#
#
# Indices 1 2 3 4 5 6 
#
# 1 65.0886 29.9630 38.5993 0.0000 0.0000 0.0000
# 2 29.9630 102.1679 42.0976 0.0000 0.0000 0.0000
# 3 38.5993 42.0976 107.7471 0.0000 0.0000 0.0000
# 4 0.0000 0.0000 0.0000 10.0604 0.0000 0.0000
# 5 0.0000 0.0000 0.0000 0.0000 31.7113 0.0000
# 6 0.0000 0.0000 0.0000 0.0000 0.0000 15.2581
#
#
#
# Elastic Compliance Matrix: (Units=1/GPa)
#
#
# Indices 1 2 3 4 5 6 
#
# 1 0.020544 -0.003567 -0.005966 0.000000 0.000000 0.000000
# 2 -0.003567 0.012285 -0.003522 0.000000 0.000000 0.000000
# 3 -0.005966 -0.003522 0.012794 0.000000 0.000000 0.000000
# 4 0.000000 0.000000 0.000000 0.099400 0.000000 0.000000
# 5 0.000000 0.000000 0.000000 0.000000 0.031535 0.000000
# 6 0.000000 0.000000 0.000000 0.000000 0.000000 0.065539
#
#
# Mechanical properties :
#
#
# Convention : Reuss Voigt Hill
#
# Bulk Modulus (GPa) = 51.24673 55.14703 53.19688
# Shear Modulus (GPa) = 18.20100 22.36221 20.28160
#
# Velocity S-wave (km/s) = 3.04919 3.37982 3.21875
# Velocity P-wave (km/s) = 6.21087 6.58798 6.40220
#
# Compressibility (1/GPa) = 0.01951344
#
# Stress axis : x y z
#
# Youngs Moduli (GPa) = 48.67718 81.39958 78.15923
#
# Poissons Ratio (x) = 0.29032 0.46630
# Poissons Ratio (y) = 0.17361 0.27529
# Poissons Ratio (z) = 0.29041 0.28670
#
# Static dielectric constant tensor:
#      x y z
#    x 3.479200 0.000000 0.000000 
#    y 0.000000 3.819330 0.000000 
#    z 0.000000 0.000000 3.328650 
# 
# 
# High freq. dielectric constant tensor:
#      x y z
#    x 1.747360 0.000000 0.000000 
#    y 0.000000 1.772050 0.000000 
#    z 0.000000 0.000000 1.737300 
# 
# From -- ./inp_files/21860.got.cif
#   From: 2010.03.12/outbox.cif.g09.slc.cpg/sg51_11_cif.got.tgz:21860.got - 2010.04.16 13:43:02.
