data_PCOD8207380
_publ_section_title
;
Structure prediction by ZEFSAII (Michael W. Deem and Ramdas Pophale) SiO2 
 PCOD8207380
Probable space group: P M M A
;
_chemical_formula_sum "Si O2"
_cell_formula_units_Z 64
_cell_length_a 8.988001
_cell_length_b 19.561571
_cell_length_c 20.795549
_cell_angle_alpha 90.000000
_cell_angle_beta 90.000000
_cell_angle_gamma 90.000000
_cell_volume 3656.261358
_symmetry_space_group_name_H-M "P M M A"
_symmetry_group_IT_number 51
_symmetry_cell_setting 'orthorhombic'
loop_
_space_group_symop_operation_xyz
x,y,z
1/2-x,-y,z
1/2+x,-y,-z
-x,y,-z
-x,-y,-z
1/2+x,y,-z
1/2-x,y,z
x,-y,z
loop_
_atom_site_type_symbol
_atom_site_label
_atom_site_fract_x
_atom_site_fract_y
_atom_site_fract_z
Si Si1 0.925988 0.784775 0.812869
Si Si2 0.921464 0.076019 0.368788
Si Si3 0.425853 0.925318 0.235228
Si Si4 0.923975 0.213041 0.434149
Si Si5 0.077564 0.713660 0.317650
Si Si6 0.577468 0.578219 0.123988
Si Si7 0.080725 0.423767 0.255905
Si Si8 0.426857 0.701926 0.065001
O O1 0.750000 0.778325 0.814805
O O2 0.978113 0.864537 0.812354
O O3 0.982971 0.748017 0.748106
O O4 0.989515 0.748613 0.876523
O O5 0.750000 0.082162 0.348395
O O6 0.962630 0.133178 0.421331
O O7 0.017186 0.091263 0.306083
O O8 0.956498 0.000000 0.396500
O O9 0.250000 0.925785 0.239881
O O10 0.484383 0.000000 0.211276
O O11 0.750000 0.225145 0.441014
O O12 0.000000 0.235991 0.500000
O O13 0.982017 0.260442 0.377012
O O14 0.250000 0.732262 0.329408
O O15 0.053023 0.631758 0.311827
O O16 0.750000 0.597602 0.117565
O O17 0.547364 0.500000 0.104395
O O18 0.528268 0.591476 0.197055
O O19 0.481187 0.624469 0.075977
O O20 0.250000 0.416230 0.229943
O O21 0.053109 0.500000 0.284087
O O22 0.250000 0.703968 0.059010
O O23 0.500000 0.730979 0.000000
#
# Coordination Sequence:
#
# PCOD8207380 Si02
#       8
#     8   8   8   8   8   8   8   8
#     4   9  17  31  52  77 103 131 167 210 257 300
#     4   9  18  32  48  70 102 135 167 205 249 296
#     4   9  16  28  50  77 101 129 167 207 248 298
#     4  11  23  36  51  74 103 139 175 212 255 304
#     4  10  18  33  55  78 104 134 168 212 256 303
#     4  10  20  33  50  75 106 138 172 209 249 299
#     4   9  17  31  53  79 105 136 171 207 253 304
#     4  11  22  37  53  73 102 138 175 215 259 307
#
# _framework density 17.504218999999999
#
# number of rings (size 3 to 8) (size 9 to 14) (size 15 to 20)
#    0.000    2.250    2.500    1.125    0.000    2.250 
#    0.000    1.250    0.000    0.750    0.000    0.000 
#    0.000    0.000    0.000    0.000    0.000    0.125 
#
# Total GULP energy -793422.643825 kJ/mol
# GULP energy per Si atom -12397.228810 kJ/mol
# Density = 1.746438 g / cm^3
# Si number density = 17.504219 Si / 1000 Ang^3
#
#
#
# Elastic Constant Matrix: (Units=GPa)
#
#
# Indices 1 2 3 4 5 6 
#
# 1 54.0983 35.9304 38.6170 0.0000 0.0000 0.0000
# 2 35.9304 111.5018 65.5436 0.0000 0.0000 0.0000
# 3 38.6170 65.5436 118.5461 0.0000 0.0000 0.0000
# 4 0.0000 0.0000 0.0000 22.7544 0.0000 0.0000
# 5 0.0000 0.0000 0.0000 0.0000 27.4571 0.0000
# 6 0.0000 0.0000 0.0000 0.0000 0.0000 20.2070
#
#
#
# Elastic Compliance Matrix: (Units=1/GPa)
#
#
# Indices 1 2 3 4 5 6 
#
# 1 0.025843 -0.005006 -0.005651 0.000000 0.000000 0.000000
# 2 -0.005006 0.014256 -0.006252 0.000000 0.000000 0.000000
# 3 -0.005651 -0.006252 0.013733 0.000000 0.000000 0.000000
# 4 0.000000 0.000000 0.000000 0.043947 0.000000 0.000000
# 5 0.000000 0.000000 0.000000 0.000000 0.036420 0.000000
# 6 0.000000 0.000000 0.000000 0.000000 0.000000 0.049488
#
#
# Mechanical properties :
#
#
# Convention : Reuss Voigt Hill
#
# Bulk Modulus (GPa) = 49.96065 62.70314 56.33190
# Shear Modulus (GPa) = 22.30379 23.68740 22.99559
#
# Velocity S-wave (km/s) = 3.57346 3.68263 3.62846
# Velocity P-wave (km/s) = 6.75501 7.34723 7.05734
#
# Compressibility (1/GPa) = 0.02001575
#
# Stress axis : x y z
#
# Youngs Moduli (GPa) = 38.69451 70.14358 72.81865
#
# Poissons Ratio (x) = 0.35115 0.41148
# Poissons Ratio (y) = 0.19371 0.45523
# Poissons Ratio (z) = 0.21865 0.43851
#
# Static dielectric constant tensor:
#      x y z
#    x 3.177690 0.000000 0.000000 
#    y 0.000000 3.671080 0.000000 
#    z 0.000000 0.000000 3.044680 
# 
# 
# High freq. dielectric constant tensor:
#      x y z
#    x 1.668070 0.000000 0.000000 
#    y 0.000000 1.686050 0.000000 
#    z 0.000000 0.000000 1.645240 
# 
# From -- ./inp_files/28360.got.cif
#   From: 2010.03.12/outbox.cif.g09.slc.cpg/sg51_15_cif.got.tgz:28360.got - 2010.04.16 13:43:02.
