data_PCOD8207828
_publ_section_title
;
Structure prediction by ZEFSAII (Michael W. Deem and Ramdas Pophale) SiO2 
 PCOD8207828
Probable space group: P M M A
;
_chemical_formula_sum "Si O2"
_cell_formula_units_Z 64
_cell_length_a 29.261273
_cell_length_b 13.567525
_cell_length_c 9.484799
_cell_angle_alpha 90.000000
_cell_angle_beta 90.000000
_cell_angle_gamma 90.000000
_cell_volume 3765.494160
_symmetry_space_group_name_H-M "P M M A"
_symmetry_group_IT_number 51
_symmetry_cell_setting 'orthorhombic'
loop_
_space_group_symop_operation_xyz
x,y,z
1/2-x,-y,z
1/2+x,-y,-z
-x,y,-z
-x,-y,-z
1/2+x,y,-z
1/2-x,y,z
x,-y,z
loop_
_atom_site_type_symbol
_atom_site_label
_atom_site_fract_x
_atom_site_fract_y
_atom_site_fract_z
Si Si1 0.448032 0.616781 0.519942
Si Si2 0.877622 0.308856 0.260174
Si Si3 0.301178 0.617429 0.540867
Si Si4 0.408973 0.110338 0.829618
Si Si5 0.869842 0.385844 0.681358
Si Si6 0.955086 0.802573 0.920057
Si Si7 0.594509 0.612722 0.970201
Si Si8 0.502805 0.112247 0.659762
O O1 0.500000 0.655290 0.500000
O O2 0.448044 0.500000 0.544607
O O3 0.424240 0.666565 0.655380
O O4 0.418209 0.650088 0.384531
O O5 0.830744 0.342859 0.329637
O O6 0.874219 0.191317 0.233477
O O7 0.880221 0.369736 0.115840
O O8 0.250000 0.660947 0.547401
O O9 0.299684 0.500000 0.547719
O O10 0.325646 0.659042 0.398424
O O11 0.454514 0.119729 0.736713
O O12 0.388485 0.000000 0.817498
O O13 0.416014 0.136176 0.996016
O O14 0.866981 0.500000 0.648564
O O15 0.868588 0.362349 0.846904
O O16 0.948102 0.685520 0.944182
O O17 0.959167 0.829730 0.754177
O O18 0.000000 0.836877 0.000000
O O19 0.576954 0.500000 0.956852
O O20 0.500000 0.156371 0.500000
O O21 0.519871 0.000000 0.649805
#
# Coordination Sequence:
#
# PCOD8207828 Si02
#       8
#     8   8   8   8   8   8   8   8
#     4   9  17  29  44  63  91 129 164 188 218 266
#     4  10  19  31  49  70  92 119 157 199 233 273
#     4   9  17  32  53  73  94 121 150 180 222 279
#     4   9  18  31  45  62  88 121 152 190 241 285
#     4   8  16  29  43  62  90 122 152 182 219 266
#     4   9  18  30  44  61  86 126 164 192 231 281
#     4  10  19  30  43  63  94 124 152 192 234 271
#     4   9  17  29  45  64  84 110 155 209 242 263
#
# _framework density 16.996441999999998
#
# number of rings (size 3 to 8) (size 9 to 14) (size 15 to 20)
#    0.000    2.875    0.000    2.250    0.000    7.250 
#    0.000    1.875    0.000    3.000    0.000    0.000 
#    0.000    0.000    0.000    0.000    0.000    0.000 
#
# Total GULP energy -792953.378682 kJ/mol
# GULP energy per Si atom -12389.896542 kJ/mol
# Density = 1.695776 g / cm^3
# Si number density = 16.996442 Si / 1000 Ang^3
#
#
#
# Elastic Constant Matrix: (Units=GPa)
#
#
# Indices 1 2 3 4 5 6 
#
# 1 96.2432 14.6494 42.0149 0.0000 0.0000 0.0000
# 2 14.6494 74.7171 23.8391 0.0000 0.0000 0.0000
# 3 42.0149 23.8391 134.8762 0.0000 0.0000 0.0000
# 4 0.0000 0.0000 0.0000 16.4980 0.0000 0.0000
# 5 0.0000 0.0000 0.0000 0.0000 13.9281 0.0000
# 6 0.0000 0.0000 0.0000 0.0000 0.0000 12.5073
#
#
#
# Elastic Compliance Matrix: (Units=1/GPa)
#
#
# Indices 1 2 3 4 5 6 
#
# 1 0.012134 -0.001243 -0.003560 0.000000 0.000000 0.000000
# 2 -0.001243 0.014311 -0.002142 0.000000 0.000000 0.000000
# 3 -0.003560 -0.002142 0.008902 0.000000 0.000000 0.000000
# 4 0.000000 0.000000 0.000000 0.060613 0.000000 0.000000
# 5 0.000000 0.000000 0.000000 0.000000 0.071797 0.000000
# 6 0.000000 0.000000 0.000000 0.000000 0.000000 0.079953
#
#
# Mechanical properties :
#
#
# Convention : Reuss Voigt Hill
#
# Bulk Modulus (GPa) = 46.60736 51.87146 49.23941
# Shear Modulus (GPa) = 18.60445 23.60890 21.10667
#
# Velocity S-wave (km/s) = 3.31208 3.73104 3.52778
# Velocity P-wave (km/s) = 6.48905 7.01043 6.75477
#
# Compressibility (1/GPa) = 0.02145584
#
# Stress axis : x y z
#
# Youngs Moduli (GPa) = 82.41518 69.87615 112.33684
#
# Poissons Ratio (x) = 0.08687 0.39992
# Poissons Ratio (y) = 0.10245 0.24065
# Poissons Ratio (z) = 0.29340 0.14969
#
# Static dielectric constant tensor:
#      x y z
#    x 2.922320 0.000000 0.000000 
#    y 0.000000 3.159020 0.000000 
#    z 0.000000 0.000000 3.402490 
# 
# 
# High freq. dielectric constant tensor:
#      x y z
#    x 1.600130 0.000000 0.000000 
#    y 0.000000 1.647010 0.000000 
#    z 0.000000 0.000000 1.670580 
# 
# From -- ./inp_files/13248.got.cif
#   From: 2010.03.12/outbox.cif.g09.slc.cpg/sg51_7_cif.got.tgz:13248.got - 2010.04.16 13:43:02.
