data_PCOD8207912
_publ_section_title
;
Structure prediction by ZEFSAII (Michael W. Deem and Ramdas Pophale) SiO2 
 PCOD8207912
Probable space group: P M M A
;
_chemical_formula_sum "Si O2"
_cell_formula_units_Z 64
_cell_length_a 8.840354
_cell_length_b 19.781721
_cell_length_c 20.957293
_cell_angle_alpha 90.000000
_cell_angle_beta 90.000000
_cell_angle_gamma 90.000000
_cell_volume 3664.957254
_symmetry_space_group_name_H-M "P M M A"
_symmetry_group_IT_number 51
_symmetry_cell_setting 'orthorhombic'
loop_
_space_group_symop_operation_xyz
x,y,z
1/2-x,-y,z
1/2+x,-y,-z
-x,y,-z
-x,-y,-z
1/2+x,y,-z
1/2-x,y,z
x,-y,z
loop_
_atom_site_type_symbol
_atom_site_label
_atom_site_fract_x
_atom_site_fract_y
_atom_site_fract_z
Si Si1 0.926940 0.788730 0.811862
Si Si2 0.925963 0.076749 0.379484
Si Si3 0.423882 0.924963 0.245850
Si Si4 0.071091 0.203596 0.434795
Si Si5 0.069864 0.714051 0.313481
Si Si6 0.429471 0.573765 0.124207
Si Si7 0.070224 0.426426 0.267957
Si Si8 0.429775 0.710880 0.065893
O O1 0.750000 0.773467 0.812947
O O2 0.962397 0.869104 0.807945
O O3 0.995141 0.751991 0.749210
O O4 0.994270 0.758767 0.877436
O O5 0.750000 0.093175 0.387183
O O6 0.971023 0.088305 0.306251
O O7 0.020540 0.126188 0.424696
O O8 0.963533 0.000000 0.400111
O O9 0.250000 0.916378 0.268548
O O10 0.451734 0.000000 0.217117
O O11 0.250000 0.206830 0.439770
O O12 0.007395 0.250021 0.377108
O O13 0.000000 0.231904 0.500000
O O14 0.250000 0.718675 0.313651
O O15 0.013330 0.635729 0.312012
O O16 0.250000 0.576106 0.126254
O O17 0.484588 0.500000 0.098544
O O18 0.490545 0.584836 0.196062
O O19 0.488370 0.634267 0.079361
O O20 0.250000 0.426054 0.266423
O O21 0.013247 0.500000 0.293839
O O22 0.250000 0.714745 0.060970
O O23 0.500000 0.736809 0.000000
#
# Coordination Sequence:
#
# PCOD8207912 Si02
#       8
#     8   8   8   8   8   8   8   8
#     4   9  15  27  47  69  90 119 157 198 237 272
#     4  10  20  33  49  72 102 131 158 190 233 285
#     4   9  16  28  49  74  95 119 156 198 239 282
#     4  11  22  35  51  70  97 130 164 201 239 282
#     4   9  15  26  46  70  92 119 157 199 239 276
#     4   8  13  22  38  62  90 119 150 185 226 272
#     4   8  12  20  39  68  96 118 149 195 240 279
#     4  10  19  30  45  64  93 126 156 192 234 279
#
# _framework density 17.462688
#
# number of rings (size 3 to 8) (size 9 to 14) (size 15 to 20)
#    0.000    2.750    2.500    1.500    0.000    1.250 
#    0.000    0.625    0.000    0.750    0.000    0.000 
#    0.000    1.500    0.000    0.000    0.000    0.125 
#
# Total GULP energy -793120.508163 kJ/mol
# GULP energy per Si atom -12392.507940 kJ/mol
# Density = 1.742294 g / cm^3
# Si number density = 17.462688 Si / 1000 Ang^3
#
#
#
# Elastic Constant Matrix: (Units=GPa)
#
#
# Indices 1 2 3 4 5 6 
#
# 1 24.9323 17.2672 20.3019 0.0000 0.0000 0.0000
# 2 17.2672 128.6975 71.8404 0.0000 0.0000 0.0000
# 3 20.3019 71.8404 126.1590 0.0000 0.0000 0.0000
# 4 0.0000 0.0000 0.0000 25.7630 0.0000 0.0000
# 5 0.0000 0.0000 0.0000 0.0000 20.4779 0.0000
# 6 0.0000 0.0000 0.0000 0.0000 0.0000 9.4378
#
#
#
# Elastic Compliance Matrix: (Units=1/GPa)
#
#
# Indices 1 2 3 4 5 6 
#
# 1 0.046961 -0.003053 -0.005819 0.000000 0.000000 0.000000
# 2 -0.003053 0.011589 -0.006108 0.000000 0.000000 0.000000
# 3 -0.005819 -0.006108 0.012341 0.000000 0.000000 0.000000
# 4 0.000000 0.000000 0.000000 0.038815 0.000000 0.000000
# 5 0.000000 0.000000 0.000000 0.000000 0.048833 0.000000
# 6 0.000000 0.000000 0.000000 0.000000 0.000000 0.105957
#
#
# Mechanical properties :
#
#
# Convention : Reuss Voigt Hill
#
# Bulk Modulus (GPa) = 24.43069 55.40088 39.91578
# Shear Modulus (GPa) = 16.22847 22.49436 19.36142
#
# Velocity S-wave (km/s) = 3.05179 3.59296 3.33337
# Velocity P-wave (km/s) = 5.14183 7.00047 6.14187
#
# Compressibility (1/GPa) = 0.04093213
#
# Stress axis : x y z
#
# Youngs Moduli (GPa) = 21.29435 86.28547 81.02936
#
# Poissons Ratio (x) = 0.26339 0.47149
# Poissons Ratio (y) = 0.06500 0.49495
# Poissons Ratio (z) = 0.12391 0.52706
#
# Static dielectric constant tensor:
#      x y z
#    x 2.770790 0.000000 0.000000 
#    y 0.000000 3.676400 0.000000 
#    z 0.000000 0.000000 3.176070 
# 
# 
# High freq. dielectric constant tensor:
#      x y z
#    x 1.624790 0.000000 0.000000 
#    y 0.000000 1.685890 0.000000 
#    z 0.000000 0.000000 1.649350 
# 
# From -- ./inp_files/28359.got.cif
#   From: 2010.03.12/outbox.cif.g09.slc.cpg/sg51_15_cif.got.tgz:28359.got - 2010.04.16 13:43:02.
