data_PCOD8207169
_publ_section_title
;
Structure prediction by ZEFSAII (Michael W. Deem and Ramdas Pophale) SiO2 
 PCOD8207169
Probable space group: P M M A
;
_chemical_formula_sum "Si O2"
_cell_formula_units_Z 40
_cell_length_a 15.028561
_cell_length_b 8.850582
_cell_length_c 15.288918
_cell_angle_alpha 90.000000
_cell_angle_beta 90.000000
_cell_angle_gamma 90.000000
_cell_volume 2033.602092
_symmetry_space_group_name_H-M "P M M A"
_symmetry_group_IT_number 51
_symmetry_cell_setting 'orthorhombic'
loop_
_space_group_symop_operation_xyz
x,y,z
1/2-x,-y,z
1/2+x,-y,-z
-x,y,-z
-x,-y,-z
1/2+x,y,-z
1/2-x,y,z
x,-y,z
loop_
_atom_site_type_symbol
_atom_site_label
_atom_site_fract_x
_atom_site_fract_y
_atom_site_fract_z
Si Si1 0.109997 0.176821 0.324566
Si Si2 0.250000 0.677740 0.654928
Si Si3 0.750000 0.320183 0.995885
Si Si4 0.936374 0.320495 0.269337
Si Si5 0.250000 0.320763 0.202304
Si Si6 0.931767 0.679759 0.071562
Si Si7 0.750000 0.826817 0.529209
O O1 0.160725 0.258788 0.245931
O O2 0.161539 0.209328 0.414896
O O3 0.010372 0.242746 0.330968
O O4 0.107951 0.000000 0.304599
O O5 0.250000 0.500000 0.664367
O O6 0.339114 0.740285 0.701733
O O7 0.250000 0.719530 0.553635
O O8 0.750000 0.500000 0.996706
O O9 0.750000 0.262527 0.896735
O O10 0.664862 0.256200 0.046852
O O11 0.943002 0.500000 0.280239
O O12 0.955344 0.268330 0.169678
O O13 0.250000 0.500000 0.209304
O O14 0.932321 0.500000 0.067107
O O15 0.000000 0.746593 0.000000
O O16 0.750000 0.000000 0.498203
#
# Coordination Sequence:
#
# PCOD8207169 Si02
#       7
#     8   4   4   8   4   8   4
#     4  10  21  37  56  79 108 141 178 221 269 321
#     4  10  22  37  55  81 112 140 172 223 276 316
#     4   9  16  26  46  76 105 136 176 221 265 309
#     4  10  20  35  55  81 111 143 179 221 269 316
#     4  10  18  31  55  84 109 138 179 226 274 318
#     4   9  16  27  46  74 106 137 173 215 255 302
#     4   9  21  40  58  77 102 136 177 218 265 329
#
# _framework density 19.669530999999999
#
# number of rings (size 3 to 8) (size 9 to 14) (size 15 to 20)
#    0.000    2.400    0.000    3.300    0.000    9.600 
#    0.000    4.000    0.000    6.600    0.000    0.000 
#    0.000    0.000    0.000    0.000    0.000    0.000 
#
# Total GULP energy -495993.267828 kJ/mol
# GULP energy per Si atom -12399.831696 kJ/mol
# Density = 1.962476 g / cm^3
# Si number density = 19.669531 Si / 1000 Ang^3
#
#
#
# Elastic Constant Matrix: (Units=GPa)
#
#
# Indices 1 2 3 4 5 6 
#
# 1 171.6822 27.7992 54.4446 0.0000 0.0000 0.0000
# 2 27.7992 37.2837 20.9528 0.0000 0.0000 0.0000
# 3 54.4446 20.9528 101.3137 0.0000 0.0000 0.0000
# 4 0.0000 0.0000 0.0000 1.1599 0.0000 0.0000
# 5 0.0000 0.0000 0.0000 0.0000 22.9358 0.0000
# 6 0.0000 0.0000 0.0000 0.0000 0.0000 18.0802
#
#
#
# Elastic Compliance Matrix: (Units=1/GPa)
#
#
# Indices 1 2 3 4 5 6 
#
# 1 0.007456 -0.003742 -0.003233 0.000000 0.000000 0.000000
# 2 -0.003742 0.032227 -0.004654 0.000000 0.000000 0.000000
# 3 -0.003233 -0.004654 0.012570 0.000000 0.000000 0.000000
# 4 0.000000 0.000000 0.000000 0.862144 0.000000 0.000000
# 5 0.000000 0.000000 0.000000 0.000000 0.043600 0.000000
# 6 0.000000 0.000000 0.000000 0.000000 0.000000 0.055309
#
#
# Mechanical properties :
#
#
# Convention : Reuss Voigt Hill
#
# Bulk Modulus (GPa) = 34.48859 57.40808 45.94834
# Shear Modulus (GPa) = 4.77907 22.24069 13.50988
#
# Velocity S-wave (km/s) = 1.56043 3.36626 2.62361
# Velocity P-wave (km/s) = 4.56275 6.66023 5.70865
#
# Compressibility (1/GPa) = 0.02899509
#
# Stress axis : x y z
#
# Youngs Moduli (GPa) = 134.12244 31.02979 79.55447
#
# Poissons Ratio (x) = 0.11613 0.25718
# Poissons Ratio (y) = 0.50195 0.37023
# Poissons Ratio (z) = 0.43358 0.14441
#
# Static dielectric constant tensor:
#      x y z
#    x 3.906030 0.000000 0.000000 
#    y 0.000000 3.150830 0.000000 
#    z 0.000000 0.000000 3.557470 
# 
# 
# High freq. dielectric constant tensor:
#      x y z
#    x 1.783720 0.000000 0.000000 
#    y 0.000000 1.725040 0.000000 
#    z 0.000000 0.000000 1.767110 
# 
# From -- ./inp_files/23880.got.cif
#   From: 2010.03.12/outbox.cif.g09.slc.cpg/sg51_12_cif.got.tgz:23880.got - 2010.04.16 13:43:02.
