data_PCOD8207576
_publ_section_title
;
Structure prediction by ZEFSAII (Michael W. Deem and Ramdas Pophale) SiO2 
 PCOD8207576
Probable space group: P M M A
;
_chemical_formula_sum "Si O2"
_cell_formula_units_Z 52
_cell_length_a 8.980597
_cell_length_b 18.299044
_cell_length_c 21.350059
_cell_angle_alpha 90.000000
_cell_angle_beta 90.000000
_cell_angle_gamma 90.000000
_cell_volume 3508.590547
_symmetry_space_group_name_H-M "P M M A"
_symmetry_group_IT_number 51
_symmetry_cell_setting 'orthorhombic'
loop_
_space_group_symop_operation_xyz
x,y,z
1/2-x,-y,z
1/2+x,-y,-z
-x,y,-z
-x,-y,-z
1/2+x,y,-z
1/2-x,y,z
x,-y,z
loop_
_atom_site_type_symbol
_atom_site_label
_atom_site_fract_x
_atom_site_fract_y
_atom_site_fract_z
Si Si1 0.571231 0.667282 0.699004
Si Si2 0.500000 0.303779 0.500000
Si Si3 0.582775 0.586320 0.939232
Si Si4 0.925871 0.415448 0.188911
Si Si5 0.912490 0.422224 0.586348
Si Si6 0.421768 0.917209 0.433682
Si Si7 0.579451 0.214250 0.378852
O O1 0.750000 0.672425 0.701505
O O2 0.507264 0.640073 0.764468
O O3 0.504863 0.611602 0.646603
O O4 0.505938 0.745471 0.677795
O O5 0.388728 0.361713 0.467744
O O6 0.574463 0.254466 0.446624
O O7 0.750000 0.619046 0.933706
O O8 0.593819 0.500000 0.946465
O O9 0.485351 0.607206 0.879053
O O10 0.500000 0.619763 0.000000
O O11 0.750000 0.403084 0.191453
O O12 0.966573 0.500000 0.204328
O O13 0.750000 0.441774 0.610537
O O14 0.989879 0.500000 0.565948
O O15 0.500000 0.908413 0.500000
O O16 0.250000 0.893892 0.441540
O O17 0.501375 0.864527 0.384091
O O18 0.436376 0.000000 0.408749
O O19 0.750000 0.204152 0.359302
#
# Coordination Sequence:
#
# PCOD8207576 Si02
#       7
#     8   4   8   8   8   8   8
#     4  10  20  32  45  60  80 108 144 179 216 260
#     4  10  19  28  41  58  78 102 132 168 211 260
#     4   9  16  26  41  61  84 110 141 178 221 263
#     4  10  19  30  44  62  85 112 146 187 226 263
#     4   9  17  28  40  53  70  95 131 173 214 255
#     4  10  20  33  50  70  89 108 132 164 205 254
#     4  11  21  32  47  64  86 110 136 170 210 257
#
# _framework density 14.820766000000001
#
# number of rings (size 3 to 8) (size 9 to 14) (size 15 to 20)
#    0.000    2.154    0.769    3.462    0.000    5.538 
#    0.000    0.000    0.000    7.385    0.000    0.000 
#    0.000    0.000    0.000    0.000    0.000    0.769 
#
# Total GULP energy -644232.230392 kJ/mol
# GULP energy per Si atom -12389.081354 kJ/mol
# Density = 1.478703 g / cm^3
# Si number density = 14.820766 Si / 1000 Ang^3
#
#
#
# Elastic Constant Matrix: (Units=GPa)
#
#
# Indices 1 2 3 4 5 6 
#
# 1 108.3491 38.7157 38.7963 0.0000 0.0000 0.0000
# 2 38.7157 81.5578 35.0316 0.0000 0.0000 0.0000
# 3 38.7963 35.0316 87.5426 0.0000 0.0000 0.0000
# 4 0.0000 0.0000 0.0000 8.2733 0.0000 0.0000
# 5 0.0000 0.0000 0.0000 0.0000 24.5546 0.0000
# 6 0.0000 0.0000 0.0000 0.0000 0.0000 17.8841
#
#
#
# Elastic Compliance Matrix: (Units=1/GPa)
#
#
# Indices 1 2 3 4 5 6 
#
# 1 0.012020 -0.004127 -0.003675 0.000000 0.000000 0.000000
# 2 -0.004127 0.016223 -0.004663 0.000000 0.000000 0.000000
# 3 -0.003675 -0.004663 0.014918 0.000000 0.000000 0.000000
# 4 0.000000 0.000000 0.000000 0.120870 0.000000 0.000000
# 5 0.000000 0.000000 0.000000 0.000000 0.040726 0.000000
# 6 0.000000 0.000000 0.000000 0.000000 0.000000 0.055916
#
#
# Mechanical properties :
#
#
# Convention : Reuss Voigt Hill
#
# Bulk Modulus (GPa) = 54.85442 55.83741 55.34592
# Shear Modulus (GPa) = 17.14200 21.13613 19.13906
#
# Velocity S-wave (km/s) = 3.40460 3.78049 3.59746
# Velocity P-wave (km/s) = 7.24895 7.53744 7.39460
#
# Compressibility (1/GPa) = 0.01823007
#
# Stress axis : x y z
#
# Youngs Moduli (GPa) = 83.19287 61.63943 67.03405
#
# Poissons Ratio (x) = 0.25441 0.24638
# Poissons Ratio (y) = 0.34337 0.31258
# Poissons Ratio (z) = 0.30577 0.28742
#
# Static dielectric constant tensor:
#      x y z
#    x 2.929220 0.000000 0.000000 
#    y 0.000000 2.880230 0.000000 
#    z 0.000000 0.000000 2.736980 
# 
# 
# High freq. dielectric constant tensor:
#      x y z
#    x 1.577950 0.000000 0.000000 
#    y 0.000000 1.538030 0.000000 
#    z 0.000000 0.000000 1.540160 
# 
# From -- ./inp_files/32251.got.cif
#   From: 2010.03.12/outbox.cif.g09.slc.cpg/sg51_17_cif.got.tgz:32251.got - 2010.04.16 13:43:02.
