data_PCOD8207238
_publ_section_title
;
Structure prediction by ZEFSAII (Michael W. Deem and Ramdas Pophale) SiO2 
 PCOD8207238
Probable space group: P M M A
;
_chemical_formula_sum "Si O2"
_cell_formula_units_Z 40
_cell_length_a 19.615534
_cell_length_b 9.121570
_cell_length_c 12.490266
_cell_angle_alpha 90.000000
_cell_angle_beta 90.000000
_cell_angle_gamma 90.000000
_cell_volume 2234.814180
_symmetry_space_group_name_H-M "P M M A"
_symmetry_group_IT_number 51
_symmetry_cell_setting 'orthorhombic'
loop_
_space_group_symop_operation_xyz
x,y,z
1/2-x,-y,z
1/2+x,-y,-z
-x,y,-z
-x,-y,-z
1/2+x,y,-z
1/2-x,y,z
x,-y,z
loop_
_atom_site_type_symbol
_atom_site_label
_atom_site_fract_x
_atom_site_fract_y
_atom_site_fract_z
Si Si1 0.103957 0.828052 0.813867
Si Si2 0.074768 0.169433 0.464918
Si Si3 0.420054 0.665249 0.021350
Si Si4 0.948138 0.832761 0.777466
Si Si5 0.170991 0.668242 0.623052
O O1 0.156041 0.757185 0.730851
O O2 0.027938 0.791334 0.772946
O O3 0.117791 0.000000 0.820898
O O4 0.118176 0.758486 0.930371
O O5 0.084488 0.192603 0.338422
O O6 0.130642 0.267332 0.522500
O O7 0.000000 0.222159 0.500000
O O8 0.085005 0.000000 0.498365
O O9 0.391840 0.500000 0.019704
O O10 0.406464 0.734188 0.138189
O O11 0.500000 0.671065 0.000000
O O12 0.940895 0.000000 0.815466
O O13 0.250000 0.683450 0.595140
O O14 0.149460 0.500000 0.640605
#
# Coordination Sequence:
#
# PCOD8207238 Si02
#       5
#     8   8   8   8   8
#     4  10  18  32  53  75 103 138 176 218 266 316
#     4  10  19  35  56  80 107 139 182 227 270 319
#     4   9  17  28  45  74 108 137 168 207 258 315
#     4   9  17  30  50  77 107 136 171 219 267 313
#     4  11  24  38  52  76 110 145 181 222 272 328
#
# _framework density 17.898579999999999
#
# number of rings (size 3 to 8) (size 9 to 14) (size 15 to 20)
#    0.000    2.200    2.000    1.800    0.000    6.000 
#    0.000    0.000    0.000    1.200    0.000    5.600 
#    0.000    0.000    0.000    0.000    0.000    0.000 
#
# Total GULP energy -496108.539824 kJ/mol
# GULP energy per Si atom -12402.713496 kJ/mol
# Density = 1.785784 g / cm^3
# Si number density = 17.898580 Si / 1000 Ang^3
#
#
#
# Elastic Constant Matrix: (Units=GPa)
#
#
# Indices 1 2 3 4 5 6 
#
# 1 55.6594 44.8557 39.0085 0.0000 0.0000 0.0000
# 2 44.8557 124.4897 65.6695 0.0000 0.0000 0.0000
# 3 39.0085 65.6695 117.3220 0.0000 0.0000 0.0000
# 4 0.0000 0.0000 0.0000 29.3478 0.0000 0.0000
# 5 0.0000 0.0000 0.0000 0.0000 20.3367 0.0000
# 6 0.0000 0.0000 0.0000 0.0000 0.0000 22.2766
#
#
#
# Elastic Compliance Matrix: (Units=1/GPa)
#
#
# Indices 1 2 3 4 5 6 
#
# 1 0.027286 -0.007160 -0.005065 0.000000 0.000000 0.000000
# 2 -0.007160 0.013277 -0.005051 0.000000 0.000000 0.000000
# 3 -0.005065 -0.005051 0.013035 0.000000 0.000000 0.000000
# 4 0.000000 0.000000 0.000000 0.034074 0.000000 0.000000
# 5 0.000000 0.000000 0.000000 0.000000 0.049172 0.000000
# 6 0.000000 0.000000 0.000000 0.000000 0.000000 0.044890
#
#
# Mechanical properties :
#
#
# Convention : Reuss Voigt Hill
#
# Bulk Modulus (GPa) = 52.50280 66.28205 59.39242
# Shear Modulus (GPa) = 22.45830 24.25472 23.35651
#
# Velocity S-wave (km/s) = 3.54609 3.68519 3.61631
# Velocity P-wave (km/s) = 6.79438 7.43101 7.11981
#
# Compressibility (1/GPa) = 0.01904660
#
# Stress axis : x y z
#
# Youngs Moduli (GPa) = 36.64859 75.31740 76.71777
#
# Poissons Ratio (x) = 0.53927 0.38855
# Poissons Ratio (y) = 0.26240 0.38751
# Poissons Ratio (z) = 0.18561 0.38043
#
# Static dielectric constant tensor:
#      x y z
#    x 2.863100 0.000000 0.000000 
#    y 0.000000 3.427740 0.000000 
#    z 0.000000 0.000000 3.429520 
# 
# 
# High freq. dielectric constant tensor:
#      x y z
#    x 1.640760 0.000000 0.000000 
#    y 0.000000 1.702220 0.000000 
#    z 0.000000 0.000000 1.706880 
# 
# From -- ./inp_files/17075.got.cif
#   From: 2010.03.12/outbox.cif.g09.slc.cpg/sg51_9_cif.got.tgz:17075.got - 2010.04.16 13:43:02.
