data_PCOD8207926
_publ_section_title
;
Structure prediction by ZEFSAII (Michael W. Deem and Ramdas Pophale) SiO2 
 PCOD8207926
Probable space group: P M M A
;
_chemical_formula_sum "Si O2"
_cell_formula_units_Z 64
_cell_length_a 9.047022
_cell_length_b 14.219489
_cell_length_c 30.977797
_cell_angle_alpha 90.000000
_cell_angle_beta 90.000000
_cell_angle_gamma 90.000000
_cell_volume 3985.108641
_symmetry_space_group_name_H-M "P M M A"
_symmetry_group_IT_number 51
_symmetry_cell_setting 'orthorhombic'
loop_
_space_group_symop_operation_xyz
x,y,z
1/2-x,-y,z
1/2+x,-y,-z
-x,y,-z
-x,-y,-z
1/2+x,y,-z
1/2-x,y,z
x,-y,z
loop_
_atom_site_type_symbol
_atom_site_label
_atom_site_fract_x
_atom_site_fract_y
_atom_site_fract_z
Si Si1 0.074330 0.703795 0.624354
Si Si2 0.920700 0.390222 0.703698
Si Si3 0.921591 0.106208 0.240992
Si Si4 0.425108 0.102155 0.661861
Si Si5 0.416726 0.612047 0.958051
Si Si6 0.423219 0.391385 0.127401
Si Si7 0.077663 0.608720 0.455258
Si Si8 0.575408 0.281487 0.788941
O O1 0.250000 0.694072 0.619822
O O2 0.023010 0.812068 0.631733
O O3 0.021500 0.639427 0.663674
O O4 0.996738 0.672387 0.580762
O O5 0.750000 0.366372 0.693109
O O6 0.941287 0.500000 0.712464
O O7 0.977587 0.336487 0.746197
O O8 0.750000 0.132676 0.239314
O O9 0.984684 0.117764 0.289627
O O10 0.009627 0.176757 0.210114
O O11 0.948326 0.000000 0.224572
O O12 0.250000 0.099802 0.664578
O O13 0.481908 0.000000 0.644221
O O14 0.250000 0.649974 0.958713
O O15 0.421788 0.500000 0.958966
O O16 0.495710 0.649145 0.914830
O O17 0.500000 0.652883 0.000000
O O18 0.250000 0.377108 0.120239
O O19 0.462285 0.500000 0.135196
O O20 0.483059 0.335492 0.168903
O O21 0.250000 0.632832 0.458895
O O22 0.052585 0.500000 0.443029
O O23 0.000000 0.633968 0.500000
O O24 0.750000 0.275911 0.789982
#
# Coordination Sequence:
#
# PCOD8207926 Si02
#       8
#     8   8   8   8   8   8   8   8
#     4  11  20  31  51  75  96 121 156 194 230 271
#     4  10  20  32  44  62  93 130 161 189 224 268
#     4   9  17  31  49  66  88 120 156 194 237 280
#     4   8  15  29  48  69  93 121 153 189 231 275
#     4   9  16  26  41  61  84 113 152 197 239 277
#     4   9  17  29  43  60  87 125 162 193 231 279
#     4  10  21  37  55  74  98 126 154 187 228 273
#     4  10  19  30  45  65  91 123 159 196 232 271
#
# _framework density 16.059788999999999
#
# number of rings (size 3 to 8) (size 9 to 14) (size 15 to 20)
#    0.000    2.500    1.250    2.625    0.000    6.250 
#    0.000    0.000    0.000    4.125    0.000    0.000 
#    0.000    0.500    0.000    1.625    0.000    2.375 
#
# Total GULP energy -793533.573782 kJ/mol
# GULP energy per Si atom -12398.962090 kJ/mol
# Density = 1.602324 g / cm^3
# Si number density = 16.059789 Si / 1000 Ang^3
#
#
#
# Elastic Constant Matrix: (Units=GPa)
#
#
# Indices 1 2 3 4 5 6 
#
# 1 57.2812 32.1388 48.3264 0.0000 0.0000 0.0000
# 2 32.1388 86.4996 54.5247 0.0000 0.0000 0.0000
# 3 48.3264 54.5247 121.7250 0.0000 0.0000 0.0000
# 4 0.0000 0.0000 0.0000 8.2455 0.0000 0.0000
# 5 0.0000 0.0000 0.0000 0.0000 27.4161 0.0000
# 6 0.0000 0.0000 0.0000 0.0000 0.0000 22.2653
#
#
#
# Elastic Compliance Matrix: (Units=1/GPa)
#
#
# Indices 1 2 3 4 5 6 
#
# 1 0.027532 -0.004653 -0.008846 0.000000 0.000000 0.000000
# 2 -0.004653 0.016896 -0.005721 0.000000 0.000000 0.000000
# 3 -0.008846 -0.005721 0.014290 0.000000 0.000000 0.000000
# 4 0.000000 0.000000 0.000000 0.121279 0.000000 0.000000
# 5 0.000000 0.000000 0.000000 0.000000 0.036475 0.000000
# 6 0.000000 0.000000 0.000000 0.000000 0.000000 0.044913
#
#
# Mechanical properties :
#
#
# Convention : Reuss Voigt Hill
#
# Bulk Modulus (GPa) = 49.31699 59.49839 54.40769
# Shear Modulus (GPa) = 16.30880 20.28643 18.29761
#
# Velocity S-wave (km/s) = 3.19016 3.55798 3.37908
# Velocity P-wave (km/s) = 6.65917 7.34898 7.01256
#
# Compressibility (1/GPa) = 0.02027699
#
# Stress axis : x y z
#
# Youngs Moduli (GPa) = 36.32168 59.18656 69.98016
#
# Poissons Ratio (x) = 0.27541 0.61905
# Poissons Ratio (y) = 0.16902 0.40034
# Poissons Ratio (z) = 0.32131 0.33859
#
# Static dielectric constant tensor:
#      x y z
#    x 2.976720 0.000000 0.000000 
#    y 0.000000 3.104440 0.000000 
#    z 0.000000 0.000000 3.083860 
# 
# 
# High freq. dielectric constant tensor:
#      x y z
#    x 1.612940 0.000000 0.000000 
#    y 0.000000 1.598250 0.000000 
#    z 0.000000 0.000000 1.607710 
# 
# From -- ./inp_files/37591.got.cif
#   From: 2010.03.12/outbox.cif.g09.slc.cpg/sg51_19_cif.got.tgz:37591.got - 2010.04.16 13:43:02.
