data_PCOD8207131
_publ_section_title
;
Structure prediction by ZEFSAII (Michael W. Deem and Ramdas Pophale) SiO2 
 PCOD8207131
Probable space group: P M M A
;
_chemical_formula_sum "Si O2"
_cell_formula_units_Z 64
_cell_length_a 8.935687
_cell_length_b 15.254726
_cell_length_c 24.914432
_cell_angle_alpha 90.000000
_cell_angle_beta 90.000000
_cell_angle_gamma 90.000000
_cell_volume 3396.122521
_symmetry_space_group_name_H-M "P M M A"
_symmetry_group_IT_number 51
_symmetry_cell_setting 'orthorhombic'
loop_
_space_group_symop_operation_xyz
x,y,z
1/2-x,-y,z
1/2+x,-y,-z
-x,y,-z
-x,-y,-z
1/2+x,y,-z
1/2-x,y,z
x,-y,z
loop_
_atom_site_type_symbol
_atom_site_label
_atom_site_fract_x
_atom_site_fract_y
_atom_site_fract_z
Si Si1 0.426944 0.599739 0.555419
Si Si2 0.078318 0.903439 0.897825
Si Si3 0.072877 0.264068 0.055356
Si Si4 0.074694 0.310118 0.767553
Si Si5 0.925387 0.135567 0.792570
Si Si6 0.922018 0.598075 0.854910
Si Si7 0.425306 0.271918 0.647598
Si Si8 0.075521 0.096690 0.327874
O O1 0.500000 0.630895 0.500000
O O2 0.250000 0.607243 0.549831
O O3 0.474570 0.500000 0.569278
O O4 0.489215 0.663442 0.601985
O O5 0.250000 0.871672 0.896359
O O6 0.981656 0.833634 0.930642
O O7 0.016563 0.915654 0.837558
O O8 0.065636 0.000000 0.924923
O O9 0.250000 0.262200 0.048962
O O10 0.021294 0.333701 0.100218
O O11 0.000000 0.295313 0.000000
O O12 0.250000 0.291384 0.774598
O O13 0.032742 0.315856 0.704637
O O14 0.975529 0.235895 0.795761
O O15 0.022833 0.395518 0.800543
O O16 0.750000 0.127319 0.804648
O O17 0.968457 0.096565 0.734748
O O18 0.750000 0.616273 0.839726
O O19 0.942809 0.500000 0.877701
O O20 0.250000 0.261496 0.641177
O O21 0.491726 0.174200 0.640647
O O22 0.250000 0.115018 0.334687
O O23 0.032545 0.000000 0.350937
#
# Coordination Sequence:
#
# PCOD8207131 Si02
#       8
#     8   8   8   8   8   8   8   8
#     4   9  18  34  55  78 107 142 182 229 277 325
#     4  11  23  37  56  83 112 141 177 222 268 321
#     4  11  24  42  63  82 106 141 178 225 275 324
#     4  10  19  32  53  81 113 146 181 217 263 321
#     4  10  18  31  52  77 108 145 181 218 264 317
#     4  10  22  40  60  83 111 143 178 219 270 324
#     4   9  19  33  51  79 112 146 182 224 272 320
#     4   9  18  31  48  74 109 147 185 223 264 314
#
# _framework density 18.845022
#
# number of rings (size 3 to 8) (size 9 to 14) (size 15 to 20)
#    0.000    2.125    1.250    1.875    0.000    5.000 
#    0.000    1.250    0.000    1.875    0.000    0.000 
#    0.000    0.000    0.000    0.000    0.000    0.000 
#
# Total GULP energy -793505.959332 kJ/mol
# GULP energy per Si atom -12398.530615 kJ/mol
# Density = 1.880213 g / cm^3
# Si number density = 18.845022 Si / 1000 Ang^3
#
#
#
# Elastic Constant Matrix: (Units=GPa)
#
#
# Indices 1 2 3 4 5 6 
#
# 1 53.5201 34.9957 36.3127 0.0000 0.0000 0.0000
# 2 34.9957 118.5731 66.6557 0.0000 0.0000 0.0000
# 3 36.3127 66.6557 107.9226 0.0000 0.0000 0.0000
# 4 0.0000 0.0000 0.0000 19.5859 0.0000 0.0000
# 5 0.0000 0.0000 0.0000 0.0000 29.5590 0.0000
# 6 0.0000 0.0000 0.0000 0.0000 0.0000 27.4783
#
#
#
# Elastic Compliance Matrix: (Units=1/GPa)
#
#
# Indices 1 2 3 4 5 6 
#
# 1 0.025470 -0.004136 -0.006016 0.000000 0.000000 0.000000
# 2 -0.004136 0.013591 -0.007002 0.000000 0.000000 0.000000
# 3 -0.006016 -0.007002 0.015615 0.000000 0.000000 0.000000
# 4 0.000000 0.000000 0.000000 0.051057 0.000000 0.000000
# 5 0.000000 0.000000 0.000000 0.000000 0.033831 0.000000
# 6 0.000000 0.000000 0.000000 0.000000 0.000000 0.036392
#
#
# Mechanical properties :
#
#
# Convention : Reuss Voigt Hill
#
# Bulk Modulus (GPa) = 49.09577 61.77156 55.43366
# Shear Modulus (GPa) = 23.03587 24.79475 23.91531
#
# Velocity S-wave (km/s) = 3.50005 3.63122 3.56624
# Velocity P-wave (km/s) = 6.51481 7.10147 6.81446
#
# Compressibility (1/GPa) = 0.02036836
#
# Stress axis : x y z
#
# Youngs Moduli (GPa) = 39.26129 73.58042 64.04146
#
# Poissons Ratio (x) = 0.30430 0.38526
# Poissons Ratio (y) = 0.16237 0.44844
# Poissons Ratio (z) = 0.23619 0.51524
#
# Static dielectric constant tensor:
#      x y z
#    x 3.385470 0.000000 0.000000 
#    y 0.000000 3.572680 0.000000 
#    z 0.000000 0.000000 3.419470 
# 
# 
# High freq. dielectric constant tensor:
#      x y z
#    x 1.731480 0.000000 0.000000 
#    y 0.000000 1.735570 0.000000 
#    z 0.000000 0.000000 1.711000 
# 
# From -- ./inp_files/34842.got.cif
#   From: 2010.03.12/outbox.cif.g09.slc.cpg/sg51_18_cif.got.tgz:34842.got - 2010.04.16 13:43:02.
