data_PCOD8207382
_publ_section_title
;
Structure prediction by ZEFSAII (Michael W. Deem and Ramdas Pophale) SiO2 
 PCOD8207382
Probable space group: P M M A
;
_chemical_formula_sum "Si O2"
_cell_formula_units_Z 64
_cell_length_a 18.931764
_cell_length_b 8.959687
_cell_length_c 20.324442
_cell_angle_alpha 90.000000
_cell_angle_beta 90.000000
_cell_angle_gamma 90.000000
_cell_volume 3447.486317
_symmetry_space_group_name_H-M "P M M A"
_symmetry_group_IT_number 51
_symmetry_cell_setting 'orthorhombic'
loop_
_space_group_symop_operation_xyz
x,y,z
1/2-x,-y,z
1/2+x,-y,-z
-x,y,-z
-x,-y,-z
1/2+x,y,-z
1/2-x,y,z
x,-y,z
loop_
_atom_site_type_symbol
_atom_site_label
_atom_site_fract_x
_atom_site_fract_y
_atom_site_fract_z
Si Si1 0.828727 0.177729 0.172987
Si Si2 0.170979 0.177035 0.582460
Si Si3 0.665897 0.166145 0.028877
Si Si4 0.925773 0.828720 0.535749
Si Si5 0.834071 0.333218 0.902170
Si Si6 0.565893 0.323784 0.673123
Si Si7 0.833515 0.171109 0.771492
Si Si8 0.079907 0.177937 0.705104
O O1 0.750000 0.240605 0.187745
O O2 0.855741 0.231023 0.100800
O O3 0.882070 0.235238 0.228652
O O4 0.825130 0.000000 0.173235
O O5 0.250000 0.244297 0.585513
O O6 0.135309 0.224987 0.513951
O O7 0.125223 0.238330 0.643366
O O8 0.173646 0.000000 0.587605
O O9 0.750000 0.159190 0.025458
O O10 0.634919 0.000000 0.018843
O O11 0.635117 0.269369 0.970783
O O12 0.922777 0.721875 0.597904
O O13 0.000000 0.811598 0.500000
O O14 0.914462 0.000000 0.558284
O O15 0.750000 0.333365 0.904936
O O16 0.863519 0.500000 0.892318
O O17 0.860338 0.231403 0.841942
O O18 0.559037 0.500000 0.677980
O O19 0.633255 0.268774 0.713738
O O20 0.496868 0.248922 0.703836
O O21 0.750000 0.188019 0.764824
O O22 0.857659 0.000000 0.765056
O O23 0.072395 0.000000 0.702805
#
# Coordination Sequence:
#
# PCOD8207382 Si02
#       8
#     8   8   8   8   8   8   8   8
#     4   8  14  25  47  79 109 138 180 233 275 308
#     4   9  17  30  54  85 109 133 174 228 275 313
#     4   8  13  23  41  69 104 140 178 218 262 313
#     4  10  19  36  58  80 105 137 180 226 269 316
#     4   9  16  27  46  74 107 140 173 213 264 320
#     4  12  25  38  55  79 110 145 179 214 264 328
#     4  10  21  38  60  83 105 133 174 224 273 320
#     4  10  18  33  55  78 106 142 184 224 266 316
#
# _framework density 18.564250999999999
#
# number of rings (size 3 to 8) (size 9 to 14) (size 15 to 20)
#    0.000    2.500    1.250    3.000    0.000    4.500 
#    0.000    1.875    0.000    3.750    0.000    5.250 
#    0.000    0.000    0.000    0.000    0.000    0.000 
#
# Total GULP energy -793494.515801 kJ/mol
# GULP energy per Si atom -12398.351809 kJ/mol
# Density = 1.852200 g / cm^3
# Si number density = 18.564251 Si / 1000 Ang^3
#
#
#
# Elastic Constant Matrix: (Units=GPa)
#
#
# Indices 1 2 3 4 5 6 
#
# 1 57.5043 26.3955 36.9559 0.0000 0.0000 0.0000
# 2 26.3955 72.0503 47.4384 0.0000 0.0000 0.0000
# 3 36.9559 47.4384 136.4642 0.0000 0.0000 0.0000
# 4 0.0000 0.0000 0.0000 8.0544 0.0000 0.0000
# 5 0.0000 0.0000 0.0000 0.0000 16.6702 0.0000
# 6 0.0000 0.0000 0.0000 0.0000 0.0000 12.2776
#
#
#
# Elastic Compliance Matrix: (Units=1/GPa)
#
#
# Indices 1 2 3 4 5 6 
#
# 1 0.022628 -0.005518 -0.004210 0.000000 0.000000 0.000000
# 2 -0.005518 0.019344 -0.005230 0.000000 0.000000 0.000000
# 3 -0.004210 -0.005230 0.010286 0.000000 0.000000 0.000000
# 4 0.000000 0.000000 0.000000 0.124156 0.000000 0.000000
# 5 0.000000 0.000000 0.000000 0.000000 0.059987 0.000000
# 6 0.000000 0.000000 0.000000 0.000000 0.000000 0.081449
#
#
# Mechanical properties :
#
#
# Convention : Reuss Voigt Hill
#
# Bulk Modulus (GPa) = 44.75742 54.17759 49.46751
# Shear Modulus (GPa) = 14.07597 17.74904 15.91250
#
# Velocity S-wave (km/s) = 2.75658 3.09542 2.93090
# Velocity P-wave (km/s) = 5.85606 6.48249 6.17722
#
# Compressibility (1/GPa) = 0.02234266
#
# Stress axis : x y z
#
# Youngs Moduli (GPa) = 44.19232 51.69466 97.21827
#
# Poissons Ratio (x) = 0.28526 0.40926
# Poissons Ratio (y) = 0.24386 0.50847
# Poissons Ratio (z) = 0.18604 0.27038
#
# Static dielectric constant tensor:
#      x y z
#    x 3.253560 0.000000 0.000000 
#    y 0.000000 3.194380 0.000000 
#    z 0.000000 0.000000 3.753520 
# 
# 
# High freq. dielectric constant tensor:
#      x y z
#    x 1.691830 0.000000 0.000000 
#    y 0.000000 1.689450 0.000000 
#    z 0.000000 0.000000 1.738280 
# 
# From -- ./inp_files/33756.got.cif
#   From: 2010.03.12/outbox.cif.g09.slc.cpg/sg51_17_cif.got.tgz:33756.got - 2010.04.16 13:43:02.
