data_PCOD8207965
_publ_section_title
;
Structure prediction by ZEFSAII (Michael W. Deem and Ramdas Pophale) SiO2 
 PCOD8207965
Probable space group: P M M A
;
_chemical_formula_sum "Si O2"
_cell_formula_units_Z 64
_cell_length_a 20.571285
_cell_length_b 9.335875
_cell_length_c 18.614450
_cell_angle_alpha 90.000000
_cell_angle_beta 90.000000
_cell_angle_gamma 90.000000
_cell_volume 3574.922720
_symmetry_space_group_name_H-M "P M M A"
_symmetry_group_IT_number 51
_symmetry_cell_setting 'orthorhombic'
loop_
_space_group_symop_operation_xyz
x,y,z
1/2-x,-y,z
1/2+x,-y,-z
-x,y,-z
-x,-y,-z
1/2+x,y,-z
1/2-x,y,z
x,-y,z
loop_
_atom_site_type_symbol
_atom_site_label
_atom_site_fract_x
_atom_site_fract_y
_atom_site_fract_z
Si Si1 0.823742 0.167446 0.692516
Si Si2 0.440118 0.334657 0.552200
Si Si3 0.322002 0.170327 0.950033
Si Si4 0.557812 0.829476 0.301351
Si Si5 0.823891 0.333891 0.549260
Si Si6 0.322008 0.829807 0.789427
Si Si7 0.938542 0.171085 0.955046
Si Si8 0.562299 0.169734 0.793913
O O1 0.750000 0.204186 0.715576
O O2 0.843521 0.246764 0.619776
O O3 0.870916 0.220319 0.756139
O O4 0.832879 0.000000 0.677515
O O5 0.500000 0.303841 0.500000
O O6 0.438407 0.500000 0.575804
O O7 0.450143 0.236788 0.620832
O O8 0.372488 0.289734 0.514398
O O9 0.250000 0.221150 0.973664
O O10 0.337712 0.226894 0.869700
O O11 0.325514 0.000000 0.949487
O O12 0.374037 0.232315 0.006232
O O13 0.624605 0.771121 0.266075
O O14 0.498890 0.774524 0.251649
O O15 0.557331 0.000000 0.308767
O O16 0.750000 0.298478 0.525033
O O17 0.832278 0.500000 0.568608
O O18 0.250000 0.777680 0.765404
O O19 0.324578 0.000000 0.790636
O O20 0.940860 0.233982 0.874310
O O21 0.938017 0.000000 0.953367
O O22 0.000000 0.227527 0.000000
O O23 0.559899 0.000000 0.798856
#
# Coordination Sequence:
#
# PCOD8207965 Si02
#       8
#     8   8   8   8   8   8   8   8
#     4   9  17  29  45  65  90 118 144 174 216 262
#     4  10  21  35  49  66  89 115 143 179 221 260
#     4   8  13  21  34  53  80 115 148 174 206 252
#     4  10  19  30  46  66  88 116 147 179 217 260
#     4   9  18  33  51  68  87 113 144 178 216 258
#     4   8  14  25  40  60  88 118 146 178 216 256
#     4   9  15  22  34  53  80 115 149 177 209 252
#     4   9  17  27  39  59  88 118 147 181 219 256
#
# _framework density 17.902484999999999
#
# number of rings (size 3 to 8) (size 9 to 14) (size 15 to 20)
#    0.000    3.000    0.000    2.250    0.000    4.750 
#    0.000    2.500    0.000    0.000    0.000    0.000 
#    0.000    9.000    0.000    2.250    0.000    1.000 
#
# Total GULP energy -793398.095538 kJ/mol
# GULP energy per Si atom -12396.845243 kJ/mol
# Density = 1.786174 g / cm^3
# Si number density = 17.902485 Si / 1000 Ang^3
#
#
#
# Elastic Constant Matrix: (Units=GPa)
#
#
# Indices 1 2 3 4 5 6 
#
# 1 144.8882 22.7013 88.5605 0.0000 0.0000 0.0000
# 2 22.7013 17.3396 28.4985 0.0000 0.0000 0.0000
# 3 88.5605 28.4985 143.3336 0.0000 0.0000 0.0000
# 4 0.0000 0.0000 0.0000 -2.8347 0.0000 0.0000
# 5 0.0000 0.0000 0.0000 0.0000 36.7001 0.0000
# 6 0.0000 0.0000 0.0000 0.0000 0.0000 10.1057
#
#
#
# Elastic Compliance Matrix: (Units=1/GPa)
#
#
# Indices 1 2 3 4 5 6 
#
# 1 0.011370 -0.004961 -0.006039 0.000000 0.000000 0.000000
# 2 -0.004961 0.087830 -0.014398 0.000000 0.000000 0.000000
# 3 -0.006039 -0.014398 0.013571 0.000000 0.000000 0.000000
# 4 0.000000 0.000000 0.000000 -0.352775 0.000000 0.000000
# 5 0.000000 0.000000 0.000000 0.000000 0.027248 0.000000
# 6 0.000000 0.000000 0.000000 0.000000 0.000000 0.098954
#
#
# Mechanical properties :
#
#
# Convention : Reuss Voigt Hill
#
# Bulk Modulus (GPa) = 16.13537 65.00908 40.57223
# Shear Modulus (GPa) = -118.06730 19.84763 -49.10984
#
# Velocity S-wave (km/s) = -8.12979 3.33326 -5.24322
# Velocity P-wave (km/s) = 8.89337 7.15583 3.73405
#
# Compressibility (1/GPa) = 0.06197565
#
# Stress axis : x y z
#
# Youngs Moduli (GPa) = 87.94781 11.38565 73.68858
#
# Poissons Ratio (x) = 0.05648 0.44500
# Poissons Ratio (y) = 0.43630 1.06094
# Poissons Ratio (z) = 0.53111 0.16393
#
# Static dielectric constant tensor:
#      x y z
#    x 3.716170 0.000000 0.000000 
#    y 0.000000 2.728330 0.000000 
#    z 0.000000 0.000000 3.402350 
# 
# 
# High freq. dielectric constant tensor:
#      x y z
#    x 1.713990 0.000000 0.000000 
#    y 0.000000 1.626170 0.000000 
#    z 0.000000 0.000000 1.694480 
# 
# From -- ./inp_files/30700.got.cif
#   From: 2010.03.12/outbox.cif.g09.slc.cpg/sg51_16_cif.got.tgz:30700.got - 2010.04.16 13:43:02.
