data_PCOD8207252
_publ_section_title
;
Structure prediction by ZEFSAII (Michael W. Deem and Ramdas Pophale) SiO2 
 PCOD8207252
Probable space group: P M M A
;
_chemical_formula_sum "Si O2"
_cell_formula_units_Z 36
_cell_length_a 8.758170
_cell_length_b 16.061940
_cell_length_c 13.586086
_cell_angle_alpha 90.000000
_cell_angle_beta 90.000000
_cell_angle_gamma 90.000000
_cell_volume 1911.198207
_symmetry_space_group_name_H-M "P M M A"
_symmetry_group_IT_number 51
_symmetry_cell_setting 'orthorhombic'
loop_
_space_group_symop_operation_xyz
x,y,z
1/2-x,-y,z
1/2+x,-y,-z
-x,y,-z
-x,-y,-z
1/2+x,y,-z
1/2-x,y,z
x,-y,z
loop_
_atom_site_type_symbol
_atom_site_label
_atom_site_fract_x
_atom_site_fract_y
_atom_site_fract_z
Si Si1 0.926287 0.594603 0.207001
Si Si2 0.931044 0.744878 0.897678
Si Si3 0.569894 0.168377 0.702712
Si Si4 0.569198 0.663856 0.603729
Si Si5 0.932637 0.000000 0.608063
O O1 0.750000 0.620648 0.215087
O O2 0.944981 0.500000 0.170702
O O3 0.008523 0.652744 0.127023
O O4 0.003545 0.602782 0.313696
O O5 0.750000 0.740770 0.904744
O O6 0.986214 0.809372 0.813036
O O7 0.000000 0.776960 0.000000
O O8 0.750000 0.162137 0.703498
O O9 0.518323 0.241484 0.628542
O O10 0.502327 0.080584 0.666059
O O11 0.500000 0.636857 0.500000
O O12 0.750000 0.654365 0.601426
O O13 0.000000 0.000000 0.500000
O O14 0.750000 0.000000 0.601860
#
# Coordination Sequence:
#
# PCOD8207252 Si02
#       5
#     8   8   8   8   4
#     4  10  21  36  53  75 101 130 168 213 259 307
#     4  10  20  36  56  77 101 133 171 209 255 305
#     4   8  17  32  51  75 103 135 170 209 251 298
#     4  10  19  32  50  73 102 138 176 211 254 305
#     4  10  18  32  53  78 108 138 169 206 249 294
#
# _framework density 18.836351000000001
#
# number of rings (size 3 to 8) (size 9 to 14) (size 15 to 20)
#    0.000    2.444    0.000    4.000    0.000    2.667 
#    0.000    6.111    0.000    0.000    0.000    0.000 
#    0.000    0.000    0.000    0.000    0.000    0.000 
#
# Total GULP energy -446387.925087 kJ/mol
# GULP energy per Si atom -12399.664586 kJ/mol
# Density = 1.879348 g / cm^3
# Si number density = 18.836351 Si / 1000 Ang^3
#
#
#
# Elastic Constant Matrix: (Units=GPa)
#
#
# Indices 1 2 3 4 5 6 
#
# 1 79.8902 26.8958 33.7957 0.0000 0.0000 0.0000
# 2 26.8958 99.1345 36.7023 0.0000 0.0000 0.0000
# 3 33.7957 36.7023 128.1366 0.0000 0.0000 0.0000
# 4 0.0000 0.0000 0.0000 20.5416 0.0000 0.0000
# 5 0.0000 0.0000 0.0000 0.0000 35.9504 0.0000
# 6 0.0000 0.0000 0.0000 0.0000 0.0000 19.3910
#
#
#
# Elastic Compliance Matrix: (Units=1/GPa)
#
#
# Indices 1 2 3 4 5 6 
#
# 1 0.014786 -0.002872 -0.003077 0.000000 0.000000 0.000000
# 2 -0.002872 0.011842 -0.002634 0.000000 0.000000 0.000000
# 3 -0.003077 -0.002634 0.009370 0.000000 0.000000 0.000000
# 4 0.000000 0.000000 0.000000 0.048682 0.000000 0.000000
# 5 0.000000 0.000000 0.000000 0.000000 0.027816 0.000000
# 6 0.000000 0.000000 0.000000 0.000000 0.000000 0.051570
#
#
# Mechanical properties :
#
#
# Convention : Reuss Voigt Hill
#
# Bulk Modulus (GPa) = 53.10470 55.77212 54.43841
# Shear Modulus (GPa) = 26.66520 29.16110 27.91315
#
# Velocity S-wave (km/s) = 3.76656 3.93890 3.85369
# Velocity P-wave (km/s) = 6.86803 7.09645 6.98317
#
# Compressibility (1/GPa) = 0.01883072
#
# Stress axis : x y z
#
# Youngs Moduli (GPa) = 67.63237 84.44603 106.72046
#
# Poissons Ratio (x) = 0.24255 0.32838
# Poissons Ratio (y) = 0.19426 0.28114
# Poissons Ratio (z) = 0.20811 0.22246
#
# Static dielectric constant tensor:
#      x y z
#    x 3.335740 0.000000 0.000000 
#    y 0.000000 3.637430 0.000000 
#    z 0.000000 0.000000 3.515610 
# 
# 
# High freq. dielectric constant tensor:
#      x y z
#    x 1.723850 0.000000 0.000000 
#    y 0.000000 1.722790 0.000000 
#    z 0.000000 0.000000 1.734350 
# 
# From -- ./inp_files/20357.got.cif
#   From: 2010.03.12/outbox.cif.g09.slc.cpg/sg51_11_cif.got.tgz:20357.got - 2010.04.16 13:43:02.
