data_PCOD8207567
_publ_section_title
;
Structure prediction by ZEFSAII (Michael W. Deem and Ramdas Pophale) SiO2 
 PCOD8207567
Probable space group: P M M A
;
_chemical_formula_sum "Si O2"
_cell_formula_units_Z 64
_cell_length_a 17.475891
_cell_length_b 13.572117
_cell_length_c 16.443203
_cell_angle_alpha 90.000000
_cell_angle_beta 90.000000
_cell_angle_gamma 90.000000
_cell_volume 3900.078429
_symmetry_space_group_name_H-M "P M M A"
_symmetry_group_IT_number 51
_symmetry_cell_setting 'orthorhombic'
loop_
_space_group_symop_operation_xyz
x,y,z
1/2-x,-y,z
1/2+x,-y,-z
-x,y,-z
-x,-y,-z
1/2+x,y,-z
1/2-x,y,z
x,-y,z
loop_
_atom_site_type_symbol
_atom_site_label
_atom_site_fract_x
_atom_site_fract_y
_atom_site_fract_z
Si Si1 0.480428 0.384039 0.412511
Si Si2 0.166840 0.616448 0.325698
Si Si3 0.662284 0.268655 0.137804
Si Si4 0.662941 0.611338 0.977689
Si Si5 0.080910 0.887744 0.963731
Si Si6 0.407542 0.699285 0.174733
Si Si7 0.161631 0.110851 0.129034
Si Si8 0.440133 0.382686 0.750895
O O1 0.500000 0.335816 0.500000
O O2 0.470375 0.500000 0.423081
O O3 0.399488 0.337934 0.382837
O O4 0.545541 0.361928 0.345057
O O5 0.250000 0.655814 0.354122
O O6 0.163749 0.500000 0.330804
O O7 0.152972 0.645014 0.232504
O O8 0.750000 0.234413 0.150291
O O9 0.608938 0.175580 0.113944
O O10 0.634976 0.323015 0.220935
O O11 0.654046 0.350086 0.068454
O O12 0.750000 0.620850 0.947525
O O13 0.634068 0.500000 0.976950
O O14 0.608975 0.673149 0.918570
O O15 0.070450 0.000000 0.933330
O O16 0.145698 0.879868 0.032830
O O17 0.000000 0.848873 0.000000
O O18 0.393813 0.817428 0.181294
O O19 0.492081 0.664564 0.196103
O O20 0.250000 0.139799 0.142867
O O21 0.144584 0.000000 0.159169
O O22 0.433834 0.500000 0.766784
#
# Coordination Sequence:
#
# PCOD8207567 Si02
#       8
#     8   8   8   8   8   8   8   8
#     4   8  15  30  49  67  90 120 152 185 228 288
#     4   9  16  25  41  67  95 119 146 188 236 280
#     4  11  22  34  47  66  95 131 165 201 242 284
#     4  10  19  28  40  60  88 126 165 195 224 267
#     4  10  20  34  50  68  88 118 165 215 253 280
#     4  11  18  29  45  64  91 121 158 195 235 278
#     4  10  19  30  45  64  88 120 157 196 239 281
#     4  10  21  34  49  69  93 124 156 192 239 284
#
# _framework density 16.409927
#
# number of rings (size 3 to 8) (size 9 to 14) (size 15 to 20)
#    0.000    2.125    1.250    4.500    0.000    2.500 
#    0.000    1.875    0.000    2.250    0.000    0.000 
#    0.000   12.500    0.000    3.500    0.000    0.000 
#
# Total GULP energy -793349.180271 kJ/mol
# GULP energy per Si atom -12396.080942 kJ/mol
# Density = 1.637258 g / cm^3
# Si number density = 16.409927 Si / 1000 Ang^3
#
#
#
# Elastic Constant Matrix: (Units=GPa)
#
#
# Indices 1 2 3 4 5 6 
#
# 1 79.4204 40.0128 38.9278 0.0000 0.0000 0.0000
# 2 40.0128 45.2781 3.8133 0.0000 0.0000 0.0000
# 3 38.9278 3.8133 71.2467 0.0000 0.0000 0.0000
# 4 0.0000 0.0000 0.0000 5.5885 0.0000 0.0000
# 5 0.0000 0.0000 0.0000 0.0000 15.2061 0.0000
# 6 0.0000 0.0000 0.0000 0.0000 0.0000 22.6689
#
#
#
# Elastic Compliance Matrix: (Units=1/GPa)
#
#
# Indices 1 2 3 4 5 6 
#
# 1 0.038119 -0.032076 -0.019110 0.000000 0.000000 0.000000
# 2 -0.032076 0.049178 0.014894 0.000000 0.000000 0.000000
# 3 -0.019110 0.014894 0.023680 0.000000 0.000000 0.000000
# 4 0.000000 0.000000 0.000000 0.178940 0.000000 0.000000
# 5 0.000000 0.000000 0.000000 0.000000 0.065763 0.000000
# 6 0.000000 0.000000 0.000000 0.000000 0.000000 0.044113
#
#
# Mechanical properties :
#
#
# Convention : Reuss Voigt Hill
#
# Bulk Modulus (GPa) = 26.04824 40.16145 33.10485
# Shear Modulus (GPa) = 10.30555 16.23877 13.27216
#
# Velocity S-wave (km/s) = 2.50873 3.14916 2.84701
# Velocity P-wave (km/s) = 4.92946 6.14410 5.56998
#
# Compressibility (1/GPa) = 0.03839031
#
# Stress axis : x y z
#
# Youngs Moduli (GPa) = 26.23397 20.33448 42.22946
#
# Poissons Ratio (x) = 0.65225 0.80702
# Poissons Ratio (y) = 0.84149 -0.62895
# Poissons Ratio (z) = 0.50134 -0.30286
#
# Static dielectric constant tensor:
#      x y z
#    x 3.323650 0.000000 0.000000 
#    y 0.000000 3.093400 0.000000 
#    z 0.000000 0.000000 2.999210 
# 
# 
# High freq. dielectric constant tensor:
#      x y z
#    x 1.637000 0.000000 0.000000 
#    y 0.000000 1.616290 0.000000 
#    z 0.000000 0.000000 1.592360 
# 
# From -- ./inp_files/25347.got.cif
#   From: 2010.03.12/outbox.cif.g09.slc.cpg/sg51_13_cif.got.tgz:25347.got - 2010.04.16 13:43:02.
