data_PCOD8207919
_publ_section_title
;
Structure prediction by ZEFSAII (Michael W. Deem and Ramdas Pophale) SiO2 
 PCOD8207919
Probable space group: P M M A
;
_chemical_formula_sum "Si O2"
_cell_formula_units_Z 64
_cell_length_a 8.742829
_cell_length_b 19.912402
_cell_length_c 20.152579
_cell_angle_alpha 90.000000
_cell_angle_beta 90.000000
_cell_angle_gamma 90.000000
_cell_volume 3508.377102
_symmetry_space_group_name_H-M "P M M A"
_symmetry_group_IT_number 51
_symmetry_cell_setting 'orthorhombic'
loop_
_space_group_symop_operation_xyz
x,y,z
1/2-x,-y,z
1/2+x,-y,-z
-x,y,-z
-x,-y,-z
1/2+x,y,-z
1/2-x,y,z
x,-y,z
loop_
_atom_site_type_symbol
_atom_site_label
_atom_site_fract_x
_atom_site_fract_y
_atom_site_fract_z
Si Si1 0.571438 0.745418 0.602864
Si Si2 0.927312 0.574322 0.288097
Si Si3 0.071045 0.119190 0.566204
Si Si4 0.571863 0.291566 0.751992
Si Si5 0.931719 0.170319 0.181433
Si Si6 0.068747 0.926572 0.705515
Si Si7 0.430318 0.609738 0.564766
Si Si8 0.930320 0.075992 0.928100
O O1 0.750000 0.760010 0.591870
O O2 0.470091 0.802852 0.570190
O O3 0.530402 0.739467 0.680642
O O4 0.521681 0.679200 0.565008
O O5 0.750000 0.591613 0.279011
O O6 0.966721 0.500000 0.259778
O O7 0.968158 0.572036 0.366514
O O8 0.018792 0.630586 0.246793
O O9 0.250000 0.108723 0.562034
O O10 0.001676 0.083720 0.631665
O O11 0.000000 0.086421 0.500000
O O12 0.750000 0.290101 0.767250
O O13 0.488763 0.247076 0.808910
O O14 0.750000 0.169590 0.176378
O O15 0.996847 0.128434 0.244185
O O16 0.998756 0.134292 0.117030
O O17 0.250000 0.919370 0.702607
O O18 0.019067 0.000000 0.731149
O O19 0.500000 0.570852 0.500000
O O20 0.250000 0.619979 0.556581
O O21 0.750000 0.086173 0.931431
O O22 0.970618 0.000000 0.902899
O O23 0.000000 0.087181 0.000000
#
# Coordination Sequence:
#
# PCOD8207919 Si02
#       8
#     8   8   8   8   8   8   8   8
#     4  10  19  32  48  66  90 119 157 206 261 317
#     4   9  19  35  52  70  96 131 169 211 264 326
#     4  11  21  33  48  65  88 119 160 211 269 326
#     4  10  20  33  52  77 104 131 169 218 266 315
#     4  11  20  34  58  83 109 143 183 223 266 315
#     4   9  19  34  51  71  95 126 167 213 263 319
#     4  10  19  30  45  65  90 119 157 202 256 320
#     4  10  21  37  57  85 122 160 194 227 265 312
#
# _framework density 18.242052000000001
#
# number of rings (size 3 to 8) (size 9 to 14) (size 15 to 20)
#    0.000    2.000    1.250    3.000    0.000    3.500 
#    0.000    0.000    0.000    3.375    0.000    0.000 
#    0.000    0.500    0.000    1.875    0.000    2.875 
#
# Total GULP energy -793380.926706 kJ/mol
# GULP energy per Si atom -12396.576980 kJ/mol
# Density = 1.820053 g / cm^3
# Si number density = 18.242052 Si / 1000 Ang^3
#
#
#
# Elastic Constant Matrix: (Units=GPa)
#
#
# Indices 1 2 3 4 5 6 
#
# 1 72.0588 31.8034 37.6744 0.0000 0.0000 0.0000
# 2 31.8034 100.1255 45.2549 0.0000 0.0000 0.0000
# 3 37.6744 45.2549 81.0280 0.0000 0.0000 0.0000
# 4 0.0000 0.0000 0.0000 17.1355 0.0000 0.0000
# 5 0.0000 0.0000 0.0000 0.0000 26.7273 0.0000
# 6 0.0000 0.0000 0.0000 0.0000 0.0000 19.5462
#
#
#
# Elastic Compliance Matrix: (Units=1/GPa)
#
#
# Indices 1 2 3 4 5 6 
#
# 1 0.018870 -0.002713 -0.007258 0.000000 0.000000 0.000000
# 2 -0.002713 0.013750 -0.006418 0.000000 0.000000 0.000000
# 3 -0.007258 -0.006418 0.019301 0.000000 0.000000 0.000000
# 4 0.000000 0.000000 0.000000 0.058359 0.000000 0.000000
# 5 0.000000 0.000000 0.000000 0.000000 0.037415 0.000000
# 6 0.000000 0.000000 0.000000 0.000000 0.000000 0.051161
#
#
# Mechanical properties :
#
#
# Convention : Reuss Voigt Hill
#
# Bulk Modulus (GPa) = 52.24205 53.63086 52.93645
# Shear Modulus (GPa) = 21.00710 21.91376 21.46043
#
# Velocity S-wave (km/s) = 3.39717 3.46970 3.43363
# Velocity P-wave (km/s) = 6.63989 6.74650 6.69340
#
# Compressibility (1/GPa) = 0.01914167
#
# Stress axis : x y z
#
# Youngs Moduli (GPa) = 52.99452 72.72674 51.81140
#
# Poissons Ratio (x) = 0.19731 0.37607
# Poissons Ratio (y) = 0.14378 0.33253
# Poissons Ratio (z) = 0.38465 0.46677
#
# Static dielectric constant tensor:
#      x y z
#    x 3.290230 0.000000 0.000000 
#    y 0.000000 3.356480 0.000000 
#    z 0.000000 0.000000 3.239400 
# 
# 
# High freq. dielectric constant tensor:
#      x y z
#    x 1.705850 0.000000 0.000000 
#    y 0.000000 1.702110 0.000000 
#    z 0.000000 0.000000 1.673260 
# 
# From -- ./inp_files/28327.got.cif
#   From: 2010.03.12/outbox.cif.g09.slc.cpg/sg51_15_cif.got.tgz:28327.got - 2010.04.16 13:43:02.
