data_PCOD8207305
_publ_section_title
;
Structure prediction by ZEFSAII (Michael W. Deem and Ramdas Pophale) SiO2 
 PCOD8207305
Probable space group: P M M A
;
_chemical_formula_sum "Si O2"
_cell_formula_units_Z 64
_cell_length_a 30.783130
_cell_length_b 9.499778
_cell_length_c 11.932845
_cell_angle_alpha 90.000000
_cell_angle_beta 90.000000
_cell_angle_gamma 90.000000
_cell_volume 3489.556482
_symmetry_space_group_name_H-M "P M M A"
_symmetry_group_IT_number 51
_symmetry_cell_setting 'orthorhombic'
loop_
_space_group_symop_operation_xyz
x,y,z
1/2-x,-y,z
1/2+x,-y,-z
-x,y,-z
-x,-y,-z
1/2+x,y,-z
1/2-x,y,z
x,-y,z
loop_
_atom_site_type_symbol
_atom_site_label
_atom_site_fract_x
_atom_site_fract_y
_atom_site_fract_z
Si Si1 0.548428 0.167153 0.983672
Si Si2 0.821289 0.161596 0.743218
Si Si3 0.548289 0.340185 0.542917
Si Si4 0.798109 0.659540 0.536423
Si Si5 0.577450 0.161013 0.743992
Si Si6 0.701332 0.833549 0.988908
Si Si7 0.124136 0.832203 0.852471
Si Si8 0.375471 0.334337 0.622750
O O1 0.566514 0.223883 0.865869
O O2 0.547691 0.000000 0.981986
O O3 0.500000 0.228919 0.000000
O O4 0.580662 0.216465 0.082238
O O5 0.797074 0.248815 0.648474
O O6 0.872014 0.176859 0.721414
O O7 0.808864 0.225244 0.864683
O O8 0.806062 0.000000 0.734451
O O9 0.500000 0.321911 0.500000
O O10 0.558872 0.500000 0.576865
O O11 0.551107 0.246741 0.652773
O O12 0.582005 0.291300 0.447714
O O13 0.750000 0.668415 0.482160
O O14 0.810063 0.500000 0.570523
O O15 0.832874 0.713891 0.446069
O O16 0.562151 0.000000 0.735571
O O17 0.750000 0.787900 0.025847
O O18 0.696470 0.000000 0.982556
O O19 0.666264 0.777679 0.078367
O O20 0.123960 0.755346 0.734762
O O21 0.125413 0.000000 0.834586
O O22 0.374651 0.500000 0.651406
#
# Coordination Sequence:
#
# PCOD8207305 Si02
#       8
#     8   8   8   8   8   8   8   8
#     4   9  18  33  53  79 110 139 167 211 267 310
#     4  10  18  32  55  83 111 136 169 215 265 316
#     4  10  22  39  57  77 106 144 180 217 266 318
#     4  10  21  37  56  77 104 141 180 217 264 318
#     4  10  19  33  57  85 110 136 173 220 264 312
#     4   9  17  31  52  78 108 138 167 209 265 312
#     4  10  20  35  55  78 103 136 179 216 252 310
#     4  10  22  39  54  73 106 142 174 216 268 312
#
# _framework density 18.340440999999998
#
# number of rings (size 3 to 8) (size 9 to 14) (size 15 to 20)
#    0.000    2.250    2.500    0.375    1.750    2.500 
#    0.000    1.250    0.000    1.500    0.000    0.000 
#    0.000    0.000    0.000    0.000    0.000    0.000 
#
# Total GULP energy -793599.426232 kJ/mol
# GULP energy per Si atom -12399.991035 kJ/mol
# Density = 1.829870 g / cm^3
# Si number density = 18.340441 Si / 1000 Ang^3
#
#
#
# Elastic Constant Matrix: (Units=GPa)
#
#
# Indices 1 2 3 4 5 6 
#
# 1 126.8226 28.7804 61.6968 0.0000 0.0000 0.0000
# 2 28.7804 40.9851 46.8344 0.0000 0.0000 0.0000
# 3 61.6968 46.8344 144.0909 0.0000 0.0000 0.0000
# 4 0.0000 0.0000 0.0000 -23.3213 0.0000 0.0000
# 5 0.0000 0.0000 0.0000 0.0000 22.3140 0.0000
# 6 0.0000 0.0000 0.0000 0.0000 0.0000 10.7126
#
#
#
# Elastic Compliance Matrix: (Units=1/GPa)
#
#
# Indices 1 2 3 4 5 6 
#
# 1 0.010262 -0.003476 -0.003264 0.000000 0.000000 0.000000
# 2 -0.003476 0.039994 -0.011511 0.000000 0.000000 0.000000
# 3 -0.003264 -0.011511 0.012079 0.000000 0.000000 0.000000
# 4 0.000000 0.000000 0.000000 -0.042879 0.000000 0.000000
# 5 0.000000 0.000000 0.000000 0.000000 0.044815 0.000000
# 6 0.000000 0.000000 0.000000 0.000000 0.000000 0.093348
#
#
# Mechanical properties :
#
#
# Convention : Reuss Voigt Hill
#
# Bulk Modulus (GPa) = 38.71083 65.16909 51.93996
# Shear Modulus (GPa) = 24.66316 13.58019 19.12167
#
# Velocity S-wave (km/s) = 3.67105 2.72407 3.23243
# Velocity P-wave (km/s) = 6.25471 6.74568 6.50483
#
# Compressibility (1/GPa) = 0.02583256
#
# Stress axis : x y z
#
# Youngs Moduli (GPa) = 97.44914 25.00381 82.78758
#
# Poissons Ratio (x) = 0.08692 0.27022
# Poissons Ratio (y) = 0.33874 0.95297
# Poissons Ratio (z) = 0.31808 0.28782
#
# Static dielectric constant tensor:
#      x y z
#    x 3.658020 0.000000 0.000000 
#    y 0.000000 3.076200 0.000000 
#    z 0.000000 0.000000 3.336350 
# 
# 
# High freq. dielectric constant tensor:
#      x y z
#    x 1.730350 0.000000 0.000000 
#    y 0.000000 1.674650 0.000000 
#    z 0.000000 0.000000 1.711970 
# 
# From -- ./inp_files/19441.got.cif
#   From: 2010.03.12/outbox.cif.g09.slc.cpg/sg51_10_cif.got.tgz:19441.got - 2010.04.16 13:43:02.
