data_PCOD8207001
_publ_section_title
;
Structure prediction by ZEFSAII (Michael W. Deem and Ramdas Pophale) SiO2 
 PCOD8207001
Probable space group: P M M A
;
_chemical_formula_sum "Si O2"
_cell_formula_units_Z 52
_cell_length_a 21.235282
_cell_length_b 13.629668
_cell_length_c 9.680060
_cell_angle_alpha 90.000000
_cell_angle_beta 90.000000
_cell_angle_gamma 90.000000
_cell_volume 2801.698251
_symmetry_space_group_name_H-M "P M M A"
_symmetry_group_IT_number 51
_symmetry_cell_setting 'orthorhombic'
loop_
_space_group_symop_operation_xyz
x,y,z
1/2-x,-y,z
1/2+x,-y,-z
-x,y,-z
-x,-y,-z
1/2+x,y,-z
1/2-x,y,z
x,-y,z
loop_
_atom_site_type_symbol
_atom_site_label
_atom_site_fract_x
_atom_site_fract_y
_atom_site_fract_z
Si Si1 0.108829 0.208251 0.845653
Si Si2 0.178685 0.762516 0.341510
Si Si3 0.000000 0.716727 0.000000
Si Si4 0.389786 0.388878 0.162884
Si Si5 0.821088 0.108626 0.916444
Si Si6 0.821613 0.390930 0.111990
Si Si7 0.177009 0.112116 0.604055
O O1 0.034705 0.215532 0.883352
O O2 0.128136 0.129604 0.730233
O O3 0.140497 0.183235 0.991184
O O4 0.134618 0.315888 0.802350
O O5 0.250000 0.720494 0.349079
O O6 0.130557 0.676705 0.295290
O O7 0.175610 0.854543 0.239360
O O8 0.158341 0.809110 0.487621
O O9 0.047935 0.649180 0.085219
O O10 0.402104 0.500000 0.214906
O O11 0.333062 0.386086 0.052685
O O12 0.750000 0.106006 0.971757
O O13 0.850847 0.000000 0.923533
O O14 0.750000 0.361487 0.140110
O O15 0.836625 0.500000 0.167670
O O16 0.250000 0.126827 0.650230
O O17 0.167131 0.000000 0.553869
#
# Coordination Sequence:
#
# PCOD8207001 Si02
#       7
#     8   8   4   8   8   8   8
#     4  11  20  34  54  77 110 146 189 231 272 322
#     4  10  19  34  56  84 115 142 174 223 282 339
#     4  10  21  36  55  80 112 148 191 240 277 308
#     4  10  19  33  56  81 109 145 185 228 274 325
#     4  10  18  30  53  80 104 135 179 230 281 333
#     4   9  16  27  48  79 108 133 169 223 285 333
#     4  10  21  37  58  84 114 147 178 219 282 346
#
# _framework density 18.560172000000001
#
# number of rings (size 3 to 8) (size 9 to 14) (size 15 to 20)
#    0.000    2.000    3.077    3.000    0.000    4.615 
#    0.000    3.077    0.000    2.769    0.000    0.000 
#    0.000    0.000    0.000    0.000    0.000    0.000 
#
# Total GULP energy -644548.307047 kJ/mol
# GULP energy per Si atom -12395.159751 kJ/mol
# Density = 1.851793 g / cm^3
# Si number density = 18.560172 Si / 1000 Ang^3
#
#
#
# Elastic Constant Matrix: (Units=GPa)
#
#
# Indices 1 2 3 4 5 6 
#
# 1 84.5688 45.4845 31.5089 0.0000 0.0000 0.0000
# 2 45.4845 104.7874 27.8990 0.0000 0.0000 0.0000
# 3 31.5089 27.8990 66.3803 0.0000 0.0000 0.0000
# 4 0.0000 0.0000 0.0000 27.5373 0.0000 0.0000
# 5 0.0000 0.0000 0.0000 0.0000 22.3802 0.0000
# 6 0.0000 0.0000 0.0000 0.0000 0.0000 17.8667
#
#
#
# Elastic Compliance Matrix: (Units=1/GPa)
#
#
# Indices 1 2 3 4 5 6 
#
# 1 0.017111 -0.005928 -0.005631 0.000000 0.000000 0.000000
# 2 -0.005928 0.012799 -0.002566 0.000000 0.000000 0.000000
# 3 -0.005631 -0.002566 0.018816 0.000000 0.000000 0.000000
# 4 0.000000 0.000000 0.000000 0.036314 0.000000 0.000000
# 5 0.000000 0.000000 0.000000 0.000000 0.044682 0.000000
# 6 0.000000 0.000000 0.000000 0.000000 0.000000 0.055970
#
#
# Mechanical properties :
#
#
# Convention : Reuss Voigt Hill
#
# Bulk Modulus (GPa) = 48.83405 51.72459 50.27932
# Shear Modulus (GPa) = 22.64832 23.61313 23.13072
#
# Velocity S-wave (km/s) = 3.49702 3.57073 3.53406
# Velocity P-wave (km/s) = 6.53252 6.70293 6.61827
#
# Compressibility (1/GPa) = 0.02047752
#
# Stress axis : x y z
#
# Youngs Moduli (GPa) = 58.44216 78.12866 53.14732
#
# Poissons Ratio (x) = 0.46316 0.29925
# Poissons Ratio (y) = 0.34645 0.13635
# Poissons Ratio (z) = 0.32906 0.20044
#
# Static dielectric constant tensor:
#      x y z
#    x 3.324810 0.000000 0.000000 
#    y 0.000000 3.565350 0.000000 
#    z 0.000000 0.000000 3.075180 
# 
# 
# High freq. dielectric constant tensor:
#      x y z
#    x 1.697510 0.000000 0.000000 
#    y 0.000000 1.733630 0.000000 
#    z 0.000000 0.000000 1.687840 
# 
# From -- ./inp_files/10893.got.cif
#   From: 2010.03.12/outbox.cif.g09.slc.cpg/sg51_6_cif.got.tgz:10893.got - 2010.04.16 13:43:02.
