data_PCOD8207848
_publ_section_title
;
Structure prediction by ZEFSAII (Michael W. Deem and Ramdas Pophale) SiO2 
 PCOD8207848
Probable space group: P M M A
;
_chemical_formula_sum "Si O2"
_cell_formula_units_Z 64
_cell_length_a 25.506782
_cell_length_b 9.133449
_cell_length_c 17.376475
_cell_angle_alpha 90.000000
_cell_angle_beta 90.000000
_cell_angle_gamma 90.000000
_cell_volume 4048.108631
_symmetry_space_group_name_H-M "P M M A"
_symmetry_group_IT_number 51
_symmetry_cell_setting 'orthorhombic'
loop_
_space_group_symop_operation_xyz
x,y,z
1/2-x,-y,z
1/2+x,-y,-z
-x,y,-z
-x,-y,-z
1/2+x,y,-z
1/2-x,y,z
x,-y,z
loop_
_atom_site_type_symbol
_atom_site_label
_atom_site_fract_x
_atom_site_fract_y
_atom_site_fract_z
Si Si1 0.558610 0.173712 0.498304
Si Si2 0.901166 0.174058 0.821237
Si Si3 0.309049 0.826960 0.074013
Si Si4 0.060706 0.826798 0.337404
Si Si5 0.094022 0.328766 0.817089
Si Si6 0.438780 0.827616 0.668302
Si Si7 0.809124 0.331417 0.080963
Si Si8 0.004085 0.171913 0.910759
O O1 0.500000 0.236372 0.500000
O O2 0.584295 0.229414 0.579519
O O3 0.584492 0.220078 0.416490
O O4 0.556323 0.000000 0.499646
O O5 0.847798 0.233851 0.859754
O O6 0.906154 0.238524 0.734211
O O7 0.950850 0.226480 0.870686
O O8 0.899967 0.000000 0.819319
O O9 0.250000 0.778420 0.095667
O O10 0.313899 0.000000 0.066245
O O11 0.326649 0.761707 0.992704
O O12 0.999890 0.783628 0.327021
O O13 0.064962 0.000000 0.335097
O O14 0.081983 0.500000 0.812044
O O15 0.092931 0.260696 0.732095
O O16 0.152148 0.296116 0.848887
O O17 0.052386 0.256329 0.873845
O O18 0.431357 0.000000 0.682863
O O19 0.750000 0.290053 0.106879
O O20 0.812873 0.500000 0.056444
O O21 0.013408 0.000000 0.897761
O O22 0.000000 0.212317 0.000000
#
# Coordination Sequence:
#
# PCOD8207848 Si02
#       8
#     8   8   8   8   8   8   8   8
#     4   7  11  19  36  61  82 105 142 179 200 229
#     4   9  15  24  40  63  88 113 138 168 207 250
#     4   9  17  29  46  67  86 105 139 185 219 241
#     4   8  12  21  39  62  85 110 144 176 200 239
#     4  11  21  30  43  64  88 111 138 175 218 256
#     4   9  15  26  43  62  85 112 143 174 206 249
#     4   9  19  35  49  59  77 109 146 179 212 252
#     4  10  19  30  44  61  84 116 147 169 201 254
#
# _framework density 15.809853
#
# number of rings (size 3 to 8) (size 9 to 14) (size 15 to 20)
#    0.000    3.000    1.250    2.625    0.000    2.250 
#    0.000    0.625    0.000    3.375    0.000    0.875 
#    0.000    3.000    0.000    0.000    0.000    0.000 
#
# Total GULP energy -792881.766441 kJ/mol
# GULP energy per Si atom -12388.777601 kJ/mol
# Density = 1.577387 g / cm^3
# Si number density = 15.809853 Si / 1000 Ang^3
#
#
#
# Elastic Constant Matrix: (Units=GPa)
#
#
# Indices 1 2 3 4 5 6 
#
# 1 75.9437 23.6443 66.9592 0.0000 0.0000 0.0000
# 2 23.6443 26.9274 35.0250 0.0000 0.0000 0.0000
# 3 66.9592 35.0250 177.8565 0.0000 0.0000 0.0000
# 4 0.0000 0.0000 0.0000 5.9838 0.0000 0.0000
# 5 0.0000 0.0000 0.0000 0.0000 19.5075 0.0000
# 6 0.0000 0.0000 0.0000 0.0000 0.0000 15.3093
#
#
#
# Elastic Compliance Matrix: (Units=1/GPa)
#
#
# Indices 1 2 3 4 5 6 
#
# 1 0.022087 -0.011532 -0.006044 0.000000 0.000000 0.000000
# 2 -0.011532 0.055946 -0.006676 0.000000 0.000000 0.000000
# 3 -0.006044 -0.006676 0.009213 0.000000 0.000000 0.000000
# 4 0.000000 0.000000 0.000000 0.167118 0.000000 0.000000
# 5 0.000000 0.000000 0.000000 0.000000 0.051262 0.000000
# 6 0.000000 0.000000 0.000000 0.000000 0.000000 0.065320
#
#
# Mechanical properties :
#
#
# Convention : Reuss Voigt Hill
#
# Bulk Modulus (GPa) = 25.81206 59.10938 42.46072
# Shear Modulus (GPa) = 11.56429 18.50007 15.03218
#
# Velocity S-wave (km/s) = 2.70749 3.42447 3.08687
# Velocity P-wave (km/s) = 5.11234 7.28731 6.29448
#
# Compressibility (1/GPa) = 0.03874158
#
# Stress axis : x y z
#
# Youngs Moduli (GPa) = 45.27461 17.87426 108.54532
#
# Poissons Ratio (x) = 0.20613 0.65609
# Poissons Ratio (y) = 0.52212 0.72462
# Poissons Ratio (z) = 0.27366 0.11932
#
# Static dielectric constant tensor:
#      x y z
#    x 2.931700 0.000000 0.000000 
#    y 0.000000 2.672720 0.000000 
#    z 0.000000 0.000000 3.576020 
# 
# 
# High freq. dielectric constant tensor:
#      x y z
#    x 1.572640 0.000000 0.000000 
#    y 0.000000 1.570640 0.000000 
#    z 0.000000 0.000000 1.623910 
# 
# From -- ./inp_files/30873.got.cif
#   From: 2010.03.12/outbox.cif.g09.slc.cpg/sg51_16_cif.got.tgz:30873.got - 2010.04.16 13:43:02.
