data_PCOD8207953
_publ_section_title
;
Structure prediction by ZEFSAII (Michael W. Deem and Ramdas Pophale) SiO2 
 PCOD8207953
Probable space group: P M M A
;
_chemical_formula_sum "Si O2"
_cell_formula_units_Z 48
_cell_length_a 25.974685
_cell_length_b 9.081952
_cell_length_c 11.838008
_cell_angle_alpha 90.000000
_cell_angle_beta 90.000000
_cell_angle_gamma 90.000000
_cell_volume 2792.596059
_symmetry_space_group_name_H-M "P M M A"
_symmetry_group_IT_number 51
_symmetry_cell_setting 'orthorhombic'
loop_
_space_group_symop_operation_xyz
x,y,z
1/2-x,-y,z
1/2+x,-y,-z
-x,y,-z
-x,-y,-z
1/2+x,y,-z
1/2-x,y,z
x,-y,z
loop_
_atom_site_type_symbol
_atom_site_label
_atom_site_fract_x
_atom_site_fract_y
_atom_site_fract_z
Si Si1 0.387175 0.674055 0.014648
Si Si2 0.946160 0.668758 0.554044
Si Si3 0.573919 0.832803 0.783221
Si Si4 0.895771 0.669154 0.327032
Si Si5 0.958694 0.832131 0.152070
Si Si6 0.806669 0.673256 0.169562
O O1 0.391367 0.500000 0.027005
O O2 0.384885 0.745266 0.139513
O O3 0.437151 0.732666 0.948667
O O4 0.336508 0.722686 0.944157
O O5 0.952433 0.500000 0.593569
O O6 0.929365 0.765342 0.659243
O O7 0.900374 0.685717 0.461831
O O8 0.000000 0.723723 0.500000
O O9 0.519984 0.823594 0.848501
O O10 0.592606 0.000000 0.770223
O O11 0.906058 0.500000 0.289879
O O12 0.939526 0.770396 0.272033
O O13 0.839656 0.719498 0.280740
O O14 0.939906 0.000000 0.135781
O O15 0.750000 0.748389 0.174124
O O16 0.799715 0.500000 0.167864
#
# Coordination Sequence:
#
# PCOD8207953 Si02
#       6
#     8   8   8   8   8   8
#     4  10  20  32  49  71  95 125 161 200 245 291
#     4  10  19  31  48  69  98 133 169 203 233 280
#     4  11  22  32  45  67  99 136 168 196 236 285
#     4   9  17  30  49  73  97 126 162 199 241 283
#     4  10  19  30  45  67  98 131 162 197 235 281
#     4   8  15  30  53  77  96 115 149 202 255 296
#
# _framework density 17.188306999999998
#
# number of rings (size 3 to 8) (size 9 to 14) (size 15 to 20)
#    0.000    2.333    1.667    3.000    0.000    5.000 
#    0.000    0.000    0.000   13.500    0.000    4.667 
#    0.000    0.000    0.000    0.000    0.000    0.000 
#
# Total GULP energy -595039.484879 kJ/mol
# GULP energy per Si atom -12396.655935 kJ/mol
# Density = 1.714919 g / cm^3
# Si number density = 17.188307 Si / 1000 Ang^3
#
#
#
# Elastic Constant Matrix: (Units=GPa)
#
#
# Indices 1 2 3 4 5 6 
#
# 1 85.8020 30.3108 47.5556 0.0000 0.0000 0.0000
# 2 30.3108 80.8469 50.0800 0.0000 0.0000 0.0000
# 3 47.5556 50.0800 119.1222 0.0000 0.0000 0.0000
# 4 0.0000 0.0000 0.0000 22.4692 0.0000 0.0000
# 5 0.0000 0.0000 0.0000 0.0000 15.9149 0.0000
# 6 0.0000 0.0000 0.0000 0.0000 0.0000 8.2791
#
#
#
# Elastic Compliance Matrix: (Units=1/GPa)
#
#
# Indices 1 2 3 4 5 6 
#
# 1 0.015376 -0.002653 -0.005023 0.000000 0.000000 0.000000
# 2 -0.002653 0.017182 -0.006164 0.000000 0.000000 0.000000
# 3 -0.005023 -0.006164 0.012992 0.000000 0.000000 0.000000
# 4 0.000000 0.000000 0.000000 0.044505 0.000000 0.000000
# 5 0.000000 0.000000 0.000000 0.000000 0.062834 0.000000
# 6 0.000000 0.000000 0.000000 0.000000 0.000000 0.120786
#
#
# Mechanical properties :
#
#
# Convention : Reuss Voigt Hill
#
# Bulk Modulus (GPa) = 55.96374 60.18488 58.07431
# Shear Modulus (GPa) = 16.27006 19.85428 18.06217
#
# Velocity S-wave (km/s) = 3.07999 3.40237 3.24518
# Velocity P-wave (km/s) = 6.72892 7.10815 6.92113
#
# Compressibility (1/GPa) = 0.01786871
#
# Stress axis : x y z
#
# Youngs Moduli (GPa) = 65.03649 58.19948 76.97333
#
# Poissons Ratio (x) = 0.15442 0.38663
# Poissons Ratio (y) = 0.17256 0.47449
# Poissons Ratio (z) = 0.32667 0.35876
#
# Static dielectric constant tensor:
#      x y z
#    x 3.228590 0.000000 0.000000 
#    y 0.000000 3.175490 0.000000 
#    z 0.000000 0.000000 3.232390 
# 
# 
# High freq. dielectric constant tensor:
#      x y z
#    x 1.627690 0.000000 0.000000 
#    y 0.000000 1.655760 0.000000 
#    z 0.000000 0.000000 1.666240 
# 
# From -- ./inp_files/18626.got.cif
#   From: 2010.03.12/outbox.cif.g09.slc.cpg/sg51_10_cif.got.tgz:18626.got - 2010.04.16 13:43:02.
