data_PCOD8207357
_publ_section_title
;
Structure prediction by ZEFSAII (Michael W. Deem and Ramdas Pophale) SiO2 
 PCOD8207357
Probable space group: P M M A
;
_chemical_formula_sum "Si O2"
_cell_formula_units_Z 40
_cell_length_a 18.764328
_cell_length_b 13.604604
_cell_length_c 7.673886
_cell_angle_alpha 90.000000
_cell_angle_beta 90.000000
_cell_angle_gamma 90.000000
_cell_volume 1958.999224
_symmetry_space_group_name_H-M "P M M A"
_symmetry_group_IT_number 51
_symmetry_cell_setting 'orthorhombic'
loop_
_space_group_symop_operation_xyz
x,y,z
1/2-x,-y,z
1/2+x,-y,-z
-x,y,-z
-x,-y,-z
1/2+x,y,-z
1/2-x,y,z
x,-y,z
loop_
_atom_site_type_symbol
_atom_site_label
_atom_site_fract_x
_atom_site_fract_y
_atom_site_fract_z
Si Si1 0.922329 0.192906 0.695607
Si Si2 0.075479 0.113401 0.678100
Si Si3 0.332482 0.807182 0.977586
Si Si4 0.582535 0.607586 0.537564
Si Si5 0.668476 0.390295 0.195757
O O1 0.900114 0.137231 0.518798
O O2 0.904078 0.309028 0.681214
O O3 0.006313 0.177502 0.731564
O O4 0.876083 0.152840 0.856258
O O5 0.140464 0.136609 0.806218
O O6 0.053786 0.000000 0.690805
O O7 0.250000 0.833398 0.004663
O O8 0.344570 0.689691 0.955547
O O9 0.500000 0.601438 0.500000
O O10 0.610370 0.500000 0.601561
O O11 0.621347 0.639704 0.360611
O O12 0.750000 0.386736 0.258463
O O13 0.648453 0.500000 0.127075
#
# Coordination Sequence:
#
# PCOD8207357 Si02
#       5
#     8   8   8   8   8
#     4  11  21  39  64  92 117 156 203 243 294 362
#     4  11  24  44  65  85 115 156 201 251 304 356
#     4  11  24  39  61  92 123 155 195 245 298 352
#     4  10  18  32  58  90 121 153 194 243 290 342
#     4   9  18  35  57  82 120 165 197 227 282 354
#
# _framework density 20.418589000000001
#
# number of rings (size 3 to 8) (size 9 to 14) (size 15 to 20)
#    0.000    1.600    4.000    1.800    0.000    5.200 
#    0.000    0.000    0.000    6.000    0.000    0.000 
#    0.000    0.000    0.000    0.000    0.000    0.000 
#
# Total GULP energy -495966.326208 kJ/mol
# GULP energy per Si atom -12399.158155 kJ/mol
# Density = 2.037212 g / cm^3
# Si number density = 20.418589 Si / 1000 Ang^3
#
#
#
# Elastic Constant Matrix: (Units=GPa)
#
#
# Indices 1 2 3 4 5 6 
#
# 1 93.1978 20.1805 64.8868 0.0000 0.0000 0.0000
# 2 20.1805 95.1546 28.3368 0.0000 0.0000 0.0000
# 3 64.8868 28.3368 101.0961 0.0000 0.0000 0.0000
# 4 0.0000 0.0000 0.0000 12.3615 0.0000 0.0000
# 5 0.0000 0.0000 0.0000 0.0000 29.5506 0.0000
# 6 0.0000 0.0000 0.0000 0.0000 0.0000 -16.0524
#
#
#
# Elastic Compliance Matrix: (Units=1/GPa)
#
#
# Indices 1 2 3 4 5 6 
#
# 1 0.019415 -0.000444 -0.012337 0.000000 0.000000 0.000000
# 2 -0.000444 0.011476 -0.002932 0.000000 0.000000 0.000000
# 3 -0.012337 -0.002932 0.018632 0.000000 0.000000 0.000000
# 4 0.000000 0.000000 0.000000 0.080896 0.000000 0.000000
# 5 0.000000 0.000000 0.000000 0.000000 0.033840 0.000000
# 6 0.000000 0.000000 0.000000 0.000000 0.000000 -0.062296
#
#
# Mechanical properties :
#
#
# Convention : Reuss Voigt Hill
#
# Bulk Modulus (GPa) = 55.25468 57.36186 56.30827
# Shear Modulus (GPa) = 35.86231 16.90823 26.38527
#
# Velocity S-wave (km/s) = 4.19544 2.88076 3.59864
# Velocity P-wave (km/s) = 7.11257 6.26251 6.70103
#
# Compressibility (1/GPa) = 0.01809801
#
# Stress axis : x y z
#
# Youngs Moduli (GPa) = 51.50569 87.13485 53.67184
#
# Poissons Ratio (x) = 0.03866 0.66215
# Poissons Ratio (y) = 0.02285 0.15737
# Poissons Ratio (z) = 0.63543 0.25548
#
# Static dielectric constant tensor:
#      x y z
#    x 3.528820 0.000000 0.000000 
#    y 0.000000 4.148220 0.000000 
#    z 0.000000 0.000000 3.420120 
# 
# 
# High freq. dielectric constant tensor:
#      x y z
#    x 1.790090 0.000000 0.000000 
#    y 0.000000 1.810460 0.000000 
#    z 0.000000 0.000000 1.777400 
# 
# From -- ./inp_files/9409.got.cif
#   From: 2010.03.12/outbox.cif.g09.slc.cpg/sg51_5_cif.got.tgz:9409.got - 2010.04.16 13:43:02.
