data_PCOD8207162
_publ_section_title
;
Structure prediction by ZEFSAII (Michael W. Deem and Ramdas Pophale) SiO2 
 PCOD8207162
Probable space group: P M M A
;
_chemical_formula_sum "Si O2"
_cell_formula_units_Z 40
_cell_length_a 8.528196
_cell_length_b 11.743662
_cell_length_c 20.444979
_cell_angle_alpha 90.000000
_cell_angle_beta 90.000000
_cell_angle_gamma 90.000000
_cell_volume 2047.610675
_symmetry_space_group_name_H-M "P M M A"
_symmetry_group_IT_number 51
_symmetry_cell_setting 'orthorhombic'
loop_
_space_group_symop_operation_xyz
x,y,z
1/2-x,-y,z
1/2+x,-y,-z
-x,y,-z
-x,-y,-z
1/2+x,y,-z
1/2-x,y,z
x,-y,z
loop_
_atom_site_type_symbol
_atom_site_label
_atom_site_fract_x
_atom_site_fract_y
_atom_site_fract_z
Si Si1 0.067899 0.500000 0.598921
Si Si2 0.065224 0.628896 0.068317
Si Si3 0.435907 0.728535 0.201828
Si Si4 0.432343 0.131687 0.686506
Si Si5 0.930739 0.500000 0.736696
Si Si6 0.434939 0.733582 0.435067
O O1 0.250000 0.500000 0.619081
O O2 0.952875 0.500000 0.660190
O O3 0.025875 0.386467 0.559755
O O4 0.250000 0.623231 0.064240
O O5 0.001425 0.500000 0.082150
O O6 0.015704 0.718261 0.125305
O O7 0.000000 0.676694 0.000000
O O8 0.250000 0.741425 0.210617
O O9 0.517917 0.832383 0.239841
O O10 0.505558 0.613717 0.233900
O O11 0.250000 0.156031 0.676221
O O12 0.527279 0.200388 0.631685
O O13 0.473928 0.000000 0.678243
O O14 0.750000 0.500000 0.756791
O O15 0.500000 0.800216 0.500000
O O16 0.250000 0.715624 0.438706
#
# Coordination Sequence:
#
# PCOD8207162 Si02
#       6
#     4   8   8   8   4   8
#     4  12  23  37  58  89 124 153 187 230 282 343
#     4   9  17  30  49  80 119 156 187 223 274 335
#     4  10  19  34  58  84 116 152 191 234 283 341
#     4  11  25  43  61  84 113 146 191 244 293 342
#     4  10  18  31  54  85 115 151 187 230 285 341
#     4  12  25  42  63  87 117 152 190 233 285 343
#
# _framework density 19.534966000000001
#
# number of rings (size 3 to 8) (size 9 to 14) (size 15 to 20)
#    0.000    1.400    3.000    3.600    0.000    2.800 
#    0.000    0.000    0.000    0.600    0.000    0.000 
#    0.000    0.000    0.000    0.000    0.000    0.000 
#
# Total GULP energy -495863.005519 kJ/mol
# GULP energy per Si atom -12396.575138 kJ/mol
# Density = 1.949050 g / cm^3
# Si number density = 19.534966 Si / 1000 Ang^3
#
#
#
# Elastic Constant Matrix: (Units=GPa)
#
#
# Indices 1 2 3 4 5 6 
#
# 1 65.1367 35.7057 25.9062 0.0000 0.0000 0.0000
# 2 35.7057 79.2564 39.4087 0.0000 0.0000 0.0000
# 3 25.9062 39.4087 144.4137 0.0000 0.0000 0.0000
# 4 0.0000 0.0000 0.0000 -62.2468 0.0000 0.0000
# 5 0.0000 0.0000 0.0000 0.0000 34.4409 0.0000
# 6 0.0000 0.0000 0.0000 0.0000 0.0000 21.0457
#
#
#
# Elastic Compliance Matrix: (Units=1/GPa)
#
#
# Indices 1 2 3 4 5 6 
#
# 1 0.020611 -0.008616 -0.001346 0.000000 0.000000 0.000000
# 2 -0.008616 0.018200 -0.003421 0.000000 0.000000 0.000000
# 3 -0.001346 -0.003421 0.008100 0.000000 0.000000 0.000000
# 4 0.000000 0.000000 0.000000 -0.016065 0.000000 0.000000
# 5 0.000000 0.000000 0.000000 0.000000 0.029035 0.000000
# 6 0.000000 0.000000 0.000000 0.000000 0.000000 0.047516
#
#
# Mechanical properties :
#
#
# Convention : Reuss Voigt Hill
#
# Bulk Modulus (GPa) = 49.64237 54.53866 52.09051
# Shear Modulus (GPa) = 35.49206 11.16703 23.32955
#
# Velocity S-wave (km/s) = 4.26707 2.39350 3.45953
# Velocity P-wave (km/s) = 7.05297 5.96804 6.53307
#
# Compressibility (1/GPa) = 0.02014408
#
# Stress axis : x y z
#
# Youngs Moduli (GPa) = 48.51853 54.94562 123.46358
#
# Poissons Ratio (x) = 0.47341 0.16620
# Poissons Ratio (y) = 0.41803 0.42236
# Poissons Ratio (z) = 0.06531 0.18796
#
# Static dielectric constant tensor:
#      x y z
#    x 3.415690 0.000000 0.000000 
#    y 0.000000 3.431400 0.000000 
#    z 0.000000 0.000000 3.933490 
# 
# 
# High freq. dielectric constant tensor:
#      x y z
#    x 1.755520 0.000000 0.000000 
#    y 0.000000 1.727920 0.000000 
#    z 0.000000 0.000000 1.776760 
# 
# From -- ./inp_files/31409.got.cif
#   From: 2010.03.12/outbox.cif.g09.slc.cpg/sg51_16_cif.got.tgz:31409.got - 2010.04.16 13:43:02.
