data_PCOD8207686
_publ_section_title
;
Structure prediction by ZEFSAII (Michael W. Deem and Ramdas Pophale) SiO2 
 PCOD8207686
Probable space group: P M M A
;
_chemical_formula_sum "Si O2"
_cell_formula_units_Z 64
_cell_length_a 26.209591
_cell_length_b 8.947613
_cell_length_c 18.109803
_cell_angle_alpha 90.000000
_cell_angle_beta 90.000000
_cell_angle_gamma 90.000000
_cell_volume 4246.989250
_symmetry_space_group_name_H-M "P M M A"
_symmetry_group_IT_number 51
_symmetry_cell_setting 'orthorhombic'
loop_
_space_group_symop_operation_xyz
x,y,z
1/2-x,-y,z
1/2+x,-y,-z
-x,y,-z
-x,-y,-z
1/2+x,y,-z
1/2-x,y,z
x,-y,z
loop_
_atom_site_type_symbol
_atom_site_label
_atom_site_fract_x
_atom_site_fract_y
_atom_site_fract_z
Si Si1 0.448657 0.831944 0.546454
Si Si2 0.898381 0.324276 0.909516
Si Si3 0.691335 0.172184 0.664740
Si Si4 0.049067 0.664658 0.948605
Si Si5 0.491814 0.176246 0.171373
Si Si6 0.103010 0.325493 0.419218
Si Si7 0.691558 0.828210 0.834678
Si Si8 0.996989 0.324444 0.672133
O O1 0.500000 0.832700 0.500000
O O2 0.404316 0.758548 0.497050
O O3 0.457572 0.733739 0.619576
O O4 0.432488 0.000000 0.568499
O O5 0.906825 0.500000 0.897521
O O6 0.938503 0.239750 0.857780
O O7 0.841768 0.277291 0.886864
O O8 0.905505 0.282185 0.996453
O O9 0.750000 0.199642 0.642793
O O10 0.656843 0.277277 0.614429
O O11 0.682358 0.215885 0.749761
O O12 0.676252 0.000000 0.651753
O O13 0.060680 0.500000 0.915337
O O14 0.039159 0.779265 0.881962
O O15 0.000000 0.654977 0.000000
O O16 0.503195 0.240458 0.251298
O O17 0.487732 0.000000 0.175586
O O18 0.103292 0.500000 0.436121
O O19 0.058087 0.284020 0.362067
O O20 0.750000 0.800791 0.856619
O O21 0.676310 0.000000 0.847605
O O22 0.003392 0.500000 0.684046
#
# Coordination Sequence:
#
# PCOD8207686 Si02
#       8
#     8   8   8   8   8   8   8   8
#     4   9  17  29  44  61  82 109 140 173 208 247
#     4  10  19  30  44  61  83 113 145 176 213 254
#     4   9  18  31  44  59  82 112 144 178 214 248
#     4   8  16  30  43  57  81 110 139 173 212 251
#     4  11  20  28  42  63  85 111 144 177 210 251
#     4  10  19  29  43  62  83 111 144 175 210 250
#     4   9  18  31  45  62  85 112 143 180 217 250
#     4  10  19  30  43  61  87 114 141 174 210 250
#
# _framework density 15.069499
#
# number of rings (size 3 to 8) (size 9 to 14) (size 15 to 20)
#    0.000    2.500    0.000    4.875    0.000    8.750 
#    0.000    1.250    0.000    0.000    0.000    0.000 
#    0.000    1.000    0.000    7.250    0.000    6.000 
#
# Total GULP energy -793534.075774 kJ/mol
# GULP energy per Si atom -12398.969934 kJ/mol
# Density = 1.503520 g / cm^3
# Si number density = 15.069499 Si / 1000 Ang^3
#
#
#
# Elastic Constant Matrix: (Units=GPa)
#
#
# Indices 1 2 3 4 5 6 
#
# 1 63.1002 35.0831 43.5082 0.0000 0.0000 0.0000
# 2 35.0831 93.8237 53.9573 0.0000 0.0000 0.0000
# 3 43.5082 53.9573 90.2154 0.0000 0.0000 0.0000
# 4 0.0000 0.0000 0.0000 26.2345 0.0000 0.0000
# 5 0.0000 0.0000 0.0000 0.0000 26.4592 0.0000
# 6 0.0000 0.0000 0.0000 0.0000 0.0000 21.5066
#
#
#
# Elastic Compliance Matrix: (Units=1/GPa)
#
#
# Indices 1 2 3 4 5 6 
#
# 1 0.024520 -0.003610 -0.009666 0.000000 0.000000 0.000000
# 2 -0.003610 0.016778 -0.008294 0.000000 0.000000 0.000000
# 3 -0.009666 -0.008294 0.020707 0.000000 0.000000 0.000000
# 4 0.000000 0.000000 0.000000 0.038118 0.000000 0.000000
# 5 0.000000 0.000000 0.000000 0.000000 0.037794 0.000000
# 6 0.000000 0.000000 0.000000 0.000000 0.000000 0.046497
#
#
# Mechanical properties :
#
#
# Convention : Reuss Voigt Hill
#
# Bulk Modulus (GPa) = 53.00857 56.91517 54.96187
# Shear Modulus (GPa) = 21.38203 22.47943 21.93073
#
# Velocity S-wave (km/s) = 3.77091 3.86647 3.81899
# Velocity P-wave (km/s) = 7.36289 7.60153 7.48316
#
# Compressibility (1/GPa) = 0.01886487
#
# Stress axis : x y z
#
# Youngs Moduli (GPa) = 40.78362 59.60270 48.29315
#
# Poissons Ratio (x) = 0.21514 0.46681
# Poissons Ratio (y) = 0.14721 0.40054
# Poissons Ratio (z) = 0.39422 0.49434
#
# Static dielectric constant tensor:
#      x y z
#    x 2.759640 0.000000 0.000000 
#    y 0.000000 2.982150 0.000000 
#    z 0.000000 0.000000 2.959630 
# 
# 
# High freq. dielectric constant tensor:
#      x y z
#    x 1.542480 0.000000 0.000000 
#    y 0.000000 1.589720 0.000000 
#    z 0.000000 0.000000 1.565670 
# 
# From -- ./inp_files/30980.got.cif
#   From: 2010.03.12/outbox.cif.g09.slc.cpg/sg51_16_cif.got.tgz:30980.got - 2010.04.16 13:43:02.
