data_PCOD8207018
_publ_section_title
;
Structure prediction by ZEFSAII (Michael W. Deem and Ramdas Pophale) SiO2 
 PCOD8207018
Probable space group: P M M A
;
_chemical_formula_sum "Si O2"
_cell_formula_units_Z 40
_cell_length_a 16.284191
_cell_length_b 9.170176
_cell_length_c 13.311836
_cell_angle_alpha 90.000000
_cell_angle_beta 90.000000
_cell_angle_gamma 90.000000
_cell_volume 1987.841793
_symmetry_space_group_name_H-M "P M M A"
_symmetry_group_IT_number 51
_symmetry_cell_setting 'orthorhombic'
loop_
_space_group_symop_operation_xyz
x,y,z
1/2-x,-y,z
1/2+x,-y,-z
-x,y,-z
-x,-y,-z
1/2+x,y,-z
1/2-x,y,z
x,-y,z
loop_
_atom_site_type_symbol
_atom_site_label
_atom_site_fract_x
_atom_site_fract_y
_atom_site_fract_z
Si Si1 0.569434 0.826593 0.074656
Si Si2 0.601054 0.334938 0.430966
Si Si3 0.750000 0.828755 0.088361
Si Si4 0.750000 0.339713 0.283260
Si Si5 0.656548 0.328603 0.650704
Si Si6 0.007438 0.172379 0.284070
O O1 0.662101 0.768527 0.044595
O O2 0.546973 0.778058 0.188148
O O3 0.568904 0.000000 0.066994
O O4 0.500000 0.761152 0.000000
O O5 0.567715 0.500000 0.438860
O O6 0.672259 0.321825 0.351863
O O7 0.634621 0.280185 0.537408
O O8 0.527589 0.234993 0.389193
O O9 0.750000 0.791095 0.205268
O O10 0.750000 0.000000 0.076125
O O11 0.750000 0.500000 0.230665
O O12 0.750000 0.284221 0.674105
O O13 0.643350 0.500000 0.665923
O O14 0.598745 0.239767 0.727861
O O15 0.013521 0.000000 0.290655
#
# Coordination Sequence:
#
# PCOD8207018 Si02
#       6
#     8   8   4   4   8   8
#     4   9  19  36  56  82 110 139 180 226 273 332
#     4  10  19  34  56  80 107 145 187 222 261 315
#     4  10  18  34  60  81 104 142 180 223 282 329
#     4  10  18  30  54  83 108 136 180 229 266 305
#     4  10  21  38  56  75 107 152 193 221 257 321
#     4  11  22  35  54  82 113 139 175 229 281 323
#
# _framework density 20.122326000000001
#
# number of rings (size 3 to 8) (size 9 to 14) (size 15 to 20)
#    0.000    2.000    3.000    1.200    0.000    3.600 
#    1.800    0.000    0.000    5.400    0.000    0.000 
#    0.000    0.000    0.000    0.000    0.000    0.000 
#
# Total GULP energy -495698.327797 kJ/mol
# GULP energy per Si atom -12392.458195 kJ/mol
# Density = 2.007653 g / cm^3
# Si number density = 20.122326 Si / 1000 Ang^3
#
#
#
# Elastic Constant Matrix: (Units=GPa)
#
#
# Indices 1 2 3 4 5 6 
#
# 1 184.5159 36.4228 36.2567 0.0000 0.0000 0.0000
# 2 36.4228 34.6311 10.5977 0.0000 0.0000 0.0000
# 3 36.2567 10.5977 37.3527 0.0000 0.0000 0.0000
# 4 0.0000 0.0000 0.0000 18.1815 0.0000 0.0000
# 5 0.0000 0.0000 0.0000 0.0000 19.3480 0.0000
# 6 0.0000 0.0000 0.0000 0.0000 0.0000 30.7194
#
#
#
# Elastic Compliance Matrix: (Units=1/GPa)
#
#
# Indices 1 2 3 4 5 6 
#
# 1 0.007829 -0.006471 -0.005764 0.000000 0.000000 0.000000
# 2 -0.006471 0.036969 -0.004208 0.000000 0.000000 0.000000
# 3 -0.005764 -0.004208 0.033560 0.000000 0.000000 0.000000
# 4 0.000000 0.000000 0.000000 0.055001 0.000000 0.000000
# 5 0.000000 0.000000 0.000000 0.000000 0.051685 0.000000
# 6 0.000000 0.000000 0.000000 0.000000 0.000000 0.032553
#
#
# Mechanical properties :
#
#
# Convention : Reuss Voigt Hill
#
# Bulk Modulus (GPa) = 21.99068 47.00600 34.49834
# Shear Modulus (GPa) = 18.82243 25.19795 22.01019
#
# Velocity S-wave (km/s) = 3.06175 3.54254 3.31088
# Velocity P-wave (km/s) = 4.84265 6.33590 5.63892
#
# Compressibility (1/GPa) = 0.04547381
#
# Stress axis : x y z
#
# Youngs Moduli (GPa) = 127.72275 27.04966 29.79696
#
# Poissons Ratio (x) = 0.17503 0.17175
# Poissons Ratio (y) = 0.82646 0.12539
# Poissons Ratio (z) = 0.73618 0.11383
#
# Static dielectric constant tensor:
#      x y z
#    x 4.058660 0.000000 0.000000 
#    y 0.000000 3.376690 0.000000 
#    z 0.000000 0.000000 3.511650 
# 
# 
# High freq. dielectric constant tensor:
#      x y z
#    x 1.816960 0.000000 0.000000 
#    y 0.000000 1.750300 0.000000 
#    z 0.000000 0.000000 1.759280 
# 
# From -- ./inp_files/23729.got.cif
#   From: 2010.03.12/outbox.cif.g09.slc.cpg/sg51_12_cif.got.tgz:23729.got - 2010.04.16 13:43:02.
