data_PCOD8207295
_publ_section_title
;
Structure prediction by ZEFSAII (Michael W. Deem and Ramdas Pophale) SiO2 
 PCOD8207295
Probable space group: P M M A
;
_chemical_formula_sum "Si O2"
_cell_formula_units_Z 64
_cell_length_a 18.424055
_cell_length_b 9.554123
_cell_length_c 19.998407
_cell_angle_alpha 90.000000
_cell_angle_beta 90.000000
_cell_angle_gamma 90.000000
_cell_volume 3520.233344
_symmetry_space_group_name_H-M "P M M A"
_symmetry_group_IT_number 51
_symmetry_cell_setting 'orthorhombic'
loop_
_space_group_symop_operation_xyz
x,y,z
1/2-x,-y,z
1/2+x,-y,-z
-x,y,-z
-x,-y,-z
1/2+x,y,-z
1/2-x,y,z
x,-y,z
loop_
_atom_site_type_symbol
_atom_site_label
_atom_site_fract_x
_atom_site_fract_y
_atom_site_fract_z
Si Si1 0.834451 0.660186 0.900838
Si Si2 0.169168 0.657878 0.353028
Si Si3 0.449804 0.165090 0.596148
Si Si4 0.064422 0.834301 0.745172
Si Si5 0.331056 0.164848 0.860273
Si Si6 0.604283 0.834940 0.541896
Si Si7 0.083096 0.834044 0.990088
Si Si8 0.926264 0.337368 0.770333
O O1 0.750000 0.693097 0.891957
O O2 0.847354 0.500000 0.923301
O O3 0.866646 0.763404 0.955262
O O4 0.872742 0.692013 0.831092
O O5 0.250000 0.665394 0.323098
O O6 0.149345 0.500000 0.373821
O O7 0.167162 0.753934 0.419195
O O8 0.114442 0.712708 0.296583
O O9 0.424603 0.221259 0.668852
O O10 0.394954 0.210355 0.536544
O O11 0.529857 0.217206 0.576814
O O12 0.452021 0.000000 0.598093
O O13 0.135667 0.794619 0.787988
O O14 0.997082 0.757000 0.779561
O O15 0.049104 0.000000 0.747440
O O16 0.250000 0.231713 0.866779
O O17 0.323698 0.000000 0.866314
O O18 0.385696 0.217046 0.918367
O O19 0.615940 0.000000 0.549467
O O20 0.088720 0.000000 0.998650
O O21 0.000000 0.783816 0.000000
O O22 0.948484 0.500000 0.766460
#
# Coordination Sequence:
#
# PCOD8207295 Si02
#       8
#     8   8   8   8   8   8   8   8
#     4  10  21  36  53  74 102 137 173 209 253 305
#     4  10  20  33  48  69 101 138 171 206 252 304
#     4   8  15  28  49  74 100 125 156 208 260 294
#     4  10  18  32  55  78  99 130 171 211 247 296
#     4   9  18  32  51  76 105 133 162 203 256 306
#     4   9  16  30  49  71  99 129 163 206 257 301
#     4  10  20  35  55  79 104 132 168 213 259 304
#     4  10  20  34  51  73 102 134 169 210 255 301
#
# _framework density 18.180613000000001
#
# number of rings (size 3 to 8) (size 9 to 14) (size 15 to 20)
#    0.000    2.500    1.250    2.250    0.000    4.250 
#    0.000    3.125    0.000    5.625    0.000    0.000 
#    0.000    0.000    0.000    0.000    0.000    0.000 
#
# Total GULP energy -793344.280766 kJ/mol
# GULP energy per Si atom -12396.004387 kJ/mol
# Density = 1.813923 g / cm^3
# Si number density = 18.180613 Si / 1000 Ang^3
#
#
#
# Elastic Constant Matrix: (Units=GPa)
#
#
# Indices 1 2 3 4 5 6 
#
# 1 104.3922 23.2949 61.6460 0.0000 0.0000 0.0000
# 2 23.2949 33.3453 33.7554 0.0000 0.0000 0.0000
# 3 61.6460 33.7554 135.4690 0.0000 0.0000 0.0000
# 4 0.0000 0.0000 0.0000 19.3483 0.0000 0.0000
# 5 0.0000 0.0000 0.0000 0.0000 25.6194 0.0000
# 6 0.0000 0.0000 0.0000 0.0000 0.0000 23.0653
#
#
#
# Elastic Compliance Matrix: (Units=1/GPa)
#
#
# Indices 1 2 3 4 5 6 
#
# 1 0.013547 -0.004311 -0.005091 0.000000 0.000000 0.000000
# 2 -0.004311 0.041477 -0.008373 0.000000 0.000000 0.000000
# 3 -0.005091 -0.008373 0.011785 0.000000 0.000000 0.000000
# 4 0.000000 0.000000 0.000000 0.051684 0.000000 0.000000
# 5 0.000000 0.000000 0.000000 0.000000 0.039033 0.000000
# 6 0.000000 0.000000 0.000000 0.000000 0.000000 0.043355
#
#
# Mechanical properties :
#
#
# Convention : Reuss Voigt Hill
#
# Bulk Modulus (GPa) = 31.99032 56.73323 44.36177
# Shear Modulus (GPa) = 20.25514 23.90729 22.08122
#
# Velocity S-wave (km/s) = 3.34144 3.63021 3.48882
# Velocity P-wave (km/s) = 5.70272 6.98887 6.37830
#
# Compressibility (1/GPa) = 0.03125946
#
# Stress axis : x y z
#
# Youngs Moduli (GPa) = 73.81512 24.10970 84.85563
#
# Poissons Ratio (x) = 0.10393 0.43197
# Poissons Ratio (y) = 0.31821 0.71053
# Poissons Ratio (z) = 0.37577 0.20188
#
# Static dielectric constant tensor:
#      x y z
#    x 3.388470 0.000000 0.000000 
#    y 0.000000 3.054280 0.000000 
#    z 0.000000 0.000000 3.697860 
# 
# 
# High freq. dielectric constant tensor:
#      x y z
#    x 1.696600 0.000000 0.000000 
#    y 0.000000 1.672040 0.000000 
#    z 0.000000 0.000000 1.717040 
# 
# From -- ./inp_files/30538.got.cif
#   From: 2010.03.12/outbox.cif.g09.slc.cpg/sg51_16_cif.got.tgz:30538.got - 2010.04.16 13:43:02.
