data_PCOD8207792
_publ_section_title
;
Structure prediction by ZEFSAII (Michael W. Deem and Ramdas Pophale) SiO2 
 PCOD8207792
Probable space group: P M M A
;
_chemical_formula_sum "Si O2"
_cell_formula_units_Z 64
_cell_length_a 18.915574
_cell_length_b 9.932064
_cell_length_c 19.489577
_cell_angle_alpha 90.000000
_cell_angle_beta 90.000000
_cell_angle_gamma 90.000000
_cell_volume 3661.520309
_symmetry_space_group_name_H-M "P M M A"
_symmetry_group_IT_number 51
_symmetry_cell_setting 'orthorhombic'
loop_
_space_group_symop_operation_xyz
x,y,z
1/2-x,-y,z
1/2+x,-y,-z
-x,y,-z
-x,-y,-z
1/2+x,y,-z
1/2-x,y,z
x,-y,z
loop_
_atom_site_type_symbol
_atom_site_label
_atom_site_fract_x
_atom_site_fract_y
_atom_site_fract_z
Si Si1 0.829219 0.350779 0.259990
Si Si2 0.417271 0.156701 0.490944
Si Si3 0.831089 0.840222 0.643052
Si Si4 0.563540 0.840448 0.188988
Si Si5 0.595089 0.159645 0.780917
Si Si6 0.171109 0.350840 0.577989
Si Si7 0.570445 0.159966 0.033899
Si Si8 0.828781 0.839404 0.916578
O O1 0.750000 0.323841 0.232550
O O2 0.854357 0.500000 0.235850
O O3 0.878960 0.233147 0.234163
O O4 0.829805 0.344566 0.341059
O O5 0.500000 0.186971 0.500000
O O6 0.383070 0.205984 0.418747
O O7 0.381045 0.237643 0.551446
O O8 0.401265 0.000000 0.501812
O O9 0.750000 0.786306 0.634019
O O10 0.865304 0.782209 0.713468
O O11 0.829244 0.000000 0.646632
O O12 0.486811 0.797494 0.217485
O O13 0.575575 0.788113 0.111499
O O14 0.574708 0.000000 0.195028
O O15 0.631564 0.218161 0.849525
O O16 0.601306 0.000000 0.781149
O O17 0.250000 0.320767 0.550485
O O18 0.147329 0.500000 0.553161
O O19 0.566393 0.000000 0.034667
O O20 0.500000 0.219772 0.000000
O O21 0.635378 0.211087 0.987181
O O22 0.750000 0.781452 0.916122
O O23 0.829832 0.000000 0.914134
#
# Coordination Sequence:
#
# PCOD8207792 Si02
#       8
#     8   8   8   8   8   8   8   8
#     4   9  20  38  55  72  99 134 169 206 251 304
#     4  10  21  33  49  77 108 134 163 205 256 308
#     4   9  17  29  44  64  97 136 167 198 243 299
#     4  10  19  29  50  77 103 131 163 208 257 301
#     4   9  16  26  42  67  96 129 165 202 244 292
#     4   9  19  37  58  75  95 130 173 211 249 300
#     4   9  15  26  40  63 100 136 162 196 251 300
#     4   9  15  23  38  61  92 131 169 200 237 291
#
# _framework density 17.479078000000001
#
# number of rings (size 3 to 8) (size 9 to 14) (size 15 to 20)
#    0.000    2.750    1.250    1.500    1.750    3.750 
#    0.000    2.500    0.000    0.375    0.000    0.000 
#    0.000    1.500    0.000    0.250    0.000    0.000 
#
# Total GULP energy -793235.919990 kJ/mol
# GULP energy per Si atom -12394.311250 kJ/mol
# Density = 1.743930 g / cm^3
# Si number density = 17.479078 Si / 1000 Ang^3
#
#
#
# Elastic Constant Matrix: (Units=GPa)
#
#
# Indices 1 2 3 4 5 6 
#
# 1 143.2315 42.0732 63.0986 0.0000 0.0000 0.0000
# 2 42.0732 34.8568 23.1931 0.0000 0.0000 0.0000
# 3 63.0986 23.1931 81.9140 0.0000 0.0000 0.0000
# 4 0.0000 0.0000 0.0000 8.4782 0.0000 0.0000
# 5 0.0000 0.0000 0.0000 0.0000 37.7153 0.0000
# 6 0.0000 0.0000 0.0000 0.0000 0.0000 12.2140
#
#
#
# Elastic Compliance Matrix: (Units=1/GPa)
#
#
# Indices 1 2 3 4 5 6 
#
# 1 0.013530 -0.011577 -0.007144 0.000000 0.000000 0.000000
# 2 -0.011577 0.045255 -0.003895 0.000000 0.000000 0.000000
# 3 -0.007144 -0.003895 0.018814 0.000000 0.000000 0.000000
# 4 0.000000 0.000000 0.000000 0.117950 0.000000 0.000000
# 5 0.000000 0.000000 0.000000 0.000000 0.026514 0.000000
# 6 0.000000 0.000000 0.000000 0.000000 0.000000 0.081873
#
#
# Mechanical properties :
#
#
# Convention : Reuss Voigt Hill
#
# Bulk Modulus (GPa) = 30.89745 57.41468 44.15606
# Shear Modulus (GPa) = 13.89055 20.45732 17.17394
#
# Velocity S-wave (km/s) = 2.82209 3.42481 3.13795
# Velocity P-wave (km/s) = 5.32298 6.96836 6.20049
#
# Compressibility (1/GPa) = 0.03236513
#
# Stress axis : x y z
#
# Youngs Moduli (GPa) = 73.91219 22.09708 53.15229
#
# Poissons Ratio (x) = 0.25582 0.37972
# Poissons Ratio (y) = 0.85570 0.20705
# Poissons Ratio (z) = 0.52802 0.08608
#
# Static dielectric constant tensor:
#      x y z
#    x 3.531660 0.000000 0.000000 
#    y 0.000000 2.744920 0.000000 
#    z 0.000000 0.000000 3.406310 
# 
# 
# High freq. dielectric constant tensor:
#      x y z
#    x 1.687900 0.000000 0.000000 
#    y 0.000000 1.611950 0.000000 
#    z 0.000000 0.000000 1.683730 
# 
# From -- ./inp_files/30620.got.cif
#   From: 2010.03.12/outbox.cif.g09.slc.cpg/sg51_16_cif.got.tgz:30620.got - 2010.04.16 13:43:02.
