data_PCOD8207601
_publ_section_title
;
Structure prediction by ZEFSAII (Michael W. Deem and Ramdas Pophale) SiO2 
 PCOD8207601
Probable space group: P M M A
;
_chemical_formula_sum "Si O2"
_cell_formula_units_Z 52
_cell_length_a 8.930632
_cell_length_b 23.959846
_cell_length_c 19.463733
_cell_angle_alpha 90.000000
_cell_angle_beta 90.000000
_cell_angle_gamma 90.000000
_cell_volume 4164.782776
_symmetry_space_group_name_H-M "P M M A"
_symmetry_group_IT_number 51
_symmetry_cell_setting 'orthorhombic'
loop_
_space_group_symop_operation_xyz
x,y,z
1/2-x,-y,z
1/2+x,-y,-z
-x,y,-z
-x,-y,-z
1/2+x,y,-z
1/2-x,y,z
x,-y,z
loop_
_atom_site_type_symbol
_atom_site_label
_atom_site_fract_x
_atom_site_fract_y
_atom_site_fract_z
Si Si1 0.426189 0.500000 0.573366
Si Si2 0.424748 0.059076 0.426713
Si Si3 0.073415 0.712745 0.574245
Si Si4 0.074578 0.604997 0.661636
Si Si5 0.426407 0.564152 0.205956
Si Si6 0.081468 0.566413 0.932617
Si Si7 0.427321 0.821606 0.425179
O O1 0.250000 0.500000 0.562839
O O2 0.500000 0.500000 0.500000
O O3 0.480958 0.445599 0.614052
O O4 0.500000 0.058200 0.500000
O O5 0.250000 0.060375 0.441291
O O6 0.465336 0.118023 0.388410
O O7 0.467033 0.000000 0.387540
O O8 0.250000 0.718954 0.564266
O O9 0.032016 0.662088 0.624018
O O10 0.000000 0.702029 0.500000
O O11 0.005856 0.768541 0.611248
O O12 0.250000 0.600071 0.677020
O O13 0.987479 0.602873 0.733311
O O14 0.250000 0.569849 0.200730
O O15 0.475328 0.500000 0.219185
O O16 0.495375 0.587010 0.135114
O O17 0.250000 0.589680 0.930643
O O18 0.080296 0.500000 0.935820
O O19 0.000000 0.591038 0.000000
O O20 0.500000 0.823505 0.500000
O O21 0.250000 0.811228 0.429425
#
# Coordination Sequence:
#
# PCOD8207601 Si02
#       7
#     4   8   8   8   8   8   8
#     4  10  20  32  44  54  65  80 105 140 180 222
#     4   8  13  20  30  45  63  81 101 124 153 192
#     4  10  19  29  40  52  65  84 111 143 178 215
#     4  10  20  32  43  53  67  88 111 140 178 217
#     4  10  19  29  42  59  75  91 111 136 168 207
#     4   9  16  26  41  59  79  99 115 132 154 189
#     4   9  15  23  35  48  63  83 104 130 164 200
#
# _framework density 12.485645
#
# number of rings (size 3 to 8) (size 9 to 14) (size 15 to 20)
#    0.000    2.615    0.769    3.231    0.000    4.923 
#    0.000    0.000    0.000    0.000    0.000    0.000 
#    0.000    0.000    0.000    0.000    0.000    0.000 
#
# Total GULP energy -644199.251202 kJ/mol
# GULP energy per Si atom -12388.447138 kJ/mol
# Density = 1.245723 g / cm^3
# Si number density = 12.485645 Si / 1000 Ang^3
#
#
#
# Elastic Constant Matrix: (Units=GPa)
#
#
# Indices 1 2 3 4 5 6 
#
# 1 57.4905 35.7788 33.6201 0.0000 0.0000 0.0000
# 2 35.7788 109.1417 36.6664 0.0000 0.0000 0.0000
# 3 33.6201 36.6664 74.4017 0.0000 0.0000 0.0000
# 4 0.0000 0.0000 0.0000 1.7862 0.0000 0.0000
# 5 0.0000 0.0000 0.0000 0.0000 19.8563 0.0000
# 6 0.0000 0.0000 0.0000 0.0000 0.0000 14.1666
#
#
#
# Elastic Compliance Matrix: (Units=1/GPa)
#
#
# Indices 1 2 3 4 5 6 
#
# 1 0.026146 -0.005515 -0.009097 0.000000 0.000000 0.000000
# 2 -0.005515 0.012144 -0.003492 0.000000 0.000000 0.000000
# 3 -0.009097 -0.003492 0.019272 0.000000 0.000000 0.000000
# 4 0.000000 0.000000 0.000000 0.559854 0.000000 0.000000
# 5 0.000000 0.000000 0.000000 0.000000 0.050362 0.000000
# 6 0.000000 0.000000 0.000000 0.000000 0.000000 0.070588
#
#
# Mechanical properties :
#
#
# Convention : Reuss Voigt Hill
#
# Bulk Modulus (GPa) = 46.83102 50.35160 48.59131
# Shear Modulus (GPa) = 6.39637 16.15972 11.27805
#
# Velocity S-wave (km/s) = 2.26586 3.60149 3.00872
# Velocity P-wave (km/s) = 6.66594 7.59667 7.14648
#
# Compressibility (1/GPa) = 0.02135337
#
# Stress axis : x y z
#
# Youngs Moduli (GPa) = 38.24636 82.34732 51.88787
#
# Poissons Ratio (x) = 0.45416 0.47202
# Poissons Ratio (y) = 0.21093 0.18122
# Poissons Ratio (z) = 0.34792 0.28760
#
# Static dielectric constant tensor:
#      x y z
#    x 2.665750 0.000000 0.000000 
#    y 0.000000 3.062410 0.000000 
#    z 0.000000 0.000000 2.285200 
# 
# 
# High freq. dielectric constant tensor:
#      x y z
#    x 1.489910 0.000000 0.000000 
#    y 0.000000 1.461360 0.000000 
#    z 0.000000 0.000000 1.426550 
# 
# From -- ./inp_files/22420.got.cif
#   From: 2010.03.12/outbox.cif.g09.slc.cpg/sg51_12_cif.got.tgz:22420.got - 2010.04.16 13:43:02.
