data_PCOD8207570
_publ_section_title
;
Structure prediction by ZEFSAII (Michael W. Deem and Ramdas Pophale) SiO2 
 PCOD8207570
Probable space group: P M M A
;
_chemical_formula_sum "Si O2"
_cell_formula_units_Z 64
_cell_length_a 14.123461
_cell_length_b 9.179577
_cell_length_c 30.952959
_cell_angle_alpha 90.000000
_cell_angle_beta 90.000000
_cell_angle_gamma 90.000000
_cell_volume 4012.970587
_symmetry_space_group_name_H-M "P M M A"
_symmetry_group_IT_number 51
_symmetry_cell_setting 'orthorhombic'
loop_
_space_group_symop_operation_xyz
x,y,z
1/2-x,-y,z
1/2+x,-y,-z
-x,y,-z
-x,-y,-z
1/2+x,y,-z
1/2-x,y,z
x,-y,z
loop_
_atom_site_type_symbol
_atom_site_label
_atom_site_fract_x
_atom_site_fract_y
_atom_site_fract_z
Si Si1 0.047526 0.327960 0.400486
Si Si2 0.859620 0.329069 0.856252
Si Si3 0.140687 0.829476 0.323033
Si Si4 0.604589 0.837499 0.518074
Si Si5 0.540714 0.172548 0.933572
Si Si6 0.137976 0.839580 0.226964
Si Si7 0.648642 0.335354 0.438097
Si Si8 0.855338 0.827518 0.019527
O O1 0.064416 0.500000 0.401480
O O2 0.076372 0.265739 0.354381
O O3 0.111083 0.253802 0.437659
O O4 0.937101 0.283755 0.407473
O O5 0.750000 0.285588 0.864413
O O6 0.874503 0.500000 0.858898
O O7 0.926646 0.253358 0.890857
O O8 0.894386 0.275644 0.809156
O O9 0.250000 0.784498 0.329071
O O10 0.103785 0.791705 0.274651
O O11 0.127056 0.000000 0.332775
O O12 0.500000 0.844081 0.500000
O O13 0.664326 0.759366 0.481088
O O14 0.644183 0.000000 0.526881
O O15 0.432037 0.219974 0.944249
O O16 0.548101 0.000000 0.926526
O O17 0.608632 0.224468 0.972596
O O18 0.250000 0.849986 0.229010
O O19 0.097259 0.000000 0.215208
O O20 0.750000 0.326120 0.412983
O O21 0.626429 0.500000 0.453142
O O22 0.750000 0.762158 0.028936
O O23 0.850292 0.000000 0.018976
#
# Coordination Sequence:
#
# PCOD8207570 Si02
#       8
#     8   8   8   8   8   8   8   8
#     4  10  19  30  46  67  89 115 145 174 208 252
#     4  10  19  28  40  62  91 117 140 173 216 257
#     4   9  18  32  48  66  89 115 141 171 209 253
#     4   9  17  29  44  61  82 108 139 176 213 246
#     4   9  16  26  43  64  84 113 151 184 216 256
#     4   8  15  29  47  64  83 110 142 173 209 256
#     4   9  18  32  47  63  86 115 146 179 212 247
#     4   8  14  25  41  62  87 114 148 188 221 250
#
# _framework density 15.948285
#
# number of rings (size 3 to 8) (size 9 to 14) (size 15 to 20)
#    0.000    3.000    0.000    3.000    0.000    4.750 
#    0.000    2.500    0.000    1.125    0.000    0.875 
#    0.000    1.000    0.000    0.000    0.000    0.000 
#
# Total GULP energy -793133.201606 kJ/mol
# GULP energy per Si atom -12392.706275 kJ/mol
# Density = 1.591199 g / cm^3
# Si number density = 15.948285 Si / 1000 Ang^3
#
#
#
# Elastic Constant Matrix: (Units=GPa)
#
#
# Indices 1 2 3 4 5 6 
#
# 1 90.6804 33.2150 49.5995 0.0000 0.0000 0.0000
# 2 33.2150 70.4127 53.5842 0.0000 0.0000 0.0000
# 3 49.5995 53.5842 119.5888 0.0000 0.0000 0.0000
# 4 0.0000 0.0000 0.0000 11.2025 0.0000 0.0000
# 5 0.0000 0.0000 0.0000 0.0000 20.8102 0.0000
# 6 0.0000 0.0000 0.0000 0.0000 0.0000 12.7455
#
#
#
# Elastic Compliance Matrix: (Units=1/GPa)
#
#
# Indices 1 2 3 4 5 6 
#
# 1 0.014814 -0.003509 -0.004572 0.000000 0.000000 0.000000
# 2 -0.003509 0.022381 -0.008573 0.000000 0.000000 0.000000
# 3 -0.004572 -0.008573 0.014100 0.000000 0.000000 0.000000
# 4 0.000000 0.000000 0.000000 0.089266 0.000000 0.000000
# 5 0.000000 0.000000 0.000000 0.000000 0.048053 0.000000
# 6 0.000000 0.000000 0.000000 0.000000 0.000000 0.078459
#
#
# Mechanical properties :
#
#
# Convention : Reuss Voigt Hill
#
# Bulk Modulus (GPa) = 55.59547 61.49770 58.54659
# Shear Modulus (GPa) = 16.31983 18.57050 17.44516
#
# Velocity S-wave (km/s) = 3.20237 3.41606 3.31094
# Velocity P-wave (km/s) = 6.97202 7.36232 7.16983
#
# Compressibility (1/GPa) = 0.01798708
#
# Stress axis : x y z
#
# Youngs Moduli (GPa) = 67.50564 44.68020 70.92442
#
# Poissons Ratio (x) = 0.15677 0.32425
# Poissons Ratio (y) = 0.23686 0.60805
# Poissons Ratio (z) = 0.30862 0.38305
#
# Static dielectric constant tensor:
#      x y z
#    x 3.056650 0.000000 0.000000 
#    y 0.000000 3.000270 0.000000 
#    z 0.000000 0.000000 3.012500 
# 
# 
# High freq. dielectric constant tensor:
#      x y z
#    x 1.592820 0.000000 0.000000 
#    y 0.000000 1.606330 0.000000 
#    z 0.000000 0.000000 1.598540 
# 
# From -- ./inp_files/37830.got.cif
#   From: 2010.03.12/outbox.cif.g09.slc.cpg/sg51_19_cif.got.tgz:37830.got - 2010.04.16 13:43:02.
