data_PCOD8207052
_publ_section_title
;
Structure prediction by ZEFSAII (Michael W. Deem and Ramdas Pophale) SiO2 
 PCOD8207052
Probable space group: P M M A
;
_chemical_formula_sum "Si O2"
_cell_formula_units_Z 64
_cell_length_a 14.628894
_cell_length_b 13.877119
_cell_length_c 17.418128
_cell_angle_alpha 90.000000
_cell_angle_beta 90.000000
_cell_angle_gamma 90.000000
_cell_volume 3536.000219
_symmetry_space_group_name_H-M "P M M A"
_symmetry_group_IT_number 51
_symmetry_cell_setting 'orthorhombic'
loop_
_space_group_symop_operation_xyz
x,y,z
1/2-x,-y,z
1/2+x,-y,-z
-x,y,-z
-x,-y,-z
1/2+x,y,-z
1/2-x,y,z
x,-y,z
loop_
_atom_site_type_symbol
_atom_site_label
_atom_site_fract_x
_atom_site_fract_y
_atom_site_fract_z
Si Si1 0.353250 0.607473 0.748749
Si Si2 0.104795 0.894167 0.513526
Si Si3 0.147113 0.204262 0.669456
Si Si4 0.533308 0.612607 0.102961
Si Si5 0.856073 0.694901 0.963369
Si Si6 0.349775 0.113009 0.349554
Si Si7 0.502005 0.113308 0.766433
Si Si8 0.571639 0.107883 0.931947
O O1 0.250000 0.616292 0.783144
O O2 0.370077 0.500000 0.716950
O O3 0.365996 0.680609 0.677992
O O4 0.428604 0.633292 0.812629
O O5 0.117137 0.822806 0.584277
O O6 0.145477 0.844972 0.436330
O O7 0.000000 0.911037 0.500000
O O8 0.149337 0.000000 0.530808
O O9 0.250000 0.171369 0.682417
O O10 0.094787 0.151756 0.738443
O O11 0.538667 0.500000 0.082020
O O12 0.426998 0.647172 0.098004
O O13 0.600754 0.669804 0.045817
O O14 0.750000 0.658185 0.955476
O O15 0.853094 0.811103 0.951458
O O16 0.250000 0.133854 0.314671
O O17 0.421298 0.159666 0.290198
O O18 0.369822 0.000000 0.357895
O O19 0.520102 0.141700 0.854358
O O20 0.503057 0.000000 0.757176
O O21 0.615359 0.000000 0.921867
O O22 0.500000 0.104944 0.000000
#
# Coordination Sequence:
#
# PCOD8207052 Si02
#       8
#     8   8   8   8   8   8   8   8
#     4   9  19  36  56  77 102 134 173 215 261 316
#     4  10  18  31  49  75 112 144 167 203 258 311
#     4  11  21  31  52  81 108 137 170 211 266 321
#     4  10  20  36  56  79 107 135 166 215 281 337
#     4  11  21  33  53  79 105 133 175 223 273 327
#     4   9  17  30  49  71  98 135 175 212 251 297
#     4  10  20  34  51  73 104 139 177 218 258 308
#     4  10  21  38  55  70 102 149 191 228 264 305
#
# _framework density 18.099547000000001
#
# number of rings (size 3 to 8) (size 9 to 14) (size 15 to 20)
#    0.000    2.000    2.500    2.625    0.000    3.750 
#    0.000    1.250    0.000    2.625    0.000    0.000 
#    0.000    0.000    0.000    0.000    0.000    0.000 
#
# Total GULP energy -793085.030501 kJ/mol
# GULP energy per Si atom -12391.953602 kJ/mol
# Density = 1.805835 g / cm^3
# Si number density = 18.099547 Si / 1000 Ang^3
#
#
#
# Elastic Constant Matrix: (Units=GPa)
#
#
# Indices 1 2 3 4 5 6 
#
# 1 113.9586 33.4434 42.3643 0.0000 0.0000 0.0000
# 2 33.4434 72.3815 50.0343 0.0000 0.0000 0.0000
# 3 42.3643 50.0343 118.4862 0.0000 0.0000 0.0000
# 4 0.0000 0.0000 0.0000 23.5200 0.0000 0.0000
# 5 0.0000 0.0000 0.0000 0.0000 16.9053 0.0000
# 6 0.0000 0.0000 0.0000 0.0000 0.0000 22.5002
#
#
#
# Elastic Compliance Matrix: (Units=1/GPa)
#
#
# Indices 1 2 3 4 5 6 
#
# 1 0.010628 -0.003225 -0.002438 0.000000 0.000000 0.000000
# 2 -0.003225 0.020490 -0.007499 0.000000 0.000000 0.000000
# 3 -0.002438 -0.007499 0.012478 0.000000 0.000000 0.000000
# 4 0.000000 0.000000 0.000000 0.042517 0.000000 0.000000
# 5 0.000000 0.000000 0.000000 0.000000 0.059153 0.000000
# 6 0.000000 0.000000 0.000000 0.000000 0.000000 0.044444
#
#
# Mechanical properties :
#
#
# Convention : Reuss Voigt Hill
#
# Bulk Modulus (GPa) = 57.90061 61.83449 59.86755
# Shear Modulus (GPa) = 22.54364 24.51740 23.53052
#
# Velocity S-wave (km/s) = 3.53304 3.68446 3.60955
# Velocity P-wave (km/s) = 6.97873 7.23451 7.10777
#
# Compressibility (1/GPa) = 0.01727097
#
# Stress axis : x y z
#
# Youngs Moduli (GPa) = 94.09123 48.80480 80.13933
#
# Poissons Ratio (x) = 0.15741 0.19538
# Poissons Ratio (y) = 0.30347 0.60098
# Poissons Ratio (z) = 0.22940 0.36600
#
# Static dielectric constant tensor:
#      x y z
#    x 3.399410 0.000000 0.000000 
#    y 0.000000 3.423120 0.000000 
#    z 0.000000 0.000000 3.135290 
# 
# 
# High freq. dielectric constant tensor:
#      x y z
#    x 1.700130 0.000000 0.000000 
#    y 0.000000 1.681260 0.000000 
#    z 0.000000 0.000000 1.693830 
# 
# From -- ./inp_files/29993.got.cif
#   From: 2010.03.12/outbox.cif.g09.slc.cpg/sg51_15_cif.got.tgz:29993.got - 2010.04.16 13:43:02.
