data_PCOD8207577
_publ_section_title
;
Structure prediction by ZEFSAII (Michael W. Deem and Ramdas Pophale) SiO2 
 PCOD8207577
Probable space group: P M M A
;
_chemical_formula_sum "Si O2"
_cell_formula_units_Z 44
_cell_length_a 8.984527
_cell_length_b 18.311722
_cell_length_c 16.054838
_cell_angle_alpha 90.000000
_cell_angle_beta 90.000000
_cell_angle_gamma 90.000000
_cell_volume 2641.376638
_symmetry_space_group_name_H-M "P M M A"
_symmetry_group_IT_number 51
_symmetry_cell_setting 'orthorhombic'
loop_
_space_group_symop_operation_xyz
x,y,z
1/2-x,-y,z
1/2+x,-y,-z
-x,y,-z
-x,-y,-z
1/2+x,y,-z
1/2-x,y,z
x,-y,z
loop_
_atom_site_type_symbol
_atom_site_label
_atom_site_fract_x
_atom_site_fract_y
_atom_site_fract_z
Si Si1 0.928891 0.667814 0.765025
Si Si2 0.079466 0.785745 0.660768
Si Si3 0.578316 0.917319 0.588197
Si Si4 0.500000 0.695936 0.500000
Si Si5 0.412515 0.422203 0.384598
Si Si6 0.075294 0.416708 0.911474
O O1 0.750000 0.672094 0.769967
O O2 0.994705 0.611962 0.695428
O O3 0.992380 0.746001 0.735807
O O4 0.997067 0.641913 0.851733
O O5 0.250000 0.795289 0.687159
O O6 0.002251 0.864653 0.653714
O O7 0.074836 0.745394 0.570734
O O8 0.500000 0.909068 0.500000
O O9 0.750000 0.893750 0.577851
O O10 0.564460 0.000000 0.621688
O O11 0.610905 0.638102 0.543229
O O12 0.250000 0.441616 0.352527
O O13 0.489855 0.500000 0.411487
O O14 0.250000 0.399740 0.917661
O O15 0.047626 0.500000 0.880649
O O16 0.000000 0.404806 0.000000
#
# Coordination Sequence:
#
# PCOD8207577 Si02
#       6
#     8   8   8   4   8   8
#     4  10  20  33  49  69  95 126 163 204 249 296
#     4  11  21  32  48  68  96 129 164 204 246 294
#     4  10  20  33  50  71  95 125 163 205 248 295
#     4  10  19  28  41  60  86 120 162 204 243 288
#     4   9  17  28  41  57  80 114 157 202 244 284
#     4  10  20  34  53  76 101 129 164 205 251 303
#
# _framework density 16.657979999999998
#
# number of rings (size 3 to 8) (size 9 to 14) (size 15 to 20)
#    0.000    2.000    0.909    3.545    0.000    4.364 
#    0.000    0.000    0.000    8.727    0.000    0.000 
#    0.000    0.727    0.000    2.727    0.000    4.182 
#
# Total GULP energy -545075.556641 kJ/mol
# GULP energy per Si atom -12388.080833 kJ/mol
# Density = 1.662007 g / cm^3
# Si number density = 16.657980 Si / 1000 Ang^3
#
#
#
# Elastic Constant Matrix: (Units=GPa)
#
#
# Indices 1 2 3 4 5 6 
#
# 1 121.0667 50.1116 40.1084 0.0000 0.0000 0.0000
# 2 50.1116 112.1920 41.5468 0.0000 0.0000 0.0000
# 3 40.1084 41.5468 75.9124 0.0000 0.0000 0.0000
# 4 0.0000 0.0000 0.0000 21.4068 0.0000 0.0000
# 5 0.0000 0.0000 0.0000 0.0000 25.0426 0.0000
# 6 0.0000 0.0000 0.0000 0.0000 0.0000 22.5762
#
#
#
# Elastic Compliance Matrix: (Units=1/GPa)
#
#
# Indices 1 2 3 4 5 6 
#
# 1 0.010988 -0.003459 -0.003912 0.000000 0.000000 0.000000
# 2 -0.003459 0.012268 -0.004887 0.000000 0.000000 0.000000
# 3 -0.003912 -0.004887 0.017915 0.000000 0.000000 0.000000
# 4 0.000000 0.000000 0.000000 0.046714 0.000000 0.000000
# 5 0.000000 0.000000 0.000000 0.000000 0.039932 0.000000
# 6 0.000000 0.000000 0.000000 0.000000 0.000000 0.044294
#
#
# Mechanical properties :
#
#
# Convention : Reuss Voigt Hill
#
# Bulk Modulus (GPa) = 60.04421 63.63385 61.83903
# Shear Modulus (GPa) = 24.73066 25.63207 25.18137
#
# Velocity S-wave (km/s) = 3.85725 3.92692 3.89224
# Velocity P-wave (km/s) = 7.48073 7.67099 7.57646
#
# Compressibility (1/GPa) = 0.01665439
#
# Stress axis : x y z
#
# Youngs Moduli (GPa) = 91.01050 81.51359 55.82044
#
# Poissons Ratio (x) = 0.28195 0.21839
# Poissons Ratio (y) = 0.31480 0.27278
# Poissons Ratio (z) = 0.35606 0.39833
#
# Static dielectric constant tensor:
#      x y z
#    x 3.112360 0.000000 0.000000 
#    y 0.000000 3.373350 0.000000 
#    z 0.000000 0.000000 2.876410 
# 
# 
# High freq. dielectric constant tensor:
#      x y z
#    x 1.646380 0.000000 0.000000 
#    y 0.000000 1.639220 0.000000 
#    z 0.000000 0.000000 1.605280 
# 
# From -- ./inp_files/20895.got.cif
#   From: 2010.03.12/outbox.cif.g09.slc.cpg/sg51_11_cif.got.tgz:20895.got - 2010.04.16 13:43:02.
