data_PCOD8207818
_publ_section_title
;
Structure prediction by ZEFSAII (Michael W. Deem and Ramdas Pophale) SiO2 
 PCOD8207818
Probable space group: P M M A
;
_chemical_formula_sum "Si O2"
_cell_formula_units_Z 64
_cell_length_a 9.039033
_cell_length_b 22.389079
_cell_length_c 19.727129
_cell_angle_alpha 90.000000
_cell_angle_beta 90.000000
_cell_angle_gamma 90.000000
_cell_volume 3992.290040
_symmetry_space_group_name_H-M "P M M A"
_symmetry_group_IT_number 51
_symmetry_cell_setting 'orthorhombic'
loop_
_space_group_symop_operation_xyz
x,y,z
1/2-x,-y,z
1/2+x,-y,-z
-x,y,-z
-x,-y,-z
1/2+x,y,-z
1/2-x,y,z
x,-y,z
loop_
_atom_site_type_symbol
_atom_site_label
_atom_site_fract_x
_atom_site_fract_y
_atom_site_fract_z
Si Si1 0.082517 0.244325 0.855650
Si Si2 0.414588 0.836696 0.723041
Si Si3 0.413335 0.256349 0.350079
Si Si4 0.573488 0.630967 0.570980
Si Si5 0.424773 0.144479 0.068581
Si Si6 0.079831 0.569779 0.693813
Si Si7 0.576498 0.932367 0.801905
Si Si8 0.416391 0.339375 0.219492
O O1 0.250000 0.255913 0.880639
O O2 0.083070 0.206214 0.787371
O O3 0.992369 0.209024 0.913159
O O4 0.000999 0.307391 0.842753
O O5 0.250000 0.855505 0.702710
O O6 0.482902 0.801453 0.658700
O O7 0.503825 0.896842 0.739584
O O8 0.250000 0.232423 0.367403
O O9 0.470025 0.300756 0.409263
O O10 0.408411 0.294117 0.281645
O O11 0.500000 0.614668 0.500000
O O12 0.750000 0.623000 0.568317
O O13 0.508709 0.585081 0.625586
O O14 0.250000 0.150845 0.059031
O O15 0.466391 0.096529 0.126148
O O16 0.500000 0.120777 0.000000
O O17 0.250000 0.590686 0.686037
O O18 0.068475 0.500000 0.707762
O O19 0.007192 0.602086 0.758646
O O20 0.750000 0.929359 0.790239
O O21 0.517271 0.000000 0.801503
O O22 0.250000 0.357123 0.196958
#
# Coordination Sequence:
#
# PCOD8207818 Si02
#       8
#     8   8   8   8   8   8   8   8
#     4   9  16  27  43  62  83 107 137 174 218 262
#     4   9  16  25  41  63  82 103 133 173 217 255
#     4   8  15  27  42  60  81 106 135 169 212 259
#     4  10  20  32  46  63  85 115 149 183 218 255
#     4  10  19  30  43  60  84 114 149 184 217 255
#     4  10  20  32  45  62  86 117 151 184 216 252
#     4   9  18  31  44  58  81 115 149 179 213 254
#     4   9  16  27  44  64  84 107 137 175 219 261
#
# _framework density 16.030899000000002
#
# number of rings (size 3 to 8) (size 9 to 14) (size 15 to 20)
#    0.000    2.750    0.000    3.000    0.000    8.750 
#    0.000    0.000    0.000    0.000    0.000    0.000 
#    0.000    1.000    0.000    3.500    0.000    5.125 
#
# Total GULP energy -793453.826066 kJ/mol
# GULP energy per Si atom -12397.716032 kJ/mol
# Density = 1.599441 g / cm^3
# Si number density = 16.030899 Si / 1000 Ang^3
#
#
#
# Elastic Constant Matrix: (Units=GPa)
#
#
# Indices 1 2 3 4 5 6 
#
# 1 100.2022 50.3663 17.2148 0.0000 0.0000 0.0000
# 2 50.3663 93.8675 28.9757 0.0000 0.0000 0.0000
# 3 17.2148 28.9757 12.0588 0.0000 0.0000 0.0000
# 4 0.0000 0.0000 0.0000 15.4333 0.0000 0.0000
# 5 0.0000 0.0000 0.0000 0.0000 22.4237 0.0000
# 6 0.0000 0.0000 0.0000 0.0000 0.0000 24.3671
#
#
#
# Elastic Compliance Matrix: (Units=1/GPa)
#
#
# Indices 1 2 3 4 5 6 
#
# 1 0.013834 -0.005137 -0.007406 0.000000 0.000000 0.000000
# 2 -0.005137 0.043156 -0.096365 0.000000 0.000000 0.000000
# 3 -0.007406 -0.096365 0.325050 0.000000 0.000000 0.000000
# 4 0.000000 0.000000 0.000000 0.064795 0.000000 0.000000
# 5 0.000000 0.000000 0.000000 0.000000 0.044596 0.000000
# 6 0.000000 0.000000 0.000000 0.000000 0.000000 0.041039
#
#
# Mechanical properties :
#
#
# Convention : Reuss Voigt Hill
#
# Bulk Modulus (GPa) = 6.08921 44.36023 25.22472
# Shear Modulus (GPa) = 6.21097 19.74961 12.98029
#
# Velocity S-wave (km/s) = 1.97048 3.51375 2.84862
# Velocity P-wave (km/s) = 2.99728 6.64784 5.15643
#
# Compressibility (1/GPa) = 0.16422481
#
# Stress axis : x y z
#
# Youngs Moduli (GPa) = 72.28460 23.17172 3.07645
#
# Poissons Ratio (x) = 0.11903 0.02279
# Poissons Ratio (y) = 0.37131 0.29646
# Poissons Ratio (z) = 0.53537 2.23294
#
# Static dielectric constant tensor:
#      x y z
#    x 3.265330 0.000000 0.000000 
#    y 0.000000 2.986520 0.000000 
#    z 0.000000 0.000000 2.769890 
# 
# 
# High freq. dielectric constant tensor:
#      x y z
#    x 1.634350 0.000000 0.000000 
#    y 0.000000 1.597430 0.000000 
#    z 0.000000 0.000000 1.570970 
# 
# From -- ./inp_files/32544.got.cif
#   From: 2010.03.12/outbox.cif.g09.slc.cpg/sg51_17_cif.got.tgz:32544.got - 2010.04.16 13:43:02.
