data_PCOD8207855
_publ_section_title
;
Structure prediction by ZEFSAII (Michael W. Deem and Ramdas Pophale) SiO2 
 PCOD8207855
Probable space group: P M M A
;
_chemical_formula_sum "Si O2"
_cell_formula_units_Z 48
_cell_length_a 9.266931
_cell_length_b 12.432200
_cell_length_c 22.609009
_cell_angle_alpha 90.000000
_cell_angle_beta 90.000000
_cell_angle_gamma 90.000000
_cell_volume 2604.746386
_symmetry_space_group_name_H-M "P M M A"
_symmetry_group_IT_number 51
_symmetry_cell_setting 'orthorhombic'
loop_
_space_group_symop_operation_xyz
x,y,z
1/2-x,-y,z
1/2+x,-y,-z
-x,y,-z
-x,-y,-z
1/2+x,y,-z
1/2-x,y,z
x,-y,z
loop_
_atom_site_type_symbol
_atom_site_label
_atom_site_fract_x
_atom_site_fract_y
_atom_site_fract_z
Si Si1 0.080303 0.000000 0.843851
Si Si2 0.920005 0.380829 0.233507
Si Si3 0.579829 0.162066 0.056850
Si Si4 0.419198 0.377173 0.560221
Si Si5 0.421838 0.228637 0.666575
Si Si6 0.078580 0.616407 0.897565
Si Si7 0.578066 0.000000 0.290238
O O1 0.032497 0.103789 0.882294
O O2 0.250000 0.000000 0.835573
O O3 0.013705 0.000000 0.777327
O O4 0.750000 0.362809 0.230292
O O5 0.955017 0.500000 0.257944
O O6 0.987491 0.293083 0.277518
O O7 0.986131 0.366235 0.168119
O O8 0.750000 0.148416 0.046985
O O9 0.527845 0.286181 0.061083
O O10 0.500000 0.111369 0.000000
O O11 0.500000 0.349973 0.500000
O O12 0.250000 0.363045 0.549216
O O13 0.452591 0.500000 0.581192
O O14 0.476864 0.289450 0.607687
O O15 0.250000 0.233671 0.667427
O O16 0.475593 0.105043 0.673117
O O17 0.250000 0.617257 0.892622
O O18 0.025957 0.500000 0.922660
O O19 0.750000 0.000000 0.286312
#
# Coordination Sequence:
#
# PCOD8207855 Si02
#       7
#     4   8   8   8   8   8   4
#     4   9  17  29  44  63  87 111 136 173 218 258
#     4   8  12  19  34  56  80 104 131 170 219 259
#     4  10  19  30  44  62  84 110 141 174 208 250
#     4   9  17  29  45  66  92 120 148 177 208 243
#     4   9  15  23  37  60  88 113 140 176 215 253
#     4   8  14  24  38  58  84 110 135 168 213 260
#     4   9  16  25  40  63  89 113 136 171 222 264
#
# _framework density 18.427897999999999
#
# number of rings (size 3 to 8) (size 9 to 14) (size 15 to 20)
#    0.000    3.167    0.000    2.750    0.000    6.333 
#    0.000    0.417    0.000    0.000    0.000    5.833 
#    0.000    1.333    0.000    0.000    0.000    0.000 
#
# Total GULP energy -594634.330222 kJ/mol
# GULP energy per Si atom -12388.215213 kJ/mol
# Density = 1.838595 g / cm^3
# Si number density = 18.427898 Si / 1000 Ang^3
#
#
#
# Elastic Constant Matrix: (Units=GPa)
#
#
# Indices 1 2 3 4 5 6 
#
# 1 11.2088 14.7344 17.6124 0.0000 0.0000 0.0000
# 2 14.7344 141.7150 65.6228 0.0000 0.0000 0.0000
# 3 17.6124 65.6228 113.3750 0.0000 0.0000 0.0000
# 4 0.0000 0.0000 0.0000 -123.6542 0.0000 0.0000
# 5 0.0000 0.0000 0.0000 0.0000 17.8379 0.0000
# 6 0.0000 0.0000 0.0000 0.0000 0.0000 6.2599
#
#
#
# Elastic Compliance Matrix: (Units=1/GPa)
#
#
# Indices 1 2 3 4 5 6 
#
# 1 0.120860 -0.005290 -0.015713 0.000000 0.000000 0.000000
# 2 -0.005290 0.009872 -0.004892 0.000000 0.000000 0.000000
# 3 -0.015713 -0.004892 0.014093 0.000000 0.000000 0.000000
# 4 0.000000 0.000000 0.000000 -0.008087 0.000000 0.000000
# 5 0.000000 0.000000 0.000000 0.000000 0.056060 0.000000
# 6 0.000000 0.000000 0.000000 0.000000 0.000000 0.159747
#
#
# Mechanical properties :
#
#
# Convention : Reuss Voigt Hill
#
# Bulk Modulus (GPa) = 10.74873 51.35978 31.05426
# Shear Modulus (GPa) = 11.48507 -8.68933 1.39787
#
# Velocity S-wave (km/s) = 2.49919 -2.17383 0.87190
# Velocity P-wave (km/s) = 3.76477 4.65085 4.23107
#
# Compressibility (1/GPa) = 0.09303421
#
# Stress axis : x y z
#
# Youngs Moduli (GPa) = 8.27402 101.29890 70.95753
#
# Poissons Ratio (x) = 0.53585 1.11499
# Poissons Ratio (y) = 0.04377 0.34713
# Poissons Ratio (z) = 0.13001 0.49557
#
# Static dielectric constant tensor:
#      x y z
#    x 2.545060 0.000000 0.000000 
#    y 0.000000 3.827060 0.000000 
#    z 0.000000 0.000000 3.493000 
# 
# 
# High freq. dielectric constant tensor:
#      x y z
#    x 1.625150 0.000000 0.000000 
#    y 0.000000 1.731240 0.000000 
#    z 0.000000 0.000000 1.713520 
# 
# From -- ./inp_files/32958.got.cif
#   From: 2010.03.12/outbox.cif.g09.slc.cpg/sg51_17_cif.got.tgz:32958.got - 2010.04.16 13:43:02.
