data_PCOD8207781
_publ_section_title
;
Structure prediction by ZEFSAII (Michael W. Deem and Ramdas Pophale) SiO2 
 PCOD8207781
Probable space group: P M M A
;
_chemical_formula_sum "Si O2"
_cell_formula_units_Z 64
_cell_length_a 9.048940
_cell_length_b 27.618926
_cell_length_c 13.216582
_cell_angle_alpha 90.000000
_cell_angle_beta 90.000000
_cell_angle_gamma 90.000000
_cell_volume 3303.114663
_symmetry_space_group_name_H-M "P M M A"
_symmetry_group_IT_number 51
_symmetry_cell_setting 'orthorhombic'
loop_
_space_group_symop_operation_xyz
x,y,z
1/2-x,-y,z
1/2+x,-y,-z
-x,y,-z
-x,-y,-z
1/2+x,y,-z
1/2-x,y,z
x,-y,z
loop_
_atom_site_type_symbol
_atom_site_label
_atom_site_fract_x
_atom_site_fract_y
_atom_site_fract_z
Si Si1 0.908605 0.802221 0.912120
Si Si2 0.919843 0.057178 0.103981
Si Si3 0.414990 0.557156 0.595911
Si Si4 0.918653 0.267134 0.214931
Si Si5 0.585148 0.121444 0.739685
Si Si6 0.923244 0.444233 0.800177
Si Si7 0.421992 0.359372 0.900582
Si Si8 0.074133 0.196986 0.607012
O O1 0.750000 0.786764 0.955270
O O2 0.890124 0.837274 0.819841
O O3 0.992439 0.754311 0.878767
O O4 0.000000 0.829100 0.000000
O O5 0.750000 0.075134 0.098412
O O6 0.996992 0.078198 0.205174
O O7 0.928854 0.000000 0.116104
O O8 0.000000 0.073517 0.000000
O O9 0.500000 0.579939 0.500000
O O10 0.250000 0.579590 0.604463
O O11 0.401970 0.500000 0.582481
O O12 0.509769 0.570906 0.692904
O O13 0.750000 0.252331 0.199061
O O14 0.942638 0.324876 0.199555
O O15 0.968621 0.243482 0.322118
O O16 0.750000 0.104161 0.702740
O O17 0.491007 0.145805 0.648902
O O18 0.750000 0.433896 0.797559
O O19 0.957825 0.500000 0.826376
O O20 0.001804 0.411206 0.883124
O O21 0.250000 0.367403 0.923137
O O22 0.500000 0.336704 0.000000
O O23 0.250000 0.191218 0.595321
O O24 0.000000 0.208328 0.500000
#
# Coordination Sequence:
#
# PCOD8207781 Si02
#       8
#     8   8   8   8   8   8   8   8
#     4  10  19  29  46  73 104 136 171 213 261 317
#     4  10  20  33  50  75 110 153 198 243 291 340
#     4   9  16  28  49  76 104 133 165 205 253 301
#     4   9  20  37  56  78 105 137 172 212 259 316
#     4  10  20  33  51  77 107 143 187 231 278 330
#     4  10  21  37  56  79 107 141 183 227 270 318
#     4  11  23  39  58  80 107 140 178 219 267 322
#     4  10  20  37  60  85 113 143 178 222 272 327
#
# _framework density 19.375651000000001
#
# number of rings (size 3 to 8) (size 9 to 14) (size 15 to 20)
#    0.000    2.125    0.000    3.375    0.000    8.250 
#    0.000    0.625    0.000    1.875    0.000    0.000 
#    0.000    0.000    0.000    0.000    0.000    0.000 
#
# Total GULP energy -793186.703641 kJ/mol
# GULP energy per Si atom -12393.542244 kJ/mol
# Density = 1.933155 g / cm^3
# Si number density = 19.375651 Si / 1000 Ang^3
#
#
#
# Elastic Constant Matrix: (Units=GPa)
#
#
# Indices 1 2 3 4 5 6 
#
# 1 145.7709 42.9169 55.7133 0.0000 0.0000 0.0000
# 2 42.9169 64.4892 33.3209 0.0000 0.0000 0.0000
# 3 55.7133 33.3209 100.6818 0.0000 0.0000 0.0000
# 4 0.0000 0.0000 0.0000 18.1160 0.0000 0.0000
# 5 0.0000 0.0000 0.0000 0.0000 36.1885 0.0000
# 6 0.0000 0.0000 0.0000 0.0000 0.0000 25.8035
#
#
#
# Elastic Compliance Matrix: (Units=1/GPa)
#
#
# Indices 1 2 3 4 5 6 
#
# 1 0.009640 -0.004414 -0.003874 0.000000 0.000000 0.000000
# 2 -0.004414 0.020726 -0.004417 0.000000 0.000000 0.000000
# 3 -0.003874 -0.004417 0.013538 0.000000 0.000000 0.000000
# 4 0.000000 0.000000 0.000000 0.055200 0.000000 0.000000
# 5 0.000000 0.000000 0.000000 0.000000 0.027633 0.000000
# 6 0.000000 0.000000 0.000000 0.000000 0.000000 0.038754
#
#
# Mechanical properties :
#
#
# Convention : Reuss Voigt Hill
#
# Bulk Modulus (GPa) = 54.06905 63.87157 58.97031
# Shear Modulus (GPa) = 25.37237 27.95432 26.66335
#
# Velocity S-wave (km/s) = 3.62262 3.80248 3.71364
# Velocity P-wave (km/s) = 6.74271 7.23291 6.99210
#
# Compressibility (1/GPa) = 0.01849487
#
# Stress axis : x y z
#
# Youngs Moduli (GPa) = 103.73345 48.24856 73.86845
#
# Poissons Ratio (x) = 0.21296 0.28614
# Poissons Ratio (y) = 0.45787 0.32627
# Poissons Ratio (z) = 0.40183 0.21311
#
# Static dielectric constant tensor:
#      x y z
#    x 4.010980 0.000000 0.000000 
#    y 0.000000 3.345110 0.000000 
#    z 0.000000 0.000000 3.495960 
# 
# 
# High freq. dielectric constant tensor:
#      x y z
#    x 1.774980 0.000000 0.000000 
#    y 0.000000 1.729950 0.000000 
#    z 0.000000 0.000000 1.740230 
# 
# From -- ./inp_files/14819.got.cif
#   From: 2010.03.12/outbox.cif.g09.slc.cpg/sg51_8_cif.got.tgz:14819.got - 2010.04.16 13:43:02.
