data_PCOD8207244
_publ_section_title
;
Structure prediction by ZEFSAII (Michael W. Deem and Ramdas Pophale) SiO2 
 PCOD8207244
Probable space group: P M M A
;
_chemical_formula_sum "Si O2"
_cell_formula_units_Z 52
_cell_length_a 8.863114
_cell_length_b 13.540797
_cell_length_c 24.356152
_cell_angle_alpha 90.000000
_cell_angle_beta 90.000000
_cell_angle_gamma 90.000000
_cell_volume 2923.070153
_symmetry_space_group_name_H-M "P M M A"
_symmetry_group_IT_number 51
_symmetry_cell_setting 'orthorhombic'
loop_
_space_group_symop_operation_xyz
x,y,z
1/2-x,-y,z
1/2+x,-y,-z
-x,y,-z
-x,-y,-z
1/2+x,y,-z
1/2-x,y,z
x,-y,z
loop_
_atom_site_type_symbol
_atom_site_label
_atom_site_fract_x
_atom_site_fract_y
_atom_site_fract_z
Si Si1 0.428595 0.393257 0.348862
Si Si2 0.570587 0.000000 0.559422
Si Si3 0.072723 0.886342 0.942557
Si Si4 0.920364 0.112430 0.260988
Si Si5 0.572216 0.182623 0.631954
Si Si6 0.429119 0.202672 0.161908
Si Si7 0.571904 0.391864 0.774488
O O1 0.250000 0.399443 0.345085
O O2 0.488303 0.500000 0.372764
O O3 0.470974 0.296246 0.386002
O O4 0.493456 0.378699 0.287175
O O5 0.500000 0.000000 0.500000
O O6 0.511075 0.900580 0.589983
O O7 0.750000 0.000000 0.554742
O O8 0.250000 0.868771 0.945709
O O9 0.001997 0.815560 0.896989
O O10 0.033945 0.000000 0.928531
O O11 0.000000 0.855157 0.000000
O O12 0.750000 0.151155 0.252484
O O13 0.001483 0.173340 0.308280
O O14 0.012717 0.120716 0.204542
O O15 0.920548 0.000000 0.280063
O O16 0.750000 0.168612 0.638081
O O17 0.250000 0.196763 0.156559
O O18 0.489878 0.308313 0.184375
O O19 0.750000 0.380728 0.771567
O O20 0.525377 0.500000 0.797317
#
# Coordination Sequence:
#
# PCOD8207244 Si02
#       7
#     8   4   8   8   8   8   8
#     4   8  13  24  46  75 103 129 162 206 254 300
#     4  10  22  36  54  76 102 136 177 216 255 302
#     4  10  21  37  54  72  97 129 167 210 254 304
#     4  11  22  32  44  69 105 139 164 198 253 307
#     4  10  18  32  53  76  99 129 170 214 249 294
#     4  11  20  31  51  75 100 133 169 207 248 298
#     4   8  14  25  44  72 102 130 161 199 245 297
#
# _framework density 17.789514
#
# number of rings (size 3 to 8) (size 9 to 14) (size 15 to 20)
#    0.000    2.308    2.308    2.769    0.000    4.308 
#    0.000    0.000    0.000    4.154    0.000    0.000 
#    0.000    0.000    0.000    0.000    0.000    0.000 
#
# Total GULP energy -644341.204372 kJ/mol
# GULP energy per Si atom -12391.177007 kJ/mol
# Density = 1.774902 g / cm^3
# Si number density = 17.789514 Si / 1000 Ang^3
#
#
#
# Elastic Constant Matrix: (Units=GPa)
#
#
# Indices 1 2 3 4 5 6 
#
# 1 41.3382 22.5156 21.6135 0.0000 0.0000 0.0000
# 2 22.5156 150.1540 53.7718 0.0000 0.0000 0.0000
# 3 21.6135 53.7718 84.5357 0.0000 0.0000 0.0000
# 4 0.0000 0.0000 0.0000 17.4505 0.0000 0.0000
# 5 0.0000 0.0000 0.0000 0.0000 27.0172 0.0000
# 6 0.0000 0.0000 0.0000 0.0000 0.0000 9.2106
#
#
#
# Elastic Compliance Matrix: (Units=1/GPa)
#
#
# Indices 1 2 3 4 5 6 
#
# 1 0.028450 -0.002151 -0.005906 0.000000 0.000000 0.000000
# 2 -0.002151 0.008787 -0.005039 0.000000 0.000000 0.000000
# 3 -0.005906 -0.005039 0.016545 0.000000 0.000000 0.000000
# 4 0.000000 0.000000 0.000000 0.057305 0.000000 0.000000
# 5 0.000000 0.000000 0.000000 0.000000 0.037013 0.000000
# 6 0.000000 0.000000 0.000000 0.000000 0.000000 0.108570
#
#
# Mechanical properties :
#
#
# Convention : Reuss Voigt Hill
#
# Bulk Modulus (GPa) = 36.24553 52.42553 44.33553
# Shear Modulus (GPa) = 17.11982 22.61080 19.86531
#
# Velocity S-wave (km/s) = 3.10555 3.56900 3.34531
# Velocity P-wave (km/s) = 5.76872 6.82038 6.31648
#
# Compressibility (1/GPa) = 0.02758961
#
# Stress axis : x y z
#
# Youngs Moduli (GPa) = 35.14925 113.80406 60.44261
#
# Poissons Ratio (x) = 0.24482 0.35695
# Poissons Ratio (y) = 0.07561 0.30459
# Poissons Ratio (z) = 0.20758 0.57349
#
# Static dielectric constant tensor:
#      x y z
#    x 3.064680 0.000000 0.000000 
#    y 0.000000 3.921880 0.000000 
#    z 0.000000 0.000000 3.052830 
# 
# 
# High freq. dielectric constant tensor:
#      x y z
#    x 1.664500 0.000000 0.000000 
#    y 0.000000 1.701460 0.000000 
#    z 0.000000 0.000000 1.655150 
# 
# From -- ./inp_files/31723.got.cif
#   From: 2010.03.12/outbox.cif.g09.slc.cpg/sg51_16_cif.got.tgz:31723.got - 2010.04.16 13:43:02.
