data_PCOD8207165
_publ_section_title
;
Structure prediction by ZEFSAII (Michael W. Deem and Ramdas Pophale) SiO2 
 PCOD8207165
Probable space group: P M M A
;
_chemical_formula_sum "Si O2"
_cell_formula_units_Z 56
_cell_length_a 16.500287
_cell_length_b 14.546172
_cell_length_c 12.613906
_cell_angle_alpha 90.000000
_cell_angle_beta 90.000000
_cell_angle_gamma 90.000000
_cell_volume 3027.539423
_symmetry_space_group_name_H-M "P M M A"
_symmetry_group_IT_number 51
_symmetry_cell_setting 'orthorhombic'
loop_
_space_group_symop_operation_xyz
x,y,z
1/2-x,-y,z
1/2+x,-y,-z
-x,y,-z
-x,-y,-z
1/2+x,y,-z
1/2-x,y,z
x,-y,z
loop_
_atom_site_type_symbol
_atom_site_label
_atom_site_fract_x
_atom_site_fract_y
_atom_site_fract_z
Si Si1 0.089934 0.210914 0.460366
Si Si2 0.155303 0.107059 0.261555
Si Si3 0.844926 0.396926 0.481134
Si Si4 0.655906 0.786163 0.158248
Si Si5 0.407202 0.104636 0.029644
Si Si6 0.845743 0.598897 0.237044
Si Si7 0.656281 0.899097 0.351794
O O1 0.106393 0.166716 0.346403
O O2 0.106715 0.320271 0.451883
O O3 0.149370 0.163586 0.544572
O O4 0.000000 0.190034 0.500000
O O5 0.250000 0.135111 0.257239
O O6 0.112102 0.129639 0.150364
O O7 0.146633 0.000000 0.290695
O O8 0.750000 0.382694 0.500095
O O9 0.870533 0.500000 0.517808
O O10 0.868175 0.381958 0.358875
O O11 0.750000 0.776935 0.184954
O O12 0.618377 0.682824 0.166764
O O13 0.615388 0.850820 0.248766
O O14 0.644931 0.827251 0.042284
O O15 0.380647 0.000000 0.005762
O O16 0.500000 0.120776 0.000000
O O17 0.750000 0.591986 0.225510
O O18 0.883097 0.500000 0.200832
O O19 0.750000 0.913508 0.328363
O O20 0.615509 0.000000 0.367840
#
# Coordination Sequence:
#
# PCOD8207165 Si02
#       7
#     8   8   8   8   8   8   8
#     4  12  24  34  52  80 114 149 183 223 277 334
#     4  10  22  40  58  76 106 152 198 232 272 339
#     4   9  17  33  56  78 105 143 186 229 274 330
#     4  10  18  31  55  81 105 134 174 224 272 321
#     4  10  22  37  55  77 106 143 185 232 277 326
#     4   8  14  26  49  80 106 128 162 213 270 322
#     4  10  20  33  51  77 107 137 174 224 274 322
#
# _framework density 18.496869
#
# number of rings (size 3 to 8) (size 9 to 14) (size 15 to 20)
#    0.000    2.143    1.429    3.429    2.000    4.000 
#    0.000    0.000    0.000    1.286    0.000    2.000 
#    0.000    0.000    0.000    0.000    0.000    0.000 
#
# Total GULP energy -694193.812931 kJ/mol
# GULP energy per Si atom -12396.318088 kJ/mol
# Density = 1.845477 g / cm^3
# Si number density = 18.496869 Si / 1000 Ang^3
#
#
#
# Elastic Constant Matrix: (Units=GPa)
#
#
# Indices 1 2 3 4 5 6 
#
# 1 52.9211 29.1841 31.0694 0.0000 0.0000 0.0000
# 2 29.1841 154.6411 72.9995 0.0000 0.0000 0.0000
# 3 31.0694 72.9995 117.4263 0.0000 0.0000 0.0000
# 4 0.0000 0.0000 0.0000 21.7022 0.0000 0.0000
# 5 0.0000 0.0000 0.0000 0.0000 22.4333 0.0000
# 6 0.0000 0.0000 0.0000 0.0000 0.0000 14.1105
#
#
#
# Elastic Compliance Matrix: (Units=1/GPa)
#
#
# Indices 1 2 3 4 5 6 
#
# 1 0.022826 -0.002062 -0.004758 0.000000 0.000000 0.000000
# 2 -0.002062 0.009339 -0.005260 0.000000 0.000000 0.000000
# 3 -0.004758 -0.005260 0.013045 0.000000 0.000000 0.000000
# 4 0.000000 0.000000 0.000000 0.046078 0.000000 0.000000
# 5 0.000000 0.000000 0.000000 0.000000 0.044577 0.000000
# 6 0.000000 0.000000 0.000000 0.000000 0.000000 0.070869
#
#
# Mechanical properties :
#
#
# Convention : Reuss Voigt Hill
#
# Bulk Modulus (GPa) = 47.50465 65.72163 56.61314
# Shear Modulus (GPa) = 21.01635 24.43156 22.72395
#
# Velocity S-wave (km/s) = 3.37443 3.63829 3.50884
# Velocity P-wave (km/s) = 6.39693 7.29780 6.86216
#
# Compressibility (1/GPa) = 0.02105057
#
# Stress axis : x y z
#
# Youngs Moduli (GPa) = 43.80903 107.08096 76.65922
#
# Poissons Ratio (x) = 0.22079 0.36472
# Poissons Ratio (y) = 0.09033 0.40323
# Poissons Ratio (z) = 0.20843 0.56324
#
# Static dielectric constant tensor:
#      x y z
#    x 3.095760 0.000000 0.000000 
#    y 0.000000 4.030250 0.000000 
#    z 0.000000 0.000000 3.196150 
# 
# 
# High freq. dielectric constant tensor:
#      x y z
#    x 1.688600 0.000000 0.000000 
#    y 0.000000 1.729810 0.000000 
#    z 0.000000 0.000000 1.696240 
# 
# From -- ./inp_files/16615.got.cif
#   From: 2010.03.12/outbox.cif.g09.slc.cpg/sg51_9_cif.got.tgz:16615.got - 2010.04.16 13:43:02.
