data_PCOD8207426
_publ_section_title
;
Structure prediction by ZEFSAII (Michael W. Deem and Ramdas Pophale) SiO2 
 PCOD8207426
Probable space group: P M M A
;
_chemical_formula_sum "Si O2"
_cell_formula_units_Z 48
_cell_length_a 14.917646
_cell_length_b 15.773299
_cell_length_c 10.130950
_cell_angle_alpha 90.000000
_cell_angle_beta 90.000000
_cell_angle_gamma 90.000000
_cell_volume 2383.817507
_symmetry_space_group_name_H-M "P M M A"
_symmetry_group_IT_number 51
_symmetry_cell_setting 'orthorhombic'
loop_
_space_group_symop_operation_xyz
x,y,z
1/2-x,-y,z
1/2+x,-y,-z
-x,y,-z
-x,-y,-z
1/2+x,y,-z
1/2-x,y,z
x,-y,z
loop_
_atom_site_type_symbol
_atom_site_label
_atom_site_fract_x
_atom_site_fract_y
_atom_site_fract_z
Si Si1 0.852365 0.796931 0.244212
Si Si2 0.903433 0.500000 0.064653
Si Si3 0.857061 0.500000 0.359839
Si Si4 0.144147 0.673783 0.529229
Si Si5 0.147444 0.231656 0.275291
Si Si6 0.506059 0.901554 0.655365
Si Si7 0.893659 0.315849 0.997125
O O1 0.750000 0.825309 0.269852
O O2 0.891010 0.732291 0.352728
O O3 0.915493 0.878912 0.263006
O O4 0.858095 0.751188 0.103635
O O5 0.909733 0.500000 0.222337
O O6 0.854785 0.411578 0.021334
O O7 0.000000 0.500000 0.000000
O O8 0.750000 0.500000 0.331839
O O9 0.890302 0.579206 0.445926
O O10 0.250000 0.674473 0.531043
O O11 0.108289 0.706961 0.389421
O O12 0.250000 0.205039 0.303493
O O13 0.088484 0.146878 0.275044
O O14 0.142310 0.283921 0.141510
O O15 0.500000 0.879182 0.500000
O O16 0.525094 0.000000 0.675738
O O17 0.000000 0.317502 0.000000
#
# Coordination Sequence:
#
# PCOD8207426 Si02
#       7
#     8   4   4   8   8   8   8
#     4  11  21  39  65  93 122 162 209 255 309 373
#     4  10  22  35  56  90 129 166 217 258 299 355
#     4  10  18  33  58  89 124 166 217 262 301 357
#     4   9  19  34  58  87 121 162 208 255 301 358
#     4  11  23  41  63  94 130 167 207 257 318 376
#     4  11  24  42  68  97 124 158 202 261 324 383
#     4  11  22  39  63  90 132 174 212 257 309 368
#
# _framework density 20.135769
#
# number of rings (size 3 to 8) (size 9 to 14) (size 15 to 20)
#    0.000    1.500    5.000    0.500    0.000    2.000 
#    0.000    4.167    0.000    5.000    0.000    0.000 
#    0.000    0.000    0.000    0.000    0.000    0.000 
#
# Total GULP energy -595131.777047 kJ/mol
# GULP energy per Si atom -12398.578688 kJ/mol
# Density = 2.008994 g / cm^3
# Si number density = 20.135769 Si / 1000 Ang^3
#
#
#
# Elastic Constant Matrix: (Units=GPa)
#
#
# Indices 1 2 3 4 5 6 
#
# 1 90.1981 37.6402 17.5436 0.0000 0.0000 0.0000
# 2 37.6402 130.9993 57.5962 0.0000 0.0000 0.0000
# 3 17.5436 57.5962 139.0114 0.0000 0.0000 0.0000
# 4 0.0000 0.0000 0.0000 27.4677 0.0000 0.0000
# 5 0.0000 0.0000 0.0000 0.0000 27.3841 0.0000
# 6 0.0000 0.0000 0.0000 0.0000 0.0000 9.6860
#
#
#
# Elastic Compliance Matrix: (Units=1/GPa)
#
#
# Indices 1 2 3 4 5 6 
#
# 1 0.012599 -0.003572 -0.000110 0.000000 0.000000 0.000000
# 2 -0.003572 0.010346 -0.003836 0.000000 0.000000 0.000000
# 3 -0.000110 -0.003836 0.008797 0.000000 0.000000 0.000000
# 4 0.000000 0.000000 0.000000 0.036406 0.000000 0.000000
# 5 0.000000 0.000000 0.000000 0.000000 0.036518 0.000000
# 6 0.000000 0.000000 0.000000 0.000000 0.000000 0.103242
#
#
# Mechanical properties :
#
#
# Convention : Reuss Voigt Hill
#
# Bulk Modulus (GPa) = 59.85738 65.08541 62.47140
# Shear Modulus (GPa) = 21.88072 29.40283 25.64177
#
# Velocity S-wave (km/s) = 3.30003 3.82544 3.57241
# Velocity P-wave (km/s) = 6.65670 7.20454 6.93603
#
# Compressibility (1/GPa) = 0.01670638
#
# Stress axis : x y z
#
# Youngs Moduli (GPa) = 79.37423 96.65170 113.67579
#
# Poissons Ratio (x) = 0.34519 0.01253
# Poissons Ratio (y) = 0.28349 0.43607
# Poissons Ratio (z) = 0.00875 0.37076
#
# Static dielectric constant tensor:
#      x y z
#    x 3.520210 0.000000 0.000000 
#    y 0.000000 3.754590 0.000000 
#    z 0.000000 0.000000 3.697670 
# 
# 
# High freq. dielectric constant tensor:
#      x y z
#    x 1.783780 0.000000 0.000000 
#    y 0.000000 1.779700 0.000000 
#    z 0.000000 0.000000 1.788730 
# 
# From -- ./inp_files/8312.got.cif
#   From: 2010.03.12/outbox.cif.g09.slc.cpg/sg51_5_cif.got.tgz:8312.got - 2010.04.16 13:43:02.
