data_PCOD8207327
_publ_section_title
;
Structure prediction by ZEFSAII (Michael W. Deem and Ramdas Pophale) SiO2 
 PCOD8207327
Probable space group: P M M A
;
_chemical_formula_sum "Si O2"
_cell_formula_units_Z 48
_cell_length_a 18.468390
_cell_length_b 13.657004
_cell_length_c 10.246042
_cell_angle_alpha 90.000000
_cell_angle_beta 90.000000
_cell_angle_gamma 90.000000
_cell_volume 2584.286182
_symmetry_space_group_name_H-M "P M M A"
_symmetry_group_IT_number 51
_symmetry_cell_setting 'orthorhombic'
loop_
_space_group_symop_operation_xyz
x,y,z
1/2-x,-y,z
1/2+x,-y,-z
-x,y,-z
-x,-y,-z
1/2+x,y,-z
1/2-x,y,z
x,-y,z
loop_
_atom_site_type_symbol
_atom_site_label
_atom_site_fract_x
_atom_site_fract_y
_atom_site_fract_z
Si Si1 0.664414 0.774509 0.138877
Si Si2 0.551859 0.389907 0.113863
Si Si3 0.418973 0.115390 0.640882
Si Si4 0.080851 0.184031 0.359916
Si Si5 0.955895 0.606885 0.631872
Si Si6 0.331444 0.887693 0.117827
O O1 0.750000 0.758099 0.150378
O O2 0.625464 0.670155 0.132403
O O3 0.639306 0.839806 0.260859
O O4 0.641039 0.828748 0.006917
O O5 0.574816 0.500000 0.074509
O O6 0.510830 0.387928 0.249519
O O7 0.500000 0.346109 0.000000
O O8 0.495207 0.169564 0.660952
O O9 0.391611 0.134648 0.493469
O O10 0.427625 0.000000 0.665109
O O11 0.098972 0.301020 0.359450
O O12 0.119933 0.132017 0.242051
O O13 0.915735 0.500000 0.633386
O O14 0.000000 0.619382 0.500000
O O15 0.250000 0.857172 0.154259
O O16 0.336864 0.000000 0.077825
#
# Coordination Sequence:
#
# PCOD8207327 Si02
#       6
#     8   8   8   8   8   8
#     4  11  23  38  56  82 116 152 189 234 285 340
#     4  10  20  36  58  84 111 146 190 234 284 338
#     4  11  22  35  55  84 114 147 184 232 282 331
#     4  11  19  37  58  83 113 140 188 237 278 333
#     4  10  18  32  56  82 109 140 177 223 277 331
#     4  10  22  38  55  77 109 150 189 226 275 335
#
# _framework density 18.573795
#
# number of rings (size 3 to 8) (size 9 to 14) (size 15 to 20)
#    0.000    1.500    3.333    3.500    0.000    2.000 
#    0.000    1.667    0.000    1.500    0.000    0.000 
#    0.000    0.000    0.000    0.000    0.000    0.000 
#
# Total GULP energy -595179.190647 kJ/mol
# GULP energy per Si atom -12399.566472 kJ/mol
# Density = 1.853152 g / cm^3
# Si number density = 18.573795 Si / 1000 Ang^3
#
#
#
# Elastic Constant Matrix: (Units=GPa)
#
#
# Indices 1 2 3 4 5 6 
#
# 1 48.7571 22.4061 42.8243 0.0000 0.0000 0.0000
# 2 22.4061 111.5333 15.9424 0.0000 0.0000 0.0000
# 3 42.8243 15.9424 126.1095 0.0000 0.0000 0.0000
# 4 0.0000 0.0000 0.0000 31.8021 0.0000 0.0000
# 5 0.0000 0.0000 0.0000 0.0000 22.2523 0.0000
# 6 0.0000 0.0000 0.0000 0.0000 0.0000 26.7152
#
#
#
# Elastic Compliance Matrix: (Units=1/GPa)
#
#
# Indices 1 2 3 4 5 6 
#
# 1 0.031667 -0.004913 -0.010132 0.000000 0.000000 0.000000
# 2 -0.004913 0.009893 0.000418 0.000000 0.000000 0.000000
# 3 -0.010132 0.000418 0.011318 0.000000 0.000000 0.000000
# 4 0.000000 0.000000 0.000000 0.031444 0.000000 0.000000
# 5 0.000000 0.000000 0.000000 0.000000 0.044939 0.000000
# 6 0.000000 0.000000 0.000000 0.000000 0.000000 0.037432
#
#
# Mechanical properties :
#
#
# Convention : Reuss Voigt Hill
#
# Bulk Modulus (GPa) = 42.33323 49.86060 46.09692
# Shear Modulus (GPa) = 24.53103 29.83575 27.18339
#
# Velocity S-wave (km/s) = 3.63813 4.01226 3.82977
# Velocity P-wave (km/s) = 6.36313 6.95465 6.66545
#
# Compressibility (1/GPa) = 0.02362210
#
# Stress axis : x y z
#
# Youngs Moduli (GPa) = 31.57835 101.07890 88.35821
#
# Poissons Ratio (x) = 0.49664 0.89528
# Poissons Ratio (y) = 0.15516 -0.03692
# Poissons Ratio (z) = 0.31997 -0.04223
#
# Static dielectric constant tensor:
#      x y z
#    x 3.101110 0.000000 0.000000 
#    y 0.000000 3.835020 0.000000 
#    z 0.000000 0.000000 3.618500 
# 
# 
# High freq. dielectric constant tensor:
#      x y z
#    x 1.679820 0.000000 0.000000 
#    y 0.000000 1.741300 0.000000 
#    z 0.000000 0.000000 1.743420 
# 
# From -- ./inp_files/9664.got.cif
#   From: 2010.03.12/outbox.cif.g09.slc.cpg/sg51_5_cif.got.tgz:9664.got - 2010.04.16 13:43:02.
