data_PCOD8207112
_publ_section_title
;
Structure prediction by ZEFSAII (Michael W. Deem and Ramdas Pophale) SiO2 
 PCOD8207112
Probable space group: P M M A
;
_chemical_formula_sum "Si O2"
_cell_formula_units_Z 64
_cell_length_a 23.668647
_cell_length_b 9.086527
_cell_length_c 15.390493
_cell_angle_alpha 90.000000
_cell_angle_beta 90.000000
_cell_angle_gamma 90.000000
_cell_volume 3309.968690
_symmetry_space_group_name_H-M "P M M A"
_symmetry_group_IT_number 51
_symmetry_cell_setting 'orthorhombic'
loop_
_space_group_symop_operation_xyz
x,y,z
1/2-x,-y,z
1/2+x,-y,-z
-x,y,-z
-x,-y,-z
1/2+x,y,-z
1/2-x,y,z
x,-y,z
loop_
_atom_site_type_symbol
_atom_site_label
_atom_site_fract_x
_atom_site_fract_y
_atom_site_fract_z
Si Si1 0.900453 0.171505 0.108381
Si Si2 0.129556 0.333433 0.051487
Si Si3 0.186519 0.675154 0.225305
Si Si4 0.686139 0.674022 0.445684
Si Si5 0.385520 0.325149 0.389164
Si Si6 0.514050 0.826206 0.684040
Si Si7 0.115241 0.830948 0.694122
Si Si8 0.012902 0.332337 0.140358
O O1 0.875138 0.200887 0.203836
O O2 0.959957 0.252474 0.097603
O O3 0.910487 0.000000 0.092797
O O4 0.858551 0.236077 0.034632
O O5 0.149537 0.500000 0.032600
O O6 0.163848 0.265428 0.132864
O O7 0.063129 0.329453 0.071433
O O8 0.250000 0.732671 0.239533
O O9 0.183823 0.500000 0.224382
O O10 0.148624 0.731920 0.304900
O O11 0.750000 0.733771 0.456129
O O12 0.686426 0.500000 0.441438
O O13 0.649048 0.728450 0.526917
O O14 0.659772 0.732875 0.356836
O O15 0.394597 0.500000 0.388547
O O16 0.446448 0.243915 0.390959
O O17 0.448532 0.788863 0.665643
O O18 0.533375 0.751458 0.773581
O O19 0.523314 0.000000 0.690688
O O20 0.127323 0.000000 0.672261
O O21 0.996933 0.500000 0.164747
#
# Coordination Sequence:
#
# PCOD8207112 Si02
#       8
#     8   8   8   8   8   8   8   8
#     4  10  21  35  52  77 108 145 184 225 276 327
#     4  10  19  31  50  79 108 142 185 224 267 322
#     4   9  17  32  54  78 108 146 184 222 268 328
#     4  10  22  39  61  88 111 137 183 238 284 326
#     4  10  19  35  58  85 114 144 179 223 279 338
#     4  10  20  34  54  83 117 151 185 223 272 331
#     4   9  21  40  57  77 110 150 188 226 278 337
#     4  10  18  31  51  79 112 145 181 223 270 326
#
# _framework density 19.335529999999999
#
# number of rings (size 3 to 8) (size 9 to 14) (size 15 to 20)
#    0.000    2.250    1.250    2.625    0.000    8.250 
#    0.000    3.125    0.000    4.500    0.000    0.000 
#    0.000    0.000    0.000    0.000    0.000    0.000 
#
# Total GULP energy -793602.829360 kJ/mol
# GULP energy per Si atom -12400.044209 kJ/mol
# Density = 1.929152 g / cm^3
# Si number density = 19.335530 Si / 1000 Ang^3
#
#
#
# Elastic Constant Matrix: (Units=GPa)
#
#
# Indices 1 2 3 4 5 6 
#
# 1 56.4869 23.8047 39.6871 0.0000 0.0000 0.0000
# 2 23.8047 62.4627 32.7980 0.0000 0.0000 0.0000
# 3 39.6871 32.7980 97.0819 0.0000 0.0000 0.0000
# 4 0.0000 0.0000 0.0000 23.3216 0.0000 0.0000
# 5 0.0000 0.0000 0.0000 0.0000 25.3903 0.0000
# 6 0.0000 0.0000 0.0000 0.0000 0.0000 7.5596
#
#
#
# Elastic Compliance Matrix: (Units=1/GPa)
#
#
# Indices 1 2 3 4 5 6 
#
# 1 0.026206 -0.005303 -0.008922 0.000000 0.000000 0.000000
# 2 -0.005303 0.020535 -0.004770 0.000000 0.000000 0.000000
# 3 -0.008922 -0.004770 0.015559 0.000000 0.000000 0.000000
# 4 0.000000 0.000000 0.000000 0.042879 0.000000 0.000000
# 5 0.000000 0.000000 0.000000 0.000000 0.039385 0.000000
# 6 0.000000 0.000000 0.000000 0.000000 0.000000 0.132282
#
#
# Mechanical properties :
#
#
# Convention : Reuss Voigt Hill
#
# Bulk Modulus (GPa) = 41.13176 45.40125 43.26650
# Shear Modulus (GPa) = 15.48285 19.23707 17.35996
#
# Velocity S-wave (km/s) = 2.83282 3.15764 2.99963
# Velocity P-wave (km/s) = 5.65850 6.06844 5.86705
#
# Compressibility (1/GPa) = 0.02431211
#
# Stress axis : x y z
#
# Youngs Moduli (GPa) = 38.15900 48.69747 64.27083
#
# Poissons Ratio (x) = 0.25823 0.57340
# Poissons Ratio (y) = 0.20234 0.30656
# Poissons Ratio (z) = 0.34044 0.23228
#
# Static dielectric constant tensor:
#      x y z
#    x 3.489360 0.000000 0.000000 
#    y 0.000000 3.340220 0.000000 
#    z 0.000000 0.000000 3.560780 
# 
# 
# High freq. dielectric constant tensor:
#      x y z
#    x 1.738460 0.000000 0.000000 
#    y 0.000000 1.734950 0.000000 
#    z 0.000000 0.000000 1.756310 
# 
# From -- ./inp_files/26348.got.cif
#   From: 2010.03.12/outbox.cif.g09.slc.cpg/sg51_14_cif.got.tgz:26348.got - 2010.04.16 13:43:02.
