data_PCOD8207096
_publ_section_title
;
Structure prediction by ZEFSAII (Michael W. Deem and Ramdas Pophale) SiO2 
 PCOD8207096
Probable space group: P M M A
;
_chemical_formula_sum "Si O2"
_cell_formula_units_Z 56
_cell_length_a 21.325165
_cell_length_b 9.203083
_cell_length_c 16.877940
_cell_angle_alpha 90.000000
_cell_angle_beta 90.000000
_cell_angle_gamma 90.000000
_cell_volume 3312.418318
_symmetry_space_group_name_H-M "P M M A"
_symmetry_group_IT_number 51
_symmetry_cell_setting 'orthorhombic'
loop_
_space_group_symop_operation_xyz
x,y,z
1/2-x,-y,z
1/2+x,-y,-z
-x,y,-z
-x,-y,-z
1/2+x,y,-z
1/2-x,y,z
x,-y,z
loop_
_atom_site_type_symbol
_atom_site_label
_atom_site_fract_x
_atom_site_fract_y
_atom_site_fract_z
Si Si1 0.114743 0.331522 0.200943
Si Si2 0.029422 0.827882 0.623851
Si Si3 0.820359 0.170956 0.658203
Si Si4 0.490051 0.832013 0.797602
Si Si5 0.935195 0.832886 0.038782
Si Si6 0.321051 0.668447 0.039324
Si Si7 0.089935 0.829557 0.471726
O O1 0.103486 0.500000 0.218366
O O2 0.137580 0.255315 0.280122
O O3 0.165699 0.307106 0.132220
O O4 0.049988 0.259034 0.174038
O O5 0.036991 0.768960 0.713905
O O6 0.083506 0.769569 0.562417
O O7 0.964145 0.770256 0.587034
O O8 0.031611 0.000000 0.629689
O O9 0.750000 0.227561 0.664608
O O10 0.843716 0.208228 0.568763
O O11 0.826237 0.000000 0.675382
O O12 0.438030 0.815051 0.865945
O O13 0.510705 0.000000 0.788839
O O14 0.927793 0.000000 0.012874
O O15 0.872663 0.750839 0.012380
O O16 0.000000 0.771469 0.000000
O O17 0.250000 0.724648 0.021906
O O18 0.326677 0.500000 0.017226
O O19 0.079185 0.000000 0.477549
#
# Coordination Sequence:
#
# PCOD8207096 Si02
#       7
#     8   8   8   8   8   8   8
#     4  11  21  32  48  71 101 132 162 198 243 294
#     4   8  13  23  44  68  91 120 151 190 230 274
#     4  10  19  30  46  68  95 126 159 196 238 289
#     4  10  18  31  51  74 102 130 161 200 246 298
#     4  10  20  33  52  78 104 130 163 207 257 302
#     4  10  22  38  53  70  97 135 174 207 244 298
#     4   8  13  23  42  68  91 118 156 188 226 274
#
# _framework density 16.906078000000001
#
# number of rings (size 3 to 8) (size 9 to 14) (size 15 to 20)
#    0.000    2.429    2.857    1.714    0.000    2.571 
#    0.000    0.000    0.000    2.571    0.000    4.000 
#    0.000    0.000    0.000    0.000    0.000    0.000 
#
# Total GULP energy -693898.659545 kJ/mol
# GULP energy per Si atom -12391.047492 kJ/mol
# Density = 1.686760 g / cm^3
# Si number density = 16.906078 Si / 1000 Ang^3
#
#
#
# Elastic Constant Matrix: (Units=GPa)
#
#
# Indices 1 2 3 4 5 6 
#
# 1 98.0919 37.9029 46.1618 0.0000 0.0000 0.0000
# 2 37.9029 40.9933 25.9371 0.0000 0.0000 0.0000
# 3 46.1618 25.9371 109.4844 0.0000 0.0000 0.0000
# 4 0.0000 0.0000 0.0000 5.7632 0.0000 0.0000
# 5 0.0000 0.0000 0.0000 0.0000 23.4960 0.0000
# 6 0.0000 0.0000 0.0000 0.0000 0.0000 19.0536
#
#
#
# Elastic Compliance Matrix: (Units=1/GPa)
#
#
# Indices 1 2 3 4 5 6 
#
# 1 0.017313 -0.013397 -0.004126 0.000000 0.000000 0.000000
# 2 -0.013397 0.039063 -0.003605 0.000000 0.000000 0.000000
# 3 -0.004126 -0.003605 0.011727 0.000000 0.000000 0.000000
# 4 0.000000 0.000000 0.000000 0.173516 0.000000 0.000000
# 5 0.000000 0.000000 0.000000 0.000000 0.042560 0.000000
# 6 0.000000 0.000000 0.000000 0.000000 0.000000 0.052484
#
#
# Mechanical properties :
#
#
# Convention : Reuss Voigt Hill
#
# Bulk Modulus (GPa) = 38.69046 52.06370 45.37708
# Shear Modulus (GPa) = 12.90206 18.90038 15.90122
#
# Velocity S-wave (km/s) = 2.76553 3.34722 3.07019
# Velocity P-wave (km/s) = 5.75611 6.76766 6.28228
#
# Compressibility (1/GPa) = 0.02584617
#
# Stress axis : x y z
#
# Youngs Moduli (GPa) = 57.76068 25.59988 85.27051
#
# Poissons Ratio (x) = 0.34297 0.35181
# Poissons Ratio (y) = 0.77383 0.30743
# Poissons Ratio (z) = 0.23831 0.09230
#
# Static dielectric constant tensor:
#      x y z
#    x 3.123390 0.000000 0.000000 
#    y 0.000000 2.888890 0.000000 
#    z 0.000000 0.000000 3.478640 
# 
# 
# High freq. dielectric constant tensor:
#      x y z
#    x 1.629850 0.000000 0.000000 
#    y 0.000000 1.617760 0.000000 
#    z 0.000000 0.000000 1.661080 
# 
# From -- ./inp_files/30450.got.cif
#   From: 2010.03.12/outbox.cif.g09.slc.cpg/sg51_16_cif.got.tgz:30450.got - 2010.04.16 13:43:02.
