data_PCOD8207002
_publ_section_title
;
Structure prediction by ZEFSAII (Michael W. Deem and Ramdas Pophale) SiO2 
 PCOD8207002
Probable space group: P M M A
;
_chemical_formula_sum "Si O2"
_cell_formula_units_Z 48
_cell_length_a 31.142512
_cell_length_b 8.920090
_cell_length_c 9.150817
_cell_angle_alpha 90.000000
_cell_angle_beta 90.000000
_cell_angle_gamma 90.000000
_cell_volume 2542.042148
_symmetry_space_group_name_H-M "P M M A"
_symmetry_group_IT_number 51
_symmetry_cell_setting 'orthorhombic'
loop_
_space_group_symop_operation_xyz
x,y,z
1/2-x,-y,z
1/2+x,-y,-z
-x,y,-z
-x,-y,-z
1/2+x,y,-z
1/2-x,y,z
x,-y,z
loop_
_atom_site_type_symbol
_atom_site_label
_atom_site_fract_x
_atom_site_fract_y
_atom_site_fract_z
Si Si1 0.656966 0.330728 0.327726
Si Si2 0.915749 0.821917 0.831460
Si Si3 0.082424 0.176838 0.837033
Si Si4 0.336785 0.324602 0.330449
Si Si5 0.000515 0.821537 0.664712
Si Si6 0.750000 0.329875 0.361408
Si Si7 0.750000 0.175651 0.659563
O O1 0.640933 0.500000 0.302280
O O2 0.626950 0.220673 0.238030
O O3 0.655851 0.289548 0.498758
O O4 0.706168 0.310587 0.268278
O O5 0.875152 0.745818 0.759400
O O6 0.958132 0.765834 0.747682
O O7 0.910617 0.000000 0.821778
O O8 0.919332 0.764221 0.997566
O O9 0.042243 0.244652 0.747261
O O10 0.079005 0.000000 0.836569
O O11 0.334298 0.500000 0.299645
O O12 0.292796 0.249608 0.272327
O O13 0.000000 0.757807 0.500000
O O14 0.002322 0.000000 0.663313
O O15 0.750000 0.500000 0.431171
O O16 0.750000 0.206046 0.486929
O O17 0.750000 0.000000 0.692352
#
# Coordination Sequence:
#
# PCOD8207002 Si02
#       7
#     8   8   8   8   8   4   4
#     4   9  18  33  53  75 101 135 175 217 258 308
#     4  10  20  34  52  76 106 139 176 217 262 314
#     4  10  20  33  51  77 108 139 171 214 266 316
#     4  10  20  35  54  77 106 140 177 217 262 309
#     4   9  17  31  53  78 103 134 173 217 265 314
#     4   8  16  32  51  74 105 138 174 216 260 304
#     4  10  18  30  53  82 107 134 172 218 264 308
#
# _framework density 18.882456999999999
#
# number of rings (size 3 to 8) (size 9 to 14) (size 15 to 20)
#    0.000    2.500    0.000    3.750    0.000    7.333 
#    0.000    1.667    0.000    9.000    0.000    0.000 
#    0.000    0.000    0.000    0.000    0.000    0.000 
#
# Total GULP energy -595104.142001 kJ/mol
# GULP energy per Si atom -12398.002958 kJ/mol
# Density = 1.883948 g / cm^3
# Si number density = 18.882457 Si / 1000 Ang^3
#
#
#
# Elastic Constant Matrix: (Units=GPa)
#
#
# Indices 1 2 3 4 5 6 
#
# 1 187.5818 36.7112 82.0825 0.0000 0.0000 0.0000
# 2 36.7112 37.5065 25.3824 0.0000 0.0000 0.0000
# 3 82.0825 25.3824 113.0066 0.0000 0.0000 0.0000
# 4 0.0000 0.0000 0.0000 19.1341 0.0000 0.0000
# 5 0.0000 0.0000 0.0000 0.0000 2.3209 0.0000
# 6 0.0000 0.0000 0.0000 0.0000 0.0000 12.2419
#
#
#
# Elastic Compliance Matrix: (Units=1/GPa)
#
#
# Indices 1 2 3 4 5 6 
#
# 1 0.008513 -0.004892 -0.005085 0.000000 0.000000 0.000000
# 2 -0.004892 0.034252 -0.004140 0.000000 0.000000 0.000000
# 3 -0.005085 -0.004140 0.013473 0.000000 0.000000 0.000000
# 4 0.000000 0.000000 0.000000 0.052263 0.000000 0.000000
# 5 0.000000 0.000000 0.000000 0.000000 0.430873 0.000000
# 6 0.000000 0.000000 0.000000 0.000000 0.000000 0.081687
#
#
# Mechanical properties :
#
#
# Convention : Reuss Voigt Hill
#
# Bulk Modulus (GPa) = 35.70927 69.60525 52.65726
# Shear Modulus (GPa) = 7.59153 19.66729 13.62941
#
# Velocity S-wave (km/s) = 2.00727 3.23083 2.68955
# Velocity P-wave (km/s) = 4.93200 7.13163 6.13126
#
# Compressibility (1/GPa) = 0.02800393
#
# Stress axis : x y z
#
# Youngs Moduli (GPa) = 117.46077 29.19549 74.22516
#
# Poissons Ratio (x) = 0.14281 0.37744
# Poissons Ratio (y) = 0.57458 0.30731
# Poissons Ratio (z) = 0.59730 0.12088
#
# Static dielectric constant tensor:
#      x y z
#    x 3.760860 0.000000 0.000000 
#    y 0.000000 3.171030 0.000000 
#    z 0.000000 0.000000 3.379480 
# 
# 
# High freq. dielectric constant tensor:
#      x y z
#    x 1.756650 0.000000 0.000000 
#    y 0.000000 1.709050 0.000000 
#    z 0.000000 0.000000 1.712380 
# 
# From -- ./inp_files/12924.got.cif
#   From: 2010.03.12/outbox.cif.g09.slc.cpg/sg51_7_cif.got.tgz:12924.got - 2010.04.16 13:43:02.
