data_PCOD8207376
_publ_section_title
;
Structure prediction by ZEFSAII (Michael W. Deem and Ramdas Pophale) SiO2 
 PCOD8207376
Probable space group: P M M A
;
_chemical_formula_sum "Si O2"
_cell_formula_units_Z 56
_cell_length_a 21.389189
_cell_length_b 8.746602
_cell_length_c 16.885424
_cell_angle_alpha 90.000000
_cell_angle_beta 90.000000
_cell_angle_gamma 90.000000
_cell_volume 3158.971106
_symmetry_space_group_name_H-M "P M M A"
_symmetry_group_IT_number 51
_symmetry_cell_setting 'orthorhombic'
loop_
_space_group_symop_operation_xyz
x,y,z
1/2-x,-y,z
1/2+x,-y,-z
-x,y,-z
-x,-y,-z
1/2+x,y,-z
1/2-x,y,z
x,-y,z
loop_
_atom_site_type_symbol
_atom_site_label
_atom_site_fract_x
_atom_site_fract_y
_atom_site_fract_z
Si Si1 0.438058 0.319644 0.454027
Si Si2 0.676984 0.328688 0.133899
Si Si3 0.468795 0.318921 0.115120
Si Si4 0.585233 0.178204 0.028832
Si Si5 0.869889 0.318923 0.303738
Si Si6 0.320687 0.820494 0.540589
Si Si7 0.509987 0.680161 0.710299
O O1 0.500000 0.258376 0.500000
O O2 0.433837 0.500000 0.466838
O O3 0.373180 0.249971 0.483517
O O4 0.444185 0.273788 0.361432
O O5 0.750000 0.329164 0.125100
O O6 0.649801 0.500000 0.121957
O O7 0.652250 0.215098 0.066026
O O8 0.657989 0.267194 0.219956
O O9 0.459648 0.500000 0.109483
O O10 0.536101 0.273451 0.080980
O O11 0.463517 0.258546 0.205797
O O12 0.416056 0.234962 0.062395
O O13 0.569390 0.000000 0.032599
O O14 0.865520 0.500000 0.316478
O O15 0.828963 0.239380 0.370678
O O16 0.940835 0.256516 0.308518
O O17 0.250000 0.776957 0.512276
O O18 0.330057 0.000000 0.539707
O O19 0.503150 0.500000 0.717734
#
# Coordination Sequence:
#
# PCOD8207376 Si02
#       7
#     8   8   8   8   8   8   8
#     4  10  19  35  58  82 106 136 177 226 271 317
#     4  10  20  34  53  76 103 140 182 215 252 310
#     4  10  18  33  55  75 101 135 173 216 259 303
#     4  11  21  32  48  75 108 138 172 210 257 311
#     4  10  18  34  56  79 106 139 179 219 262 313
#     4  11  24  38  51  75 112 149 183 219 264 323
#     4   9  17  31  55  83 107 131 170 224 270 310
#
# _framework density 17.727291000000001
#
# number of rings (size 3 to 8) (size 9 to 14) (size 15 to 20)
#    0.000    1.857    2.857    3.429    0.000    2.857 
#    0.000    1.429    0.000    0.857    0.000    2.000 
#    0.000    0.000    0.000    0.000    0.000    0.000 
#
# Total GULP energy -694266.988844 kJ/mol
# GULP energy per Si atom -12397.624801 kJ/mol
# Density = 1.768694 g / cm^3
# Si number density = 17.727291 Si / 1000 Ang^3
#
#
#
# Elastic Constant Matrix: (Units=GPa)
#
#
# Indices 1 2 3 4 5 6 
#
# 1 101.8452 35.2971 62.6308 0.0000 0.0000 0.0000
# 2 35.2971 51.9104 34.7147 0.0000 0.0000 0.0000
# 3 62.6308 34.7147 134.9034 0.0000 0.0000 0.0000
# 4 0.0000 0.0000 0.0000 7.1798 0.0000 0.0000
# 5 0.0000 0.0000 0.0000 0.0000 24.1986 0.0000
# 6 0.0000 0.0000 0.0000 0.0000 0.0000 19.9933
#
#
#
# Elastic Compliance Matrix: (Units=1/GPa)
#
#
# Indices 1 2 3 4 5 6 
#
# 1 0.015574 -0.006951 -0.005442 0.000000 0.000000 0.000000
# 2 -0.006951 0.026370 -0.003559 0.000000 0.000000 0.000000
# 3 -0.005442 -0.003559 0.010855 0.000000 0.000000 0.000000
# 4 0.000000 0.000000 0.000000 0.139279 0.000000 0.000000
# 5 0.000000 0.000000 0.000000 0.000000 0.041325 0.000000
# 6 0.000000 0.000000 0.000000 0.000000 0.000000 0.050017
#
#
# Mechanical properties :
#
#
# Convention : Reuss Voigt Hill
#
# Bulk Modulus (GPa) = 47.85509 61.54936 54.70223
# Shear Modulus (GPa) = 15.51405 20.67544 18.09474
#
# Velocity S-wave (km/s) = 2.96150 3.41883 3.19835
# Velocity P-wave (km/s) = 6.22477 7.09789 6.67562
#
# Compressibility (1/GPa) = 0.02089642
#
# Stress axis : x y z
#
# Youngs Moduli (GPa) = 64.20800 37.92170 92.12307
#
# Poissons Ratio (x) = 0.26358 0.50133
# Poissons Ratio (y) = 0.44629 0.32785
# Poissons Ratio (z) = 0.34942 0.13496
#
# Static dielectric constant tensor:
#      x y z
#    x 3.223510 0.000000 0.000000 
#    y 0.000000 3.147860 0.000000 
#    z 0.000000 0.000000 3.572170 
# 
# 
# High freq. dielectric constant tensor:
#      x y z
#    x 1.667850 0.000000 0.000000 
#    y 0.000000 1.670790 0.000000 
#    z 0.000000 0.000000 1.689720 
# 
# From -- ./inp_files/30378.got.cif
#   From: 2010.03.12/outbox.cif.g09.slc.cpg/sg51_16_cif.got.tgz:30378.got - 2010.04.16 13:43:02.
