data_PCOD8207505
_publ_section_title
;
Structure prediction by ZEFSAII (Michael W. Deem and Ramdas Pophale) SiO2 
 PCOD8207505
Probable space group: P M M A
;
_chemical_formula_sum "Si O2"
_cell_formula_units_Z 40
_cell_length_a 17.731470
_cell_length_b 11.359302
_cell_length_c 10.016414
_cell_angle_alpha 90.000000
_cell_angle_beta 90.000000
_cell_angle_gamma 90.000000
_cell_volume 2017.477287
_symmetry_space_group_name_H-M "P M M A"
_symmetry_group_IT_number 51
_symmetry_cell_setting 'orthorhombic'
loop_
_space_group_symop_operation_xyz
x,y,z
1/2-x,-y,z
1/2+x,-y,-z
-x,y,-z
-x,-y,-z
1/2+x,y,-z
1/2-x,y,z
x,-y,z
loop_
_atom_site_type_symbol
_atom_site_label
_atom_site_fract_x
_atom_site_fract_y
_atom_site_fract_z
Si Si1 0.909854 0.751774 0.992401
Si Si2 0.339707 0.500000 0.666740
Si Si3 0.337907 0.258219 0.522508
Si Si4 0.594301 0.862365 0.723209
Si Si5 0.412522 0.500000 0.957805
Si Si6 0.578837 0.866036 0.256579
O O1 0.877987 0.832684 0.873579
O O2 0.878514 0.618257 0.976340
O O3 0.881282 0.796285 0.135869
O O4 0.000000 0.758236 0.000000
O O5 0.250000 0.500000 0.704023
O O6 0.361778 0.387289 0.575718
O O7 0.393090 0.500000 0.798455
O O8 0.250000 0.243631 0.530613
O O9 0.363601 0.229819 0.372392
O O10 0.374246 0.155994 0.610968
O O11 0.506717 0.829479 0.712061
O O12 0.611149 0.000000 0.691212
O O13 0.500000 0.500000 0.000000
O O14 0.581023 0.000000 0.213006
#
# Coordination Sequence:
#
# PCOD8207505 Si02
#       6
#     8   4   8   8   4   8
#     4   9  18  33  58  86 117 146 187 241 296 339
#     4  10  22  41  61  84 119 157 197 245 298 350
#     4  11  23  39  58  80 115 157 194 238 291 350
#     4  10  21  37  57  87 122 153 189 241 296 346
#     4  10  18  35  62  90 115 146 198 252 287 338
#     4  10  19  35  59  85 114 153 197 239 289 348
#
# _framework density 19.826740999999998
#
# number of rings (size 3 to 8) (size 9 to 14) (size 15 to 20)
#    0.000    2.000    2.000    1.800    0.000    6.400 
#    0.000    5.000    0.000    2.400    0.000    0.000 
#    0.000    0.000    0.000    0.000    0.000    0.000 
#
# Total GULP energy -495749.721073 kJ/mol
# GULP energy per Si atom -12393.743027 kJ/mol
# Density = 1.978161 g / cm^3
# Si number density = 19.826741 Si / 1000 Ang^3
#
#
#
# Elastic Constant Matrix: (Units=GPa)
#
#
# Indices 1 2 3 4 5 6 
#
# 1 53.4597 47.1445 46.5198 0.0000 0.0000 0.0000
# 2 47.1445 100.2179 59.7665 0.0000 0.0000 0.0000
# 3 46.5198 59.7665 146.0388 0.0000 0.0000 0.0000
# 4 0.0000 0.0000 0.0000 42.3489 0.0000 0.0000
# 5 0.0000 0.0000 0.0000 0.0000 10.6213 0.0000
# 6 0.0000 0.0000 0.0000 0.0000 0.0000 21.4224
#
#
#
# Elastic Compliance Matrix: (Units=1/GPa)
#
#
# Indices 1 2 3 4 5 6 
#
# 1 0.035444 -0.013150 -0.005909 0.000000 0.000000 0.000000
# 2 -0.013150 0.018078 -0.003210 0.000000 0.000000 0.000000
# 3 -0.005909 -0.003210 0.010043 0.000000 0.000000 0.000000
# 4 0.000000 0.000000 0.000000 0.023613 0.000000 0.000000
# 5 0.000000 0.000000 0.000000 0.000000 0.094150 0.000000
# 6 0.000000 0.000000 0.000000 0.000000 0.000000 0.046680
#
#
# Mechanical properties :
#
#
# Convention : Reuss Voigt Hill
#
# Bulk Modulus (GPa) = 52.55205 67.39754 59.97480
# Shear Modulus (GPa) = 17.92829 24.63090 21.27959
#
# Velocity S-wave (km/s) = 3.01033 3.52846 3.27965
# Velocity P-wave (km/s) = 6.21659 7.11808 6.68256
#
# Compressibility (1/GPa) = 0.01902875
#
# Stress axis : x y z
#
# Youngs Moduli (GPa) = 28.21373 55.31483 99.56810
#
# Poissons Ratio (x) = 0.72737 0.58834
# Poissons Ratio (y) = 0.37100 0.31960
# Poissons Ratio (z) = 0.16671 0.17755
#
# Static dielectric constant tensor:
#      x y z
#    x 3.304220 0.000000 0.000000 
#    y 0.000000 3.857480 0.000000 
#    z 0.000000 0.000000 3.735230 
# 
# 
# High freq. dielectric constant tensor:
#      x y z
#    x 1.733660 0.000000 0.000000 
#    y 0.000000 1.788830 0.000000 
#    z 0.000000 0.000000 1.779150 
# 
# From -- ./inp_files/10709.got.cif
#   From: 2010.03.12/outbox.cif.g09.slc.cpg/sg51_6_cif.got.tgz:10709.got - 2010.04.16 13:43:02.
