data_PCOD8207361
_publ_section_title
;
Structure prediction by ZEFSAII (Michael W. Deem and Ramdas Pophale) SiO2 
 PCOD8207361
Probable space group: P M M A
;
_chemical_formula_sum "Si O2"
_cell_formula_units_Z 64
_cell_length_a 17.944298
_cell_length_b 14.933531
_cell_length_c 12.296085
_cell_angle_alpha 90.000000
_cell_angle_beta 90.000000
_cell_angle_gamma 90.000000
_cell_volume 3295.003175
_symmetry_space_group_name_H-M "P M M A"
_symmetry_group_IT_number 51
_symmetry_cell_setting 'orthorhombic'
loop_
_space_group_symop_operation_xyz
x,y,z
1/2-x,-y,z
1/2+x,-y,-z
-x,y,-z
-x,-y,-z
1/2+x,y,-z
1/2-x,y,z
x,-y,z
loop_
_atom_site_type_symbol
_atom_site_label
_atom_site_fract_x
_atom_site_fract_y
_atom_site_fract_z
Si Si1 0.953409 0.201821 0.298331
Si Si2 0.165026 0.897034 0.559266
Si Si3 0.101758 0.099247 0.331272
Si Si4 0.830503 0.399709 0.090096
Si Si5 0.563392 0.681375 0.920488
Si Si6 0.071868 0.101011 0.924689
Si Si7 0.336336 0.834544 0.119192
Si Si8 0.461500 0.400378 0.753165
O O1 0.885628 0.169465 0.371511
O O2 0.936391 0.173666 0.172714
O O3 0.964850 0.309565 0.317408
O O4 0.030274 0.161656 0.338234
O O5 0.250000 0.877201 0.591386
O O6 0.155353 0.876052 0.431557
O O7 0.144188 0.000000 0.585700
O O8 0.150309 0.099355 0.220264
O O9 0.069416 0.000000 0.344339
O O10 0.750000 0.354471 0.113937
O O11 0.818734 0.500000 0.051739
O O12 0.879103 0.395936 0.198145
O O13 0.868020 0.352799 0.989265
O O14 0.603357 0.757320 0.848979
O O15 0.525237 0.605206 0.846627
O O16 0.500000 0.723103 0.000000
O O17 0.082522 0.000000 0.876833
O O18 0.142862 0.124654 0.000934
O O19 0.000000 0.102824 0.000000
O O20 0.250000 0.804119 0.115602
O O21 0.471929 0.500000 0.696474
#
# Coordination Sequence:
#
# PCOD8207361 Si02
#       8
#     8   8   8   8   8   8   8   8
#     4  12  22  38  63  89 116 156 206 242 294 354
#     4  10  23  42  64  92 121 148 189 248 303 349
#     4  11  22  40  63  87 116 154 197 244 290 349
#     4   9  17  29  48  76 108 146 194 244 292 340
#     4  10  18  33  50  73 110 154 202 240 287 337
#     4  11  21  35  54  81 124 167 197 231 278 349
#     4  12  23  34  54  86 122 162 200 239 290 349
#     4  10  20  34  55  81 114 150 192 247 299 347
#
# _framework density 19.423349999999999
#
# number of rings (size 3 to 8) (size 9 to 14) (size 15 to 20)
#    0.000    1.375    2.500    4.875    0.000    5.000 
#    0.000    0.000    0.000    1.500    0.000    0.000 
#    0.000    0.000    0.000    0.000    0.000    0.000 
#
# Total GULP energy -792983.105102 kJ/mol
# GULP energy per Si atom -12390.361017 kJ/mol
# Density = 1.937914 g / cm^3
# Si number density = 19.423350 Si / 1000 Ang^3
#
#
#
# Elastic Constant Matrix: (Units=GPa)
#
#
# Indices 1 2 3 4 5 6 
#
# 1 124.8842 40.4770 15.6803 0.0000 0.0000 0.0000
# 2 40.4770 121.2855 26.3474 0.0000 0.0000 0.0000
# 3 15.6803 26.3474 57.7325 0.0000 0.0000 0.0000
# 4 0.0000 0.0000 0.0000 16.7397 0.0000 0.0000
# 5 0.0000 0.0000 0.0000 0.0000 24.3038 0.0000
# 6 0.0000 0.0000 0.0000 0.0000 0.0000 12.3921
#
#
#
# Elastic Compliance Matrix: (Units=1/GPa)
#
#
# Indices 1 2 3 4 5 6 
#
# 1 0.009053 -0.002761 -0.001199 0.000000 0.000000 0.000000
# 2 -0.002761 0.009994 -0.003811 0.000000 0.000000 0.000000
# 3 -0.001199 -0.003811 0.019386 0.000000 0.000000 0.000000
# 4 0.000000 0.000000 0.000000 0.059738 0.000000 0.000000
# 5 0.000000 0.000000 0.000000 0.000000 0.041146 0.000000
# 6 0.000000 0.000000 0.000000 0.000000 0.000000 0.080696
#
#
# Mechanical properties :
#
#
# Convention : Reuss Voigt Hill
#
# Bulk Modulus (GPa) = 43.68426 52.10130 47.89278
# Shear Modulus (GPa) = 20.56040 25.44696 23.00368
#
# Velocity S-wave (km/s) = 3.25705 3.62349 3.44515
# Velocity P-wave (km/s) = 6.05673 6.66247 6.36681
#
# Compressibility (1/GPa) = 0.02289154
#
# Stress axis : x y z
#
# Youngs Moduli (GPa) = 110.46368 100.05685 51.58307
#
# Poissons Ratio (x) = 0.27624 0.06184
# Poissons Ratio (y) = 0.30497 0.19660
# Poissons Ratio (z) = 0.13242 0.38134
#
# Static dielectric constant tensor:
#      x y z
#    x 3.814740 0.000000 0.000000 
#    y 0.000000 3.842190 0.000000 
#    z 0.000000 0.000000 3.354050 
# 
# 
# High freq. dielectric constant tensor:
#      x y z
#    x 1.765850 0.000000 0.000000 
#    y 0.000000 1.757520 0.000000 
#    z 0.000000 0.000000 1.721810 
# 
# From -- ./inp_files/17523.got.cif
#   From: 2010.03.12/outbox.cif.g09.slc.cpg/sg51_9_cif.got.tgz:17523.got - 2010.04.16 13:43:02.
