data_PCOD8207126
_publ_section_title
;
Structure prediction by ZEFSAII (Michael W. Deem and Ramdas Pophale) SiO2 
 PCOD8207126
Probable space group: P M M A
;
_chemical_formula_sum "Si O2"
_cell_formula_units_Z 48
_cell_length_a 8.727410
_cell_length_b 20.407622
_cell_length_c 14.488560
_cell_angle_alpha 90.000000
_cell_angle_beta 90.000000
_cell_angle_gamma 90.000000
_cell_volume 2580.494894
_symmetry_space_group_name_H-M "P M M A"
_symmetry_group_IT_number 51
_symmetry_cell_setting 'orthorhombic'
loop_
_space_group_symop_operation_xyz
x,y,z
1/2-x,-y,z
1/2+x,-y,-z
-x,y,-z
-x,-y,-z
1/2+x,y,-z
1/2-x,y,z
x,-y,z
loop_
_atom_site_type_symbol
_atom_site_label
_atom_site_fract_x
_atom_site_fract_y
_atom_site_fract_z
Si Si1 0.568911 0.626290 0.593969
Si Si2 0.927321 0.232298 0.409284
Si Si3 0.927161 0.813834 0.210467
Si Si4 0.429357 0.924274 0.096955
Si Si5 0.568496 0.695281 0.899673
Si Si6 0.432070 0.572214 0.213934
O O1 0.500000 0.595631 0.500000
O O2 0.750000 0.624204 0.586826
O O3 0.515526 0.700377 0.608089
O O4 0.509241 0.585399 0.682019
O O5 0.750000 0.248032 0.427317
O O6 0.949996 0.186176 0.320756
O O7 0.000000 0.197335 0.500000
O O8 0.750000 0.806297 0.183013
O O9 0.991630 0.883335 0.177678
O O10 0.020249 0.754925 0.164980
O O11 0.250000 0.909776 0.094456
O O12 0.466098 0.000000 0.116430
O O13 0.500000 0.901462 0.000000
O O14 0.750000 0.694406 0.906860
O O15 0.504241 0.627296 0.856180
O O16 0.500000 0.705279 0.000000
O O17 0.250000 0.575346 0.213382
O O18 0.490202 0.500000 0.182912
#
# Coordination Sequence:
#
# PCOD8207126 Si02
#       6
#     8   8   8   8   8   8
#     4  10  18  31  52  76 103 136 173 216 269 325
#     4  10  20  33  53  80 110 140 176 220 267 317
#     4  11  22  36  57  84 113 144 180 223 267 316
#     4  10  21  37  58  85 117 151 185 221 264 316
#     4  11  22  37  56  77 104 138 179 227 275 323
#     4   9  19  35  53  73 101 139 179 220 272 329
#
# _framework density 18.601082000000002
#
# number of rings (size 3 to 8) (size 9 to 14) (size 15 to 20)
#    0.000    1.833    1.667    4.000    0.000    3.667 
#    0.000    0.000    0.000    7.500    0.000    0.000 
#    0.000    0.000    0.000    0.000    0.000    0.000 
#
# Total GULP energy -595215.936475 kJ/mol
# GULP energy per Si atom -12400.332010 kJ/mol
# Density = 1.855875 g / cm^3
# Si number density = 18.601082 Si / 1000 Ang^3
#
#
#
# Elastic Constant Matrix: (Units=GPa)
#
#
# Indices 1 2 3 4 5 6 
#
# 1 78.0281 25.8323 40.7403 0.0000 0.0000 0.0000
# 2 25.8323 85.1765 49.0273 0.0000 0.0000 0.0000
# 3 40.7403 49.0273 117.7662 0.0000 0.0000 0.0000
# 4 0.0000 0.0000 0.0000 31.2066 0.0000 0.0000
# 5 0.0000 0.0000 0.0000 0.0000 29.7315 0.0000
# 6 0.0000 0.0000 0.0000 0.0000 0.0000 16.6096
#
#
#
# Elastic Compliance Matrix: (Units=1/GPa)
#
#
# Indices 1 2 3 4 5 6 
#
# 1 0.015944 -0.002184 -0.004607 0.000000 0.000000 0.000000
# 2 -0.002184 0.015739 -0.005797 0.000000 0.000000 0.000000
# 3 -0.004607 -0.005797 0.012498 0.000000 0.000000 0.000000
# 4 0.000000 0.000000 0.000000 0.032045 0.000000 0.000000
# 5 0.000000 0.000000 0.000000 0.000000 0.033634 0.000000
# 6 0.000000 0.000000 0.000000 0.000000 0.000000 0.060206
#
#
# Mechanical properties :
#
#
# Convention : Reuss Voigt Hill
#
# Bulk Modulus (GPa) = 52.61253 56.90786 54.76019
# Shear Modulus (GPa) = 24.80436 26.53425 25.66931
#
# Velocity S-wave (km/s) = 3.65566 3.78099 3.71885
# Velocity P-wave (km/s) = 6.79445 7.05134 6.92409
#
# Compressibility (1/GPa) = 0.01900688
#
# Stress axis : x y z
#
# Youngs Moduli (GPa) = 62.71901 63.53487 80.01078
#
# Poissons Ratio (x) = 0.13876 0.36857
# Poissons Ratio (y) = 0.13698 0.46382
# Poissons Ratio (z) = 0.28892 0.36831
#
# Static dielectric constant tensor:
#      x y z
#    x 3.416470 0.000000 0.000000 
#    y 0.000000 3.354100 0.000000 
#    z 0.000000 0.000000 3.547870 
# 
# 
# High freq. dielectric constant tensor:
#      x y z
#    x 1.723160 0.000000 0.000000 
#    y 0.000000 1.703540 0.000000 
#    z 0.000000 0.000000 1.730830 
# 
# From -- ./inp_files/21117.got.cif
#   From: 2010.03.12/outbox.cif.g09.slc.cpg/sg51_11_cif.got.tgz:21117.got - 2010.04.16 13:43:02.
