data_PCOD8207861
_publ_section_title
;
Structure prediction by ZEFSAII (Michael W. Deem and Ramdas Pophale) SiO2 
 PCOD8207861
Probable space group: P M M A
;
_chemical_formula_sum "Si O2"
_cell_formula_units_Z 64
_cell_length_a 9.280194
_cell_length_b 14.226063
_cell_length_c 30.804026
_cell_angle_alpha 90.000000
_cell_angle_beta 90.000000
_cell_angle_gamma 90.000000
_cell_volume 4066.766750
_symmetry_space_group_name_H-M "P M M A"
_symmetry_group_IT_number 51
_symmetry_cell_setting 'orthorhombic'
loop_
_space_group_symop_operation_xyz
x,y,z
1/2-x,-y,z
1/2+x,-y,-z
-x,y,-z
-x,-y,-z
1/2+x,y,-z
1/2-x,y,z
x,-y,z
loop_
_atom_site_type_symbol
_atom_site_label
_atom_site_fract_x
_atom_site_fract_y
_atom_site_fract_z
Si Si1 0.583607 0.108942 0.208820
Si Si2 0.581442 0.795089 0.713500
Si Si3 0.418200 0.108854 0.043507
Si Si4 0.084982 0.604304 0.839066
Si Si5 0.916386 0.207223 0.119448
Si Si6 0.417660 0.396043 0.247540
Si Si7 0.082482 0.109315 0.374316
Si Si8 0.587122 0.888128 0.458788
O O1 0.750000 0.127864 0.219197
O O2 0.493737 0.147021 0.248840
O O3 0.537556 0.160495 0.164735
O O4 0.549425 0.000000 0.202352
O O5 0.750000 0.814809 0.718347
O O6 0.544848 0.683643 0.716895
O O7 0.527551 0.831357 0.666912
O O8 0.250000 0.130113 0.037458
O O9 0.479540 0.170320 0.082408
O O10 0.447100 0.000000 0.054192
O O11 0.500000 0.139243 0.000000
O O12 0.250000 0.608896 0.823953
O O13 0.044701 0.500000 0.856605
O O14 0.057609 0.680407 0.876872
O O15 0.994352 0.631261 0.796988
O O16 0.750000 0.183304 0.108212
O O17 0.250000 0.395672 0.236895
O O18 0.466321 0.500000 0.264224
O O19 0.250000 0.126992 0.384557
O O20 0.991373 0.146188 0.415146
O O21 0.052933 0.000000 0.364697
O O22 0.500000 0.847501 0.500000
O O23 0.750000 0.848813 0.459711
O O24 0.587600 0.000000 0.460654
#
# Coordination Sequence:
#
# PCOD8207861 Si02
#       8
#     8   8   8   8   8   8   8   8
#     4  10  20  31  43  63  92 124 155 187 223 263
#     4  10  19  30  44  62  88 122 157 190 225 268
#     4  10  21  36  54  75  97 122 152 186 225 269
#     4   9  17  30  49  71  93 119 152 188 227 270
#     4  10  19  32  50  71  96 123 152 188 228 269
#     4   9  17  29  45  65  89 117 151 193 235 270
#     4   9  17  28  40  56  82 117 153 186 221 262
#     4   9  16  26  41  60  81 108 144 185 225 264
#
# _framework density 15.737318
#
# number of rings (size 3 to 8) (size 9 to 14) (size 15 to 20)
#    0.000    2.500    1.250    1.500    0.000    5.000 
#    0.000    1.250    0.000    0.375    0.000    0.000 
#    0.000    0.500    0.000    0.875    0.000    1.250 
#
# Total GULP energy -793532.858585 kJ/mol
# GULP energy per Si atom -12398.950915 kJ/mol
# Density = 1.570150 g / cm^3
# Si number density = 15.737318 Si / 1000 Ang^3
#
#
#
# Elastic Constant Matrix: (Units=GPa)
#
#
# Indices 1 2 3 4 5 6 
#
# 1 68.4173 36.4600 59.3786 0.0000 0.0000 0.0000
# 2 36.4600 79.0568 55.4498 0.0000 0.0000 0.0000
# 3 59.3786 55.4498 123.3058 0.0000 0.0000 0.0000
# 4 0.0000 0.0000 0.0000 7.8499 0.0000 0.0000
# 5 0.0000 0.0000 0.0000 0.0000 30.2176 0.0000
# 6 0.0000 0.0000 0.0000 0.0000 0.0000 18.0293
#
#
#
# Elastic Compliance Matrix: (Units=1/GPa)
#
#
# Indices 1 2 3 4 5 6 
#
# 1 0.026272 -0.004737 -0.010521 0.000000 0.000000 0.000000
# 2 -0.004737 0.019331 -0.006412 0.000000 0.000000 0.000000
# 3 -0.010521 -0.006412 0.016060 0.000000 0.000000 0.000000
# 4 0.000000 0.000000 0.000000 0.127391 0.000000 0.000000
# 5 0.000000 0.000000 0.000000 0.000000 0.033093 0.000000
# 6 0.000000 0.000000 0.000000 0.000000 0.000000 0.055465
#
#
# Mechanical properties :
#
#
# Convention : Reuss Voigt Hill
#
# Bulk Modulus (GPa) = 54.57713 63.70630 59.14171
# Shear Modulus (GPa) = 15.28774 19.18544 17.23659
#
# Velocity S-wave (km/s) = 3.12016 3.49536 3.31307
# Velocity P-wave (km/s) = 6.90912 7.54049 7.23170
#
# Compressibility (1/GPa) = 0.01832269
#
# Stress axis : x y z
#
# Youngs Moduli (GPa) = 38.06387 51.73046 62.26687
#
# Poissons Ratio (x) = 0.24503 0.65512
# Poissons Ratio (y) = 0.18030 0.39926
# Poissons Ratio (z) = 0.40048 0.33170
#
# Static dielectric constant tensor:
#      x y z
#    x 3.133290 0.000000 0.000000 
#    y 0.000000 3.133380 0.000000 
#    z 0.000000 0.000000 2.938580 
# 
# 
# High freq. dielectric constant tensor:
#      x y z
#    x 1.609500 0.000000 0.000000 
#    y 0.000000 1.588650 0.000000 
#    z 0.000000 0.000000 1.589100 
# 
# From -- ./inp_files/37626.got.cif
#   From: 2010.03.12/outbox.cif.g09.slc.cpg/sg51_19_cif.got.tgz:37626.got - 2010.04.16 13:43:02.
