data_PCOD8207371
_publ_section_title
;
Structure prediction by ZEFSAII (Michael W. Deem and Ramdas Pophale) SiO2 
 PCOD8207371
Probable space group: P M M A
;
_chemical_formula_sum "Si O2"
_cell_formula_units_Z 56
_cell_length_a 8.766514
_cell_length_b 20.563700
_cell_length_c 15.399307
_cell_angle_alpha 90.000000
_cell_angle_beta 90.000000
_cell_angle_gamma 90.000000
_cell_volume 2776.063316
_symmetry_space_group_name_H-M "P M M A"
_symmetry_group_IT_number 51
_symmetry_cell_setting 'orthorhombic'
loop_
_space_group_symop_operation_xyz
x,y,z
1/2-x,-y,z
1/2+x,-y,-z
-x,y,-z
-x,-y,-z
1/2+x,y,-z
1/2-x,y,z
x,-y,z
loop_
_atom_site_type_symbol
_atom_site_label
_atom_site_fract_x
_atom_site_fract_y
_atom_site_fract_z
Si Si1 0.068970 0.669162 0.590655
Si Si2 0.424123 0.237765 0.874251
Si Si3 0.070113 0.373836 0.086134
Si Si4 0.422006 0.795227 0.676606
Si Si5 0.573803 0.574525 0.728071
Si Si6 0.570859 0.894912 0.913260
Si Si7 0.571002 0.070919 0.264182
O O1 0.250000 0.671235 0.584467
O O2 0.001399 0.741888 0.612532
O O3 0.000000 0.645207 0.500000
O O4 0.026522 0.618707 0.665460
O O5 0.250000 0.229434 0.906224
O O6 0.493133 0.303785 0.908989
O O7 0.431917 0.237191 0.770597
O O8 0.527117 0.180723 0.912491
O O9 0.250000 0.366889 0.075980
O O10 0.027012 0.414954 0.171554
O O11 0.000000 0.408533 0.000000
O O12 0.250000 0.804292 0.645005
O O13 0.496921 0.868450 0.678451
O O14 0.750000 0.593275 0.714263
O O15 0.542323 0.500000 0.703668
O O16 0.750000 0.904392 0.914212
O O17 0.505275 0.931520 0.829661
O O18 0.500000 0.927072 0.000000
O O19 0.750000 0.084507 0.249419
O O20 0.543264 0.000000 0.309054
#
# Coordination Sequence:
#
# PCOD8207371 Si02
#       7
#     8   8   8   8   8   8   8
#     4  11  22  39  64  94 122 152 192 239 295 357
#     4  10  18  33  54  77 107 144 191 242 292 342
#     4  11  22  35  55  83 116 155 199 243 293 344
#     4   8  16  32  56  83 111 143 183 232 283 338
#     4  10  23  43  63  86 120 158 198 245 294 346
#     4  11  21  32  46  69 103 143 189 240 293 344
#     4   9  18  34  55  78 105 143 188 234 287 345
#
# _framework density 20.172450000000001
#
# number of rings (size 3 to 8) (size 9 to 14) (size 15 to 20)
#    0.000    2.000    1.429    3.857    0.000    2.000 
#    0.000    0.714    0.000    0.429    0.000    0.000 
#    0.000    0.000    0.000    0.000    0.000    0.143 
#
# Total GULP energy -694071.574984 kJ/mol
# GULP energy per Si atom -12394.135268 kJ/mol
# Density = 2.012654 g / cm^3
# Si number density = 20.172450 Si / 1000 Ang^3
#
#
#
# Elastic Constant Matrix: (Units=GPa)
#
#
# Indices 1 2 3 4 5 6 
#
# 1 76.9397 31.9602 32.8655 0.0000 0.0000 0.0000
# 2 31.9602 110.8901 43.5613 0.0000 0.0000 0.0000
# 3 32.8655 43.5613 87.6452 0.0000 0.0000 0.0000
# 4 0.0000 0.0000 0.0000 2.0337 0.0000 0.0000
# 5 0.0000 0.0000 0.0000 0.0000 24.5088 0.0000
# 6 0.0000 0.0000 0.0000 0.0000 0.0000 21.4398
#
#
#
# Elastic Compliance Matrix: (Units=1/GPa)
#
#
# Indices 1 2 3 4 5 6 
#
# 1 0.016160 -0.002830 -0.004654 0.000000 0.000000 0.000000
# 2 -0.002830 0.011701 -0.004755 0.000000 0.000000 0.000000
# 3 -0.004654 -0.004755 0.015518 0.000000 0.000000 0.000000
# 4 0.000000 0.000000 0.000000 0.491716 0.000000 0.000000
# 5 0.000000 0.000000 0.000000 0.000000 0.040802 0.000000
# 6 0.000000 0.000000 0.000000 0.000000 0.000000 0.046642
#
#
# Mechanical properties :
#
#
# Convention : Reuss Voigt Hill
#
# Bulk Modulus (GPa) = 52.89934 54.69432 53.79683
# Shear Modulus (GPa) = 7.65326 20.73567 14.19446
#
# Velocity S-wave (km/s) = 1.94991 3.20960 2.65553
# Velocity P-wave (km/s) = 5.59911 6.39590 6.01072
#
# Compressibility (1/GPa) = 0.01890383
#
# Stress axis : x y z
#
# Youngs Moduli (GPa) = 61.87978 85.46082 64.44220
#
# Poissons Ratio (x) = 0.24182 0.29988
# Poissons Ratio (y) = 0.17510 0.30640
# Poissons Ratio (z) = 0.28796 0.40634
#
# Static dielectric constant tensor:
#      x y z
#    x 3.523070 0.000000 0.000000 
#    y 0.000000 3.807950 0.000000 
#    z 0.000000 0.000000 3.545790 
# 
# 
# High freq. dielectric constant tensor:
#      x y z
#    x 1.773050 0.000000 0.000000 
#    y 0.000000 1.793730 0.000000 
#    z 0.000000 0.000000 1.769150 
# 
# From -- ./inp_files/21803.got.cif
#   From: 2010.03.12/outbox.cif.g09.slc.cpg/sg51_11_cif.got.tgz:21803.got - 2010.04.16 13:43:02.
