data_PCOD8207276
_publ_section_title
;
Structure prediction by ZEFSAII (Michael W. Deem and Ramdas Pophale) SiO2 
 PCOD8207276
Probable space group: P M M A
;
_chemical_formula_sum "Si O2"
_cell_formula_units_Z 64
_cell_length_a 14.462110
_cell_length_b 9.092206
_cell_length_c 25.214229
_cell_angle_alpha 90.000000
_cell_angle_beta 90.000000
_cell_angle_gamma 90.000000
_cell_volume 3315.481586
_symmetry_space_group_name_H-M "P M M A"
_symmetry_group_IT_number 51
_symmetry_cell_setting 'orthorhombic'
loop_
_space_group_symop_operation_xyz
x,y,z
1/2-x,-y,z
1/2+x,-y,-z
-x,y,-z
-x,-y,-z
1/2+x,y,-z
1/2-x,y,z
x,-y,z
loop_
_atom_site_type_symbol
_atom_site_label
_atom_site_fract_x
_atom_site_fract_y
_atom_site_fract_z
Si Si1 0.351998 0.335671 0.413936
Si Si2 0.546957 0.325959 0.878428
Si Si3 0.460666 0.173663 0.325328
Si Si4 0.602802 0.836773 0.979783
Si Si5 0.606545 0.166260 0.486061
Si Si6 0.851272 0.825600 0.368390
Si Si7 0.642082 0.825858 0.779840
Si Si8 0.850378 0.331698 0.079989
O O1 0.250000 0.339361 0.388466
O O2 0.393833 0.500000 0.416535
O O3 0.415955 0.234356 0.378391
O O4 0.341464 0.270087 0.472682
O O5 0.560406 0.500000 0.876125
O O6 0.606482 0.262396 0.927181
O O7 0.587406 0.254320 0.826103
O O8 0.437586 0.281487 0.883844
O O9 0.569025 0.223717 0.326445
O O10 0.407623 0.232252 0.273534
O O11 0.450928 0.000000 0.328251
O O12 0.642919 0.000000 0.967527
O O13 0.500000 0.850849 0.000000
O O14 0.660671 0.760780 0.026175
O O15 0.500000 0.170784 0.500000
O O16 0.624729 0.231403 0.427416
O O17 0.645154 0.000000 0.490449
O O18 0.750000 0.765130 0.350513
O O19 0.849860 0.000000 0.370215
O O20 0.750000 0.780537 0.778967
O O21 0.631007 0.000000 0.786841
O O22 0.750000 0.314565 0.109679
O O23 0.868137 0.500000 0.063328
#
# Coordination Sequence:
#
# PCOD8207276 Si02
#       8
#     8   8   8   8   8   8   8   8
#     4  11  23  35  50  77 111 143 174 214 266 317
#     4  10  20  35  56  80 108 144 183 223 268 320
#     4  10  20  38  60  79 102 135 178 223 267 318
#     4   9  17  30  50  77 110 145 181 222 265 308
#     4  10  18  32  54  79 106 141 182 216 253 308
#     4   9  17  31  54  82 108 135 172 218 263 311
#     4  10  22  39  58  79 103 134 174 224 279 326
#     4   9  18  33  53  79 112 149 186 220 259 313
#
# _framework density 19.303380000000001
#
# number of rings (size 3 to 8) (size 9 to 14) (size 15 to 20)
#    0.000    2.250    1.250    1.875    0.000    5.750 
#    0.000    0.625    0.000    1.125    0.000    0.000 
#    0.000    0.000    0.000    0.000    0.000    0.000 
#
# Total GULP energy -793204.092876 kJ/mol
# GULP energy per Si atom -12393.813951 kJ/mol
# Density = 1.925944 g / cm^3
# Si number density = 19.303380 Si / 1000 Ang^3
#
#
#
# Elastic Constant Matrix: (Units=GPa)
#
#
# Indices 1 2 3 4 5 6 
#
# 1 143.3461 31.6369 64.1197 0.0000 0.0000 0.0000
# 2 31.6369 43.5403 36.5557 0.0000 0.0000 0.0000
# 3 64.1197 36.5557 111.2238 0.0000 0.0000 0.0000
# 4 0.0000 0.0000 0.0000 6.4184 0.0000 0.0000
# 5 0.0000 0.0000 0.0000 0.0000 26.5784 0.0000
# 6 0.0000 0.0000 0.0000 0.0000 0.0000 15.9143
#
#
#
# Elastic Compliance Matrix: (Units=1/GPa)
#
#
# Indices 1 2 3 4 5 6 
#
# 1 0.009724 -0.003258 -0.004535 0.000000 0.000000 0.000000
# 2 -0.003258 0.032812 -0.008906 0.000000 0.000000 0.000000
# 3 -0.004535 -0.008906 0.014532 0.000000 0.000000 0.000000
# 4 0.000000 0.000000 0.000000 0.155803 0.000000 0.000000
# 5 0.000000 0.000000 0.000000 0.000000 0.037625 0.000000
# 6 0.000000 0.000000 0.000000 0.000000 0.000000 0.062837
#
#
# Mechanical properties :
#
#
# Convention : Reuss Voigt Hill
#
# Bulk Modulus (GPa) = 42.24726 62.52610 52.38668
# Shear Modulus (GPa) = 14.09961 20.83540 17.46751
#
# Velocity S-wave (km/s) = 2.70556 3.28893 3.01141
# Velocity P-wave (km/s) = 5.62970 6.84722 6.26809
#
# Compressibility (1/GPa) = 0.02367017
#
# Stress axis : x y z
#
# Youngs Moduli (GPa) = 102.84253 30.47686 68.81227
#
# Poissons Ratio (x) = 0.09929 0.31205
# Poissons Ratio (y) = 0.33505 0.61284
# Poissons Ratio (z) = 0.46637 0.27143
#
# Static dielectric constant tensor:
#      x y z
#    x 3.900800 0.000000 0.000000 
#    y 0.000000 3.462990 0.000000 
#    z 0.000000 0.000000 3.441860 
# 
# 
# High freq. dielectric constant tensor:
#      x y z
#    x 1.766250 0.000000 0.000000 
#    y 0.000000 1.734450 0.000000 
#    z 0.000000 0.000000 1.726220 
# 
# From -- ./inp_files/35605.got.cif
#   From: 2010.03.12/outbox.cif.g09.slc.cpg/sg51_18_cif.got.tgz:35605.got - 2010.04.16 13:43:02.
