data_PCOD8207947
_publ_section_title
;
Structure prediction by ZEFSAII (Michael W. Deem and Ramdas Pophale) SiO2 
 PCOD8207947
Probable space group: P M M A
;
_chemical_formula_sum "Si O2"
_cell_formula_units_Z 40
_cell_length_a 29.218029
_cell_length_b 7.901753
_cell_length_c 9.646779
_cell_angle_alpha 90.000000
_cell_angle_beta 90.000000
_cell_angle_gamma 90.000000
_cell_volume 2227.187062
_symmetry_space_group_name_H-M "P M M A"
_symmetry_group_IT_number 51
_symmetry_cell_setting 'orthorhombic'
loop_
_space_group_symop_operation_xyz
x,y,z
1/2-x,-y,z
1/2+x,-y,-z
-x,y,-z
-x,-y,-z
1/2+x,y,-z
1/2-x,y,z
x,-y,z
loop_
_atom_site_type_symbol
_atom_site_label
_atom_site_fract_x
_atom_site_fract_y
_atom_site_fract_z
Si Si1 0.140616 0.684778 0.089000
Si Si2 0.639859 0.687552 0.581735
Si Si3 0.801839 0.000000 0.579800
Si Si4 0.537716 0.302773 0.607406
Si Si5 0.457843 0.806374 0.087061
Si Si6 0.801848 0.000000 0.911134
O O1 0.157248 0.500000 0.034880
O O2 0.143115 0.689211 0.253652
O O3 0.088038 0.707794 0.043755
O O4 0.173071 0.832628 0.028891
O O5 0.653968 0.500000 0.526048
O O6 0.587621 0.730505 0.540034
O O7 0.673268 0.831658 0.520261
O O8 0.803546 0.000000 0.745435
O O9 0.750000 0.000000 0.524952
O O10 0.500000 0.235164 0.500000
O O11 0.531129 0.500000 0.640638
O O12 0.531475 0.202919 0.749995
O O13 0.450047 0.000000 0.045344
O O14 0.500000 0.728417 0.000000
O O15 0.750000 0.000000 0.965792
#
# Coordination Sequence:
#
# PCOD8207947 Si02
#       6
#     8   8   4   8   8   4
#     4   9  16  27  42  59  84 118 150 183 228 273
#     4   8  15  26  39  57  83 112 142 179 220 264
#     4   9  16  24  37  56  79 111 147 179 216 265
#     4   9  18  31  46  66  92 122 156 190 226 272
#     4  10  19  30  45  67  95 125 158 192 228 275
#     4   9  16  26  39  58  85 113 147 189 226 271
#
# _framework density 17.959873000000002
#
# number of rings (size 3 to 8) (size 9 to 14) (size 15 to 20)
#    0.000    3.000    1.000    1.800    4.200    2.800 
#    0.000    4.000    0.000    0.000    0.000    0.000 
#    0.000    3.200    0.000    5.200    0.000    7.400 
#
# Total GULP energy -495793.455745 kJ/mol
# GULP energy per Si atom -12394.836394 kJ/mol
# Density = 1.791900 g / cm^3
# Si number density = 17.959873 Si / 1000 Ang^3
#
#
#
# Elastic Constant Matrix: (Units=GPa)
#
#
# Indices 1 2 3 4 5 6 
#
# 1 151.0455 83.7536 25.5496 0.0000 0.0000 0.0000
# 2 83.7536 138.5494 11.2460 0.0000 0.0000 0.0000
# 3 25.5496 11.2460 15.9370 0.0000 0.0000 0.0000
# 4 0.0000 0.0000 0.0000 7.9255 0.0000 0.0000
# 5 0.0000 0.0000 0.0000 0.0000 17.7440 0.0000
# 6 0.0000 0.0000 0.0000 0.0000 0.0000 26.4211
#
#
#
# Elastic Compliance Matrix: (Units=1/GPa)
#
#
# Indices 1 2 3 4 5 6 
#
# 1 0.012985 -0.006534 -0.016206 0.000000 0.000000 0.000000
# 2 -0.006534 0.010944 0.002752 0.000000 0.000000 0.000000
# 3 -0.016206 0.002752 0.086785 0.000000 0.000000 0.000000
# 4 0.000000 0.000000 0.000000 0.126175 0.000000 0.000000
# 5 0.000000 0.000000 0.000000 0.000000 0.056357 0.000000
# 6 0.000000 0.000000 0.000000 0.000000 0.000000 0.037849
#
#
# Mechanical properties :
#
#
# Convention : Reuss Voigt Hill
#
# Bulk Modulus (GPa) = 14.13649 60.73671 37.43660
# Shear Modulus (GPa) = 12.66946 22.75031 17.70989
#
# Velocity S-wave (km/s) = 2.65888 3.56298 3.14360
# Velocity P-wave (km/s) = 4.16106 7.12866 5.83662
#
# Compressibility (1/GPa) = 0.07073890
#
# Stress axis : x y z
#
# Youngs Moduli (GPa) = 77.01320 91.37408 11.52267
#
# Poissons Ratio (x) = 0.59703 0.18674
# Poissons Ratio (y) = 0.50320 -0.03171
# Poissons Ratio (z) = 1.24807 -0.25148
#
# Static dielectric constant tensor:
#      x y z
#    x 3.515860 0.000000 0.000000 
#    y 0.000000 3.628030 0.000000 
#    z 0.000000 0.000000 2.639380 
# 
# 
# High freq. dielectric constant tensor:
#      x y z
#    x 1.698000 0.000000 0.000000 
#    y 0.000000 1.712100 0.000000 
#    z 0.000000 0.000000 1.608480 
# 
# From -- ./inp_files/12140.got.cif
#   From: 2010.03.12/outbox.cif.g09.slc.cpg/sg51_7_cif.got.tgz:12140.got - 2010.04.16 13:43:02.
