data_PCOD8207184
_publ_section_title
;
Structure prediction by ZEFSAII (Michael W. Deem and Ramdas Pophale) SiO2 
 PCOD8207184
Probable space group: P M M A
;
_chemical_formula_sum "Si O2"
_cell_formula_units_Z 64
_cell_length_a 8.717213
_cell_length_b 31.321089
_cell_length_c 14.359986
_cell_angle_alpha 90.000000
_cell_angle_beta 90.000000
_cell_angle_gamma 90.000000
_cell_volume 3920.744374
_symmetry_space_group_name_H-M "P M M A"
_symmetry_group_IT_number 51
_symmetry_cell_setting 'orthorhombic'
loop_
_space_group_symop_operation_xyz
x,y,z
1/2-x,-y,z
1/2+x,-y,-z
-x,y,-z
-x,-y,-z
1/2+x,y,-z
1/2-x,y,z
x,-y,z
loop_
_atom_site_type_symbol
_atom_site_label
_atom_site_fract_x
_atom_site_fract_y
_atom_site_fract_z
Si Si1 0.429621 0.953803 0.898289
Si Si2 0.069283 0.869171 0.102334
Si Si3 0.568274 0.626651 0.786462
Si Si4 0.432023 0.335993 0.404390
Si Si5 0.931634 0.547723 0.901311
Si Si6 0.068531 0.707697 0.101299
Si Si7 0.930898 0.788399 0.777547
Si Si8 0.068336 0.243045 0.596404
O O1 0.250000 0.944865 0.905773
O O2 0.509409 0.913184 0.848650
O O3 0.460662 0.000000 0.848255
O O4 0.500000 0.956172 0.000000
O O5 0.250000 0.870762 0.092172
O O6 0.016698 0.830628 0.168059
O O7 0.000000 0.862494 0.000000
O O8 0.750000 0.628291 0.792266
O O9 0.516871 0.632670 0.679345
O O10 0.506958 0.581078 0.823960
O O11 0.502686 0.664871 0.850331
O O12 0.500000 0.355119 0.500000
O O13 0.250000 0.331878 0.412249
O O14 0.499075 0.289564 0.383216
O O15 0.750000 0.549686 0.909912
O O16 0.986397 0.500000 0.873244
O O17 0.000000 0.561496 0.000000
O O18 0.250000 0.706247 0.092803
O O19 0.015470 0.747813 0.162532
O O20 0.000000 0.712666 0.000000
O O21 0.750000 0.787450 0.758724
O O22 0.018888 0.788416 0.679264
O O23 0.250000 0.246235 0.588471
O O24 0.000000 0.224770 0.500000
#
# Coordination Sequence:
#
# PCOD8207184 Si02
#       8
#     8   8   8   8   8   8   8   8
#     4   9  16  26  41  60  84 116 156 200 240 276
#     4  10  19  29  44  64  91 126 161 195 234 276
#     4   9  17  30  48  66  90 122 149 185 231 271
#     4  10  18  32  50  68  92 117 148 187 231 275
#     4   9  17  30  48  70  93 119 152 186 225 272
#     4  10  19  31  44  61  89 122 154 187 222 263
#     4  10  20  34  47  63  92 127 156 189 229 272
#     4  11  21  33  51  71  91 117 152 192 234 275
#
# _framework density 16.323432
#
# number of rings (size 3 to 8) (size 9 to 14) (size 15 to 20)
#    0.000    2.250    1.250    4.500    0.000    2.250 
#    0.000    1.250    0.000    0.375    0.000    0.000 
#    0.000    0.500    0.000    1.625    0.000    3.125 
#
# Total GULP energy -793345.367913 kJ/mol
# GULP energy per Si atom -12396.021374 kJ/mol
# Density = 1.628628 g / cm^3
# Si number density = 16.323432 Si / 1000 Ang^3
#
#
#
# Elastic Constant Matrix: (Units=GPa)
#
#
# Indices 1 2 3 4 5 6 
#
# 1 60.2315 33.4886 36.6925 0.0000 0.0000 0.0000
# 2 33.4886 129.7998 69.6481 0.0000 0.0000 0.0000
# 3 36.6925 69.6481 122.6693 0.0000 0.0000 0.0000
# 4 0.0000 0.0000 0.0000 10.8600 0.0000 0.0000
# 5 0.0000 0.0000 0.0000 0.0000 25.8924 0.0000
# 6 0.0000 0.0000 0.0000 0.0000 0.0000 18.0270
#
#
#
# Elastic Compliance Matrix: (Units=1/GPa)
#
#
# Indices 1 2 3 4 5 6 
#
# 1 0.021061 -0.002953 -0.004623 0.000000 0.000000 0.000000
# 2 -0.002953 0.011494 -0.005642 0.000000 0.000000 0.000000
# 3 -0.004623 -0.005642 0.012738 0.000000 0.000000 0.000000
# 4 0.000000 0.000000 0.000000 0.092081 0.000000 0.000000
# 5 0.000000 0.000000 0.000000 0.000000 0.038621 0.000000
# 6 0.000000 0.000000 0.000000 0.000000 0.000000 0.055472
#
#
# Mechanical properties :
#
#
# Convention : Reuss Voigt Hill
#
# Bulk Modulus (GPa) = 53.03395 65.81768 59.42582
# Shear Modulus (GPa) = 18.92578 22.48065 20.70321
#
# Velocity S-wave (km/s) = 3.40873 3.71509 3.56520
# Velocity P-wave (km/s) = 6.93199 7.66884 7.30971
#
# Compressibility (1/GPa) = 0.01885585
#
# Stress axis : x y z
#
# Youngs Moduli (GPa) = 47.48156 87.00392 78.50260
#
# Poissons Ratio (x) = 0.25694 0.36291
# Poissons Ratio (y) = 0.14022 0.44295
# Poissons Ratio (z) = 0.21950 0.49092
#
# Static dielectric constant tensor:
#      x y z
#    x 2.982520 0.000000 0.000000 
#    y 0.000000 3.523570 0.000000 
#    z 0.000000 0.000000 3.100800 
# 
# 
# High freq. dielectric constant tensor:
#      x y z
#    x 1.626420 0.000000 0.000000 
#    y 0.000000 1.622290 0.000000 
#    z 0.000000 0.000000 1.607600 
# 
# From -- ./inp_files/22614.got.cif
#   From: 2010.03.12/outbox.cif.g09.slc.cpg/sg51_12_cif.got.tgz:22614.got - 2010.04.16 13:43:02.
