data_PCOD8207377
_publ_section_title
;
Structure prediction by ZEFSAII (Michael W. Deem and Ramdas Pophale) SiO2 
 PCOD8207377
Probable space group: P M M A
;
_chemical_formula_sum "Si O2"
_cell_formula_units_Z 48
_cell_length_a 31.014997
_cell_length_b 8.543318
_cell_length_c 9.641941
_cell_angle_alpha 90.000000
_cell_angle_beta 90.000000
_cell_angle_gamma 90.000000
_cell_volume 2554.834577
_symmetry_space_group_name_H-M "P M M A"
_symmetry_group_IT_number 51
_symmetry_cell_setting 'orthorhombic'
loop_
_space_group_symop_operation_xyz
x,y,z
1/2-x,-y,z
1/2+x,-y,-z
-x,y,-z
-x,-y,-z
1/2+x,y,-z
1/2-x,y,z
x,-y,z
loop_
_atom_site_type_symbol
_atom_site_label
_atom_site_fract_x
_atom_site_fract_y
_atom_site_fract_z
Si Si1 0.070800 0.682406 0.791224
Si Si2 0.365173 0.816680 0.579227
Si Si3 0.297613 0.815541 0.799796
Si Si4 0.014107 0.315014 0.352103
Si Si5 0.630841 0.816757 0.988512
Si Si6 0.109786 0.316201 0.300894
O O1 0.075769 0.500000 0.826367
O O2 0.096162 0.720370 0.649620
O O3 0.020899 0.728932 0.765736
O O4 0.088248 0.781243 0.920921
O O5 0.320191 0.771109 0.654023
O O6 0.362004 0.769346 0.418732
O O7 0.374606 0.000000 0.598032
O O8 0.250000 0.737636 0.806657
O O9 0.293221 0.000000 0.812139
O O10 0.327337 0.756095 0.926682
O O11 0.016643 0.500000 0.368441
O O12 0.060763 0.250390 0.306172
O O13 0.000000 0.241146 0.500000
O O14 0.630686 0.723038 0.845977
O O15 0.632780 0.000000 0.957272
O O16 0.111558 0.500000 0.327102
#
# Coordination Sequence:
#
# PCOD8207377 Si02
#       6
#     8   8   8   8   8   8
#     4  10  18  33  55  75 101 140 184 217 251 303
#     4  10  19  32  53  81 108 131 167 218 264 303
#     4   8  16  34  59  80  99 131 172 209 252 317
#     4   9  17  31  51  75 100 137 187 223 244 296
#     4  10  21  36  53  78 110 136 171 221 269 310
#     4  11  21  35  54  75 105 144 181 213 257 311
#
# _framework density 18.787911000000001
#
# number of rings (size 3 to 8) (size 9 to 14) (size 15 to 20)
#    0.000    2.333    1.667    3.000    0.000    0.667 
#    0.000    8.333    0.000   23.000    0.000    0.000 
#    0.000    0.000    0.000    0.000    0.000    0.000 
#
# Total GULP energy -595151.754571 kJ/mol
# GULP energy per Si atom -12398.994887 kJ/mol
# Density = 1.874515 g / cm^3
# Si number density = 18.787911 Si / 1000 Ang^3
#
#
#
# Elastic Constant Matrix: (Units=GPa)
#
#
# Indices 1 2 3 4 5 6 
#
# 1 132.5202 21.1317 61.1045 0.0000 0.0000 0.0000
# 2 21.1317 30.7761 4.6637 0.0000 0.0000 0.0000
# 3 61.1045 4.6637 124.9339 0.0000 0.0000 0.0000
# 4 0.0000 0.0000 0.0000 32.2712 0.0000 0.0000
# 5 0.0000 0.0000 0.0000 0.0000 19.5216 0.0000
# 6 0.0000 0.0000 0.0000 0.0000 0.0000 15.2819
#
#
#
# Elastic Compliance Matrix: (Units=1/GPa)
#
#
# Indices 1 2 3 4 5 6 
#
# 1 0.010986 -0.006767 -0.005121 0.000000 0.000000 0.000000
# 2 -0.006767 0.036846 0.001934 0.000000 0.000000 0.000000
# 3 -0.005121 0.001934 0.010437 0.000000 0.000000 0.000000
# 4 0.000000 0.000000 0.000000 0.030987 0.000000 0.000000
# 5 0.000000 0.000000 0.000000 0.000000 0.051225 0.000000
# 6 0.000000 0.000000 0.000000 0.000000 0.000000 0.065437
#
#
# Mechanical properties :
#
#
# Convention : Reuss Voigt Hill
#
# Bulk Modulus (GPa) = 26.06767 51.33666 38.70216
# Shear Modulus (GPa) = 20.95438 26.83695 23.89567
#
# Velocity S-wave (km/s) = 3.34325 3.78354 3.57019
# Velocity P-wave (km/s) = 5.36730 6.81693 6.13508
#
# Compressibility (1/GPa) = 0.03836170
#
# Stress axis : x y z
#
# Youngs Moduli (GPa) = 91.02242 27.13977 95.81724
#
# Poissons Ratio (x) = 0.18367 0.49065
# Poissons Ratio (y) = 0.61599 -0.18536
# Poissons Ratio (z) = 0.46610 -0.05250
#
# Static dielectric constant tensor:
#      x y z
#    x 3.712410 0.000000 0.000000 
#    y 0.000000 3.170250 0.000000 
#    z 0.000000 0.000000 3.384910 
# 
# 
# High freq. dielectric constant tensor:
#      x y z
#    x 1.718190 0.000000 0.000000 
#    y 0.000000 1.709280 0.000000 
#    z 0.000000 0.000000 1.728460 
# 
# From -- ./inp_files/12851.got.cif
#   From: 2010.03.12/outbox.cif.g09.slc.cpg/sg51_7_cif.got.tgz:12851.got - 2010.04.16 13:43:02.
