data_PCOD8207995
_publ_section_title
;
Structure prediction by ZEFSAII (Michael W. Deem and Ramdas Pophale) SiO2 
 PCOD8207995
Probable space group: P M M A
;
_chemical_formula_sum "Si O2"
_cell_formula_units_Z 64
_cell_length_a 9.153574
_cell_length_b 18.955397
_cell_length_c 23.259838
_cell_angle_alpha 90.000000
_cell_angle_beta 90.000000
_cell_angle_gamma 90.000000
_cell_volume 4035.805865
_symmetry_space_group_name_H-M "P M M A"
_symmetry_group_IT_number 51
_symmetry_cell_setting 'orthorhombic'
loop_
_space_group_symop_operation_xyz
x,y,z
1/2-x,-y,z
1/2+x,-y,-z
-x,y,-z
-x,-y,-z
1/2+x,y,-z
1/2-x,y,z
x,-y,z
loop_
_atom_site_type_symbol
_atom_site_label
_atom_site_fract_x
_atom_site_fract_y
_atom_site_fract_z
Si Si1 0.582988 0.348128 0.659909
Si Si2 0.919818 0.294965 0.171283
Si Si3 0.420870 0.920789 0.749977
Si Si4 0.078935 0.419039 0.558412
Si Si5 0.580721 0.419182 0.778825
Si Si6 0.420181 0.787282 0.270002
Si Si7 0.580725 0.786194 0.057178
Si Si8 0.576593 0.076896 0.119147
O O1 0.750000 0.359951 0.640394
O O2 0.476287 0.367909 0.608425
O O3 0.544772 0.398326 0.713491
O O4 0.555020 0.266786 0.677347
O O5 0.750000 0.293637 0.187843
O O6 0.945097 0.272530 0.105634
O O7 0.983324 0.373594 0.177655
O O8 0.001938 0.240874 0.212796
O O9 0.250000 0.903756 0.744926
O O10 0.510831 0.863137 0.712974
O O11 0.477305 0.913986 0.815506
O O12 0.453225 0.000000 0.726984
O O13 0.250000 0.407807 0.549994
O O14 0.041010 0.500000 0.574101
O O15 0.000000 0.396363 0.500000
O O16 0.750000 0.403675 0.791915
O O17 0.539059 0.500000 0.788760
O O18 0.250000 0.795277 0.256346
O O19 0.750000 0.794758 0.042558
O O20 0.513825 0.861240 0.078789
O O21 0.500000 0.761013 0.000000
O O22 0.750000 0.082033 0.120695
O O23 0.526193 0.000000 0.095506
#
# Coordination Sequence:
#
# PCOD8207995 Si02
#       8
#     8   8   8   8   8   8   8   8
#     4   9  18  31  46  67  96 128 157 189 228 268
#     4  10  19  32  48  66  89 116 149 185 226 277
#     4   9  16  28  47  67  90 122 155 188 230 279
#     4  10  20  32  47  68  95 130 168 201 231 265
#     4   9  18  32  50  72  96 120 145 181 233 281
#     4  10  19  30  46  68  95 124 154 192 236 276
#     4  10  20  32  46  64  85 113 147 185 227 272
#     4   8  14  27  45  62  84 114 145 178 219 266
#
# _framework density 15.858046999999999
#
# number of rings (size 3 to 8) (size 9 to 14) (size 15 to 20)
#    0.000    2.625    1.250    3.000    0.000    5.500 
#    0.000    0.000    0.000    0.375    0.000    0.000 
#    0.000    0.500    0.000    1.625    0.000    2.375 
#
# Total GULP energy -793494.010279 kJ/mol
# GULP energy per Si atom -12398.343911 kJ/mol
# Density = 1.582195 g / cm^3
# Si number density = 15.858047 Si / 1000 Ang^3
#
#
#
# Elastic Constant Matrix: (Units=GPa)
#
#
# Indices 1 2 3 4 5 6 
#
# 1 81.0317 58.0230 47.0567 0.0000 0.0000 0.0000
# 2 58.0230 119.1498 48.7207 0.0000 0.0000 0.0000
# 3 47.0567 48.7207 72.9710 0.0000 0.0000 0.0000
# 4 0.0000 0.0000 0.0000 19.9201 0.0000 0.0000
# 5 0.0000 0.0000 0.0000 0.0000 25.7932 0.0000
# 6 0.0000 0.0000 0.0000 0.0000 0.0000 28.3847
#
#
#
# Elastic Compliance Matrix: (Units=1/GPa)
#
#
# Indices 1 2 3 4 5 6 
#
# 1 0.023521 -0.007224 -0.010345 0.000000 0.000000 0.000000
# 2 -0.007224 0.013763 -0.004531 0.000000 0.000000 0.000000
# 3 -0.010345 -0.004531 0.023400 0.000000 0.000000 0.000000
# 4 0.000000 0.000000 0.000000 0.050200 0.000000 0.000000
# 5 0.000000 0.000000 0.000000 0.000000 0.038770 0.000000
# 6 0.000000 0.000000 0.000000 0.000000 0.000000 0.035230
#
#
# Mechanical properties :
#
#
# Convention : Reuss Voigt Hill
#
# Bulk Modulus (GPa) = 60.65988 64.52815 62.59401
# Shear Modulus (GPa) = 21.31473 22.77642 22.04558
#
# Velocity S-wave (km/s) = 3.67017 3.79393 3.73256
# Velocity P-wave (km/s) = 7.50300 7.74411 7.62451
#
# Compressibility (1/GPa) = 0.01648536
#
# Stress axis : x y z
#
# Youngs Moduli (GPa) = 42.51504 72.65606 42.73500
#
# Poissons Ratio (x) = 0.52489 0.44208
# Poissons Ratio (y) = 0.30714 0.19362
# Poissons Ratio (z) = 0.43980 0.32919
#
# Static dielectric constant tensor:
#      x y z
#    x 2.941710 0.000000 0.000000 
#    y 0.000000 3.208680 0.000000 
#    z 0.000000 0.000000 2.719200 
# 
# 
# High freq. dielectric constant tensor:
#      x y z
#    x 1.605900 0.000000 0.000000 
#    y 0.000000 1.611640 0.000000 
#    z 0.000000 0.000000 1.571920 
# 
# From -- ./inp_files/35191.got.cif
#   From: 2010.03.12/outbox.cif.g09.slc.cpg/sg51_18_cif.got.tgz:35191.got - 2010.04.16 13:43:02.
