data_PCOD8207974
_publ_section_title
;
Structure prediction by ZEFSAII (Michael W. Deem and Ramdas Pophale) SiO2 
 PCOD8207974
Probable space group: P M M A
;
_chemical_formula_sum "Si O2"
_cell_formula_units_Z 64
_cell_length_a 9.232307
_cell_length_b 13.988371
_cell_length_c 28.866046
_cell_angle_alpha 90.000000
_cell_angle_beta 90.000000
_cell_angle_gamma 90.000000
_cell_volume 3727.903649
_symmetry_space_group_name_H-M "P M M A"
_symmetry_group_IT_number 51
_symmetry_cell_setting 'orthorhombic'
loop_
_space_group_symop_operation_xyz
x,y,z
1/2-x,-y,z
1/2+x,-y,-z
-x,y,-z
-x,-y,-z
1/2+x,y,-z
1/2-x,y,z
x,-y,z
loop_
_atom_site_type_symbol
_atom_site_label
_atom_site_fract_x
_atom_site_fract_y
_atom_site_fract_z
Si Si1 0.918026 0.771692 0.185053
Si Si2 0.582697 0.889496 0.093893
Si Si3 0.916247 0.400235 0.547140
Si Si4 0.091998 0.110878 0.628989
Si Si5 0.422258 0.107051 0.729752
Si Si6 0.580656 0.390443 0.863557
Si Si7 0.919608 0.193490 0.548770
Si Si8 0.920191 0.727137 0.954319
O O1 0.750000 0.745772 0.190127
O O2 0.944330 0.849580 0.145180
O O3 0.982306 0.819331 0.231816
O O4 0.000464 0.672519 0.175261
O O5 0.750000 0.876728 0.079405
O O6 0.483189 0.831558 0.058076
O O7 0.535872 0.000000 0.092737
O O8 0.750000 0.397229 0.532931
O O9 0.949414 0.500000 0.575753
O O10 0.953508 0.299169 0.571041
O O11 0.000000 0.405205 0.500000
O O12 0.250000 0.156325 0.616352
O O13 0.034399 0.149230 0.678821
O O14 0.978637 0.123114 0.587590
O O15 0.114853 0.000000 0.637199
O O16 0.250000 0.101514 0.733982
O O17 0.486462 0.000000 0.737897
O O18 0.750000 0.383567 0.853347
O O19 0.526362 0.500000 0.860970
O O20 0.544021 0.349117 0.914250
O O21 0.750000 0.174351 0.540741
O O22 0.000000 0.177053 0.500000
O O23 0.750000 0.736581 0.963390
O O24 0.000000 0.688222 0.000000
#
# Coordination Sequence:
#
# PCOD8207974 Si02
#       8
#     8   8   8   8   8   8   8   8
#     4   9  16  28  50  77  97 115 147 190 230 272
#     4   9  17  29  46  69  96 123 151 186 229 278
#     4   8  14  25  41  61  83 106 135 173 217 262
#     4   9  18  32  48  66  91 124 158 189 224 269
#     4   8  14  27  49  74  97 121 148 181 226 276
#     4   9  19  35  51  68  94 126 156 189 234 283
#     4  10  19  30  46  67  91 121 156 195 235 273
#     4  10  20  33  48  66  90 122 160 199 236 275
#
# _framework density 17.167826000000002
#
# number of rings (size 3 to 8) (size 9 to 14) (size 15 to 20)
#    0.000    3.000    0.000    1.875    0.000    4.000 
#    0.000    0.625    0.000    2.625    0.000    3.500 
#    0.000    0.000    0.000    0.000    0.000    0.000 
#
# Total GULP energy -792938.315413 kJ/mol
# GULP energy per Si atom -12389.661178 kJ/mol
# Density = 1.712875 g / cm^3
# Si number density = 17.167826 Si / 1000 Ang^3
#
#
#
# Elastic Constant Matrix: (Units=GPa)
#
#
# Indices 1 2 3 4 5 6 
#
# 1 59.3526 33.6576 43.2247 0.0000 0.0000 0.0000
# 2 33.6576 98.7563 46.3801 0.0000 0.0000 0.0000
# 3 43.2247 46.3801 108.6626 0.0000 0.0000 0.0000
# 4 0.0000 0.0000 0.0000 19.7802 0.0000 0.0000
# 5 0.0000 0.0000 0.0000 0.0000 20.3277 0.0000
# 6 0.0000 0.0000 0.0000 0.0000 0.0000 21.8935
#
#
#
# Elastic Compliance Matrix: (Units=1/GPa)
#
#
# Indices 1 2 3 4 5 6 
#
# 1 0.025491 -0.004910 -0.008045 0.000000 0.000000 0.000000
# 2 -0.004910 0.013610 -0.003856 0.000000 0.000000 0.000000
# 3 -0.008045 -0.003856 0.014049 0.000000 0.000000 0.000000
# 4 0.000000 0.000000 0.000000 0.050556 0.000000 0.000000
# 5 0.000000 0.000000 0.000000 0.000000 0.049194 0.000000
# 6 0.000000 0.000000 0.000000 0.000000 0.000000 0.045676
#
#
# Mechanical properties :
#
#
# Convention : Reuss Voigt Hill
#
# Bulk Modulus (GPa) = 51.20492 57.03290 54.11891
# Shear Modulus (GPa) = 20.94626 21.96756 21.45691
#
# Velocity S-wave (km/s) = 3.49677 3.58100 3.53913
# Velocity P-wave (km/s) = 6.79662 7.09866 6.94928
#
# Compressibility (1/GPa) = 0.01952937
#
# Stress axis : x y z
#
# Youngs Moduli (GPa) = 39.22913 73.47386 71.18080
#
# Poissons Ratio (x) = 0.36074 0.57261
# Poissons Ratio (y) = 0.19261 0.27449
# Poissons Ratio (z) = 0.31558 0.28333
#
# Static dielectric constant tensor:
#      x y z
#    x 3.059440 0.000000 0.000000 
#    y 0.000000 3.513410 0.000000 
#    z 0.000000 0.000000 3.116780 
# 
# 
# High freq. dielectric constant tensor:
#      x y z
#    x 1.651620 0.000000 0.000000 
#    y 0.000000 1.660230 0.000000 
#    z 0.000000 0.000000 1.642580 
# 
# From -- ./inp_files/37571.got.cif
#   From: 2010.03.12/outbox.cif.g09.slc.cpg/sg51_19_cif.got.tgz:37571.got - 2010.04.16 13:43:02.
