data_PCOD8207885
_publ_section_title
;
Structure prediction by ZEFSAII (Michael W. Deem and Ramdas Pophale) SiO2 
 PCOD8207885
Probable space group: P M M A
;
_chemical_formula_sum "Si O2"
_cell_formula_units_Z 56
_cell_length_a 9.251475
_cell_length_b 19.115151
_cell_length_c 18.529530
_cell_angle_alpha 90.000000
_cell_angle_beta 90.000000
_cell_angle_gamma 90.000000
_cell_volume 3276.824003
_symmetry_space_group_name_H-M "P M M A"
_symmetry_group_IT_number 51
_symmetry_cell_setting 'orthorhombic'
loop_
_space_group_symop_operation_xyz
x,y,z
1/2-x,-y,z
1/2+x,-y,-z
-x,y,-z
-x,-y,-z
1/2+x,y,-z
1/2-x,y,z
x,-y,z
loop_
_atom_site_type_symbol
_atom_site_label
_atom_site_fract_x
_atom_site_fract_y
_atom_site_fract_z
Si Si1 0.421315 0.576673 0.359337
Si Si2 0.078580 0.423923 0.197863
Si Si3 0.078831 0.717529 0.428165
Si Si4 0.579844 0.161658 0.070965
Si Si5 0.083089 0.720830 0.145795
Si Si6 0.415263 0.194709 0.290072
Si Si7 0.080705 0.079185 0.786079
O O1 0.250000 0.583223 0.354744
O O2 0.466241 0.500000 0.390583
O O3 0.485349 0.584735 0.278545
O O4 0.479589 0.639306 0.409520
O O5 0.250000 0.420058 0.203966
O O6 0.030466 0.500000 0.166080
O O7 0.028199 0.359987 0.146724
O O8 0.250000 0.718233 0.440041
O O9 0.033067 0.769827 0.364154
O O10 0.000000 0.743844 0.500000
O O11 0.750000 0.167083 0.057088
O O12 0.517575 0.238339 0.089614
O O13 0.540703 0.108281 0.134894
O O14 0.500000 0.132679 0.000000
O O15 0.250000 0.727945 0.121186
O O16 0.062018 0.749623 0.226452
O O17 0.250000 0.171262 0.295264
O O18 0.506586 0.124720 0.276255
O O19 0.250000 0.083477 0.772834
O O20 0.023562 0.000000 0.780987
#
# Coordination Sequence:
#
# PCOD8207885 Si02
#       7
#     8   8   8   8   8   8   8
#     4   8  13  23  40  62  90 124 160 198 239 281
#     4   8  12  20  40  68  91 115 154 201 242 278
#     4  10  19  30  44  66  95 128 164 202 240 280
#     4  10  20  33  49  72 101 130 155 181 218 268
#     4   9  15  27  48  70  92 121 158 199 237 274
#     4   9  17  30  48  70  95 122 158 198 232 274
#     4   9  19  35  54  76 100 124 149 181 226 276
#
# _framework density 17.089718999999999
#
# number of rings (size 3 to 8) (size 9 to 14) (size 15 to 20)
#    0.000    3.000    1.429    1.286    0.000    2.000 
#    0.000    0.000    0.000    1.286    0.000    2.000 
#    0.000    0.000    0.000    0.000    0.000    0.000 
#
# Total GULP energy -694098.203700 kJ/mol
# GULP energy per Si atom -12394.610780 kJ/mol
# Density = 1.705082 g / cm^3
# Si number density = 17.089719 Si / 1000 Ang^3
#
#
#
# Elastic Constant Matrix: (Units=GPa)
#
#
# Indices 1 2 3 4 5 6 
#
# 1 41.3073 38.6956 32.6552 0.0000 0.0000 0.0000
# 2 38.6956 139.3534 49.7976 0.0000 0.0000 0.0000
# 3 32.6552 49.7976 76.9946 0.0000 0.0000 0.0000
# 4 0.0000 0.0000 0.0000 17.7278 0.0000 0.0000
# 5 0.0000 0.0000 0.0000 0.0000 25.0160 0.0000
# 6 0.0000 0.0000 0.0000 0.0000 0.0000 19.0783
#
#
#
# Elastic Compliance Matrix: (Units=1/GPa)
#
#
# Indices 1 2 3 4 5 6 
#
# 1 0.040692 -0.006675 -0.012942 0.000000 0.000000 0.000000
# 2 -0.006675 0.010428 -0.003914 0.000000 0.000000 0.000000
# 3 -0.012942 -0.003914 0.021008 0.000000 0.000000 0.000000
# 4 0.000000 0.000000 0.000000 0.056408 0.000000 0.000000
# 5 0.000000 0.000000 0.000000 0.000000 0.039974 0.000000
# 6 0.000000 0.000000 0.000000 0.000000 0.000000 0.052416
#
#
# Mechanical properties :
#
#
# Convention : Reuss Voigt Hill
#
# Bulk Modulus (GPa) = 39.89071 55.55024 47.72048
# Shear Modulus (GPa) = 18.09347 21.46488 19.77918
#
# Velocity S-wave (km/s) = 3.25735 3.54787 3.40571
# Velocity P-wave (km/s) = 6.12697 7.02558 6.59161
#
# Compressibility (1/GPa) = 0.02506849
#
# Stress axis : x y z
#
# Youngs Moduli (GPa) = 24.57456 95.89608 47.60124
#
# Poissons Ratio (x) = 0.64009 0.61603
# Poissons Ratio (y) = 0.16403 0.18629
# Poissons Ratio (z) = 0.31803 0.37529
#
# Static dielectric constant tensor:
#      x y z
#    x 2.868940 0.000000 0.000000 
#    y 0.000000 3.439450 0.000000 
#    z 0.000000 0.000000 3.010090 
# 
# 
# High freq. dielectric constant tensor:
#      x y z
#    x 1.626710 0.000000 0.000000 
#    y 0.000000 1.662130 0.000000 
#    z 0.000000 0.000000 1.636240 
# 
# From -- ./inp_files/28254.got.cif
#   From: 2010.03.12/outbox.cif.g09.slc.cpg/sg51_15_cif.got.tgz:28254.got - 2010.04.16 13:43:02.
