data_PCOD8207285
_publ_section_title
;
Structure prediction by ZEFSAII (Michael W. Deem and Ramdas Pophale) SiO2 
 PCOD8207285
Probable space group: P M M A
;
_chemical_formula_sum "Si O2"
_cell_formula_units_Z 48
_cell_length_a 8.573152
_cell_length_b 15.337512
_cell_length_c 18.968512
_cell_angle_alpha 90.000000
_cell_angle_beta 90.000000
_cell_angle_gamma 90.000000
_cell_volume 2494.185229
_symmetry_space_group_name_H-M "P M M A"
_symmetry_group_IT_number 51
_symmetry_cell_setting 'orthorhombic'
loop_
_space_group_symop_operation_xyz
x,y,z
1/2-x,-y,z
1/2+x,-y,-z
-x,y,-z
-x,-y,-z
1/2+x,y,-z
1/2-x,y,z
x,-y,z
loop_
_atom_site_type_symbol
_atom_site_label
_atom_site_fract_x
_atom_site_fract_y
_atom_site_fract_z
Si Si1 0.933207 0.832839 0.161892
Si Si2 0.066737 0.592404 0.577277
Si Si3 0.567127 0.101179 0.697131
Si Si4 0.932583 0.323286 0.922481
Si Si5 0.933868 0.000000 0.077265
Si Si6 0.935467 0.217909 0.421317
Si Si7 0.934214 0.500000 0.078150
O O1 0.750000 0.816687 0.152036
O O2 0.971359 0.847411 0.243418
O O3 0.027653 0.751502 0.132510
O O4 0.994810 0.915838 0.118497
O O5 0.250000 0.592847 0.570101
O O6 0.014774 0.500000 0.616019
O O7 0.018578 0.685708 0.611717
O O8 0.000000 0.590494 0.500000
O O9 0.750000 0.111639 0.710982
O O10 0.520300 0.143446 0.623129
O O11 0.517532 0.000000 0.696331
O O12 0.750000 0.333865 0.931536
O O13 0.002209 0.411343 0.886908
O O14 0.000000 0.302475 0.000000
O O15 0.750000 0.000000 0.073701
O O16 0.000000 0.000000 0.000000
O O17 0.750000 0.203085 0.420645
O O18 0.000000 0.209713 0.500000
O O19 0.750000 0.500000 0.079759
O O20 0.000000 0.500000 0.000000
#
# Coordination Sequence:
#
# PCOD8207285 Si02
#       7
#     8   8   8   8   4   8   4
#     4  11  22  39  59  83 112 150 192 235 288 347
#     4   8  14  26  47  77 110 141 173 212 262 319
#     4  11  24  41  60  81 108 147 190 235 290 349
#     4  11  21  35  56  86 119 154 193 239 285 337
#     4  10  22  36  56  84 115 146 183 232 280 332
#     4  10  20  35  58  86 115 147 185 233 280 332
#     4  10  18  32  54  82 114 152 193 238 287 338
#
# _framework density 19.244761
#
# number of rings (size 3 to 8) (size 9 to 14) (size 15 to 20)
#    0.000    1.833    0.833    5.250    0.000    4.667 
#    0.000    0.000    1.833    0.000    0.000    0.000 
#    0.000    0.000    0.000    0.000    0.000    0.000 
#
# Total GULP energy -594861.863771 kJ/mol
# GULP energy per Si atom -12392.955495 kJ/mol
# Density = 1.920096 g / cm^3
# Si number density = 19.244761 Si / 1000 Ang^3
#
#
#
# Elastic Constant Matrix: (Units=GPa)
#
#
# Indices 1 2 3 4 5 6 
#
# 1 86.9358 45.5093 16.9822 0.0000 0.0000 0.0000
# 2 45.5093 155.8294 47.3588 0.0000 0.0000 0.0000
# 3 16.9822 47.3588 73.5013 0.0000 0.0000 0.0000
# 4 0.0000 0.0000 0.0000 -6.1399 0.0000 0.0000
# 5 0.0000 0.0000 0.0000 0.0000 29.3192 0.0000
# 6 0.0000 0.0000 0.0000 0.0000 0.0000 23.7822
#
#
#
# Elastic Compliance Matrix: (Units=1/GPa)
#
#
# Indices 1 2 3 4 5 6 
#
# 1 0.013610 -0.003754 -0.000726 0.000000 0.000000 0.000000
# 2 -0.003754 0.009015 -0.004942 0.000000 0.000000 0.000000
# 3 -0.000726 -0.004942 0.016957 0.000000 0.000000 0.000000
# 4 0.000000 0.000000 0.000000 -0.162869 0.000000 0.000000
# 5 0.000000 0.000000 0.000000 0.000000 0.034107 0.000000
# 6 0.000000 0.000000 0.000000 0.000000 0.000000 0.042048
#
#
# Mechanical properties :
#
#
# Convention : Reuss Voigt Hill
#
# Bulk Modulus (GPa) = 48.21723 59.55191 53.88457
# Shear Modulus (GPa) = -233.91146 23.15339 -105.37904
#
# Velocity S-wave (km/s) = -11.03673 3.47234 -7.40784
# Velocity P-wave (km/s) = 11.71765 6.86206 6.71623
#
# Compressibility (1/GPa) = 0.02073947
#
# Stress axis : x y z
#
# Youngs Moduli (GPa) = 73.47701 110.92069 58.97348
#
# Poissons Ratio (x) = 0.41641 0.04279
# Poissons Ratio (y) = 0.27584 0.29142
# Poissons Ratio (z) = 0.05331 0.54812
#
# Static dielectric constant tensor:
#      x y z
#    x 3.595160 0.000000 0.000000 
#    y 0.000000 4.481900 0.000000 
#    z 0.000000 0.000000 3.124300 
# 
# 
# High freq. dielectric constant tensor:
#      x y z
#    x 1.758360 0.000000 0.000000 
#    y 0.000000 1.776720 0.000000 
#    z 0.000000 0.000000 1.708520 
# 
# From -- ./inp_files/27671.got.cif
#   From: 2010.03.12/outbox.cif.g09.slc.cpg/sg51_14_cif.got.tgz:27671.got - 2010.04.16 13:43:02.
