data_PCOD8207241
_publ_section_title
;
Structure prediction by ZEFSAII (Michael W. Deem and Ramdas Pophale) SiO2 
 PCOD8207241
Probable space group: P M M A
;
_chemical_formula_sum "Si O2"
_cell_formula_units_Z 40
_cell_length_a 8.658222
_cell_length_b 12.906778
_cell_length_c 19.818373
_cell_angle_alpha 90.000000
_cell_angle_beta 90.000000
_cell_angle_gamma 90.000000
_cell_volume 2214.698213
_symmetry_space_group_name_H-M "P M M A"
_symmetry_group_IT_number 51
_symmetry_cell_setting 'orthorhombic'
loop_
_space_group_symop_operation_xyz
x,y,z
1/2-x,-y,z
1/2+x,-y,-z
-x,y,-z
-x,-y,-z
1/2+x,y,-z
1/2-x,y,z
x,-y,z
loop_
_atom_site_type_symbol
_atom_site_label
_atom_site_fract_x
_atom_site_fract_y
_atom_site_fract_z
Si Si1 0.569610 0.500000 0.572593
Si Si2 0.933607 0.885607 0.680950
Si Si3 0.433187 0.276825 0.425653
Si Si4 0.066638 0.500000 0.074901
Si Si5 0.570537 0.879548 0.832955
Si Si6 0.068593 0.290144 0.926150
O O1 0.750000 0.500000 0.563649
O O2 0.500000 0.500000 0.500000
O O3 0.519801 0.390326 0.606039
O O4 0.750000 0.885651 0.677845
O O5 0.004177 0.806213 0.626395
O O6 0.983458 0.854803 0.756569
O O7 0.996770 0.000000 0.663082
O O8 0.500000 0.258124 0.500000
O O9 0.250000 0.265210 0.430873
O O10 0.250000 0.500000 0.076151
O O11 0.004096 0.393809 0.108943
O O12 0.000000 0.500000 0.000000
O O13 0.750000 0.851960 0.843295
O O14 0.467580 0.809940 0.881581
O O15 0.540952 0.000000 0.849893
O O16 0.250000 0.305807 0.932660
O O17 0.000000 0.271215 0.000000
#
# Coordination Sequence:
#
# PCOD8207241 Si02
#       6
#     4   8   8   4   8   8
#     4   8  14  24  39  60  87 117 147 183 225 272
#     4   8  15  29  48  67  90 122 157 194 238 287
#     4   9  16  27  44  66  91 119 154 193 234 280
#     4  10  18  32  53  76 103 133 165 199 241 290
#     4   9  18  34  53  71  95 130 169 206 248 299
#     4  11  21  34  53  77 104 131 163 203 247 294
#
# _framework density 18.061150999999999
#
# number of rings (size 3 to 8) (size 9 to 14) (size 15 to 20)
#    0.000    2.800    0.000    5.100    0.000    1.200 
#    0.000    2.000    0.000    4.800    0.000    2.800 
#    0.000    0.000    0.000    0.000    0.000    0.000 
#
# Total GULP energy -495592.965351 kJ/mol
# GULP energy per Si atom -12389.824134 kJ/mol
# Density = 1.802004 g / cm^3
# Si number density = 18.061151 Si / 1000 Ang^3
#
#
#
# Elastic Constant Matrix: (Units=GPa)
#
#
# Indices 1 2 3 4 5 6 
#
# 1 74.3091 42.8750 28.4640 0.0000 0.0000 0.0000
# 2 42.8750 152.5333 80.8830 0.0000 0.0000 0.0000
# 3 28.4640 80.8830 89.4900 0.0000 0.0000 0.0000
# 4 0.0000 0.0000 0.0000 11.2412 0.0000 0.0000
# 5 0.0000 0.0000 0.0000 0.0000 19.6176 0.0000
# 6 0.0000 0.0000 0.0000 0.0000 0.0000 24.3433
#
#
#
# Elastic Compliance Matrix: (Units=1/GPa)
#
#
# Indices 1 2 3 4 5 6 
#
# 1 0.016246 -0.003507 -0.001997 0.000000 0.000000 0.000000
# 2 -0.003507 0.013347 -0.010948 0.000000 0.000000 0.000000
# 3 -0.001997 -0.010948 0.021704 0.000000 0.000000 0.000000
# 4 0.000000 0.000000 0.000000 0.088958 0.000000 0.000000
# 5 0.000000 0.000000 0.000000 0.000000 0.050975 0.000000
# 6 0.000000 0.000000 0.000000 0.000000 0.000000 0.041079
#
#
# Mechanical properties :
#
#
# Convention : Reuss Voigt Hill
#
# Bulk Modulus (GPa) = 54.36935 68.97515 61.67225
# Shear Modulus (GPa) = 18.42669 21.98111 20.20390
#
# Velocity S-wave (km/s) = 3.19758 3.49239 3.34823
# Velocity P-wave (km/s) = 6.61823 7.38479 7.01199
#
# Compressibility (1/GPa) = 0.01839272
#
# Stress axis : x y z
#
# Youngs Moduli (GPa) = 61.55326 74.92301 46.07343
#
# Poissons Ratio (x) = 0.26279 0.09202
# Poissons Ratio (y) = 0.21590 0.50440
# Poissons Ratio (z) = 0.12294 0.82024
#
# Static dielectric constant tensor:
#      x y z
#    x 3.092890 0.000000 0.000000 
#    y 0.000000 -16.624720 0.000000 
#    z 0.000000 0.000000 3.167250 
# 
# 
# High freq. dielectric constant tensor:
#      x y z
#    x 1.680540 0.000000 0.000000 
#    y 0.000000 1.721820 0.000000 
#    z 0.000000 0.000000 1.668810 
# 
# From -- ./inp_files/31392.got.cif
#   From: 2010.03.12/outbox.cif.g09.slc.cpg/sg51_16_cif.got.tgz:31392.got - 2010.04.16 13:43:02.
