data_PCOD8207225
_publ_section_title
;
Structure prediction by ZEFSAII (Michael W. Deem and Ramdas Pophale) SiO2 
 PCOD8207225
Probable space group: P M M A
;
_chemical_formula_sum "Si O2"
_cell_formula_units_Z 64
_cell_length_a 8.982950
_cell_length_b 24.971669
_cell_length_c 15.201019
_cell_angle_alpha 90.000000
_cell_angle_beta 90.000000
_cell_angle_gamma 90.000000
_cell_volume 3409.881243
_symmetry_space_group_name_H-M "P M M A"
_symmetry_group_IT_number 51
_symmetry_cell_setting 'orthorhombic'
loop_
_space_group_symop_operation_xyz
x,y,z
1/2-x,-y,z
1/2+x,-y,-z
-x,y,-z
-x,-y,-z
1/2+x,y,-z
1/2-x,y,z
x,-y,z
loop_
_atom_site_type_symbol
_atom_site_label
_atom_site_fract_x
_atom_site_fract_y
_atom_site_fract_z
Si Si1 0.078984 0.938563 0.727032
Si Si2 0.925458 0.349323 0.278506
Si Si3 0.081934 0.243704 0.322525
Si Si4 0.574267 0.136963 0.590102
Si Si5 0.573625 0.675640 0.085372
Si Si6 0.579072 0.215419 0.876286
Si Si7 0.425448 0.439321 0.590223
Si Si8 0.074921 0.104804 0.915360
O O1 0.250000 0.922688 0.709218
O O2 0.039542 0.930027 0.829312
O O3 0.975086 0.901948 0.667840
O O4 0.048518 0.000000 0.702710
O O5 0.750000 0.345273 0.280239
O O6 0.980154 0.352341 0.176768
O O7 0.981975 0.401966 0.329862
O O8 0.983138 0.296785 0.328923
O O9 0.250000 0.261361 0.343422
O O10 0.025651 0.198435 0.390572
O O11 0.070707 0.215720 0.228458
O O12 0.500000 0.117752 0.500000
O O13 0.750000 0.132589 0.581511
O O14 0.750000 0.673769 0.076197
O O15 0.515802 0.736112 0.084441
O O16 0.500000 0.646264 0.000000
O O17 0.750000 0.219255 0.908797
O O18 0.502397 0.162250 0.909860
O O19 0.500000 0.419740 0.500000
O O20 0.250000 0.434590 0.577625
O O21 0.473824 0.500000 0.612853
O O22 0.250000 0.111782 0.929792
O O23 0.000000 0.075619 0.000000
#
# Coordination Sequence:
#
# PCOD8207225 Si02
#       8
#     8   8   8   8   8   8   8   8
#     4  10  23  43  63  82 106 138 178 225 272 319
#     4   9  19  33  52  78 108 144 183 219 264 321
#     4   9  19  34  53  78 110 142 175 216 263 315
#     4  11  23  40  61  86 111 141 178 218 269 327
#     4  10  19  31  47  72 105 142 182 220 263 312
#     4  10  18  32  52  75 105 139 177 217 260 312
#     4   9  18  34  55  79 107 140 180 226 271 317
#     4  11  22  35  55  81 109 140 175 216 265 320
#
# _framework density 18.768982999999999
#
# number of rings (size 3 to 8) (size 9 to 14) (size 15 to 20)
#    0.000    2.125    1.250    1.875    0.000    4.250 
#    0.000    2.500    0.000    0.375    0.000    0.000 
#    0.000    0.000    0.000    0.000    0.000    0.375 
#
# Total GULP energy -793551.964192 kJ/mol
# GULP energy per Si atom -12399.249440 kJ/mol
# Density = 1.872626 g / cm^3
# Si number density = 18.768983 Si / 1000 Ang^3
#
#
#
# Elastic Constant Matrix: (Units=GPa)
#
#
# Indices 1 2 3 4 5 6 
#
# 1 65.2421 35.8794 47.1331 0.0000 0.0000 0.0000
# 2 35.8794 85.5645 56.1223 0.0000 0.0000 0.0000
# 3 47.1331 56.1223 109.9879 0.0000 0.0000 0.0000
# 4 0.0000 0.0000 0.0000 12.3144 0.0000 0.0000
# 5 0.0000 0.0000 0.0000 0.0000 31.7043 0.0000
# 6 0.0000 0.0000 0.0000 0.0000 0.0000 20.0834
#
#
#
# Elastic Compliance Matrix: (Units=1/GPa)
#
#
# Indices 1 2 3 4 5 6 
#
# 1 0.023482 -0.004879 -0.007573 0.000000 0.000000 0.000000
# 2 -0.004879 0.018580 -0.007390 0.000000 0.000000 0.000000
# 3 -0.007573 -0.007390 0.016108 0.000000 0.000000 0.000000
# 4 0.000000 0.000000 0.000000 0.081206 0.000000 0.000000
# 5 0.000000 0.000000 0.000000 0.000000 0.031541 0.000000
# 6 0.000000 0.000000 0.000000 0.000000 0.000000 0.049792
#
#
# Mechanical properties :
#
#
# Convention : Reuss Voigt Hill
#
# Bulk Modulus (GPa) = 54.09586 59.89601 56.99593
# Shear Modulus (GPa) = 18.75782 20.93106 19.84444
#
# Velocity S-wave (km/s) = 3.16477 3.34308 3.25514
# Velocity P-wave (km/s) = 6.49914 6.84712 6.67540
#
# Compressibility (1/GPa) = 0.01848570
#
# Stress axis : x y z
#
# Youngs Moduli (GPa) = 42.58600 53.82108 62.08186
#
# Poissons Ratio (x) = 0.26262 0.47014
# Poissons Ratio (y) = 0.20780 0.45876
# Poissons Ratio (z) = 0.32250 0.39772
#
# Static dielectric constant tensor:
#      x y z
#    x 3.438640 0.000000 0.000000 
#    y 0.000000 3.313300 0.000000 
#    z 0.000000 0.000000 3.829400 
# 
# 
# High freq. dielectric constant tensor:
#      x y z
#    x 1.730780 0.000000 0.000000 
#    y 0.000000 1.703640 0.000000 
#    z 0.000000 0.000000 1.740670 
# 
# From -- ./inp_files/22352.got.cif
#   From: 2010.03.12/outbox.cif.g09.slc.cpg/sg51_12_cif.got.tgz:22352.got - 2010.04.16 13:43:02.
