data_PCOD8207724
_publ_section_title
;
Structure prediction by ZEFSAII (Michael W. Deem and Ramdas Pophale) SiO2 
 PCOD8207724
Probable space group: P M M A
;
_chemical_formula_sum "Si O2"
_cell_formula_units_Z 52
_cell_length_a 9.106033
_cell_length_b 18.362090
_cell_length_c 18.210206
_cell_angle_alpha 90.000000
_cell_angle_beta 90.000000
_cell_angle_gamma 90.000000
_cell_volume 3044.852017
_symmetry_space_group_name_H-M "P M M A"
_symmetry_group_IT_number 51
_symmetry_cell_setting 'orthorhombic'
loop_
_space_group_symop_operation_xyz
x,y,z
1/2-x,-y,z
1/2+x,-y,-z
-x,y,-z
-x,-y,-z
1/2+x,y,-z
1/2-x,y,z
x,-y,z
loop_
_atom_site_type_symbol
_atom_site_label
_atom_site_fract_x
_atom_site_fract_y
_atom_site_fract_z
Si Si1 0.087457 0.847291 0.698349
Si Si2 0.925472 0.500000 0.420931
Si Si3 0.917443 0.371463 0.660423
Si Si4 0.416243 0.220330 0.424283
Si Si5 0.924995 0.080429 0.158222
Si Si6 0.076227 0.779123 0.924727
Si Si7 0.087608 0.696606 0.783023
O O1 0.250000 0.872061 0.672585
O O2 0.020262 0.903167 0.758537
O O3 0.099296 0.769614 0.736615
O O4 0.983416 0.842655 0.627474
O O5 0.750000 0.500000 0.429852
O O6 0.000000 0.500000 0.500000
O O7 0.975931 0.429170 0.377048
O O8 0.750000 0.400201 0.663689
O O9 0.928091 0.298369 0.613700
O O10 0.973676 0.358149 0.743836
O O11 0.500000 0.224008 0.500000
O O12 0.250000 0.198519 0.440416
O O13 0.750000 0.085056 0.159790
O O14 0.983819 0.141327 0.101411
O O15 0.980414 0.000000 0.134240
O O16 0.250000 0.781786 0.935717
O O17 0.033143 0.717498 0.864914
O O18 0.000000 0.756746 0.000000
O O19 0.250000 0.660408 0.786278
#
# Coordination Sequence:
#
# PCOD8207724 Si02
#       7
#     8   4   8   8   8   8   8
#     4   8  14  26  44  62  81 109 147 189 228 269
#     4  12  24  36  50  70 101 136 163 190 224 264
#     4  10  20  33  49  70  94 122 156 191 227 270
#     4  10  19  29  44  65  88 113 143 184 230 271
#     4   8  14  26  44  64  87 119 155 186 223 276
#     4   9  17  28  44  68  97 125 154 191 232 274
#     4   8  15  29  46  64  88 120 156 191 229 272
#
# _framework density 17.078005999999998
#
# number of rings (size 3 to 8) (size 9 to 14) (size 15 to 20)
#    0.000    2.923    0.000    3.923    0.000    4.000 
#    0.000    2.308    0.000    1.846    0.000    0.538 
#    0.000    0.000    0.000    0.000    0.000    0.000 
#
# Total GULP energy -644492.429259 kJ/mol
# GULP energy per Si atom -12394.085178 kJ/mol
# Density = 1.703914 g / cm^3
# Si number density = 17.078006 Si / 1000 Ang^3
#
#
#
# Elastic Constant Matrix: (Units=GPa)
#
#
# Indices 1 2 3 4 5 6 
#
# 1 92.8223 23.5031 63.2114 0.0000 0.0000 0.0000
# 2 23.5031 39.0973 35.6854 0.0000 0.0000 0.0000
# 3 63.2114 35.6854 127.1363 0.0000 0.0000 0.0000
# 4 0.0000 0.0000 0.0000 19.3681 0.0000 0.0000
# 5 0.0000 0.0000 0.0000 0.0000 30.1165 0.0000
# 6 0.0000 0.0000 0.0000 0.0000 0.0000 13.0167
#
#
#
# Elastic Compliance Matrix: (Units=1/GPa)
#
#
# Indices 1 2 3 4 5 6 
#
# 1 0.016597 -0.003288 -0.007329 0.000000 0.000000 0.000000
# 2 -0.003288 0.035038 -0.008200 0.000000 0.000000 0.000000
# 3 -0.007329 -0.008200 0.013811 0.000000 0.000000 0.000000
# 4 0.000000 0.000000 0.000000 0.051631 0.000000 0.000000
# 5 0.000000 0.000000 0.000000 0.000000 0.033204 0.000000
# 6 0.000000 0.000000 0.000000 0.000000 0.000000 0.076824
#
#
# Mechanical properties :
#
#
# Convention : Reuss Voigt Hill
#
# Bulk Modulus (GPa) = 35.95510 55.98397 45.96953
# Shear Modulus (GPa) = 18.24749 21.61065 19.92907
#
# Velocity S-wave (km/s) = 3.27231 3.56112 3.41976
# Velocity P-wave (km/s) = 5.94781 7.05416 6.52448
#
# Compressibility (1/GPa) = 0.02781247
#
# Stress axis : x y z
#
# Youngs Moduli (GPa) = 60.25285 28.54045 72.40512
#
# Poissons Ratio (x) = 0.09383 0.53066
# Poissons Ratio (y) = 0.19809 0.59373
# Poissons Ratio (z) = 0.44159 0.23403
#
# Static dielectric constant tensor:
#      x y z
#    x 3.288910 0.000000 0.000000 
#    y 0.000000 2.988780 0.000000 
#    z 0.000000 0.000000 3.301650 
# 
# 
# High freq. dielectric constant tensor:
#      x y z
#    x 1.648480 0.000000 0.000000 
#    y 0.000000 1.624010 0.000000 
#    z 0.000000 0.000000 1.656730 
# 
# From -- ./inp_files/27952.got.cif
#   From: 2010.03.12/outbox.cif.g09.slc.cpg/sg51_14_cif.got.tgz:27952.got - 2010.04.16 13:43:02.
