data_PCOD8207851
_publ_section_title
;
Structure prediction by ZEFSAII (Michael W. Deem and Ramdas Pophale) SiO2 
 PCOD8207851
Probable space group: P M M A
;
_chemical_formula_sum "Si O2"
_cell_formula_units_Z 64
_cell_length_a 28.672418
_cell_length_b 9.164836
_cell_length_c 15.642057
_cell_angle_alpha 90.000000
_cell_angle_beta 90.000000
_cell_angle_gamma 90.000000
_cell_volume 4110.388590
_symmetry_space_group_name_H-M "P M M A"
_symmetry_group_IT_number 51
_symmetry_cell_setting 'orthorhombic'
loop_
_space_group_symop_operation_xyz
x,y,z
1/2-x,-y,z
1/2+x,-y,-z
-x,y,-z
-x,-y,-z
1/2+x,y,-z
1/2-x,y,z
x,-y,z
loop_
_atom_site_type_symbol
_atom_site_label
_atom_site_fract_x
_atom_site_fract_y
_atom_site_fract_z
Si Si1 0.638929 0.173737 0.658513
Si Si2 0.198060 0.173626 0.181303
Si Si3 0.949220 0.327299 0.602846
Si Si4 0.303762 0.671644 0.830712
Si Si5 0.147525 0.673083 0.662111
Si Si6 0.947869 0.672597 0.408081
Si Si7 0.805534 0.162264 0.005135
Si Si8 0.304439 0.330089 0.488421
O O1 0.663559 0.229294 0.745198
O O2 0.586924 0.239395 0.661408
O O3 0.667590 0.234024 0.578690
O O4 0.636943 0.000000 0.652819
O O5 0.250000 0.236609 0.199422
O O6 0.179233 0.225720 0.087926
O O7 0.200761 0.000000 0.180156
O O8 0.941408 0.500000 0.613951
O O9 0.941163 0.275393 0.505453
O O10 0.001882 0.279831 0.629782
O O11 0.250000 0.715774 0.818181
O O12 0.309873 0.500000 0.837055
O O13 0.331876 0.737953 0.750003
O O14 0.324757 0.737985 0.918063
O O15 0.147008 0.500000 0.669072
O O16 0.094851 0.734561 0.648602
O O17 0.180219 0.719504 0.583100
O O18 0.946222 0.500000 0.410234
O O19 0.750000 0.158500 0.006201
O O20 0.825774 0.000000 0.018826
O O21 0.250000 0.298698 0.477541
O O22 0.316553 0.500000 0.473326
#
# Coordination Sequence:
#
# PCOD8207851 Si02
#       8
#     8   8   8   8   8   8   8   8
#     4  11  20  29  43  64  89 116 142 176 220 259
#     4   8  15  28  44  60  81 113 148 173 201 253
#     4   9  16  29  47  64  81 107 147 187 216 249
#     4   9  16  25  40  64  90 111 134 170 212 250
#     4   9  15  26  44  64  85 113 146 172 204 255
#     4   8  14  26  47  65  79 108 148 184 212 246
#     4   8  14  27  45  60  77 107 144 176 205 244
#     4  10  19  30  44  61  85 119 154 179 199 239
#
# _framework density 15.570304999999999
#
# number of rings (size 3 to 8) (size 9 to 14) (size 15 to 20)
#    0.000    3.000    1.250    2.625    0.000    2.250 
#    0.000    3.125    0.000    4.500    0.000    0.875 
#    0.000    7.000    0.000    0.000    0.000    0.000 
#
# Total GULP energy -793164.889746 kJ/mol
# GULP energy per Si atom -12393.201402 kJ/mol
# Density = 1.553487 g / cm^3
# Si number density = 15.570305 Si / 1000 Ang^3
#
#
#
# Elastic Constant Matrix: (Units=GPa)
#
#
# Indices 1 2 3 4 5 6 
#
# 1 94.8029 25.3144 50.4696 0.0000 0.0000 0.0000
# 2 25.3144 29.7740 26.9897 0.0000 0.0000 0.0000
# 3 50.4696 26.9897 115.4451 0.0000 0.0000 0.0000
# 4 0.0000 0.0000 0.0000 20.9950 0.0000 0.0000
# 5 0.0000 0.0000 0.0000 0.0000 12.6091 0.0000
# 6 0.0000 0.0000 0.0000 0.0000 0.0000 15.5724
#
#
#
# Elastic Compliance Matrix: (Units=1/GPa)
#
#
# Indices 1 2 3 4 5 6 
#
# 1 0.015395 -0.008868 -0.004657 0.000000 0.000000 0.000000
# 2 -0.008868 0.047726 -0.007281 0.000000 0.000000 0.000000
# 3 -0.004657 -0.007281 0.012400 0.000000 0.000000 0.000000
# 4 0.000000 0.000000 0.000000 0.047630 0.000000 0.000000
# 5 0.000000 0.000000 0.000000 0.000000 0.079308 0.000000
# 6 0.000000 0.000000 0.000000 0.000000 0.000000 0.064216
#
#
# Mechanical properties :
#
#
# Convention : Reuss Voigt Hill
#
# Bulk Modulus (GPa) = 29.49010 49.50772 39.49891
# Shear Modulus (GPa) = 15.64497 18.98519 17.31508
#
# Velocity S-wave (km/s) = 3.17329 3.49567 3.33837
# Velocity P-wave (km/s) = 5.69275 6.93961 6.34687
#
# Compressibility (1/GPa) = 0.03390969
#
# Stress axis : x y z
#
# Youngs Moduli (GPa) = 64.95426 20.95295 80.64246
#
# Poissons Ratio (x) = 0.18580 0.37558
# Poissons Ratio (y) = 0.57599 0.58716
# Poissons Ratio (z) = 0.30251 0.15256
#
# Static dielectric constant tensor:
#      x y z
#    x 3.163850 0.000000 0.000000 
#    y 0.000000 2.684060 0.000000 
#    z 0.000000 0.000000 3.226280 
# 
# 
# High freq. dielectric constant tensor:
#      x y z
#    x 1.584490 0.000000 0.000000 
#    y 0.000000 1.563490 0.000000 
#    z 0.000000 0.000000 1.589960 
# 
# From -- ./inp_files/26612.got.cif
#   From: 2010.03.12/outbox.cif.g09.slc.cpg/sg51_14_cif.got.tgz:26612.got - 2010.04.16 13:43:02.
