data_PCOD8207671
_publ_section_title
;
Structure prediction by ZEFSAII (Michael W. Deem and Ramdas Pophale) SiO2 
 PCOD8207671
Probable space group: P M M A
;
_chemical_formula_sum "Si O2"
_cell_formula_units_Z 48
_cell_length_a 9.030000
_cell_length_b 13.585638
_cell_length_c 23.872733
_cell_angle_alpha 90.000000
_cell_angle_beta 90.000000
_cell_angle_gamma 90.000000
_cell_volume 2928.666567
_symmetry_space_group_name_H-M "P M M A"
_symmetry_group_IT_number 51
_symmetry_cell_setting 'orthorhombic'
loop_
_space_group_symop_operation_xyz
x,y,z
1/2-x,-y,z
1/2+x,-y,-z
-x,y,-z
-x,-y,-z
1/2+x,y,-z
1/2-x,y,z
x,-y,z
loop_
_atom_site_type_symbol
_atom_site_label
_atom_site_fract_x
_atom_site_fract_y
_atom_site_fract_z
Si Si1 0.419630 0.389696 0.626783
Si Si2 0.919547 0.110533 0.659104
Si Si3 0.077249 0.297762 0.272061
Si Si4 0.577684 0.796698 0.441968
Si Si5 0.083314 0.383026 0.054388
Si Si6 0.424295 0.613786 0.832856
O O1 0.250000 0.373744 0.646476
O O2 0.445519 0.500000 0.604198
O O3 0.524878 0.372277 0.679715
O O4 0.459216 0.315242 0.576603
O O5 0.750000 0.126548 0.640399
O O6 0.958843 0.185920 0.709069
O O7 0.020604 0.128536 0.605096
O O8 0.947387 0.000000 0.681354
O O9 0.250000 0.315146 0.260781
O O10 0.987526 0.318046 0.215899
O O11 0.500000 0.820569 0.500000
O O12 0.750000 0.814478 0.450250
O O13 0.250000 0.340878 0.056132
O O14 0.086036 0.500000 0.050917
O O15 0.996445 0.348791 0.109563
O O16 0.000000 0.339598 0.000000
O O17 0.250000 0.628464 0.837496
O O18 0.465121 0.500000 0.820740
#
# Coordination Sequence:
#
# PCOD8207671 Si02
#       6
#     8   8   8   8   8   8
#     4   9  18  32  47  63  87 119 149 177 213 257
#     4   9  19  36  54  69  87 112 141 177 224 273
#     4  10  19  30  46  68  90 112 144 185 224 264
#     4  10  20  33  49  69  91 114 143 178 215 259
#     4   9  16  26  40  59  86 121 160 197 228 258
#     4  10  19  29  42  62  91 127 160 187 218 257
#
# _framework density 16.389711999999999
#
# number of rings (size 3 to 8) (size 9 to 14) (size 15 to 20)
#    0.000    2.500    0.000    2.500    0.000    7.667 
#    0.000    0.000    0.000    0.000    0.000    0.000 
#    0.000    0.667    0.000    1.833    0.000    2.667 
#
# Total GULP energy -595257.701167 kJ/mol
# GULP energy per Si atom -12401.202108 kJ/mol
# Density = 1.635241 g / cm^3
# Si number density = 16.389712 Si / 1000 Ang^3
#
#
#
# Elastic Constant Matrix: (Units=GPa)
#
#
# Indices 1 2 3 4 5 6 
#
# 1 96.9031 28.1104 61.6831 0.0000 0.0000 0.0000
# 2 28.1104 73.4492 32.5213 0.0000 0.0000 0.0000
# 3 61.6831 32.5213 119.9725 0.0000 0.0000 0.0000
# 4 0.0000 0.0000 0.0000 13.4908 0.0000 0.0000
# 5 0.0000 0.0000 0.0000 0.0000 33.8909 0.0000
# 6 0.0000 0.0000 0.0000 0.0000 0.0000 18.0403
#
#
#
# Elastic Compliance Matrix: (Units=1/GPa)
#
#
# Indices 1 2 3 4 5 6 
#
# 1 0.015827 -0.002789 -0.007381 0.000000 0.000000 0.000000
# 2 -0.002789 0.015963 -0.002893 0.000000 0.000000 0.000000
# 3 -0.007381 -0.002893 0.012915 0.000000 0.000000 0.000000
# 4 0.000000 0.000000 0.000000 0.074125 0.000000 0.000000
# 5 0.000000 0.000000 0.000000 0.000000 0.029506 0.000000
# 6 0.000000 0.000000 0.000000 0.000000 0.000000 0.055431
#
#
# Mechanical properties :
#
#
# Convention : Reuss Voigt Hill
#
# Bulk Modulus (GPa) = 53.82795 59.43938 56.63366
# Shear Modulus (GPa) = 21.17856 24.28507 22.73182
#
# Velocity S-wave (km/s) = 3.59860 3.85350 3.72823
# Velocity P-wave (km/s) = 7.08381 7.49295 7.29125
#
# Compressibility (1/GPa) = 0.01857771
#
# Stress axis : x y z
#
# Youngs Moduli (GPa) = 63.18208 62.64354 77.43157
#
# Poissons Ratio (x) = 0.17472 0.57156
# Poissons Ratio (y) = 0.17622 0.22403
# Poissons Ratio (z) = 0.46637 0.18124
#
# Static dielectric constant tensor:
#      x y z
#    x 3.249410 0.000000 0.000000 
#    y 0.000000 2.901690 0.000000 
#    z 0.000000 0.000000 3.038000 
# 
# 
# High freq. dielectric constant tensor:
#      x y z
#    x 1.647040 0.000000 0.000000 
#    y 0.000000 1.595520 0.000000 
#    z 0.000000 0.000000 1.623160 
# 
# From -- ./inp_files/31573.got.cif
#   From: 2010.03.12/outbox.cif.g09.slc.cpg/sg51_16_cif.got.tgz:31573.got - 2010.04.16 13:43:02.
