data_PCOD8207822
_publ_section_title
;
Structure prediction by ZEFSAII (Michael W. Deem and Ramdas Pophale) SiO2 
 PCOD8207822
Probable space group: P M M A
;
_chemical_formula_sum "Si O2"
_cell_formula_units_Z 36
_cell_length_a 9.833981
_cell_length_b 12.649478
_cell_length_c 19.166154
_cell_angle_alpha 90.000000
_cell_angle_beta 90.000000
_cell_angle_gamma 90.000000
_cell_volume 2384.168481
_symmetry_space_group_name_H-M "P M M A"
_symmetry_group_IT_number 51
_symmetry_cell_setting 'orthorhombic'
loop_
_space_group_symop_operation_xyz
x,y,z
1/2-x,-y,z
1/2+x,-y,-z
-x,y,-z
-x,-y,-z
1/2+x,y,-z
1/2-x,y,z
x,-y,z
loop_
_atom_site_type_symbol
_atom_site_label
_atom_site_fract_x
_atom_site_fract_y
_atom_site_fract_z
Si Si1 0.900455 0.874191 0.558336
Si Si2 0.091298 0.122499 0.285355
Si Si3 0.094598 0.379358 0.936849
Si Si4 0.407996 0.000000 0.932066
Si Si5 0.093658 0.195369 0.833988
O O1 0.750000 0.829995 0.542764
O O2 0.946299 0.840972 0.636095
O O3 0.000000 0.825162 0.500000
O O4 0.898633 0.000000 0.554076
O O5 0.250000 0.141951 0.270265
O O6 0.001116 0.192133 0.233687
O O7 0.054230 0.000000 0.274487
O O8 0.250000 0.365630 0.961791
O O9 0.062188 0.500000 0.915740
O O10 0.065300 0.307895 0.869707
O O11 0.000000 0.341263 0.000000
O O12 0.445375 0.896983 0.887551
O O13 0.250000 0.000000 0.954388
O O14 0.500000 0.000000 0.000000
O O15 0.250000 0.183568 0.810268
#
# Coordination Sequence:
#
# PCOD8207822 Si02
#       5
#     8   8   8   4   8
#     4   8  14  24  37  55  79 108 142 173 199 234
#     4   9  17  28  41  59  85 115 144 172 205 246
#     4   9  18  32  48  64  82 106 138 177 218 256
#     4  10  20  30  40  58  81 106 137 170 203 244
#     4  10  19  30  43  61  85 110 139 174 209 250
#
# _framework density 15.099603
#
# number of rings (size 3 to 8) (size 9 to 14) (size 15 to 20)
#    0.000    2.889    1.111    2.000    0.000    2.667 
#    0.000    2.222    0.000    0.000    0.000    0.000 
#    0.000    0.889    0.000    2.000    0.000    3.111 
#
# Total GULP energy -446352.495616 kJ/mol
# GULP energy per Si atom -12398.680434 kJ/mol
# Density = 1.506524 g / cm^3
# Si number density = 15.099603 Si / 1000 Ang^3
#
#
#
# Elastic Constant Matrix: (Units=GPa)
#
#
# Indices 1 2 3 4 5 6 
#
# 1 84.8441 30.1969 82.7468 0.0000 0.0000 0.0000
# 2 30.1969 48.1864 36.7913 0.0000 0.0000 0.0000
# 3 82.7468 36.7913 129.6954 0.0000 0.0000 0.0000
# 4 0.0000 0.0000 0.0000 14.2177 0.0000 0.0000
# 5 0.0000 0.0000 0.0000 0.0000 36.9610 0.0000
# 6 0.0000 0.0000 0.0000 0.0000 0.0000 14.2612
#
#
#
# Elastic Compliance Matrix: (Units=1/GPa)
#
#
# Indices 1 2 3 4 5 6 
#
# 1 0.032411 -0.005773 -0.019041 0.000000 0.000000 0.000000
# 2 -0.005773 0.027519 -0.004123 0.000000 0.000000 0.000000
# 3 -0.019041 -0.004123 0.021028 0.000000 0.000000 0.000000
# 4 0.000000 0.000000 0.000000 0.070335 0.000000 0.000000
# 5 0.000000 0.000000 0.000000 0.000000 0.027056 0.000000
# 6 0.000000 0.000000 0.000000 0.000000 0.000000 0.070120
#
#
# Mechanical properties :
#
#
# Convention : Reuss Voigt Hill
#
# Bulk Modulus (GPa) = 43.32009 62.46622 52.89316
# Shear Modulus (GPa) = 15.92163 20.62071 18.27117
#
# Velocity S-wave (km/s) = 3.25074 3.69947 3.48234
# Velocity P-wave (km/s) = 6.54535 7.72706 7.16062
#
# Compressibility (1/GPa) = 0.02308398
#
# Stress axis : x y z
#
# Youngs Moduli (GPa) = 30.85328 36.33911 47.55463
#
# Poissons Ratio (x) = 0.20978 0.90550
# Poissons Ratio (y) = 0.17811 0.19607
# Poissons Ratio (z) = 0.58748 0.14983
#
# Static dielectric constant tensor:
#      x y z
#    x 3.046820 0.000000 0.000000 
#    y 0.000000 2.655740 0.000000 
#    z 0.000000 0.000000 2.911460 
# 
# 
# High freq. dielectric constant tensor:
#      x y z
#    x 1.585490 0.000000 0.000000 
#    y 0.000000 1.536910 0.000000 
#    z 0.000000 0.000000 1.575250 
# 
# From -- ./inp_files/27229.got.cif
#   From: 2010.03.12/outbox.cif.g09.slc.cpg/sg51_14_cif.got.tgz:27229.got - 2010.04.16 13:43:02.
