data_PCOD8207114
_publ_section_title
;
Structure prediction by ZEFSAII (Michael W. Deem and Ramdas Pophale) SiO2 
 PCOD8207114
Probable space group: P M M A
;
_chemical_formula_sum "Si O2"
_cell_formula_units_Z 64
_cell_length_a 9.376683
_cell_length_b 20.508682
_cell_length_c 19.752376
_cell_angle_alpha 90.000000
_cell_angle_beta 90.000000
_cell_angle_gamma 90.000000
_cell_volume 3798.449258
_symmetry_space_group_name_H-M "P M M A"
_symmetry_group_IT_number 51
_symmetry_cell_setting 'orthorhombic'
loop_
_space_group_symop_operation_xyz
x,y,z
1/2-x,-y,z
1/2+x,-y,-z
-x,y,-z
-x,-y,-z
1/2+x,y,-z
1/2-x,y,z
x,-y,z
loop_
_atom_site_type_symbol
_atom_site_label
_atom_site_fract_x
_atom_site_fract_y
_atom_site_fract_z
Si Si1 0.417305 0.739811 0.706325
Si Si2 0.408864 0.730550 0.561498
Si Si3 0.407995 0.886284 0.561287
Si Si4 0.916185 0.303723 0.149922
Si Si5 0.920593 0.807849 0.928839
Si Si6 0.087835 0.927769 0.164534
Si Si7 0.919137 0.885300 0.288921
Si Si8 0.414470 0.426999 0.934410
O O1 0.250000 0.747900 0.693502
O O2 0.476743 0.710412 0.635074
O O3 0.453312 0.694314 0.770183
O O4 0.477179 0.811747 0.721990
O O5 0.500000 0.700651 0.500000
O O6 0.250000 0.702444 0.552560
O O7 0.408348 0.808414 0.559169
O O8 0.500000 0.916038 0.500000
O O9 0.250000 0.913415 0.549894
O O10 0.462894 0.909342 0.635445
O O11 0.750000 0.283963 0.138113
O O12 0.948378 0.376907 0.125576
O O13 0.019228 0.253685 0.112147
O O14 0.750000 0.800509 0.938630
O O15 0.962919 0.874071 0.889648
O O16 0.000000 0.810516 0.000000
O O17 0.250000 0.912990 0.185610
O O18 0.994237 0.928639 0.232432
O O19 0.073094 0.000000 0.131697
O O20 0.750000 0.890350 0.278919
O O21 0.250000 0.424804 0.954932
O O22 0.459588 0.500000 0.911337
O O23 0.500000 0.404041 0.000000
#
# Coordination Sequence:
#
# PCOD8207114 Si02
#       8
#     8   8   8   8   8   8   8   8
#     4   8  14  25  43  65  90 119 150 185 228 271
#     4   8  13  22  35  55  85 118 148 179 218 265
#     4   8  14  23  38  62  89 116 145 181 221 267
#     4  10  18  31  52  73  97 128 157 190 231 274
#     4  11  23  37  53  73  95 118 149 190 232 279
#     4  10  22  38  52  68  91 117 147 189 240 285
#     4   9  16  29  48  68  90 116 152 190 227 277
#     4   9  18  31  47  69  96 127 161 192 225 268
#
# _framework density 16.848980999999998
#
# number of rings (size 3 to 8) (size 9 to 14) (size 15 to 20)
#    0.000    2.875    1.250    2.250    0.000    3.000 
#    0.000    2.500    0.000    0.375    0.000    0.000 
#    0.000    0.500    0.000    0.375    0.000    0.750 
#
# Total GULP energy -793130.036771 kJ/mol
# GULP energy per Si atom -12392.656825 kJ/mol
# Density = 1.681063 g / cm^3
# Si number density = 16.848981 Si / 1000 Ang^3
#
#
#
# Elastic Constant Matrix: (Units=GPa)
#
#
# Indices 1 2 3 4 5 6 
#
# 1 55.9950 25.6164 52.1263 0.0000 0.0000 0.0000
# 2 25.6164 67.4546 48.7361 0.0000 0.0000 0.0000
# 3 52.1263 48.7361 146.4101 0.0000 0.0000 0.0000
# 4 0.0000 0.0000 0.0000 14.1991 0.0000 0.0000
# 5 0.0000 0.0000 0.0000 0.0000 28.0703 0.0000
# 6 0.0000 0.0000 0.0000 0.0000 0.0000 14.6115
#
#
#
# Elastic Compliance Matrix: (Units=1/GPa)
#
#
# Indices 1 2 3 4 5 6 
#
# 1 0.027698 -0.004468 -0.008374 0.000000 0.000000 0.000000
# 2 -0.004468 0.020240 -0.005146 0.000000 0.000000 0.000000
# 3 -0.008374 -0.005146 0.011525 0.000000 0.000000 0.000000
# 4 0.000000 0.000000 0.000000 0.070427 0.000000 0.000000
# 5 0.000000 0.000000 0.000000 0.000000 0.035625 0.000000
# 6 0.000000 0.000000 0.000000 0.000000 0.000000 0.068439
#
#
# Mechanical properties :
#
#
# Convention : Reuss Voigt Hill
#
# Bulk Modulus (GPa) = 42.57994 58.09081 50.33537
# Shear Modulus (GPa) = 18.00114 20.93493 19.46803
#
# Velocity S-wave (km/s) = 3.27216 3.52874 3.40287
# Velocity P-wave (km/s) = 6.29304 7.15226 6.73637
#
# Compressibility (1/GPa) = 0.02348524
#
# Stress axis : x y z
#
# Youngs Moduli (GPa) = 36.10316 49.40702 86.77041
#
# Poissons Ratio (x) = 0.22077 0.72662
# Poissons Ratio (y) = 0.16132 0.44656
# Poissons Ratio (z) = 0.30233 0.25427
#
# Static dielectric constant tensor:
#      x y z
#    x 3.133450 0.000000 0.000000 
#    y 0.000000 2.892120 0.000000 
#    z 0.000000 0.000000 3.407960 
# 
# 
# High freq. dielectric constant tensor:
#      x y z
#    x 1.636270 0.000000 0.000000 
#    y 0.000000 1.607500 0.000000 
#    z 0.000000 0.000000 1.659570 
# 
# From -- ./inp_files/32604.got.cif
#   From: 2010.03.12/outbox.cif.g09.slc.cpg/sg51_17_cif.got.tgz:32604.got - 2010.04.16 13:43:02.
