data_PCOD8207523
_publ_section_title
;
Structure prediction by ZEFSAII (Michael W. Deem and Ramdas Pophale) SiO2 
 PCOD8207523
Probable space group: P M M A
;
_chemical_formula_sum "Si O2"
_cell_formula_units_Z 48
_cell_length_a 14.753116
_cell_length_b 8.547467
_cell_length_c 19.288057
_cell_angle_alpha 90.000000
_cell_angle_beta 90.000000
_cell_angle_gamma 90.000000
_cell_volume 2432.258169
_symmetry_space_group_name_H-M "P M M A"
_symmetry_group_IT_number 51
_symmetry_cell_setting 'orthorhombic'
loop_
_space_group_symop_operation_xyz
x,y,z
1/2-x,-y,z
1/2+x,-y,-z
-x,y,-z
-x,-y,-z
1/2+x,y,-z
1/2-x,y,z
x,-y,z
loop_
_atom_site_type_symbol
_atom_site_label
_atom_site_fract_x
_atom_site_fract_y
_atom_site_fract_z
Si Si1 0.854545 0.820711 0.061574
Si Si2 0.072184 0.817703 0.686581
Si Si3 0.250000 0.184303 0.474929
Si Si4 0.646579 0.818637 0.902362
Si Si5 0.056616 0.185778 0.434979
Si Si6 0.250000 0.318748 0.626060
Si Si7 0.982922 0.321071 0.171476
O O1 0.750000 0.798335 0.081849
O O2 0.914100 0.708476 0.108728
O O3 0.884283 0.000000 0.073505
O O4 0.871067 0.772868 0.982093
O O5 0.162508 0.720845 0.671768
O O6 0.041486 0.789996 0.764777
O O7 0.991540 0.760033 0.635766
O O8 0.092951 0.000000 0.674866
O O9 0.159334 0.254088 0.438678
O O10 0.250000 0.219070 0.556272
O O11 0.250000 0.000000 0.465950
O O12 0.750000 0.783958 0.881914
O O13 0.584713 0.714271 0.852966
O O14 0.623167 0.000000 0.890995
O O15 0.000000 0.253228 0.500000
O O16 0.060395 0.000000 0.440042
O O17 0.250000 0.500000 0.606648
O O18 0.975907 0.500000 0.195142
#
# Coordination Sequence:
#
# PCOD8207523 Si02
#       7
#     8   8   4   8   8   4   8
#     4   9  19  37  62  89 115 149 198 248 291 344
#     4  11  23  41  62  84 115 158 200 242 289 344
#     4  10  18  36  64  90 116 147 190 243 290 342
#     4   9  19  39  65  88 111 148 203 253 287 341
#     4   9  17  33  61  92 113 141 195 245 281 331
#     4  12  24  38  58  90 122 151 186 233 298 360
#     4  12  25  38  55  85 125 160 191 238 300 363
#
# _framework density 19.734748
#
# number of rings (size 3 to 8) (size 9 to 14) (size 15 to 20)
#    0.000    1.833    1.667    4.250    1.167    3.333 
#    1.500    4.167    0.000    0.000    0.000    0.000 
#    0.000    0.000    0.000    0.000    0.000    0.000 
#
# Total GULP energy -595332.828612 kJ/mol
# GULP energy per Si atom -12402.767263 kJ/mol
# Density = 1.968983 g / cm^3
# Si number density = 19.734748 Si / 1000 Ang^3
#
#
#
# Elastic Constant Matrix: (Units=GPa)
#
#
# Indices 1 2 3 4 5 6 
#
# 1 152.4157 21.8303 54.6256 0.0000 0.0000 0.0000
# 2 21.8303 41.1870 6.7856 0.0000 0.0000 0.0000
# 3 54.6256 6.7856 75.0593 0.0000 0.0000 0.0000
# 4 0.0000 0.0000 0.0000 12.1340 0.0000 0.0000
# 5 0.0000 0.0000 0.0000 0.0000 16.7825 0.0000
# 6 0.0000 0.0000 0.0000 0.0000 0.0000 17.9078
#
#
#
# Elastic Compliance Matrix: (Units=1/GPa)
#
#
# Indices 1 2 3 4 5 6 
#
# 1 0.009467 -0.003941 -0.006534 0.000000 0.000000 0.000000
# 2 -0.003941 0.026288 0.000492 0.000000 0.000000 0.000000
# 3 -0.006534 0.000492 0.018033 0.000000 0.000000 0.000000
# 4 0.000000 0.000000 0.000000 0.082413 0.000000 0.000000
# 5 0.000000 0.000000 0.000000 0.000000 0.059586 0.000000
# 6 0.000000 0.000000 0.000000 0.000000 0.000000 0.055842
#
#
# Mechanical properties :
#
#
# Convention : Reuss Voigt Hill
#
# Bulk Modulus (GPa) = 29.56665 48.34944 38.95804
# Shear Modulus (GPa) = 17.67605 21.72621 19.70113
#
# Velocity S-wave (km/s) = 2.99604 3.32160 3.16301
# Velocity P-wave (km/s) = 5.19451 6.26606 5.75528
#
# Compressibility (1/GPa) = 0.03382189
#
# Stress axis : x y z
#
# Youngs Moduli (GPa) = 105.62828 38.04082 55.45315
#
# Poissons Ratio (x) = 0.14994 0.36231
# Poissons Ratio (y) = 0.41633 -0.02728
# Poissons Ratio (z) = 0.69013 -0.01872
#
# Static dielectric constant tensor:
#      x y z
#    x 3.916350 0.000000 0.000000 
#    y 0.000000 3.258000 0.000000 
#    z 0.000000 0.000000 3.461030 
# 
# 
# High freq. dielectric constant tensor:
#      x y z
#    x 1.786490 0.000000 0.000000 
#    y 0.000000 1.742260 0.000000 
#    z 0.000000 0.000000 1.761940 
# 
# From -- ./inp_files/29661.got.cif
#   From: 2010.03.12/outbox.cif.g09.slc.cpg/sg51_15_cif.got.tgz:29661.got - 2010.04.16 13:43:02.
