data_PCOD8207201
_publ_section_title
;
Structure prediction by ZEFSAII (Michael W. Deem and Ramdas Pophale) SiO2 
 PCOD8207201
Probable space group: P M M A
;
_chemical_formula_sum "Si O2"
_cell_formula_units_Z 52
_cell_length_a 8.892012
_cell_length_b 10.361272
_cell_length_c 30.678771
_cell_angle_alpha 90.000000
_cell_angle_beta 90.000000
_cell_angle_gamma 90.000000
_cell_volume 2826.513555
_symmetry_space_group_name_H-M "P M M A"
_symmetry_group_IT_number 51
_symmetry_cell_setting 'orthorhombic'
loop_
_space_group_symop_operation_xyz
x,y,z
1/2-x,-y,z
1/2+x,-y,-z
-x,y,-z
-x,-y,-z
1/2+x,y,-z
1/2-x,y,z
x,-y,z
loop_
_atom_site_type_symbol
_atom_site_label
_atom_site_fract_x
_atom_site_fract_y
_atom_site_fract_z
Si Si1 0.925977 0.849868 0.110853
Si Si2 0.581052 0.846330 0.706813
Si Si3 0.082400 0.847512 0.197867
Si Si4 0.086642 0.853804 0.624636
Si Si5 0.571989 0.244550 0.546846
Si Si6 0.570279 0.500000 0.452214
Si Si7 0.926893 0.646441 0.953583
O O1 0.750000 0.830994 0.104190
O O2 0.968885 0.805415 0.159811
O O3 0.012336 0.754682 0.078837
O O4 0.972196 0.000000 0.102331
O O5 0.750000 0.795370 0.700513
O O6 0.522154 0.799893 0.754636
O O7 0.483358 0.784293 0.667476
O O8 0.578900 0.000000 0.703925
O O9 0.250000 0.791304 0.188642
O O10 0.094262 0.000000 0.199538
O O11 0.250000 0.790541 0.613475
O O12 0.974420 0.859247 0.582920
O O13 0.113121 0.000000 0.638066
O O14 0.500000 0.210619 0.500000
O O15 0.750000 0.256287 0.540790
O O16 0.497815 0.371957 0.569320
O O17 0.750000 0.500000 0.453130
O O18 0.500000 0.500000 0.500000
O O19 0.750000 0.664577 0.958150
O O20 0.966018 0.500000 0.937717
O O21 0.000000 0.673460 0.000000
#
# Coordination Sequence:
#
# PCOD8207201 Si02
#       7
#     8   8   8   8   8   4   8
#     4  10  20  32  49  77 109 138 171 212 259 308
#     4   8  14  26  44  66  93 126 162 198 238 286
#     4   8  14  26  45  69  98 130 163 202 247 292
#     4  10  20  32  46  68  98 130 163 197 237 287
#     4  11  21  34  51  70  93 121 156 196 239 286
#     4  10  18  32  52  72  92 112 144 188 232 276
#     4  10  21  37  56  76 100 135 178 219 260 309
#
# _framework density 18.397221999999999
#
# number of rings (size 3 to 8) (size 9 to 14) (size 15 to 20)
#    0.000    2.462    0.000    5.308    0.000    4.000 
#    0.000    3.077    0.000    0.000    2.000    0.000 
#    0.000    0.000    0.000    0.000    0.000    0.000 
#
# Total GULP energy -644223.585886 kJ/mol
# GULP energy per Si atom -12388.915113 kJ/mol
# Density = 1.835535 g / cm^3
# Si number density = 18.397222 Si / 1000 Ang^3
#
#
#
# Elastic Constant Matrix: (Units=GPa)
#
#
# Indices 1 2 3 4 5 6 
#
# 1 132.7968 32.5897 69.3196 0.0000 0.0000 0.0000
# 2 32.5897 44.6452 42.2525 0.0000 0.0000 0.0000
# 3 69.3196 42.2525 143.9028 0.0000 0.0000 0.0000
# 4 0.0000 0.0000 0.0000 1.2611 0.0000 0.0000
# 5 0.0000 0.0000 0.0000 0.0000 37.1301 0.0000
# 6 0.0000 0.0000 0.0000 0.0000 0.0000 22.5327
#
#
#
# Elastic Compliance Matrix: (Units=1/GPa)
#
#
# Indices 1 2 3 4 5 6 
#
# 1 0.010553 -0.004005 -0.003907 0.000000 0.000000 0.000000
# 2 -0.004005 0.032539 -0.007625 0.000000 0.000000 0.000000
# 3 -0.003907 -0.007625 0.011070 0.000000 0.000000 0.000000
# 4 0.000000 0.000000 0.000000 0.792950 0.000000 0.000000
# 5 0.000000 0.000000 0.000000 0.000000 0.026932 0.000000
# 6 0.000000 0.000000 0.000000 0.000000 0.000000 0.044380
#
#
# Mechanical properties :
#
#
# Convention : Reuss Voigt Hill
#
# Bulk Modulus (GPa) = 43.31439 67.74096 55.52768
# Shear Modulus (GPa) = 5.22360 23.99698 14.61029
#
# Velocity S-wave (km/s) = 1.68686 3.61554 2.82114
# Velocity P-wave (km/s) = 5.23346 7.37094 6.39218
#
# Compressibility (1/GPa) = 0.02308701
#
# Stress axis : x y z
#
# Youngs Moduli (GPa) = 94.76055 30.73281 90.33357
#
# Poissons Ratio (x) = 0.12309 0.35297
# Poissons Ratio (y) = 0.37955 0.68875
# Poissons Ratio (z) = 0.37027 0.23432
#
# Static dielectric constant tensor:
#      x y z
#    x 3.672920 0.000000 0.000000 
#    y 0.000000 3.713090 0.000000 
#    z 0.000000 0.000000 3.657750 
# 
# 
# High freq. dielectric constant tensor:
#      x y z
#    x 1.724560 0.000000 0.000000 
#    y 0.000000 1.664860 0.000000 
#    z 0.000000 0.000000 1.717520 
# 
# From -- ./inp_files/36233.got.cif
#   From: 2010.03.12/outbox.cif.g09.slc.cpg/sg51_19_cif.got.tgz:36233.got - 2010.04.16 13:43:02.
