data_PCOD8207030
_publ_section_title
;
Structure prediction by ZEFSAII (Michael W. Deem and Ramdas Pophale) SiO2 
 PCOD8207030
Probable space group: P M M A
;
_chemical_formula_sum "Si O2"
_cell_formula_units_Z 64
_cell_length_a 25.491448
_cell_length_b 8.964914
_cell_length_c 16.971557
_cell_angle_alpha 90.000000
_cell_angle_beta 90.000000
_cell_angle_gamma 90.000000
_cell_volume 3878.486824
_symmetry_space_group_name_H-M "P M M A"
_symmetry_group_IT_number 51
_symmetry_cell_setting 'orthorhombic'
loop_
_space_group_symop_operation_xyz
x,y,z
1/2-x,-y,z
1/2+x,-y,-z
-x,y,-z
-x,-y,-z
1/2+x,y,-z
1/2-x,y,z
x,-y,z
loop_
_atom_site_type_symbol
_atom_site_label
_atom_site_fract_x
_atom_site_fract_y
_atom_site_fract_z
Si Si1 0.437685 0.172962 0.651759
Si Si2 0.401514 0.676201 0.183794
Si Si3 0.006522 0.826644 0.092183
Si Si4 0.310793 0.171640 0.098192
Si Si5 0.192303 0.822582 0.919575
Si Si6 0.439955 0.173963 0.339301
Si Si7 0.403645 0.176957 0.820201
Si Si8 0.437666 0.667992 0.496289
O O1 0.498404 0.207006 0.669313
O O2 0.404885 0.223549 0.728520
O O3 0.415351 0.264137 0.577517
O O4 0.429893 0.000000 0.632267
O O5 0.405676 0.500000 0.188484
O O6 0.443339 0.736771 0.121258
O O7 0.343807 0.724119 0.156037
O O8 0.410231 0.742208 0.270106
O O9 0.955046 0.761788 0.135381
O O10 0.015302 0.000000 0.113253
O O11 0.000000 0.801535 0.000000
O O12 0.250000 0.190649 0.120197
O O13 0.328442 0.000000 0.108387
O O14 0.321223 0.225005 0.008638
O O15 0.250000 0.761163 0.895458
O O16 0.148643 0.755208 0.860454
O O17 0.193079 0.000000 0.915080
O O18 0.417980 0.235589 0.422264
O O19 0.427415 0.000000 0.334337
O O20 0.403606 0.000000 0.828936
O O21 0.500000 0.674324 0.500000
O O22 0.416866 0.500000 0.487159
#
# Coordination Sequence:
#
# PCOD8207030 Si02
#       8
#     8   8   8   8   8   8   8   8
#     4   9  16  27  43  64  92 126 161 194 231 282
#     4  12  23  32  46  70 102 130 156 196 248 298
#     4  10  19  32  49  66  90 129 170 202 236 285
#     4   9  18  34  54  72  91 122 168 212 244 281
#     4   8  14  26  47  73  95 117 155 208 251 276
#     4  10  18  31  48  66  92 126 164 196 230 282
#     4   9  15  25  42  67  95 124 158 196 236 281
#     4   9  17  28  43  65  93 122 154 192 241 287
#
# _framework density 16.501280000000001
#
# number of rings (size 3 to 8) (size 9 to 14) (size 15 to 20)
#    0.000    2.500    1.250    3.375    0.000    4.500 
#    0.000    0.000    0.000    0.750    0.000    0.875 
#    0.000    5.000    0.000    0.000    0.000    0.000 
#
# Total GULP energy -793545.757916 kJ/mol
# GULP energy per Si atom -12399.152467 kJ/mol
# Density = 1.646372 g / cm^3
# Si number density = 16.501280 Si / 1000 Ang^3
#
#
#
# Elastic Constant Matrix: (Units=GPa)
#
#
# Indices 1 2 3 4 5 6 
#
# 1 74.6744 35.3606 54.2218 0.0000 0.0000 0.0000
# 2 35.3606 76.2071 54.4738 0.0000 0.0000 0.0000
# 3 54.2218 54.4738 127.0481 0.0000 0.0000 0.0000
# 4 0.0000 0.0000 0.0000 13.8762 0.0000 0.0000
# 5 0.0000 0.0000 0.0000 0.0000 19.5055 0.0000
# 6 0.0000 0.0000 0.0000 0.0000 0.0000 11.8398
#
#
#
# Elastic Compliance Matrix: (Units=1/GPa)
#
#
# Indices 1 2 3 4 5 6 
#
# 1 0.020510 -0.004700 -0.006738 0.000000 0.000000 0.000000
# 2 -0.004700 0.019998 -0.006569 0.000000 0.000000 0.000000
# 3 -0.006738 -0.006569 0.013563 0.000000 0.000000 0.000000
# 4 0.000000 0.000000 0.000000 0.072066 0.000000 0.000000
# 5 0.000000 0.000000 0.000000 0.000000 0.051268 0.000000
# 6 0.000000 0.000000 0.000000 0.000000 0.000000 0.084461
#
#
# Mechanical properties :
#
#
# Convention : Reuss Voigt Hill
#
# Bulk Modulus (GPa) = 55.37848 62.89356 59.13602
# Shear Modulus (GPa) = 16.45290 17.96920 17.21105
#
# Velocity S-wave (km/s) = 3.16106 3.30352 3.23308
# Velocity P-wave (km/s) = 6.85245 7.26279 7.06060
#
# Compressibility (1/GPa) = 0.01805756
#
# Stress axis : x y z
#
# Youngs Moduli (GPa) = 48.75767 50.00389 73.73009
#
# Poissons Ratio (x) = 0.23504 0.49678
# Poissons Ratio (y) = 0.22918 0.48430
# Poissons Ratio (z) = 0.32852 0.32846
#
# Static dielectric constant tensor:
#      x y z
#    x 3.027950 0.000000 0.000000 
#    y 0.000000 2.913110 0.000000 
#    z 0.000000 0.000000 3.248940 
# 
# 
# High freq. dielectric constant tensor:
#      x y z
#    x 1.602230 0.000000 0.000000 
#    y 0.000000 1.612760 0.000000 
#    z 0.000000 0.000000 1.643860 
# 
# From -- ./inp_files/30916.got.cif
#   From: 2010.03.12/outbox.cif.g09.slc.cpg/sg51_16_cif.got.tgz:30916.got - 2010.04.16 13:43:02.
