data_PCOD8207148
_publ_section_title
;
Structure prediction by ZEFSAII (Michael W. Deem and Ramdas Pophale) SiO2 
 PCOD8207148
Probable space group: P M M A
;
_chemical_formula_sum "Si O2"
_cell_formula_units_Z 48
_cell_length_a 15.362132
_cell_length_b 9.233614
_cell_length_c 17.088883
_cell_angle_alpha 90.000000
_cell_angle_beta 90.000000
_cell_angle_gamma 90.000000
_cell_volume 2424.023826
_symmetry_space_group_name_H-M "P M M A"
_symmetry_group_IT_number 51
_symmetry_cell_setting 'orthorhombic'
loop_
_space_group_symop_operation_xyz
x,y,z
1/2-x,-y,z
1/2+x,-y,-z
-x,y,-z
-x,-y,-z
1/2+x,y,-z
1/2-x,y,z
x,-y,z
loop_
_atom_site_type_symbol
_atom_site_label
_atom_site_fract_x
_atom_site_fract_y
_atom_site_fract_z
Si Si1 0.104043 0.167339 0.151810
Si Si2 0.504573 0.328898 0.411547
Si Si3 0.651587 0.166576 0.319659
Si Si4 0.152841 0.665688 0.303138
Si Si5 0.100634 0.165674 0.850796
Si Si6 0.103629 0.336492 0.000358
O O1 0.149788 0.235814 0.226685
O O2 0.001556 0.189060 0.160910
O O3 0.130349 0.000000 0.145657
O O4 0.139478 0.247643 0.074463
O O5 0.500000 0.270593 0.500000
O O6 0.515447 0.500000 0.409807
O O7 0.589404 0.263080 0.371945
O O8 0.416667 0.279362 0.367190
O O9 0.750000 0.188572 0.349528
O O10 0.646789 0.214691 0.229084
O O11 0.621681 0.000000 0.326766
O O12 0.250000 0.678411 0.339381
O O13 0.132004 0.500000 0.279243
O O14 0.138424 0.263581 0.920713
O O15 0.121966 0.000000 0.872029
O O16 0.139019 0.500000 0.004980
O O17 0.000000 0.331941 0.000000
#
# Coordination Sequence:
#
# PCOD8207148 Si02
#       6
#     8   8   8   8   8   8
#     4  10  18  31  53  79 109 148 193 238 284 334
#     4  10  22  40  63  89 116 149 187 232 286 345
#     4  10  21  38  60  87 119 154 191 234 285 339
#     4  10  21  37  57  82 114 150 188 233 285 340
#     4   9  17  31  51  77 110 149 192 237 282 330
#     4   9  17  28  47  77 110 148 193 237 282 331
#
# _framework density 19.801784999999999
#
# number of rings (size 3 to 8) (size 9 to 14) (size 15 to 20)
#    0.000    2.333    1.667    1.000    0.000    5.000 
#    0.000    2.500    0.000    3.000    0.000    0.000 
#    0.000    0.000    0.000    0.000    0.000    0.000 
#
# Total GULP energy -595286.385687 kJ/mol
# GULP energy per Si atom -12401.799702 kJ/mol
# Density = 1.975672 g / cm^3
# Si number density = 19.801785 Si / 1000 Ang^3
#
#
#
# Elastic Constant Matrix: (Units=GPa)
#
#
# Indices 1 2 3 4 5 6 
#
# 1 81.8482 32.3925 52.6710 0.0000 0.0000 0.0000
# 2 32.3925 81.6732 52.2839 0.0000 0.0000 0.0000
# 3 52.6710 52.2839 138.1675 0.0000 0.0000 0.0000
# 4 0.0000 0.0000 0.0000 31.7870 0.0000 0.0000
# 5 0.0000 0.0000 0.0000 0.0000 -0.6091 0.0000
# 6 0.0000 0.0000 0.0000 0.0000 0.0000 18.8546
#
#
#
# Elastic Compliance Matrix: (Units=1/GPa)
#
#
# Indices 1 2 3 4 5 6 
#
# 1 0.016875 -0.003398 -0.005147 0.000000 0.000000 0.000000
# 2 -0.003398 0.016842 -0.005078 0.000000 0.000000 0.000000
# 3 -0.005147 -0.005078 0.011121 0.000000 0.000000 0.000000
# 4 0.000000 0.000000 0.000000 0.031459 0.000000 0.000000
# 5 0.000000 0.000000 0.000000 0.000000 -1.641892 0.000000
# 6 0.000000 0.000000 0.000000 0.000000 0.000000 0.053037
#
#
# Mechanical properties :
#
#
# Convention : Reuss Voigt Hill
#
# Bulk Modulus (GPa) = 56.84225 64.04264 60.44244
# Shear Modulus (GPa) = -3.37964 20.96261 8.79148
#
# Velocity S-wave (km/s) = -1.30784 3.25718 2.10936
# Velocity P-wave (km/s) = 5.14659 6.82332 6.04339
#
# Compressibility (1/GPa) = 0.01759255
#
# Stress axis : x y z
#
# Youngs Moduli (GPa) = 59.26039 59.37452 89.91768
#
# Poissons Ratio (x) = 0.20174 0.46281
# Poissons Ratio (y) = 0.20135 0.45660
# Poissons Ratio (z) = 0.30502 0.30150
#
# Static dielectric constant tensor:
#      x y z
#    x 3.425650 0.000000 0.000000 
#    y 0.000000 3.591110 0.000000 
#    z 0.000000 0.000000 3.655560 
# 
# 
# High freq. dielectric constant tensor:
#      x y z
#    x 1.763300 0.000000 0.000000 
#    y 0.000000 1.767690 0.000000 
#    z 0.000000 0.000000 1.769320 
# 
# From -- ./inp_files/29418.got.cif
#   From: 2010.03.12/outbox.cif.g09.slc.cpg/sg51_15_cif.got.tgz:29418.got - 2010.04.16 13:43:02.
