data_PCOD8207677
_publ_section_title
;
Structure prediction by ZEFSAII (Michael W. Deem and Ramdas Pophale) SiO2 
 PCOD8207677
Probable space group: P M M A
;
_chemical_formula_sum "Si O2"
_cell_formula_units_Z 64
_cell_length_a 13.946986
_cell_length_b 8.923983
_cell_length_c 31.405220
_cell_angle_alpha 90.000000
_cell_angle_beta 90.000000
_cell_angle_gamma 90.000000
_cell_volume 3908.777406
_symmetry_space_group_name_H-M "P M M A"
_symmetry_group_IT_number 51
_symmetry_cell_setting 'orthorhombic'
loop_
_space_group_symop_operation_xyz
x,y,z
1/2-x,-y,z
1/2+x,-y,-z
-x,y,-z
-x,-y,-z
1/2+x,y,-z
1/2-x,y,z
x,-y,z
loop_
_atom_site_type_symbol
_atom_site_label
_atom_site_fract_x
_atom_site_fract_y
_atom_site_fract_z
Si Si1 0.027442 0.176822 0.393766
Si Si2 0.860221 0.676568 0.854592
Si Si3 0.139029 0.323514 0.316894
Si Si4 0.639047 0.827940 0.522229
Si Si5 0.542002 0.177387 0.933785
Si Si6 0.136223 0.168564 0.231139
Si Si7 0.639198 0.324775 0.435638
Si Si8 0.855892 0.822602 0.019089
O O1 0.076351 0.253176 0.353839
O O2 0.084158 0.226389 0.435972
O O3 0.919480 0.238421 0.398954
O O4 0.027580 0.000000 0.386808
O O5 0.750000 0.724452 0.863124
O O6 0.869663 0.500000 0.850303
O O7 0.926935 0.734658 0.892184
O O8 0.900562 0.749008 0.811241
O O9 0.250000 0.279852 0.324275
O O10 0.124585 0.500000 0.316028
O O11 0.099725 0.257529 0.272494
O O12 0.750000 0.802721 0.532081
O O13 0.604964 0.730598 0.482110
O O14 0.615674 0.000000 0.511222
O O15 0.432369 0.225381 0.944821
O O16 0.550830 0.000000 0.925986
O O17 0.609541 0.231046 0.972593
O O18 0.250000 0.168060 0.230955
O O19 0.095040 0.000000 0.232174
O O20 0.750000 0.283986 0.428442
O O21 0.619551 0.500000 0.432057
O O22 0.750000 0.755151 0.028946
O O23 0.851710 0.000000 0.018040
#
# Coordination Sequence:
#
# PCOD8207677 Si02
#       8
#     8   8   8   8   8   8   8   8
#     4  11  21  32  49  71  94 123 158 191 224 268
#     4  10  19  29  42  63  92 122 150 184 227 270
#     4  10  20  33  49  71 100 128 151 180 222 272
#     4   9  18  32  48  67  93 123 153 186 225 269
#     4   9  16  26  43  65  86 115 156 194 227 268
#     4   9  17  30  48  68  91 120 152 184 219 265
#     4  10  21  35  49  66  90 120 155 196 238 275
#     4   8  14  25  41  62  89 119 152 192 233 269
#
# _framework density 16.373405999999999
#
# number of rings (size 3 to 8) (size 9 to 14) (size 15 to 20)
#    0.000    2.500    0.000    3.750    0.000    7.250 
#    0.000    2.500    0.000    1.125    0.000    0.875 
#    0.000    5.000    0.000    0.000    0.000    0.000 
#
# Total GULP energy -793579.169675 kJ/mol
# GULP energy per Si atom -12399.674526 kJ/mol
# Density = 1.633614 g / cm^3
# Si number density = 16.373406 Si / 1000 Ang^3
#
#
#
# Elastic Constant Matrix: (Units=GPa)
#
#
# Indices 1 2 3 4 5 6 
#
# 1 85.7657 34.8135 65.0091 0.0000 0.0000 0.0000
# 2 34.8135 70.4692 56.1269 0.0000 0.0000 0.0000
# 3 65.0091 56.1269 133.7345 0.0000 0.0000 0.0000
# 4 0.0000 0.0000 0.0000 -29.3611 0.0000 0.0000
# 5 0.0000 0.0000 0.0000 0.0000 23.7003 0.0000
# 6 0.0000 0.0000 0.0000 0.0000 0.0000 19.4458
#
#
#
# Elastic Compliance Matrix: (Units=1/GPa)
#
#
# Indices 1 2 3 4 5 6 
#
# 1 0.018884 -0.003031 -0.007907 0.000000 0.000000 0.000000
# 2 -0.003031 0.021802 -0.007677 0.000000 0.000000 0.000000
# 3 -0.007907 -0.007677 0.014543 0.000000 0.000000 0.000000
# 4 0.000000 0.000000 0.000000 -0.034059 0.000000 0.000000
# 5 0.000000 0.000000 0.000000 0.000000 0.042194 0.000000
# 6 0.000000 0.000000 0.000000 0.000000 0.000000 0.051425
#
#
# Mechanical properties :
#
#
# Convention : Reuss Voigt Hill
#
# Bulk Modulus (GPa) = 55.55912 66.87427 61.21670
# Shear Modulus (GPa) = 31.64176 11.69167 21.66672
#
# Velocity S-wave (km/s) = 4.40080 2.67510 3.64165
# Velocity P-wave (km/s) = 7.73492 7.10447 7.42638
#
# Compressibility (1/GPa) = 0.01799884
#
# Stress axis : x y z
#
# Youngs Moduli (GPa) = 52.95584 45.86657 68.76058
#
# Poissons Ratio (x) = 0.13902 0.54372
# Poissons Ratio (y) = 0.16051 0.52786
# Poissons Ratio (z) = 0.41874 0.35211
#
# Static dielectric constant tensor:
#      x y z
#    x 3.186240 0.000000 0.000000 
#    y 0.000000 3.042300 0.000000 
#    z 0.000000 0.000000 3.078170 
# 
# 
# High freq. dielectric constant tensor:
#      x y z
#    x 1.609850 0.000000 0.000000 
#    y 0.000000 1.629210 0.000000 
#    z 0.000000 0.000000 1.621960 
# 
# From -- ./inp_files/37832.got.cif
#   From: 2010.03.12/outbox.cif.g09.slc.cpg/sg51_19_cif.got.tgz:37832.got - 2010.04.16 13:43:02.
