data_PCOD8207814
_publ_section_title
;
Structure prediction by ZEFSAII (Michael W. Deem and Ramdas Pophale) SiO2 
 PCOD8207814
Probable space group: P M M A
;
_chemical_formula_sum "Si O2"
_cell_formula_units_Z 64
_cell_length_a 9.651254
_cell_length_b 18.962151
_cell_length_c 23.375816
_cell_angle_alpha 90.000000
_cell_angle_beta 90.000000
_cell_angle_gamma 90.000000
_cell_volume 4277.973857
_symmetry_space_group_name_H-M "P M M A"
_symmetry_group_IT_number 51
_symmetry_cell_setting 'orthorhombic'
loop_
_space_group_symop_operation_xyz
x,y,z
1/2-x,-y,z
1/2+x,-y,-z
-x,y,-z
-x,-y,-z
1/2+x,y,-z
1/2-x,y,z
x,-y,z
loop_
_atom_site_type_symbol
_atom_site_label
_atom_site_fract_x
_atom_site_fract_y
_atom_site_fract_z
Si Si1 0.587388 0.717830 0.946034
Si Si2 0.907763 0.192540 0.834895
Si Si3 0.085559 0.423187 0.238950
Si Si4 0.589256 0.836597 0.333119
Si Si5 0.589469 0.918661 0.446388
Si Si6 0.913912 0.422603 0.888942
Si Si7 0.590024 0.723028 0.720242
Si Si8 0.410961 0.080707 0.780685
O O1 0.750000 0.717438 0.961012
O O2 0.554655 0.770295 0.894160
O O3 0.530923 0.639618 0.929644
O O4 0.500000 0.744787 0.000000
O O5 0.750000 0.166110 0.834516
O O6 0.933399 0.247838 0.784038
O O7 0.004508 0.124361 0.827856
O O8 0.250000 0.419468 0.234171
O O9 0.039646 0.500000 0.264104
O O10 0.023924 0.414475 0.174990
O O11 0.036983 0.358493 0.279261
O O12 0.750000 0.815806 0.333133
O O13 0.544355 0.872802 0.392056
O O14 0.501141 0.765327 0.325624
O O15 0.555010 0.891396 0.282707
O O16 0.500000 0.892312 0.500000
O O17 0.750000 0.907666 0.461389
O O18 0.557741 0.000000 0.432010
O O19 0.750000 0.414662 0.884600
O O20 0.955184 0.500000 0.913695
O O21 0.750000 0.729260 0.701685
O O22 0.250000 0.089203 0.795076
O O23 0.458745 0.000000 0.783732
#
# Coordination Sequence:
#
# PCOD8207814 Si02
#       8
#     8   8   8   8   8   8   8   8
#     4  10  19  30  43  60  81 106 136 170 205 245
#     4   9  17  29  43  60  83 106 131 166 208 249
#     4   8  12  20  38  61  82 107 139 171 203 242
#     4   9  17  28  42  62  89 118 142 167 204 247
#     4   9  17  29  44  61  85 119 154 181 203 233
#     4   8  13  23  40  59  79 106 138 168 199 239
#     4   9  15  25  42  63  84 107 139 177 209 240
#     4   9  17  29  46  66  85 106 133 165 202 247
#
# _framework density 14.960354000000001
#
# number of rings (size 3 to 8) (size 9 to 14) (size 15 to 20)
#    0.000    3.125    1.250    1.125    0.000    3.000 
#    0.000    0.000    0.000    3.000    0.000    1.750 
#    0.000    0.500    0.000    1.125    0.000    1.750 
#
# Total GULP energy -793290.519458 kJ/mol
# GULP energy per Si atom -12395.164367 kJ/mol
# Density = 1.492630 g / cm^3
# Si number density = 14.960354 Si / 1000 Ang^3
#
#
#
# Elastic Constant Matrix: (Units=GPa)
#
#
# Indices 1 2 3 4 5 6 
#
# 1 44.3040 47.0105 42.2002 0.0000 0.0000 0.0000
# 2 47.0105 117.8711 55.3343 0.0000 0.0000 0.0000
# 3 42.2002 55.3343 88.5759 0.0000 0.0000 0.0000
# 4 0.0000 0.0000 0.0000 23.6231 0.0000 0.0000
# 5 0.0000 0.0000 0.0000 0.0000 22.8148 0.0000
# 6 0.0000 0.0000 0.0000 0.0000 0.0000 18.1387
#
#
#
# Elastic Compliance Matrix: (Units=1/GPa)
#
#
# Indices 1 2 3 4 5 6 
#
# 1 0.052408 -0.012990 -0.016854 0.000000 0.000000 0.000000
# 2 -0.012990 0.015224 -0.003322 0.000000 0.000000 0.000000
# 3 -0.016854 -0.003322 0.021395 0.000000 0.000000 0.000000
# 4 0.000000 0.000000 0.000000 0.042331 0.000000 0.000000
# 5 0.000000 0.000000 0.000000 0.000000 0.043831 0.000000
# 6 0.000000 0.000000 0.000000 0.000000 0.000000 0.055131
#
#
# Mechanical properties :
#
#
# Convention : Reuss Voigt Hill
#
# Bulk Modulus (GPa) = 44.06131 59.98234 52.02183
# Shear Modulus (GPa) = 16.43562 19.99572 18.21567
#
# Velocity S-wave (km/s) = 3.31813 3.65989 3.49319
# Velocity P-wave (km/s) = 6.64800 7.61846 7.14972
#
# Compressibility (1/GPa) = 0.02269565
#
# Stress axis : x y z
#
# Youngs Moduli (GPa) = 19.08088 65.68545 46.74071
#
# Poissons Ratio (x) = 0.85326 0.78776
# Poissons Ratio (y) = 0.24786 0.15526
# Poissons Ratio (z) = 0.32159 0.21819
#
# Static dielectric constant tensor:
#      x y z
#    x 2.683110 0.000000 0.000000 
#    y 0.000000 3.082720 0.000000 
#    z 0.000000 0.000000 2.675340 
# 
# 
# High freq. dielectric constant tensor:
#      x y z
#    x 1.549950 0.000000 0.000000 
#    y 0.000000 1.573590 0.000000 
#    z 0.000000 0.000000 1.542780 
# 
# From -- ./inp_files/29203.got.cif
#   From: 2010.03.12/outbox.cif.g09.slc.cpg/sg51_15_cif.got.tgz:29203.got - 2010.04.16 13:43:02.
