data_PCOD8207836
_publ_section_title
;
Structure prediction by ZEFSAII (Michael W. Deem and Ramdas Pophale) SiO2 
 PCOD8207836
Probable space group: P M M A
;
_chemical_formula_sum "Si O2"
_cell_formula_units_Z 48
_cell_length_a 9.780929
_cell_length_b 13.105711
_cell_length_c 24.828535
_cell_angle_alpha 90.000000
_cell_angle_beta 90.000000
_cell_angle_gamma 90.000000
_cell_volume 3182.671302
_symmetry_space_group_name_H-M "P M M A"
_symmetry_group_IT_number 51
_symmetry_cell_setting 'orthorhombic'
loop_
_space_group_symop_operation_xyz
x,y,z
1/2-x,-y,z
1/2+x,-y,-z
-x,y,-z
-x,-y,-z
1/2+x,y,-z
1/2-x,y,z
x,-y,z
loop_
_atom_site_type_symbol
_atom_site_label
_atom_site_fract_x
_atom_site_fract_y
_atom_site_fract_z
Si Si1 0.405848 0.201179 0.626194
Si Si2 0.593584 0.615571 0.449886
Si Si3 0.096496 0.878545 0.046084
Si Si4 0.405561 0.882516 0.740507
Si Si5 0.901734 0.117010 0.544853
Si Si6 0.903201 0.878819 0.834913
O O1 0.250000 0.166265 0.611928
O O2 0.434477 0.314366 0.602740
O O3 0.428434 0.193180 0.690076
O O4 0.518469 0.125747 0.601058
O O5 0.500000 0.649594 0.500000
O O6 0.750000 0.625869 0.468952
O O7 0.558929 0.500000 0.432251
O O8 0.250000 0.840836 0.034516
O O9 0.049800 0.840940 0.105644
O O10 0.090243 0.000000 0.044034
O O11 0.000000 0.830359 0.000000
O O12 0.250000 0.878158 0.760307
O O13 0.496383 0.836909 0.788899
O O14 0.444390 0.000000 0.725464
O O15 0.750000 0.168726 0.546193
O O16 0.000000 0.170120 0.500000
O O17 0.880577 0.000000 0.530029
O O18 0.750000 0.839731 0.822667
O O19 0.906768 0.000000 0.834226
#
# Coordination Sequence:
#
# PCOD8207836 Si02
#       6
#     8   8   8   8   8   8
#     4  10  19  30  44  60  78  99 124 155 188 224
#     4   9  18  32  48  64  80  97 118 148 189 234
#     4   8  13  20  30  45  64  87 118 156 193 222
#     4   9  17  27  38  53  73  98 127 156 185 217
#     4  10  20  31  42  57  77 100 124 150 182 220
#     4   8  14  24  35  47  67  95 125 157 190 220
#
# _framework density 15.081671
#
# number of rings (size 3 to 8) (size 9 to 14) (size 15 to 20)
#    0.000    3.000    0.000    2.500    0.000    5.000 
#    0.000    5.000    0.000    0.000    0.000    0.000 
#    0.000    0.000    0.000    0.000    0.000    0.833 
#
# Total GULP energy -594783.799359 kJ/mol
# GULP energy per Si atom -12391.329153 kJ/mol
# Density = 1.504734 g / cm^3
# Si number density = 15.081671 Si / 1000 Ang^3
#
#
#
# Elastic Constant Matrix: (Units=GPa)
#
#
# Indices 1 2 3 4 5 6 
#
# 1 107.1879 19.6228 78.9451 0.0000 0.0000 0.0000
# 2 19.6228 37.0860 28.2086 0.0000 0.0000 0.0000
# 3 78.9451 28.2086 133.6143 0.0000 0.0000 0.0000
# 4 0.0000 0.0000 0.0000 8.9662 0.0000 0.0000
# 5 0.0000 0.0000 0.0000 0.0000 32.3825 0.0000
# 6 0.0000 0.0000 0.0000 0.0000 0.0000 8.5968
#
#
#
# Elastic Compliance Matrix: (Units=1/GPa)
#
#
# Indices 1 2 3 4 5 6 
#
# 1 0.016594 -0.001576 -0.009472 0.000000 0.000000 0.000000
# 2 -0.001576 0.032272 -0.005882 0.000000 0.000000 0.000000
# 3 -0.009472 -0.005882 0.014322 0.000000 0.000000 0.000000
# 4 0.000000 0.000000 0.000000 0.111530 0.000000 0.000000
# 5 0.000000 0.000000 0.000000 0.000000 0.030881 0.000000
# 6 0.000000 0.000000 0.000000 0.000000 0.000000 0.116322
#
#
# Mechanical properties :
#
#
# Convention : Reuss Voigt Hill
#
# Bulk Modulus (GPa) = 34.09575 59.04902 46.57238
# Shear Modulus (GPa) = 13.67775 20.06323 16.87049
#
# Velocity S-wave (km/s) = 3.01476 3.65129 3.34819
# Velocity P-wave (km/s) = 5.89702 7.55074 6.77453
#
# Compressibility (1/GPa) = 0.02932917
#
# Stress axis : x y z
#
# Youngs Moduli (GPa) = 60.26310 30.98629 69.82061
#
# Poissons Ratio (x) = 0.04882 0.66132
# Poissons Ratio (y) = 0.09495 0.41071
# Poissons Ratio (z) = 0.57080 0.18227
#
# Static dielectric constant tensor:
#      x y z
#    x 3.198960 0.000000 0.000000 
#    y 0.000000 2.485570 0.000000 
#    z 0.000000 0.000000 3.050530 
# 
# 
# High freq. dielectric constant tensor:
#      x y z
#    x 1.590250 0.000000 0.000000 
#    y 0.000000 1.515070 0.000000 
#    z 0.000000 0.000000 1.570370 
# 
# From -- ./inp_files/34622.got.cif
#   From: 2010.03.12/outbox.cif.g09.slc.cpg/sg51_18_cif.got.tgz:34622.got - 2010.04.16 13:43:02.
