data_PCOD8207945
_publ_section_title
;
Structure prediction by ZEFSAII (Michael W. Deem and Ramdas Pophale) SiO2 
 PCOD8207945
Probable space group: P M M A
;
_chemical_formula_sum "Si O2"
_cell_formula_units_Z 52
_cell_length_a 8.895196
_cell_length_b 18.567845
_cell_length_c 18.264200
_cell_angle_alpha 90.000000
_cell_angle_beta 90.000000
_cell_angle_gamma 90.000000
_cell_volume 3016.599663
_symmetry_space_group_name_H-M "P M M A"
_symmetry_group_IT_number 51
_symmetry_cell_setting 'orthorhombic'
loop_
_space_group_symop_operation_xyz
x,y,z
1/2-x,-y,z
1/2+x,-y,-z
-x,y,-z
-x,-y,-z
1/2+x,y,-z
1/2-x,y,z
x,-y,z
loop_
_atom_site_type_symbol
_atom_site_label
_atom_site_fract_x
_atom_site_fract_y
_atom_site_fract_z
Si Si1 0.928039 0.353916 0.342397
Si Si2 0.074536 0.500000 0.578658
Si Si3 0.084806 0.858621 0.285020
Si Si4 0.926708 0.921259 0.155830
Si Si5 0.070826 0.221798 0.922069
Si Si6 0.571547 0.778729 0.576448
Si Si7 0.418731 0.705846 0.207486
O O1 0.750000 0.342515 0.337597
O O2 0.974656 0.430693 0.374964
O O3 0.996890 0.294818 0.396421
O O4 0.996339 0.350255 0.260422
O O5 0.250000 0.500000 0.564207
O O6 0.000000 0.500000 0.500000
O O7 0.250000 0.894114 0.281998
O O8 0.033559 0.845321 0.368729
O O9 0.089343 0.780632 0.249102
O O10 0.973170 0.910010 0.240523
O O11 0.750000 0.919353 0.153565
O O12 0.988922 0.857346 0.104124
O O13 0.985778 0.000000 0.129099
O O14 0.250000 0.224480 0.925961
O O15 0.012408 0.283690 0.867332
O O16 0.000000 0.238429 0.000000
O O17 0.500000 0.801654 0.500000
O O18 0.750000 0.766582 0.570537
O O19 0.250000 0.678108 0.189648
#
# Coordination Sequence:
#
# PCOD8207945 Si02
#       7
#     8   4   8   8   8   8   8
#     4  10  19  32  48  68  95 128 162 194 231 275
#     4  10  22  34  46  68 101 136 167 198 232 274
#     4   8  16  29  44  63  86 112 147 190 232 275
#     4   9  18  31  46  65  90 121 155 187 224 275
#     4  10  19  31  48  71  99 127 154 190 234 276
#     4  10  19  30  45  67  91 116 151 195 240 282
#     4   9  17  31  49  69  92 120 157 197 234 275
#
# _framework density 17.237952
#
# number of rings (size 3 to 8) (size 9 to 14) (size 15 to 20)
#    0.000    2.615    0.000    3.231    0.000    8.000 
#    0.000    0.000    0.000    0.462    0.000    0.538 
#    0.000    0.000    0.000    0.000    0.000    0.000 
#
# Total GULP energy -644567.267246 kJ/mol
# GULP energy per Si atom -12395.524370 kJ/mol
# Density = 1.719872 g / cm^3
# Si number density = 17.237952 Si / 1000 Ang^3
#
#
#
# Elastic Constant Matrix: (Units=GPa)
#
#
# Indices 1 2 3 4 5 6 
#
# 1 69.9803 22.2566 43.8611 0.0000 0.0000 0.0000
# 2 22.2566 46.3804 36.8709 0.0000 0.0000 0.0000
# 3 43.8611 36.8709 140.8866 0.0000 0.0000 0.0000
# 4 0.0000 0.0000 0.0000 18.0050 0.0000 0.0000
# 5 0.0000 0.0000 0.0000 0.0000 34.2325 0.0000
# 6 0.0000 0.0000 0.0000 0.0000 0.0000 18.5124
#
#
#
# Elastic Compliance Matrix: (Units=1/GPa)
#
#
# Indices 1 2 3 4 5 6 
#
# 1 0.018810 -0.005519 -0.004412 0.000000 0.000000 0.000000
# 2 -0.005519 0.028844 -0.005830 0.000000 0.000000 0.000000
# 3 -0.004412 -0.005830 0.009997 0.000000 0.000000 0.000000
# 4 0.000000 0.000000 0.000000 0.055540 0.000000 0.000000
# 5 0.000000 0.000000 0.000000 0.000000 0.029212 0.000000
# 6 0.000000 0.000000 0.000000 0.000000 0.000000 0.054018
#
#
# Mechanical properties :
#
#
# Convention : Reuss Voigt Hill
#
# Bulk Modulus (GPa) = 38.27169 51.46938 44.87053
# Shear Modulus (GPa) = 21.12786 24.43389 22.78088
#
# Velocity S-wave (km/s) = 3.50474 3.76898 3.63926
# Velocity P-wave (km/s) = 6.21513 6.99023 6.61404
#
# Compressibility (1/GPa) = 0.02612898
#
# Stress axis : x y z
#
# Youngs Moduli (GPa) = 53.16283 34.66870 100.02818
#
# Poissons Ratio (x) = 0.19135 0.44128
# Poissons Ratio (y) = 0.29343 0.58321
# Poissons Ratio (z) = 0.23453 0.20213
#
# Static dielectric constant tensor:
#      x y z
#    x 3.332480 0.000000 0.000000 
#    y 0.000000 3.153060 0.000000 
#    z 0.000000 0.000000 3.276380 
# 
# 
# High freq. dielectric constant tensor:
#      x y z
#    x 1.674830 0.000000 0.000000 
#    y 0.000000 1.627840 0.000000 
#    z 0.000000 0.000000 1.665420 
# 
# From -- ./inp_files/27904.got.cif
#   From: 2010.03.12/outbox.cif.g09.slc.cpg/sg51_14_cif.got.tgz:27904.got - 2010.04.16 13:43:02.
