data_PCOD8207263
_publ_section_title
;
Structure prediction by ZEFSAII (Michael W. Deem and Ramdas Pophale) SiO2 
 PCOD8207263
Probable space group: P M M A
;
_chemical_formula_sum "Si O2"
_cell_formula_units_Z 64
_cell_length_a 19.274234
_cell_length_b 9.077293
_cell_length_c 20.593347
_cell_angle_alpha 90.000000
_cell_angle_beta 90.000000
_cell_angle_gamma 90.000000
_cell_volume 3602.968114
_symmetry_space_group_name_H-M "P M M A"
_symmetry_group_IT_number 51
_symmetry_cell_setting 'orthorhombic'
loop_
_space_group_symop_operation_xyz
x,y,z
1/2-x,-y,z
1/2+x,-y,-z
-x,y,-z
-x,-y,-z
1/2+x,y,-z
1/2-x,y,z
x,-y,z
loop_
_atom_site_type_symbol
_atom_site_label
_atom_site_fract_x
_atom_site_fract_y
_atom_site_fract_z
Si Si1 0.536803 0.667923 0.931132
Si Si2 0.671255 0.328935 0.494634
Si Si3 0.532541 0.826355 0.688444
Si Si4 0.171103 0.671915 0.861538
Si Si5 0.674554 0.325034 0.991820
Si Si6 0.540597 0.174851 0.182869
Si Si7 0.953628 0.173833 0.438606
Si Si8 0.327261 0.171168 0.370017
O O1 0.535436 0.500000 0.905054
O O2 0.615526 0.727524 0.941700
O O3 0.499887 0.773768 0.880791
O O4 0.500000 0.676462 0.000000
O O5 0.750000 0.301645 0.471359
O O6 0.653230 0.500000 0.498281
O O7 0.621181 0.250965 0.442934
O O8 0.659072 0.262377 0.565481
O O9 0.500364 0.761338 0.754537
O O10 0.490844 0.765820 0.626170
O O11 0.614270 0.782817 0.682660
O O12 0.524631 0.000000 0.690226
O O13 0.250000 0.700440 0.838265
O O14 0.152452 0.500000 0.857274
O O15 0.118583 0.761122 0.815594
O O16 0.160792 0.731627 0.935005
O O17 0.750000 0.268358 0.967364
O O18 0.673978 0.500000 0.996066
O O19 0.544590 0.000000 0.183190
O O20 0.000000 0.220333 0.500000
O O21 0.942087 0.000000 0.436415
O O22 0.250000 0.202685 0.341603
O O23 0.335922 0.000000 0.388916
#
# Coordination Sequence:
#
# PCOD8207263 Si02
#       8
#     8   8   8   8   8   8   8   8
#     4  10  18  32  54  76 100 132 176 219 253 300
#     4  10  20  32  48  77 113 137 160 208 270 317
#     4   9  19  35  51  75 106 135 170 214 260 305
#     4   9  17  33  56  77  98 130 175 217 252 302
#     4   8  14  27  50  76  98 125 166 217 261 293
#     4  11  22  34  50  75 112 143 166 208 266 318
#     4  10  18  33  57  77  96 129 176 220 250 297
#     4   9  16  31  56  77  95 131 182 220 247 296
#
# _framework density 17.763133
#
# number of rings (size 3 to 8) (size 9 to 14) (size 15 to 20)
#    0.000    2.500    2.500    1.500    0.000    1.500 
#    0.000    3.750    0.000    4.875    0.000    0.000 
#    0.000    0.000    0.000    0.000    0.000    0.000 
#
# Total GULP energy -793357.111606 kJ/mol
# GULP energy per Si atom -12396.204869 kJ/mol
# Density = 1.772270 g / cm^3
# Si number density = 17.763133 Si / 1000 Ang^3
#
#
#
# Elastic Constant Matrix: (Units=GPa)
#
#
# Indices 1 2 3 4 5 6 
#
# 1 158.4601 43.3685 59.8497 0.0000 0.0000 0.0000
# 2 43.3685 46.6887 26.8708 0.0000 0.0000 0.0000
# 3 59.8497 26.8708 80.3653 0.0000 0.0000 0.0000
# 4 0.0000 0.0000 0.0000 9.0917 0.0000 0.0000
# 5 0.0000 0.0000 0.0000 0.0000 28.3656 0.0000
# 6 0.0000 0.0000 0.0000 0.0000 0.0000 26.1791
#
#
#
# Elastic Compliance Matrix: (Units=1/GPa)
#
#
# Indices 1 2 3 4 5 6 
#
# 1 0.010058 -0.006231 -0.005407 0.000000 0.000000 0.000000
# 2 -0.006231 0.030382 -0.005518 0.000000 0.000000 0.000000
# 3 -0.005407 -0.005518 0.018315 0.000000 0.000000 0.000000
# 4 0.000000 0.000000 0.000000 0.109991 0.000000 0.000000
# 5 0.000000 0.000000 0.000000 0.000000 0.035254 0.000000
# 6 0.000000 0.000000 0.000000 0.000000 0.000000 0.038198
#
#
# Mechanical properties :
#
#
# Convention : Reuss Voigt Hill
#
# Bulk Modulus (GPa) = 40.91186 60.63243 50.77214
# Shear Modulus (GPa) = 17.56482 23.08894 20.32688
#
# Velocity S-wave (km/s) = 3.14799 3.60922 3.38646
# Velocity P-wave (km/s) = 6.02453 7.18168 6.62841
#
# Compressibility (1/GPa) = 0.02444279
#
# Stress axis : x y z
#
# Youngs Moduli (GPa) = 99.41935 32.91389 54.59952
#
# Poissons Ratio (x) = 0.20509 0.29524
# Poissons Ratio (y) = 0.61949 0.30129
# Poissons Ratio (z) = 0.53759 0.18163
#
# Static dielectric constant tensor:
#      x y z
#    x 3.864000 0.000000 0.000000 
#    y 0.000000 3.026940 0.000000 
#    z 0.000000 0.000000 3.191090 
# 
# 
# High freq. dielectric constant tensor:
#      x y z
#    x 1.709740 0.000000 0.000000 
#    y 0.000000 1.659440 0.000000 
#    z 0.000000 0.000000 1.654880 
# 
# From -- ./inp_files/30519.got.cif
#   From: 2010.03.12/outbox.cif.g09.slc.cpg/sg51_16_cif.got.tgz:30519.got - 2010.04.16 13:43:02.
