data_PCOD8207687
_publ_section_title
;
Structure prediction by ZEFSAII (Michael W. Deem and Ramdas Pophale) SiO2 
 PCOD8207687
Probable space group: P M M A
;
_chemical_formula_sum "Si O2"
_cell_formula_units_Z 48
_cell_length_a 14.836089
_cell_length_b 14.343899
_cell_length_c 14.757455
_cell_angle_alpha 90.000000
_cell_angle_beta 90.000000
_cell_angle_gamma 90.000000
_cell_volume 3140.495071
_symmetry_space_group_name_H-M "P M M A"
_symmetry_group_IT_number 51
_symmetry_cell_setting 'orthorhombic'
loop_
_space_group_symop_operation_xyz
x,y,z
1/2-x,-y,z
1/2+x,-y,-z
-x,y,-z
-x,-y,-z
1/2+x,y,-z
1/2-x,y,z
x,-y,z
loop_
_atom_site_type_symbol
_atom_site_label
_atom_site_fract_x
_atom_site_fract_y
_atom_site_fract_z
Si Si1 0.442427 0.889290 0.583363
Si Si2 0.498248 0.256950 0.107572
Si Si3 0.750000 0.111110 0.477067
Si Si4 0.150311 0.397489 0.102760
Si Si5 0.149263 0.603453 0.887539
Si Si6 0.750000 0.889674 0.682296
Si Si7 0.443693 0.110263 0.244862
O O1 0.500000 0.848339 0.500000
O O2 0.339177 0.852793 0.575887
O O3 0.490169 0.855795 0.675079
O O4 0.443641 0.000000 0.578663
O O5 0.416218 0.320794 0.141398
O O6 0.586308 0.311442 0.144767
O O7 0.483561 0.157411 0.154452
O O8 0.500000 0.240383 0.000000
O O9 0.750000 0.150691 0.579929
O O10 0.750000 0.000000 0.480647
O O11 0.250000 0.371929 0.137001
O O12 0.122285 0.500000 0.138511
O O13 0.146437 0.398490 0.995100
O O14 0.250000 0.624216 0.852143
O O15 0.118021 0.500000 0.853081
O O16 0.840726 0.857578 0.734715
O O17 0.750000 0.000000 0.674963
O O18 0.448332 0.000000 0.229669
#
# Coordination Sequence:
#
# PCOD8207687 Si02
#       7
#     8   8   4   8   8   4   8
#     4   9  15  26  44  64  84 107 138 181 234 276
#     4  10  19  29  43  62  87 125 157 184 208 252
#     4   9  14  24  46  67  81 102 135 183 243 289
#     4   8  14  25  43  66  86 103 133 182 237 279
#     4   8  14  27  46  64  82 106 140 185 232 270
#     4   9  16  28  46  65  82 108 149 189 228 269
#     4  10  20  31  43  62  90 123 156 187 215 252
#
# _framework density 15.284215
#
# number of rings (size 3 to 8) (size 9 to 14) (size 15 to 20)
#    0.000    3.000    1.667    1.500    1.167    2.333 
#    1.500    0.000    0.000    0.000    0.000    0.000 
#    0.000    2.667    0.000    5.000    0.000    0.333 
#
# Total GULP energy -594728.076153 kJ/mol
# GULP energy per Si atom -12390.168253 kJ/mol
# Density = 1.524943 g / cm^3
# Si number density = 15.284215 Si / 1000 Ang^3
#
#
#
# Elastic Constant Matrix: (Units=GPa)
#
#
# Indices 1 2 3 4 5 6 
#
# 1 123.0768 40.5226 41.7231 0.0000 0.0000 0.0000
# 2 40.5226 52.5296 32.2058 0.0000 0.0000 0.0000
# 3 41.7231 32.2058 56.1896 0.0000 0.0000 0.0000
# 4 0.0000 0.0000 0.0000 2.4210 0.0000 0.0000
# 5 0.0000 0.0000 0.0000 0.0000 18.6035 0.0000
# 6 0.0000 0.0000 0.0000 0.0000 0.0000 10.8690
#
#
#
# Elastic Compliance Matrix: (Units=1/GPa)
#
#
# Indices 1 2 3 4 5 6 
#
# 1 0.011905 -0.005803 -0.005514 0.000000 0.000000 0.000000
# 2 -0.005803 0.032180 -0.014135 0.000000 0.000000 0.000000
# 3 -0.005514 -0.014135 0.029993 0.000000 0.000000 0.000000
# 4 0.000000 0.000000 0.000000 0.413054 0.000000 0.000000
# 5 0.000000 0.000000 0.000000 0.000000 0.053753 0.000000
# 6 0.000000 0.000000 0.000000 0.000000 0.000000 0.092005
#
#
# Mechanical properties :
#
#
# Convention : Reuss Voigt Hill
#
# Bulk Modulus (GPa) = 43.15298 51.18880 47.17089
# Shear Modulus (GPa) = 7.23047 14.20166 10.71607
#
# Velocity S-wave (km/s) = 2.17737 3.05154 2.65074
# Velocity P-wave (km/s) = 5.88356 6.78084 6.34807
#
# Compressibility (1/GPa) = 0.02317337
#
# Stress axis : x y z
#
# Youngs Moduli (GPa) = 83.99947 31.07517 33.34135
#
# Poissons Ratio (x) = 0.18034 0.18383
# Poissons Ratio (y) = 0.48748 0.47129
# Poissons Ratio (z) = 0.46314 0.43925
#
# Static dielectric constant tensor:
#      x y z
#    x 3.414540 0.000000 0.000000 
#    y 0.000000 2.659550 0.000000 
#    z 0.000000 0.000000 2.576200 
# 
# 
# High freq. dielectric constant tensor:
#      x y z
#    x 1.607580 0.000000 0.000000 
#    y 0.000000 1.546440 0.000000 
#    z 0.000000 0.000000 1.541720 
# 
# From -- ./inp_files/16495.got.cif
#   From: 2010.03.12/outbox.cif.g09.slc.cpg/sg51_9_cif.got.tgz:16495.got - 2010.04.16 13:43:02.
