data_PCOD8207020
_publ_section_title
;
Structure prediction by ZEFSAII (Michael W. Deem and Ramdas Pophale) SiO2 
 PCOD8207020
Probable space group: P M M A
;
_chemical_formula_sum "Si O2"
_cell_formula_units_Z 64
_cell_length_a 19.459261
_cell_length_b 13.232411
_cell_length_c 11.852513
_cell_angle_alpha 90.000000
_cell_angle_beta 90.000000
_cell_angle_gamma 90.000000
_cell_volume 3051.938411
_symmetry_space_group_name_H-M "P M M A"
_symmetry_group_IT_number 51
_symmetry_cell_setting 'orthorhombic'
loop_
_space_group_symop_operation_xyz
x,y,z
1/2-x,-y,z
1/2+x,-y,-z
-x,y,-z
-x,-y,-z
1/2+x,y,-z
1/2-x,y,z
x,-y,z
loop_
_atom_site_type_symbol
_atom_site_label
_atom_site_fract_x
_atom_site_fract_y
_atom_site_fract_z
Si Si1 0.942788 0.880506 0.913666
Si Si2 0.855033 0.884606 0.340972
Si Si3 0.982849 0.887887 0.670781
Si Si4 0.897002 0.618217 0.727737
Si Si5 0.946942 0.615048 0.328385
Si Si6 0.394247 0.250144 0.476821
Si Si7 0.328209 0.730683 0.068603
Si Si8 0.825470 0.294049 0.190631
O O1 0.964311 0.840136 0.791186
O O2 0.867386 0.837387 0.937083
O O3 0.938654 0.000000 0.923208
O O4 0.000000 0.838031 0.000000
O O5 0.836692 0.815314 0.452349
O O6 0.830140 0.824804 0.229207
O O7 0.936325 0.888030 0.340573
O O8 0.824780 0.000000 0.344668
O O9 0.948541 0.828203 0.571137
O O10 0.952586 0.000000 0.663380
O O11 0.880596 0.500000 0.711119
O O12 0.861905 0.681816 0.624313
O O13 0.865548 0.652835 0.846893
O O14 0.979086 0.639598 0.726767
O O15 0.942167 0.500000 0.365309
O O16 0.937836 0.678700 0.440928
O O17 0.885942 0.639469 0.242187
O O18 0.250000 0.748709 0.108713
O O19 0.330814 0.688334 0.942526
O O20 0.750000 0.333132 0.229807
#
# Coordination Sequence:
#
# PCOD8207020 Si02
#       8
#     8   8   8   8   8   8   8   8
#     4  10  21  36  61  93 125 164 210 256 302 361
#     4  10  20  34  58  92 127 160 202 251 305 371
#     4  10  18  30  54  91 125 158 198 243 299 360
#     4  11  23  39  62  92 126 163 209 264 318 378
#     4  10  22  39  63  93 119 153 205 265 324 376
#     4  11  19  34  61  94 128 162 199 258 317 378
#     4  11  25  42  63  90 125 172 214 256 316 383
#     4  10  23  41  61  86 118 159 205 258 320 377
#
# _framework density 20.970279000000001
#
# number of rings (size 3 to 8) (size 9 to 14) (size 15 to 20)
#    0.000    1.625    1.250    4.500    1.750    5.000 
#    0.000    6.250    0.000    3.000    0.000    0.000 
#    0.000    0.000    0.000    0.000    0.000    0.000 
#
# Total GULP energy -793207.660505 kJ/mol
# GULP energy per Si atom -12393.869695 kJ/mol
# Density = 2.092255 g / cm^3
# Si number density = 20.970279 Si / 1000 Ang^3
#
#
#
# Elastic Constant Matrix: (Units=GPa)
#
#
# Indices 1 2 3 4 5 6 
#
# 1 72.3298 33.1958 51.0946 0.0000 0.0000 0.0000
# 2 33.1958 96.8512 44.7327 0.0000 0.0000 0.0000
# 3 51.0946 44.7327 135.2305 0.0000 0.0000 0.0000
# 4 0.0000 0.0000 0.0000 24.4460 0.0000 0.0000
# 5 0.0000 0.0000 0.0000 0.0000 -40.4112 0.0000
# 6 0.0000 0.0000 0.0000 0.0000 0.0000 11.0204
#
#
#
# Elastic Compliance Matrix: (Units=1/GPa)
#
#
# Indices 1 2 3 4 5 6 
#
# 1 0.020085 -0.003988 -0.006269 0.000000 0.000000 0.000000
# 2 -0.003988 0.012979 -0.002786 0.000000 0.000000 0.000000
# 3 -0.006269 -0.002786 0.010685 0.000000 0.000000 0.000000
# 4 0.000000 0.000000 0.000000 0.040907 0.000000 0.000000
# 5 0.000000 0.000000 0.000000 0.000000 -0.024746 0.000000
# 6 0.000000 0.000000 0.000000 0.000000 0.000000 0.090741
#
#
# Mechanical properties :
#
#
# Convention : Reuss Voigt Hill
#
# Bulk Modulus (GPa) = 56.62259 62.49529 59.55894
# Shear Modulus (GPa) = 27.37834 10.70360 19.04097
#
# Velocity S-wave (km/s) = 3.61720 2.26169 3.01657
# Velocity P-wave (km/s) = 6.67124 6.05697 6.37151
#
# Compressibility (1/GPa) = 0.01766080
#
# Stress axis : x y z
#
# Youngs Moduli (GPa) = 49.78892 77.04691 93.58686
#
# Poissons Ratio (x) = 0.30730 0.58673
# Poissons Ratio (y) = 0.19858 0.26077
# Poissons Ratio (z) = 0.31215 0.21468
#
# Static dielectric constant tensor:
#      x y z
#    x 3.681900 0.000000 0.000000 
#    y 0.000000 4.242670 0.000000 
#    z 0.000000 0.000000 4.142570 
# 
# 
# High freq. dielectric constant tensor:
#      x y z
#    x 1.798750 0.000000 0.000000 
#    y 0.000000 1.828580 0.000000 
#    z 0.000000 0.000000 1.833430 
# 
# From -- ./inp_files/17552.got.cif
#   From: 2010.03.12/outbox.cif.g09.slc.cpg/sg51_9_cif.got.tgz:17552.got - 2010.04.16 13:43:02.
