data_PCOD8207300
_publ_section_title
;
Structure prediction by ZEFSAII (Michael W. Deem and Ramdas Pophale) SiO2 
 PCOD8207300
Probable space group: P M M A
;
_chemical_formula_sum "Si O2"
_cell_formula_units_Z 64
_cell_length_a 9.150427
_cell_length_b 19.807371
_cell_length_c 20.134154
_cell_angle_alpha 90.000000
_cell_angle_beta 90.000000
_cell_angle_gamma 90.000000
_cell_volume 3649.232911
_symmetry_space_group_name_H-M "P M M A"
_symmetry_group_IT_number 51
_symmetry_cell_setting 'orthorhombic'
loop_
_space_group_symop_operation_xyz
x,y,z
1/2-x,-y,z
1/2+x,-y,-z
-x,y,-z
-x,-y,-z
1/2+x,y,-z
1/2-x,y,z
x,-y,z
loop_
_atom_site_type_symbol
_atom_site_label
_atom_site_fract_x
_atom_site_fract_y
_atom_site_fract_z
Si Si1 0.586131 0.233750 0.399191
Si Si2 0.082619 0.202859 0.750106
Si Si3 0.576092 0.664856 0.178171
Si Si4 0.419042 0.424481 0.703431
Si Si5 0.421202 0.108216 0.436403
Si Si6 0.579197 0.925349 0.710266
Si Si7 0.921801 0.576601 0.930065
Si Si8 0.916020 0.385578 0.436274
O O1 0.750000 0.204266 0.410081
O O2 0.554210 0.239376 0.320370
O O3 0.466914 0.186649 0.434323
O O4 0.571336 0.305379 0.433364
O O5 0.250000 0.182593 0.758667
O O6 0.038644 0.255938 0.808529
O O7 0.994974 0.132383 0.755190
O O8 0.750000 0.654010 0.168624
O O9 0.513213 0.624564 0.241749
O O10 0.490767 0.634813 0.115731
O O11 0.250000 0.404443 0.694917
O O12 0.441505 0.500000 0.729610
O O13 0.490463 0.415541 0.630600
O O14 0.500000 0.073351 0.500000
O O15 0.250000 0.099888 0.446623
O O16 0.473753 0.075794 0.366715
O O17 0.750000 0.910485 0.712405
O O18 0.542031 0.000000 0.738822
O O19 0.750000 0.590511 0.938071
O O20 0.948910 0.500000 0.902709
O O21 0.000000 0.584607 0.000000
O O22 0.750000 0.410395 0.443055
O O23 0.000000 0.414047 0.500000
#
# Coordination Sequence:
#
# PCOD8207300 Si02
#       8
#     8   8   8   8   8   8   8   8
#     4   9  16  29  45  61  85 112 146 195 247 299
#     4   9  17  30  50  74  97 122 159 205 250 298
#     4  10  18  32  55  80 103 132 170 212 254 298
#     4   9  17  30  48  67  88 120 161 201 246 301
#     4  10  19  29  42  61  83 110 148 192 245 307
#     4   9  19  34  48  64  91 125 159 199 251 309
#     4  10  21  36  54  80 115 151 183 213 247 291
#     4  10  19  30  43  60  82 112 152 200 252 303
#
# _framework density 17.537932999999999
#
# number of rings (size 3 to 8) (size 9 to 14) (size 15 to 20)
#    0.000    2.500    1.250    1.500    0.000    4.500 
#    0.000    0.625    0.000    0.750    0.000    0.000 
#    0.000    0.500    0.000    1.625    0.000    2.375 
#
# Total GULP energy -793228.635114 kJ/mol
# GULP energy per Si atom -12394.197424 kJ/mol
# Density = 1.749802 g / cm^3
# Si number density = 17.537933 Si / 1000 Ang^3
#
#
#
# Elastic Constant Matrix: (Units=GPa)
#
#
# Indices 1 2 3 4 5 6 
#
# 1 61.6857 39.9186 35.6063 0.0000 0.0000 0.0000
# 2 39.9186 95.5997 45.2067 0.0000 0.0000 0.0000
# 3 35.6063 45.2067 77.0621 0.0000 0.0000 0.0000
# 4 0.0000 0.0000 0.0000 14.8047 0.0000 0.0000
# 5 0.0000 0.0000 0.0000 0.0000 25.7186 0.0000
# 6 0.0000 0.0000 0.0000 0.0000 0.0000 18.3640
#
#
#
# Elastic Compliance Matrix: (Units=1/GPa)
#
#
# Indices 1 2 3 4 5 6 
#
# 1 0.025006 -0.006889 -0.007513 0.000000 0.000000 0.000000
# 2 -0.006889 0.016374 -0.006422 0.000000 0.000000 0.000000
# 3 -0.007513 -0.006422 0.020215 0.000000 0.000000 0.000000
# 4 0.000000 0.000000 0.000000 0.067546 0.000000 0.000000
# 5 0.000000 0.000000 0.000000 0.000000 0.038882 0.000000
# 6 0.000000 0.000000 0.000000 0.000000 0.000000 0.054454
#
#
# Mechanical properties :
#
#
# Convention : Reuss Voigt Hill
#
# Bulk Modulus (GPa) = 50.13260 52.86784 51.50022
# Shear Modulus (GPa) = 18.46559 19.35185 18.90872
#
# Velocity S-wave (km/s) = 3.24835 3.32539 3.28710
# Velocity P-wave (km/s) = 6.53578 6.70482 6.62084
#
# Compressibility (1/GPa) = 0.01994710
#
# Stress axis : x y z
#
# Youngs Moduli (GPa) = 39.99100 61.07344 49.46770
#
# Poissons Ratio (x) = 0.42072 0.37163
# Poissons Ratio (y) = 0.27549 0.31770
# Poissons Ratio (z) = 0.30044 0.39223
#
# Static dielectric constant tensor:
#      x y z
#    x 3.109410 0.000000 0.000000 
#    y 0.000000 3.223580 0.000000 
#    z 0.000000 0.000000 3.075200 
# 
# 
# High freq. dielectric constant tensor:
#      x y z
#    x 1.659950 0.000000 0.000000 
#    y 0.000000 1.674200 0.000000 
#    z 0.000000 0.000000 1.644780 
# 
# From -- ./inp_files/32648.got.cif
#   From: 2010.03.12/outbox.cif.g09.slc.cpg/sg51_17_cif.got.tgz:32648.got - 2010.04.16 13:43:02.
