data_PCOD8207757
_publ_section_title
;
Structure prediction by ZEFSAII (Michael W. Deem and Ramdas Pophale) SiO2 
 PCOD8207757
Probable space group: P M M A
;
_chemical_formula_sum "Si O2"
_cell_formula_units_Z 64
_cell_length_a 19.789741
_cell_length_b 13.734215
_cell_length_c 15.486568
_cell_angle_alpha 90.000000
_cell_angle_beta 90.000000
_cell_angle_gamma 90.000000
_cell_volume 4209.195873
_symmetry_space_group_name_H-M "P M M A"
_symmetry_group_IT_number 51
_symmetry_cell_setting 'orthorhombic'
loop_
_space_group_symop_operation_xyz
x,y,z
1/2-x,-y,z
1/2+x,-y,-z
-x,y,-z
-x,-y,-z
1/2+x,y,-z
1/2-x,y,z
x,-y,z
loop_
_atom_site_type_symbol
_atom_site_label
_atom_site_fract_x
_atom_site_fract_y
_atom_site_fract_z
Si Si1 0.033878 0.890508 0.137279
Si Si2 0.919571 0.391844 0.413930
Si Si3 0.420741 0.389936 0.401461
Si Si4 0.567935 0.702053 0.773032
Si Si5 0.577871 0.384191 0.228085
Si Si6 0.672569 0.387021 0.902438
Si Si7 0.895345 0.109478 0.041726
Si Si8 0.673181 0.299354 0.084259
O O1 0.051854 0.816552 0.214743
O O2 0.958800 0.869436 0.103414
O O3 0.039465 0.000000 0.174388
O O4 0.084877 0.876371 0.057891
O O5 0.889521 0.500000 0.416982
O O6 0.895041 0.344350 0.505607
O O7 0.897344 0.343135 0.322855
O O8 0.999668 0.397144 0.408840
O O9 0.392159 0.500000 0.385304
O O10 0.401330 0.318585 0.322498
O O11 0.500419 0.639914 0.790043
O O12 0.624464 0.674096 0.841376
O O13 0.586198 0.500000 0.223353
O O14 0.624706 0.332244 0.159985
O O15 0.750000 0.357569 0.883168
O O16 0.659916 0.500000 0.885397
O O17 0.654241 0.363243 0.001105
O O18 0.836546 0.185016 0.064697
O O19 0.868321 0.000000 0.056874
O O20 0.750000 0.317211 0.112817
#
# Coordination Sequence:
#
# PCOD8207757 Si02
#       8
#     8   8   8   8   8   8   8   8
#     4   9  17  29  47  67  89 113 143 190 239 263
#     4   7  12  24  39  60  91 114 140 183 223 252
#     4   8  13  22  40  67  91 112 140 179 221 261
#     4  11  17  28  49  69  87 113 154 188 216 265
#     4  10  19  29  45  68  89 118 157 190 214 255
#     4  10  21  33  42  59  94 129 147 170 216 266
#     4   9  17  32  47  62  85 116 152 192 230 261
#     4  11  21  32  44  62  90 125 154 182 223 266
#
# _framework density 15.204805
#
# number of rings (size 3 to 8) (size 9 to 14) (size 15 to 20)
#    0.000    2.625    2.500    3.750    0.000    1.500 
#    0.000    1.250    0.000    1.125    0.000    9.625 
#    0.000    0.000    0.000    0.000    0.250    0.000 
#
# Total GULP energy -792898.759847 kJ/mol
# GULP energy per Si atom -12389.043123 kJ/mol
# Density = 1.517020 g / cm^3
# Si number density = 15.204805 Si / 1000 Ang^3
#
#
#
# Elastic Constant Matrix: (Units=GPa)
#
#
# Indices 1 2 3 4 5 6 
#
# 1 36.6406 7.1218 28.0495 0.0000 0.0000 0.0000
# 2 7.1218 62.5020 21.8016 0.0000 0.0000 0.0000
# 3 28.0495 21.8016 87.1540 0.0000 0.0000 0.0000
# 4 0.0000 0.0000 0.0000 11.2354 0.0000 0.0000
# 5 0.0000 0.0000 0.0000 0.0000 5.0714 0.0000
# 6 0.0000 0.0000 0.0000 0.0000 0.0000 14.2906
#
#
#
# Elastic Compliance Matrix: (Units=1/GPa)
#
#
# Indices 1 2 3 4 5 6 
#
# 1 0.036215 -0.000067 -0.011639 0.000000 0.000000 0.000000
# 2 -0.000067 0.017529 -0.004363 0.000000 0.000000 0.000000
# 3 -0.011639 -0.004363 0.016311 0.000000 0.000000 0.000000
# 4 0.000000 0.000000 0.000000 0.089004 0.000000 0.000000
# 5 0.000000 0.000000 0.000000 0.000000 0.197183 0.000000
# 6 0.000000 0.000000 0.000000 0.000000 0.000000 0.069976
#
#
# Mechanical properties :
#
#
# Convention : Reuss Voigt Hill
#
# Bulk Modulus (GPa) = 26.37301 33.36028 29.86664
# Shear Modulus (GPa) = 10.61581 14.74106 12.67843
#
# Velocity S-wave (km/s) = 2.64519 3.11706 2.89077
# Velocity P-wave (km/s) = 5.16839 5.91126 5.55226
#
# Compressibility (1/GPa) = 0.03791755
#
# Stress axis : x y z
#
# Youngs Moduli (GPa) = 27.61293 57.04788 61.30747
#
# Poissons Ratio (x) = 0.00381 0.71354
# Poissons Ratio (y) = 0.00184 0.26751
# Poissons Ratio (z) = 0.32138 0.24892
#
# Static dielectric constant tensor:
#      x y z
#    x 2.635290 0.000000 0.000000 
#    y 0.000000 2.843620 0.000000 
#    z 0.000000 0.000000 3.372850 
# 
# 
# High freq. dielectric constant tensor:
#      x y z
#    x 1.551650 0.000000 0.000000 
#    y 0.000000 1.564050 0.000000 
#    z 0.000000 0.000000 1.583430 
# 
# From -- ./inp_files/25357.got.cif
#   From: 2010.03.12/outbox.cif.g09.slc.cpg/sg51_13_cif.got.tgz:25357.got - 2010.04.16 13:43:02.
