data_PCOD8207821
_publ_section_title
;
Structure prediction by ZEFSAII (Michael W. Deem and Ramdas Pophale) SiO2 
 PCOD8207821
Probable space group: P M M A
;
_chemical_formula_sum "Si O2"
_cell_formula_units_Z 56
_cell_length_a 9.089112
_cell_length_b 22.829751
_cell_length_c 14.559547
_cell_angle_alpha 90.000000
_cell_angle_beta 90.000000
_cell_angle_gamma 90.000000
_cell_volume 3021.137506
_symmetry_space_group_name_H-M "P M M A"
_symmetry_group_IT_number 51
_symmetry_cell_setting 'orthorhombic'
loop_
_space_group_symop_operation_xyz
x,y,z
1/2-x,-y,z
1/2+x,-y,-z
-x,y,-z
-x,-y,-z
1/2+x,y,-z
1/2-x,y,z
x,-y,z
loop_
_atom_site_type_symbol
_atom_site_label
_atom_site_fract_x
_atom_site_fract_y
_atom_site_fract_z
Si Si1 0.414207 0.826960 0.852350
Si Si2 0.578652 0.672822 0.713244
Si Si3 0.422702 0.109830 0.412746
Si Si4 0.914332 0.219282 0.352291
Si Si5 0.578579 0.434261 0.592226
Si Si6 0.079378 0.066546 0.213571
Si Si7 0.423276 0.284309 0.088357
O O1 0.250000 0.829855 0.895372
O O2 0.405690 0.805268 0.749353
O O3 0.486362 0.891603 0.853676
O O4 0.515815 0.782046 0.908003
O O5 0.750000 0.688262 0.701881
O O6 0.488027 0.716878 0.648836
O O7 0.540546 0.607523 0.678479
O O8 0.533828 0.678939 0.820452
O O9 0.500000 0.078047 0.500000
O O10 0.250000 0.111418 0.429253
O O11 0.484511 0.176052 0.411027
O O12 0.464391 0.075043 0.320335
O O13 0.750000 0.223555 0.394588
O O14 0.500000 0.411845 0.500000
O O15 0.750000 0.432763 0.570684
O O16 0.526175 0.500000 0.618159
O O17 0.250000 0.082549 0.200922
O O18 0.045150 0.000000 0.185188
O O19 0.250000 0.282309 0.073280
O O20 0.500000 0.315070 0.000000
#
# Coordination Sequence:
#
# PCOD8207821 Si02
#       7
#     8   8   8   8   8   8   8
#     4   9  17  30  48  70  94 120 153 192 235 286
#     4   9  18  32  50  73 102 135 168 204 249 298
#     4  10  19  30  43  60  86 119 155 198 247 298
#     4   9  17  29  45  65  89 118 153 194 240 290
#     4   9  18  33  52  74 101 135 175 214 250 290
#     4   9  18  32  48  65  87 119 158 198 243 295
#     4  10  19  32  52  77 104 133 164 201 247 299
#
# _framework density 18.536065000000001
#
# number of rings (size 3 to 8) (size 9 to 14) (size 15 to 20)
#    0.000    2.714    0.000    1.714    0.000    6.286 
#    0.000    1.429    0.000    0.857    0.000    0.000 
#    0.000    0.000    0.000    0.000    0.000    0.429 
#
# Total GULP energy -694238.618601 kJ/mol
# GULP energy per Si atom -12397.118189 kJ/mol
# Density = 1.849388 g / cm^3
# Si number density = 18.536065 Si / 1000 Ang^3
#
#
#
# Elastic Constant Matrix: (Units=GPa)
#
#
# Indices 1 2 3 4 5 6 
#
# 1 79.5960 33.0010 28.9357 0.0000 0.0000 0.0000
# 2 33.0010 95.7941 34.4417 0.0000 0.0000 0.0000
# 3 28.9357 34.4417 68.1284 0.0000 0.0000 0.0000
# 4 0.0000 0.0000 0.0000 17.8874 0.0000 0.0000
# 5 0.0000 0.0000 0.0000 0.0000 28.6136 0.0000
# 6 0.0000 0.0000 0.0000 0.0000 0.0000 22.1871
#
#
#
# Elastic Compliance Matrix: (Units=1/GPa)
#
#
# Indices 1 2 3 4 5 6 
#
# 1 0.015873 -0.003721 -0.004861 0.000000 0.000000 0.000000
# 2 -0.003721 0.013630 -0.005310 0.000000 0.000000 0.000000
# 3 -0.004861 -0.005310 0.019427 0.000000 0.000000 0.000000
# 4 0.000000 0.000000 0.000000 0.055905 0.000000 0.000000
# 5 0.000000 0.000000 0.000000 0.000000 0.034948 0.000000
# 6 0.000000 0.000000 0.000000 0.000000 0.000000 0.045071
#
#
# Mechanical properties :
#
#
# Convention : Reuss Voigt Hill
#
# Bulk Modulus (GPa) = 47.28805 48.47503 47.88154
# Shear Modulus (GPa) = 22.75958 23.54695 23.15327
#
# Velocity S-wave (km/s) = 3.50788 3.56804 3.53809
# Velocity P-wave (km/s) = 6.47871 6.57138 6.52521
#
# Compressibility (1/GPa) = 0.02114699
#
# Stress axis : x y z
#
# Youngs Moduli (GPa) = 62.99975 73.36705 51.47415
#
# Poissons Ratio (x) = 0.27297 0.25020
# Poissons Ratio (y) = 0.23440 0.27335
# Poissons Ratio (z) = 0.30622 0.38960
#
# Static dielectric constant tensor:
#      x y z
#    x 3.545350 0.000000 0.000000 
#    y 0.000000 3.342260 0.000000 
#    z 0.000000 0.000000 3.383910 
# 
# 
# High freq. dielectric constant tensor:
#      x y z
#    x 1.725740 0.000000 0.000000 
#    y 0.000000 1.694870 0.000000 
#    z 0.000000 0.000000 1.705720 
# 
# From -- ./inp_files/21745.got.cif
#   From: 2010.03.12/outbox.cif.g09.slc.cpg/sg51_11_cif.got.tgz:21745.got - 2010.04.16 13:43:02.
