data_PCOD8207143
_publ_section_title
;
Structure prediction by ZEFSAII (Michael W. Deem and Ramdas Pophale) SiO2 
 PCOD8207143
Probable space group: P M M A
;
_chemical_formula_sum "Si O2"
_cell_formula_units_Z 64
_cell_length_a 20.177518
_cell_length_b 8.724410
_cell_length_c 19.814073
_cell_angle_alpha 90.000000
_cell_angle_beta 90.000000
_cell_angle_gamma 90.000000
_cell_volume 3488.008776
_symmetry_space_group_name_H-M "P M M A"
_symmetry_group_IT_number 51
_symmetry_cell_setting 'orthorhombic'
loop_
_space_group_symop_operation_xyz
x,y,z
1/2-x,-y,z
1/2+x,-y,-z
-x,y,-z
-x,-y,-z
1/2+x,y,-z
1/2-x,y,z
x,-y,z
loop_
_atom_site_type_symbol
_atom_site_label
_atom_site_fract_x
_atom_site_fract_y
_atom_site_fract_z
Si Si1 0.910777 0.824695 0.691401
Si Si2 0.545190 0.322711 0.332980
Si Si3 0.562402 0.680246 0.181785
Si Si4 0.923431 0.822662 0.844678
Si Si5 0.674452 0.321844 0.950222
Si Si6 0.822236 0.180079 0.571065
Si Si7 0.931063 0.181510 0.469787
Si Si8 0.326407 0.178453 0.907672
O O1 0.894998 0.796416 0.769649
O O2 0.846077 0.786720 0.647509
O O3 0.967429 0.712731 0.664730
O O4 0.934609 0.000000 0.679357
O O5 0.557616 0.500000 0.345575
O O6 0.572854 0.270574 0.259861
O O7 0.581824 0.232513 0.392848
O O8 0.548998 0.500000 0.176031
O O9 0.499183 0.766074 0.149663
O O10 0.628854 0.725238 0.143256
O O11 0.876027 0.724739 0.892088
O O12 0.920908 0.000000 0.865964
O O13 0.750000 0.286285 0.927363
O O14 0.665424 0.500000 0.967231
O O15 0.656011 0.225486 0.016313
O O16 0.750000 0.256604 0.562118
O O17 0.872300 0.250425 0.515907
O O18 0.817331 0.000000 0.559044
O O19 0.000000 0.246508 0.500000
O O20 0.931697 0.000000 0.473065
O O21 0.250000 0.217500 0.891437
O O22 0.341642 0.000000 0.898359
#
# Coordination Sequence:
#
# PCOD8207143 Si02
#       8
#     8   8   8   8   8   8   8   8
#     4   9  17  32  52  74 102 136 173 213 260 311
#     4  10  20  33  52  78 105 134 172 216 260 311
#     4  10  21  37  56  80 111 144 178 219 271 331
#     4  10  20  33  54  82 111 142 179 227 273 314
#     4  10  21  37  56  78 109 149 186 220 266 329
#     4   9  17  30  49  74 102 132 171 216 260 308
#     4  10  18  31  53  76  99 134 176 216 258 309
#     4  10  21  38  60  84 108 136 178 230 276 321
#
# _framework density 18.348576999999999
#
# number of rings (size 3 to 8) (size 9 to 14) (size 15 to 20)
#    0.000    2.250    1.250    1.875    0.000    4.750 
#    0.000    4.375    0.000    3.750    0.000    0.000 
#    0.000    0.000    0.000    0.000    0.000    0.000 
#
# Total GULP energy -793610.837761 kJ/mol
# GULP energy per Si atom -12400.169340 kJ/mol
# Density = 1.830681 g / cm^3
# Si number density = 18.348577 Si / 1000 Ang^3
#
#
#
# Elastic Constant Matrix: (Units=GPa)
#
#
# Indices 1 2 3 4 5 6 
#
# 1 112.3499 18.5857 67.1935 0.0000 0.0000 0.0000
# 2 18.5857 32.0823 17.1775 0.0000 0.0000 0.0000
# 3 67.1935 17.1775 107.2590 0.0000 0.0000 0.0000
# 4 0.0000 0.0000 0.0000 28.3265 0.0000 0.0000
# 5 0.0000 0.0000 0.0000 0.0000 30.0178 0.0000
# 6 0.0000 0.0000 0.0000 0.0000 0.0000 23.2541
#
#
#
# Elastic Compliance Matrix: (Units=1/GPa)
#
#
# Indices 1 2 3 4 5 6 
#
# 1 0.014670 -0.003913 -0.008563 0.000000 0.000000 0.000000
# 2 -0.003913 0.035137 -0.003176 0.000000 0.000000 0.000000
# 3 -0.008563 -0.003176 0.015196 0.000000 0.000000 0.000000
# 4 0.000000 0.000000 0.000000 0.035303 0.000000 0.000000
# 5 0.000000 0.000000 0.000000 0.000000 0.033314 0.000000
# 6 0.000000 0.000000 0.000000 0.000000 0.000000 0.043003
#
#
# Mechanical properties :
#
#
# Convention : Reuss Voigt Hill
#
# Bulk Modulus (GPa) = 29.67479 50.84497 40.25988
# Shear Modulus (GPa) = 22.81442 26.23531 24.52487
#
# Velocity S-wave (km/s) = 3.53000 3.78541 3.65993
# Velocity P-wave (km/s) = 5.72909 6.84664 6.31264
#
# Compressibility (1/GPa) = 0.03369864
#
# Stress axis : x y z
#
# Youngs Moduli (GPa) = 68.16843 28.45989 65.80551
#
# Poissons Ratio (x) = 0.11137 0.56350
# Poissons Ratio (y) = 0.26677 0.20897
# Poissons Ratio (z) = 0.58374 0.09038
#
# Static dielectric constant tensor:
#      x y z
#    x 3.399360 0.000000 0.000000 
#    y 0.000000 3.271990 0.000000 
#    z 0.000000 0.000000 3.484770 
# 
# 
# High freq. dielectric constant tensor:
#      x y z
#    x 1.698580 0.000000 0.000000 
#    y 0.000000 1.702930 0.000000 
#    z 0.000000 0.000000 1.718510 
# 
# From -- ./inp_files/33909.got.cif
#   From: 2010.03.12/outbox.cif.g09.slc.cpg/sg51_17_cif.got.tgz:33909.got - 2010.04.16 13:43:02.
