data_PCOD8207441
_publ_section_title
;
Structure prediction by ZEFSAII (Michael W. Deem and Ramdas Pophale) SiO2 
 PCOD8207441
Probable space group: P M M A
;
_chemical_formula_sum "Si O2"
_cell_formula_units_Z 64
_cell_length_a 8.878593
_cell_length_b 15.318920
_cell_length_c 23.721721
_cell_angle_alpha 90.000000
_cell_angle_beta 90.000000
_cell_angle_gamma 90.000000
_cell_volume 3226.402087
_symmetry_space_group_name_H-M "P M M A"
_symmetry_group_IT_number 51
_symmetry_cell_setting 'orthorhombic'
loop_
_space_group_symop_operation_xyz
x,y,z
1/2-x,-y,z
1/2+x,-y,-z
-x,y,-z
-x,-y,-z
1/2+x,y,-z
1/2-x,y,z
x,-y,z
loop_
_atom_site_type_symbol
_atom_site_label
_atom_site_fract_x
_atom_site_fract_y
_atom_site_fract_z
Si Si1 0.074709 0.400761 0.622181
Si Si2 0.077161 0.596353 0.143835
Si Si3 0.425049 0.901923 0.635251
Si Si4 0.071339 0.745236 0.059843
Si Si5 0.428012 0.349859 0.745765
Si Si6 0.572173 0.845363 0.244218
Si Si7 0.572203 0.756526 0.559890
Si Si8 0.926015 0.900836 0.123148
O O1 0.250000 0.375356 0.617284
O O2 0.046002 0.500000 0.602470
O O3 0.019220 0.390583 0.686532
O O4 0.981218 0.337349 0.582032
O O5 0.250000 0.617790 0.156233
O O6 0.057710 0.500000 0.116417
O O7 0.011350 0.669783 0.101990
O O8 0.992234 0.594237 0.203177
O O9 0.250000 0.874522 0.629426
O O10 0.476152 0.899884 0.700736
O O11 0.525443 0.834260 0.601276
O O12 0.451533 0.000000 0.612411
O O13 0.250000 0.744411 0.054235
O O14 0.017899 0.839432 0.081204
O O15 0.000000 0.724152 0.000000
O O16 0.250000 0.351991 0.750219
O O17 0.493125 0.252037 0.750217
O O18 0.750000 0.842436 0.240524
O O19 0.511158 0.889329 0.186957
O O20 0.500000 0.776735 0.500000
O O21 0.750000 0.755198 0.553623
O O22 0.750000 0.876464 0.119533
O O23 0.954377 0.000000 0.104011
#
# Coordination Sequence:
#
# PCOD8207441 Si02
#       8
#     8   8   8   8   8   8   8   8
#     4  10  21  39  63  91 123 157 196 242 291 347
#     4  10  22  39  58  84 119 154 189 235 291 347
#     4  10  20  38  65  93 122 157 196 240 292 348
#     4  11  24  41  60  81 110 149 195 243 293 342
#     4  10  18  33  61  91 121 155 192 233 280 342
#     4   9  16  31  59  91 122 152 187 231 282 342
#     4  12  26  43  63  85 117 157 202 250 297 350
#     4  10  20  36  60  89 119 152 190 232 281 339
#
# _framework density 19.836337
#
# number of rings (size 3 to 8) (size 9 to 14) (size 15 to 20)
#    0.000    1.750    2.500    2.250    0.000    5.000 
#    0.000    0.625    0.000    1.500    0.000    0.000 
#    0.000    0.000    0.000    0.000    0.000    0.000 
#
# Total GULP energy -793696.770117 kJ/mol
# GULP energy per Si atom -12401.512033 kJ/mol
# Density = 1.979119 g / cm^3
# Si number density = 19.836337 Si / 1000 Ang^3
#
#
#
# Elastic Constant Matrix: (Units=GPa)
#
#
# Indices 1 2 3 4 5 6 
#
# 1 61.1904 26.6400 22.4995 0.0000 0.0000 0.0000
# 2 26.6400 104.1618 16.1513 0.0000 0.0000 0.0000
# 3 22.4995 16.1513 76.4597 0.0000 0.0000 0.0000
# 4 0.0000 0.0000 0.0000 10.8930 0.0000 0.0000
# 5 0.0000 0.0000 0.0000 0.0000 28.1112 0.0000
# 6 0.0000 0.0000 0.0000 0.0000 0.0000 24.0040
#
#
#
# Elastic Compliance Matrix: (Units=1/GPa)
#
#
# Indices 1 2 3 4 5 6 
#
# 1 0.020074 -0.004361 -0.004986 0.000000 0.000000 0.000000
# 2 -0.004361 0.010873 -0.001014 0.000000 0.000000 0.000000
# 3 -0.004986 -0.001014 0.014760 0.000000 0.000000 0.000000
# 4 0.000000 0.000000 0.000000 0.091802 0.000000 0.000000
# 5 0.000000 0.000000 0.000000 0.000000 0.035573 0.000000
# 6 0.000000 0.000000 0.000000 0.000000 0.000000 0.041660
#
#
# Mechanical properties :
#
#
# Convention : Reuss Voigt Hill
#
# Bulk Modulus (GPa) = 40.02176 41.37706 40.69941
# Shear Modulus (GPa) = 20.50931 24.36972 22.43952
#
# Velocity S-wave (km/s) = 3.21896 3.50886 3.36703
# Velocity P-wave (km/s) = 5.83399 6.10906 5.97311
#
# Compressibility (1/GPa) = 0.02498641
#
# Stress axis : x y z
#
# Youngs Moduli (GPa) = 49.81477 91.97123 67.75034
#
# Poissons Ratio (x) = 0.40109 0.33780
# Poissons Ratio (y) = 0.21724 0.06867
# Poissons Ratio (z) = 0.24838 0.09321
#
# Static dielectric constant tensor:
#      x y z
#    x 3.349300 0.000000 0.000000 
#    y 0.000000 3.726300 0.000000 
#    z 0.000000 0.000000 3.683520 
# 
# 
# High freq. dielectric constant tensor:
#      x y z
#    x 1.747350 0.000000 0.000000 
#    y 0.000000 1.787720 0.000000 
#    z 0.000000 0.000000 1.773290 
# 
# From -- ./inp_files/34986.got.cif
#   From: 2010.03.12/outbox.cif.g09.slc.cpg/sg51_18_cif.got.tgz:34986.got - 2010.04.16 13:43:02.
