data_PCOD8207031
_publ_section_title
;
Structure prediction by ZEFSAII (Michael W. Deem and Ramdas Pophale) SiO2 
 PCOD8207031
Probable space group: P M M A
;
_chemical_formula_sum "Si O2"
_cell_formula_units_Z 48
_cell_length_a 25.791153
_cell_length_b 9.001747
_cell_length_c 11.974770
_cell_angle_alpha 90.000000
_cell_angle_beta 90.000000
_cell_angle_gamma 90.000000
_cell_volume 2780.127676
_symmetry_space_group_name_H-M "P M M A"
_symmetry_group_IT_number 51
_symmetry_cell_setting 'orthorhombic'
loop_
_space_group_symop_operation_xyz
x,y,z
1/2-x,-y,z
1/2+x,-y,-z
-x,y,-z
-x,-y,-z
1/2+x,y,-z
1/2-x,y,z
x,-y,z
loop_
_atom_site_type_symbol
_atom_site_label
_atom_site_fract_x
_atom_site_fract_y
_atom_site_fract_z
Si Si1 0.604822 0.323625 0.836765
Si Si2 0.387191 0.324610 0.511858
Si Si3 0.041099 0.830521 0.345070
Si Si4 0.307285 0.675350 0.328858
Si Si5 0.442488 0.176160 0.963422
Si Si6 0.575309 0.167393 0.287816
O O1 0.598780 0.500000 0.839062
O O2 0.557878 0.253718 0.767017
O O3 0.659157 0.275232 0.779035
O O4 0.600917 0.256660 0.960800
O O5 0.394183 0.500000 0.510500
O O6 0.436942 0.252136 0.453029
O O7 0.335819 0.275341 0.443450
O O8 0.384518 0.266472 0.639643
O O9 0.979421 0.827227 0.350776
O O10 0.061456 0.000000 0.341586
O O11 0.250000 0.748962 0.323496
O O12 0.301907 0.500000 0.328353
O O13 0.430423 0.229098 0.837652
O O14 0.437465 0.000000 0.976308
O O15 0.500000 0.227984 0.000000
O O16 0.596843 0.000000 0.284598
#
# Coordination Sequence:
#
# PCOD8207031 Si02
#       6
#     8   8   8   8   8   8
#     4  10  19  30  49  78 101 123 163 213 253 277
#     4  10  20  31  47  74  99 121 159 209 252 284
#     4  10  18  31  48  66  96 137 170 192 229 294
#     4   8  16  33  54  73  96 125 156 198 255 308
#     4  10  19  34  50  67  97 140 177 195 227 295
#     4  10  20  32  47  66  95 138 172 190 228 291
#
# _framework density 17.265394000000001
#
# number of rings (size 3 to 8) (size 9 to 14) (size 15 to 20)
#    0.000    2.333    1.667    3.000    0.000    4.333 
#    0.000    0.000    0.000   19.000    0.000    7.000 
#    0.000    0.000    0.000    0.000    0.000    0.000 
#
# Total GULP energy -595034.968752 kJ/mol
# GULP energy per Si atom -12396.561849 kJ/mol
# Density = 1.722610 g / cm^3
# Si number density = 17.265394 Si / 1000 Ang^3
#
#
#
# Elastic Constant Matrix: (Units=GPa)
#
#
# Indices 1 2 3 4 5 6 
#
# 1 84.4398 28.5065 56.4243 0.0000 0.0000 0.0000
# 2 28.5065 62.7130 47.3341 0.0000 0.0000 0.0000
# 3 56.4243 47.3341 143.8492 0.0000 0.0000 0.0000
# 4 0.0000 0.0000 0.0000 33.6809 0.0000 0.0000
# 5 0.0000 0.0000 0.0000 0.0000 13.3616 0.0000
# 6 0.0000 0.0000 0.0000 0.0000 0.0000 3.0334
#
#
#
# Elastic Compliance Matrix: (Units=1/GPa)
#
#
# Indices 1 2 3 4 5 6 
#
# 1 0.016608 -0.003502 -0.005362 0.000000 0.000000 0.000000
# 2 -0.003502 0.021953 -0.005850 0.000000 0.000000 0.000000
# 3 -0.005362 -0.005850 0.010980 0.000000 0.000000 0.000000
# 4 0.000000 0.000000 0.000000 0.029690 0.000000 0.000000
# 5 0.000000 0.000000 0.000000 0.000000 0.074841 0.000000
# 6 0.000000 0.000000 0.000000 0.000000 0.000000 0.329664
#
#
# Mechanical properties :
#
#
# Convention : Reuss Voigt Hill
#
# Bulk Modulus (GPa) = 49.72008 61.72575 55.72292
# Shear Modulus (GPa) = 9.61779 20.59765 15.10772
#
# Velocity S-wave (km/s) = 2.36276 3.45773 2.96130
# Velocity P-wave (km/s) = 6.02525 7.19514 6.63602
#
# Compressibility (1/GPa) = 0.02011260
#
# Stress axis : x y z
#
# Youngs Moduli (GPa) = 60.21159 45.55182 91.07519
#
# Poissons Ratio (x) = 0.15953 0.48835
# Poissons Ratio (y) = 0.21087 0.53279
# Poissons Ratio (z) = 0.32286 0.26648
#
# Static dielectric constant tensor:
#      x y z
#    x 3.168630 0.000000 0.000000 
#    y 0.000000 3.132250 0.000000 
#    z 0.000000 0.000000 3.396250 
# 
# 
# High freq. dielectric constant tensor:
#      x y z
#    x 1.628130 0.000000 0.000000 
#    y 0.000000 1.659240 0.000000 
#    z 0.000000 0.000000 1.674390 
# 
# From -- ./inp_files/18584.got.cif
#   From: 2010.03.12/outbox.cif.g09.slc.cpg/sg51_10_cif.got.tgz:18584.got - 2010.04.16 13:43:02.
