data_PCOD8207979
_publ_section_title
;
Structure prediction by ZEFSAII (Michael W. Deem and Ramdas Pophale) SiO2 
 PCOD8207979
Probable space group: P M M A
;
_chemical_formula_sum "Si O2"
_cell_formula_units_Z 56
_cell_length_a 9.209851
_cell_length_b 13.716062
_cell_length_c 28.946393
_cell_angle_alpha 90.000000
_cell_angle_beta 90.000000
_cell_angle_gamma 90.000000
_cell_volume 3656.591941
_symmetry_space_group_name_H-M "P M M A"
_symmetry_group_IT_number 51
_symmetry_cell_setting 'orthorhombic'
loop_
_space_group_symop_operation_xyz
x,y,z
1/2-x,-y,z
1/2+x,-y,-z
-x,y,-z
-x,-y,-z
1/2+x,y,-z
1/2-x,y,z
x,-y,z
loop_
_atom_site_type_symbol
_atom_site_label
_atom_site_fract_x
_atom_site_fract_y
_atom_site_fract_z
Si Si1 0.582102 0.890038 0.397588
Si Si2 0.414481 0.116253 0.044737
Si Si3 0.913928 0.883973 0.133455
Si Si4 0.420065 0.611111 0.640440
Si Si5 0.420536 0.785548 0.318147
Si Si6 0.417895 0.888020 0.223314
Si Si7 0.582877 0.707263 0.454231
O O1 0.750000 0.876151 0.383254
O O2 0.485981 0.863993 0.353418
O O3 0.544513 0.818672 0.440166
O O4 0.547961 0.000000 0.413431
O O5 0.250000 0.156375 0.043799
O O6 0.495601 0.157293 0.090069
O O7 0.413571 0.000000 0.045056
O O8 0.500000 0.155496 0.000000
O O9 0.750000 0.843479 0.131044
O O10 0.987977 0.847867 0.180686
O O11 0.914796 0.000000 0.131814
O O12 0.250000 0.630832 0.647924
O O13 0.462512 0.500000 0.650860
O O14 0.508589 0.679225 0.675501
O O15 0.463044 0.636644 0.587764
O O16 0.250000 0.778590 0.327165
O O17 0.456759 0.821534 0.266895
O O18 0.250000 0.878998 0.209387
O O19 0.456753 0.000000 0.235149
O O20 0.500000 0.675489 0.500000
O O21 0.750000 0.694926 0.466129
#
# Coordination Sequence:
#
# PCOD8207979 Si02
#       7
#     8   8   8   8   8   8   8
#     4   9  18  32  47  62  85 117 146 169 197 238
#     4   9  15  22  32  45  64  93 130 173 217 254
#     4   9  16  24  34  50  71  97 134 175 209 243
#     4   9  19  36  53  66  84 110 136 164 202 249
#     4  10  19  30  46  68  89 107 134 173 211 247
#     4   9  17  28  40  56  82 112 136 163 204 248
#     4   9  18  31  46  66  89 111 136 166 201 241
#
# _framework density 15.314807
#
# number of rings (size 3 to 8) (size 9 to 14) (size 15 to 20)
#    0.000    2.857    0.000    2.571    0.000    8.571 
#    0.000    1.429    0.000    0.000    0.000    0.000 
#    0.000    0.000    0.000    0.000    0.000    0.714 
#
# Total GULP energy -694349.517236 kJ/mol
# GULP energy per Si atom -12399.098522 kJ/mol
# Density = 1.527995 g / cm^3
# Si number density = 15.314807 Si / 1000 Ang^3
#
#
#
# Elastic Constant Matrix: (Units=GPa)
#
#
# Indices 1 2 3 4 5 6 
#
# 1 92.6556 25.2531 65.7046 0.0000 0.0000 0.0000
# 2 25.2531 60.4181 26.7193 0.0000 0.0000 0.0000
# 3 65.7046 26.7193 114.3648 0.0000 0.0000 0.0000
# 4 0.0000 0.0000 0.0000 9.4752 0.0000 0.0000
# 5 0.0000 0.0000 0.0000 0.0000 32.5042 0.0000
# 6 0.0000 0.0000 0.0000 0.0000 0.0000 15.1684
#
#
#
# Elastic Compliance Matrix: (Units=1/GPa)
#
#
# Indices 1 2 3 4 5 6 
#
# 1 0.018833 -0.003442 -0.010016 0.000000 0.000000 0.000000
# 2 -0.003442 0.019088 -0.002482 0.000000 0.000000 0.000000
# 3 -0.010016 -0.002482 0.015078 0.000000 0.000000 0.000000
# 4 0.000000 0.000000 0.000000 0.105539 0.000000 0.000000
# 5 0.000000 0.000000 0.000000 0.000000 0.030765 0.000000
# 6 0.000000 0.000000 0.000000 0.000000 0.000000 0.065926
#
#
# Mechanical properties :
#
#
# Convention : Reuss Voigt Hill
#
# Bulk Modulus (GPa) = 47.35061 55.86585 51.60823
# Shear Modulus (GPa) = 16.99818 21.41366 19.20592
#
# Velocity S-wave (km/s) = 3.33516 3.74335 3.54513
# Velocity P-wave (km/s) = 6.76878 7.43243 7.10836
#
# Compressibility (1/GPa) = 0.02111905
#
# Stress axis : x y z
#
# Youngs Moduli (GPa) = 53.09708 52.38971 66.32146
#
# Poissons Ratio (x) = 0.18035 0.66427
# Poissons Ratio (y) = 0.18278 0.16459
# Poissons Ratio (z) = 0.53181 0.13002
#
# Static dielectric constant tensor:
#      x y z
#    x 3.030600 0.000000 0.000000 
#    y 0.000000 2.687280 0.000000 
#    z 0.000000 0.000000 2.916760 
# 
# 
# High freq. dielectric constant tensor:
#      x y z
#    x 1.597640 0.000000 0.000000 
#    y 0.000000 1.536580 0.000000 
#    z 0.000000 0.000000 1.584070 
# 
# From -- ./inp_files/37448.got.cif
#   From: 2010.03.12/outbox.cif.g09.slc.cpg/sg51_19_cif.got.tgz:37448.got - 2010.04.16 13:43:02.
