data_PCOD8207746
_publ_section_title
;
Structure prediction by ZEFSAII (Michael W. Deem and Ramdas Pophale) SiO2 
 PCOD8207746
Probable space group: P M M A
;
_chemical_formula_sum "Si O2"
_cell_formula_units_Z 64
_cell_length_a 9.292983
_cell_length_b 19.006474
_cell_length_c 23.267773
_cell_angle_alpha 90.000000
_cell_angle_beta 90.000000
_cell_angle_gamma 90.000000
_cell_volume 4109.713214
_symmetry_space_group_name_H-M "P M M A"
_symmetry_group_IT_number 51
_symmetry_cell_setting 'orthorhombic'
loop_
_space_group_symop_operation_xyz
x,y,z
1/2-x,-y,z
1/2+x,-y,-z
-x,y,-z
-x,-y,-z
1/2+x,y,-z
1/2-x,y,z
x,-y,z
loop_
_atom_site_type_symbol
_atom_site_label
_atom_site_fract_x
_atom_site_fract_y
_atom_site_fract_z
Si Si1 0.417588 0.580418 0.944072
Si Si2 0.915820 0.921840 0.380880
Si Si3 0.919114 0.217791 0.442219
Si Si4 0.084513 0.579806 0.271271
Si Si5 0.585778 0.778837 0.779219
Si Si6 0.419837 0.344153 0.827779
Si Si7 0.917518 0.077635 0.735272
Si Si8 0.587192 0.290374 0.656734
O O1 0.250000 0.586548 0.957110
O O2 0.461510 0.500000 0.930280
O O3 0.462819 0.628459 0.890550
O O4 0.500000 0.608760 0.000000
O O5 0.750000 0.915215 0.363465
O O6 0.955960 0.863814 0.428462
O O7 0.003403 0.906204 0.323774
O O8 0.951114 0.000000 0.405336
O O9 0.750000 0.230187 0.450026
O O10 0.000000 0.239457 0.500000
O O11 0.974249 0.267736 0.391339
O O12 0.250000 0.588937 0.251364
O O13 0.048348 0.500000 0.288618
O O14 0.055952 0.628167 0.327100
O O15 0.985406 0.602636 0.218477
O O16 0.750000 0.766018 0.798713
O O17 0.482875 0.734557 0.821023
O O18 0.543910 0.861974 0.782050
O O19 0.563337 0.755621 0.713595
O O20 0.250000 0.342084 0.818640
O O21 0.750000 0.082040 0.720404
O O22 0.959104 0.000000 0.759526
O O23 0.750000 0.280648 0.633566
#
# Coordination Sequence:
#
# PCOD8207746 Si02
#       8
#     8   8   8   8   8   8   8   8
#     4   9  18  31  45  63  90 125 162 195 224 256
#     4   9  18  31  45  63  87 113 143 179 217 260
#     4  11  22  33  47  64  84 112 145 181 220 264
#     4   9  18  32  50  71  93 118 145 177 222 270
#     4   9  17  29  45  66  92 120 150 184 224 268
#     4  10  19  29  44  68  97 125 155 190 223 257
#     4   9  16  27  45  66  88 117 150 182 218 263
#     4   9  17  31  48  66  88 111 139 177 217 265
#
# _framework density 15.572863
#
# number of rings (size 3 to 8) (size 9 to 14) (size 15 to 20)
#    0.000    2.625    1.250    1.875    0.000    5.000 
#    0.000    1.250    0.000    0.375    0.000    0.000 
#    0.000    0.500    0.000    1.125    0.000    1.750 
#
# Total GULP energy -793434.720021 kJ/mol
# GULP energy per Si atom -12397.417500 kJ/mol
# Density = 1.553742 g / cm^3
# Si number density = 15.572863 Si / 1000 Ang^3
#
#
#
# Elastic Constant Matrix: (Units=GPa)
#
#
# Indices 1 2 3 4 5 6 
#
# 1 68.7104 44.9193 49.9034 0.0000 0.0000 0.0000
# 2 44.9193 109.7270 49.4149 0.0000 0.0000 0.0000
# 3 49.9034 49.4149 83.9869 0.0000 0.0000 0.0000
# 4 0.0000 0.0000 0.0000 20.8028 0.0000 0.0000
# 5 0.0000 0.0000 0.0000 0.0000 26.0381 0.0000
# 6 0.0000 0.0000 0.0000 0.0000 0.0000 22.5638
#
#
#
# Elastic Compliance Matrix: (Units=1/GPa)
#
#
# Indices 1 2 3 4 5 6 
#
# 1 0.027733 -0.005350 -0.013331 0.000000 0.000000 0.000000
# 2 -0.005350 0.013431 -0.004723 0.000000 0.000000 0.000000
# 3 -0.013331 -0.004723 0.022607 0.000000 0.000000 0.000000
# 4 0.000000 0.000000 0.000000 0.048070 0.000000 0.000000
# 5 0.000000 0.000000 0.000000 0.000000 0.038405 0.000000
# 6 0.000000 0.000000 0.000000 0.000000 0.000000 0.044319
#
#
# Mechanical properties :
#
#
# Convention : Reuss Voigt Hill
#
# Bulk Modulus (GPa) = 58.95384 61.21105 60.08245
# Shear Modulus (GPa) = 20.24064 21.76007 21.00035
#
# Velocity S-wave (km/s) = 3.60910 3.74211 3.67621
# Velocity P-wave (km/s) = 7.43683 7.61989 7.52892
#
# Compressibility (1/GPa) = 0.01696242
#
# Stress axis : x y z
#
# Youngs Moduli (GPa) = 36.05766 74.45598 44.23456
#
# Poissons Ratio (x) = 0.39832 0.58969
# Poissons Ratio (y) = 0.19290 0.20894
# Poissons Ratio (z) = 0.48068 0.35169
#
# Static dielectric constant tensor:
#      x y z
#    x 3.165540 0.000000 0.000000 
#    y 0.000000 3.277260 0.000000 
#    z 0.000000 0.000000 2.669670 
# 
# 
# High freq. dielectric constant tensor:
#      x y z
#    x 1.603600 0.000000 0.000000 
#    y 0.000000 1.601930 0.000000 
#    z 0.000000 0.000000 1.557150 
# 
# From -- ./inp_files/32546.got.cif
#   From: 2010.03.12/outbox.cif.g09.slc.cpg/sg51_17_cif.got.tgz:32546.got - 2010.04.16 13:43:02.
