data_PCOD8207538
_publ_section_title
;
Structure prediction by ZEFSAII (Michael W. Deem and Ramdas Pophale) SiO2 
 PCOD8207538
Probable space group: P M M A
;
_chemical_formula_sum "Si O2"
_cell_formula_units_Z 56
_cell_length_a 14.712576
_cell_length_b 13.759467
_cell_length_c 17.674904
_cell_angle_alpha 90.000000
_cell_angle_beta 90.000000
_cell_angle_gamma 90.000000
_cell_volume 3578.058146
_symmetry_space_group_name_H-M "P M M A"
_symmetry_group_IT_number 51
_symmetry_cell_setting 'orthorhombic'
loop_
_space_group_symop_operation_xyz
x,y,z
1/2-x,-y,z
1/2+x,-y,-z
-x,y,-z
-x,-y,-z
1/2+x,y,-z
1/2-x,y,z
x,-y,z
loop_
_atom_site_type_symbol
_atom_site_label
_atom_site_fract_x
_atom_site_fract_y
_atom_site_fract_z
Si Si1 0.647315 0.614581 0.063281
Si Si2 0.143603 0.111098 0.576056
Si Si3 0.851136 0.389448 0.455732
Si Si4 0.480560 0.384169 0.803436
Si Si5 0.148785 0.231316 0.428081
Si Si6 0.849671 0.614738 0.897132
Si Si7 0.968721 0.734441 0.347653
O O1 0.750000 0.645798 0.081831
O O2 0.635794 0.500000 0.063438
O O3 0.583807 0.654726 0.129547
O O4 0.619244 0.655177 0.979942
O O5 0.250000 0.122463 0.591748
O O6 0.119638 0.155179 0.493674
O O7 0.092103 0.168494 0.643248
O O8 0.111567 0.000000 0.577491
O O9 0.750000 0.377577 0.417802
O O10 0.876167 0.500000 0.470001
O O11 0.848747 0.338851 0.537127
O O12 0.931387 0.344569 0.406329
O O13 0.468579 0.500000 0.785131
O O14 0.582319 0.358367 0.829988
O O15 0.458217 0.315760 0.733188
O O16 0.250000 0.204949 0.395961
O O17 0.073255 0.233654 0.362466
O O18 0.750000 0.656287 0.875916
O O19 0.844229 0.500000 0.906318
#
# Coordination Sequence:
#
# PCOD8207538 Si02
#       7
#     8   8   8   8   8   8   8
#     4   8  14  25  41  58  77 108 149 186 214 240
#     4   9  18  34  54  70  82 101 135 180 225 263
#     4   9  17  29  43  57  77 109 146 179 207 240
#     4  10  19  27  37  59  91 122 146 171 207 250
#     4   9  19  32  44  61  82 107 144 182 210 245
#     4   8  14  26  42  57  77 112 156 190 210 233
#     4  11  20  28  42  64  89 113 137 169 214 264
#
# _framework density 15.650947
#
# number of rings (size 3 to 8) (size 9 to 14) (size 15 to 20)
#    0.000    2.857    0.000    4.714    0.000    6.286 
#    0.000    1.429    0.000    0.000    0.000    0.000 
#    0.000    2.286    0.000    3.143    0.000    1.000 
#
# Total GULP energy -693843.881991 kJ/mol
# GULP energy per Si atom -12390.069321 kJ/mol
# Density = 1.561532 g / cm^3
# Si number density = 15.650947 Si / 1000 Ang^3
#
#
#
# Elastic Constant Matrix: (Units=GPa)
#
#
# Indices 1 2 3 4 5 6 
#
# 1 53.6126 15.4877 9.3300 0.0000 0.0000 0.0000
# 2 15.4877 81.6559 16.1535 0.0000 0.0000 0.0000
# 3 9.3300 16.1535 36.4499 0.0000 0.0000 0.0000
# 4 0.0000 0.0000 0.0000 13.4313 0.0000 0.0000
# 5 0.0000 0.0000 0.0000 0.0000 16.1416 0.0000
# 6 0.0000 0.0000 0.0000 0.0000 0.0000 15.3244
#
#
#
# Elastic Compliance Matrix: (Units=1/GPa)
#
#
# Indices 1 2 3 4 5 6 
#
# 1 0.020204 -0.003079 -0.003807 0.000000 0.000000 0.000000
# 2 -0.003079 0.013893 -0.005369 0.000000 0.000000 0.000000
# 3 -0.003807 -0.005369 0.030789 0.000000 0.000000 0.000000
# 4 0.000000 0.000000 0.000000 0.074453 0.000000 0.000000
# 5 0.000000 0.000000 0.000000 0.000000 0.061952 0.000000
# 6 0.000000 0.000000 0.000000 0.000000 0.000000 0.065255
#
#
# Mechanical properties :
#
#
# Convention : Reuss Voigt Hill
#
# Bulk Modulus (GPa) = 24.76721 28.18453 26.47587
# Shear Modulus (GPa) = 16.41964 17.69596 17.05780
#
# Velocity S-wave (km/s) = 3.24252 3.36618 3.30493
# Velocity P-wave (km/s) = 5.46605 5.75808 5.61396
#
# Compressibility (1/GPa) = 0.04037596
#
# Stress axis : x y z
#
# Youngs Moduli (GPa) = 49.49426 71.98101 32.47955
#
# Poissons Ratio (x) = 0.22163 0.12365
# Poissons Ratio (y) = 0.15239 0.17437
# Poissons Ratio (z) = 0.18843 0.38644
#
# Static dielectric constant tensor:
#      x y z
#    x 3.380980 0.000000 0.000000 
#    y 0.000000 2.738890 0.000000 
#    z 0.000000 0.000000 2.986240 
# 
# 
# High freq. dielectric constant tensor:
#      x y z
#    x 1.622150 0.000000 0.000000 
#    y 0.000000 1.552250 0.000000 
#    z 0.000000 0.000000 1.571970 
# 
# From -- ./inp_files/24287.got.cif
#   From: 2010.03.12/outbox.cif.g09.slc.cpg/sg51_13_cif.got.tgz:24287.got - 2010.04.16 13:43:02.
