data_PCOD8207298
_publ_section_title
;
Structure prediction by ZEFSAII (Michael W. Deem and Ramdas Pophale) SiO2 
 PCOD8207298
Probable space group: P M M A
;
_chemical_formula_sum "Si O2"
_cell_formula_units_Z 64
_cell_length_a 8.980212
_cell_length_b 20.052961
_cell_length_c 20.217811
_cell_angle_alpha 90.000000
_cell_angle_beta 90.000000
_cell_angle_gamma 90.000000
_cell_volume 3640.820190
_symmetry_space_group_name_H-M "P M M A"
_symmetry_group_IT_number 51
_symmetry_cell_setting 'orthorhombic'
loop_
_space_group_symop_operation_xyz
x,y,z
1/2-x,-y,z
1/2+x,-y,-z
-x,y,-z
-x,-y,-z
1/2+x,y,-z
1/2-x,y,z
x,-y,z
loop_
_atom_site_type_symbol
_atom_site_label
_atom_site_fract_x
_atom_site_fract_y
_atom_site_fract_z
Si Si1 0.073759 0.927080 0.296882
Si Si2 0.925760 0.876757 0.564337
Si Si3 0.423225 0.714231 0.259413
Si Si4 0.425072 0.924497 0.929920
Si Si5 0.081087 0.397491 0.565841
Si Si6 0.078740 0.427673 0.300401
Si Si7 0.424000 0.836436 0.178342
Si Si8 0.919800 0.750420 0.392319
O O1 0.250000 0.923646 0.301045
O O2 0.010696 0.912040 0.369812
O O3 0.016944 0.873987 0.243799
O O4 0.018267 0.000000 0.274511
O O5 0.750000 0.882440 0.557698
O O6 0.000000 0.911007 0.500000
O O7 0.975492 0.800023 0.567102
O O8 0.250000 0.724362 0.278313
O O9 0.462883 0.634873 0.251800
O O10 0.455359 0.757168 0.192119
O O11 0.521721 0.744005 0.317710
O O12 0.250000 0.915469 0.937893
O O13 0.484565 0.866201 0.882429
O O14 0.463344 0.000000 0.904498
O O15 0.500000 0.912169 0.000000
O O16 0.250000 0.422236 0.562483
O O17 0.069108 0.318218 0.568601
O O18 0.000000 0.424027 0.500000
O O19 0.011274 0.428062 0.631754
O O20 0.250000 0.420257 0.320555
O O21 0.049563 0.500000 0.265125
O O22 0.250000 0.849893 0.164777
O O23 0.750000 0.776466 0.389813
#
# Coordination Sequence:
#
# PCOD8207298 Si02
#       8
#     8   8   8   8   8   8   8   8
#     4   9  18  32  49  68  91 122 160 199 246 301
#     4  11  21  33  47  64  86 116 156 203 257 309
#     4   9  17  31  51  74  98 126 162 201 243 292
#     4  10  21  36  54  80 114 149 180 210 244 287
#     4  10  20  31  44  63  85 114 151 194 245 304
#     4   9  18  32  49  68  93 124 156 196 245 297
#     4  10  18  32  55  79 102 135 172 208 247 290
#     4  10  19  31  47  67  89 115 150 197 252 303
#
# _framework density 17.578458000000001
#
# number of rings (size 3 to 8) (size 9 to 14) (size 15 to 20)
#    0.000    2.250    1.250    2.250    0.000    5.000 
#    0.000    0.000    0.000    1.875    0.000    0.000 
#    0.000    0.500    0.000    0.875    0.000    1.250 
#
# Total GULP energy -793160.387718 kJ/mol
# GULP energy per Si atom -12393.131058 kJ/mol
# Density = 1.753845 g / cm^3
# Si number density = 17.578458 Si / 1000 Ang^3
#
#
#
# Elastic Constant Matrix: (Units=GPa)
#
#
# Indices 1 2 3 4 5 6 
#
# 1 65.2712 28.3294 34.7189 0.0000 0.0000 0.0000
# 2 28.3294 114.9662 49.8302 0.0000 0.0000 0.0000
# 3 34.7189 49.8302 86.2458 0.0000 0.0000 0.0000
# 4 0.0000 0.0000 0.0000 14.8682 0.0000 0.0000
# 5 0.0000 0.0000 0.0000 0.0000 26.3673 0.0000
# 6 0.0000 0.0000 0.0000 0.0000 0.0000 13.9528
#
#
#
# Elastic Compliance Matrix: (Units=1/GPa)
#
#
# Indices 1 2 3 4 5 6 
#
# 1 0.019802 -0.001900 -0.006873 0.000000 0.000000 0.000000
# 2 -0.001900 0.011787 -0.006045 0.000000 0.000000 0.000000
# 3 -0.006873 -0.006045 0.017854 0.000000 0.000000 0.000000
# 4 0.000000 0.000000 0.000000 0.067258 0.000000 0.000000
# 5 0.000000 0.000000 0.000000 0.000000 0.037926 0.000000
# 6 0.000000 0.000000 0.000000 0.000000 0.000000 0.071670
#
#
# Mechanical properties :
#
#
# Convention : Reuss Voigt Hill
#
# Bulk Modulus (GPa) = 50.49167 54.69336 52.59252
# Shear Modulus (GPa) = 19.04510 21.27797 20.16153
#
# Velocity S-wave (km/s) = 3.29513 3.48294 3.39033
# Velocity P-wave (km/s) = 6.57747 6.88156 6.73123
#
# Compressibility (1/GPa) = 0.01980525
#
# Stress axis : x y z
#
# Youngs Moduli (GPa) = 50.50119 84.84247 56.00902
#
# Poissons Ratio (x) = 0.16122 0.38497
# Poissons Ratio (y) = 0.09597 0.33857
# Poissons Ratio (z) = 0.34711 0.51287
#
# Static dielectric constant tensor:
#      x y z
#    x 3.229020 0.000000 0.000000 
#    y 0.000000 3.555400 0.000000 
#    z 0.000000 0.000000 3.016880 
# 
# 
# High freq. dielectric constant tensor:
#      x y z
#    x 1.674140 0.000000 0.000000 
#    y 0.000000 1.684030 0.000000 
#    z 0.000000 0.000000 1.637160 
# 
# From -- ./inp_files/28457.got.cif
#   From: 2010.03.12/outbox.cif.g09.slc.cpg/sg51_15_cif.got.tgz:28457.got - 2010.04.16 13:43:02.
