data_PCOD8207343
_publ_section_title
;
Structure prediction by ZEFSAII (Michael W. Deem and Ramdas Pophale) SiO2 
 PCOD8207343
Probable space group: P M M A
;
_chemical_formula_sum "Si O2"
_cell_formula_units_Z 48
_cell_length_a 8.469500
_cell_length_b 15.273574
_cell_length_c 17.822702
_cell_angle_alpha 90.000000
_cell_angle_beta 90.000000
_cell_angle_gamma 90.000000
_cell_volume 2305.536443
_symmetry_space_group_name_H-M "P M M A"
_symmetry_group_IT_number 51
_symmetry_cell_setting 'orthorhombic'
loop_
_space_group_symop_operation_xyz
x,y,z
1/2-x,-y,z
1/2+x,-y,-z
-x,y,-z
-x,-y,-z
1/2+x,y,-z
1/2-x,y,z
x,-y,z
loop_
_atom_site_type_symbol
_atom_site_label
_atom_site_fract_x
_atom_site_fract_y
_atom_site_fract_z
Si Si1 0.432238 0.672491 0.159966
Si Si2 0.063317 0.597221 0.578616
Si Si3 0.565015 0.500000 0.085770
Si Si4 0.563619 0.827329 0.079874
Si Si5 0.438452 0.000000 0.084752
Si Si6 0.062997 0.900804 0.581555
Si Si7 0.562774 0.745377 0.312614
O O1 0.250000 0.650794 0.171459
O O2 0.516831 0.582656 0.136808
O O3 0.463528 0.740083 0.093930
O O4 0.499081 0.727647 0.230097
O O5 0.250000 0.596967 0.576370
O O6 0.997378 0.500000 0.596186
O O7 0.998959 0.662450 0.641051
O O8 0.000000 0.632110 0.500000
O O9 0.750000 0.500000 0.075813
O O10 0.500000 0.500000 0.000000
O O11 0.750000 0.809503 0.086551
O O12 0.510466 0.913568 0.127835
O O13 0.500000 0.855646 0.000000
O O14 0.250000 0.000000 0.088634
O O15 0.500000 0.000000 0.000000
O O16 0.250000 0.895689 0.577513
O O17 0.000626 0.834537 0.646828
O O18 0.000000 0.871252 0.500000
O O19 0.005927 0.000000 0.600399
O O20 0.750000 0.748416 0.308299
#
# Coordination Sequence:
#
# PCOD8207343 Si02
#       7
#     8   8   4   8   4   8   8
#     4  12  26  43  62  91 124 160 205 256 312 370
#     4   9  18  32  52  79 109 146 190 238 290 353
#     4  12  26  48  74  98 125 160 205 256 310 378
#     4  11  21  38  62  89 120 159 201 247 301 361
#     4  10  18  32  56  88 120 152 191 240 291 348
#     4   9  18  34  58  87 120 161 211 264 312 368
#     4  10  21  37  56  82 118 160 203 250 310 369
#
# _framework density 20.819451000000001
#
# number of rings (size 3 to 8) (size 9 to 14) (size 15 to 20)
#    0.000    1.667    0.000    6.500    1.167    1.333 
#    1.500    0.000    0.000    0.000    0.000    0.000 
#    0.000    0.000    0.000    0.000    0.000    0.000 
#
# Total GULP energy -594709.300811 kJ/mol
# GULP energy per Si atom -12389.777100 kJ/mol
# Density = 2.077206 g / cm^3
# Si number density = 20.819451 Si / 1000 Ang^3
#
#
#
# Elastic Constant Matrix: (Units=GPa)
#
#
# Indices 1 2 3 4 5 6 
#
# 1 65.8175 37.4146 23.3219 0.0000 0.0000 0.0000
# 2 37.4146 157.2791 52.2655 0.0000 0.0000 0.0000
# 3 23.3219 52.2655 83.9901 0.0000 0.0000 0.0000
# 4 0.0000 0.0000 0.0000 30.5818 0.0000 0.0000
# 5 0.0000 0.0000 0.0000 0.0000 32.6986 0.0000
# 6 0.0000 0.0000 0.0000 0.0000 0.0000 24.7168
#
#
#
# Elastic Compliance Matrix: (Units=1/GPa)
#
#
# Indices 1 2 3 4 5 6 
#
# 1 0.018136 -0.003329 -0.002964 0.000000 0.000000 0.000000
# 2 -0.003329 0.008627 -0.004444 0.000000 0.000000 0.000000
# 3 -0.002964 -0.004444 0.015495 0.000000 0.000000 0.000000
# 4 0.000000 0.000000 0.000000 0.032699 0.000000 0.000000
# 5 0.000000 0.000000 0.000000 0.000000 0.030582 0.000000
# 6 0.000000 0.000000 0.000000 0.000000 0.000000 0.040458
#
#
# Mechanical properties :
#
#
# Convention : Reuss Voigt Hill
#
# Bulk Modulus (GPa) = 48.11620 59.23229 53.67424
# Shear Modulus (GPa) = 28.66964 30.53841 29.60403
#
# Velocity S-wave (km/s) = 3.71490 3.83407 3.77495
# Velocity P-wave (km/s) = 6.44686 6.93630 6.69605
#
# Compressibility (1/GPa) = 0.02078302
#
# Stress axis : x y z
#
# Youngs Moduli (GPa) = 55.13744 115.91676 64.53871
#
# Poissons Ratio (x) = 0.38593 0.19131
# Poissons Ratio (y) = 0.18357 0.28680
# Poissons Ratio (z) = 0.16344 0.51512
#
# Static dielectric constant tensor:
#      x y z
#    x 3.657260 0.000000 0.000000 
#    y 0.000000 4.443600 0.000000 
#    z 0.000000 0.000000 3.773200 
# 
# 
# High freq. dielectric constant tensor:
#      x y z
#    x 1.806710 0.000000 0.000000 
#    y 0.000000 1.846280 0.000000 
#    z 0.000000 0.000000 1.794400 
# 
# From -- ./inp_files/27684.got.cif
#   From: 2010.03.12/outbox.cif.g09.slc.cpg/sg51_14_cif.got.tgz:27684.got - 2010.04.16 13:43:02.
