data_PCOD8207494
_publ_section_title
;
Structure prediction by ZEFSAII (Michael W. Deem and Ramdas Pophale) SiO2 
 PCOD8207494
Probable space group: P M M A
;
_chemical_formula_sum "Si O2"
_cell_formula_units_Z 64
_cell_length_a 30.768455
_cell_length_b 8.778718
_cell_length_c 11.877051
_cell_angle_alpha 90.000000
_cell_angle_beta 90.000000
_cell_angle_gamma 90.000000
_cell_volume 3208.081619
_symmetry_space_group_name_H-M "P M M A"
_symmetry_group_IT_number 51
_symmetry_cell_setting 'orthorhombic'
loop_
_space_group_symop_operation_xyz
x,y,z
1/2-x,-y,z
1/2+x,-y,-z
-x,y,-z
-x,-y,-z
1/2+x,y,-z
1/2-x,y,z
x,-y,z
loop_
_atom_site_type_symbol
_atom_site_label
_atom_site_fract_x
_atom_site_fract_y
_atom_site_fract_z
Si Si1 0.298721 0.674642 0.758514
Si Si2 0.201137 0.174272 0.233365
Si Si3 0.950903 0.319657 0.242659
Si Si4 0.128206 0.320561 0.379193
Si Si5 0.821203 0.676659 0.990863
Si Si6 0.452101 0.319670 0.233314
Si Si7 0.079023 0.320307 0.996885
Si Si8 0.874158 0.821610 0.379382
O O1 0.250000 0.703679 0.712059
O O2 0.313180 0.500000 0.738405
O O3 0.332496 0.781898 0.695705
O O4 0.298333 0.710717 0.890874
O O5 0.250000 0.193043 0.280898
O O6 0.169317 0.284743 0.301163
O O7 0.201729 0.221073 0.102677
O O8 0.185527 0.000000 0.245592
O O9 0.944306 0.500000 0.244948
O O10 0.918373 0.249931 0.332812
O O11 0.000056 0.273112 0.276598
O O12 0.941704 0.253523 0.117616
O O13 0.125873 0.500000 0.400381
O O14 0.084236 0.258408 0.319655
O O15 0.134510 0.236392 0.495981
O O16 0.816677 0.500000 0.956799
O O17 0.871030 0.726557 0.999777
O O18 0.447244 0.500000 0.225066
O O19 0.444355 0.251707 0.107781
O O20 0.072765 0.500000 0.994579
O O21 0.880211 0.000000 0.380822
#
# Coordination Sequence:
#
# PCOD8207494 Si02
#       8
#     8   8   8   8   8   8   8   8
#     4  10  21  39  64  92 119 152 198 248 296 347
#     4  11  24  40  59  88 125 161 195 235 292 355
#     4  10  19  36  63  90 120 154 194 242 293 348
#     4  11  23  42  65  87 113 150 204 254 296 346
#     4  10  18  34  62  92 121 154 195 240 287 345
#     4   9  18  33  60  95 119 146 191 246 297 345
#     4   9  15  29  58  93 122 147 185 239 294 343
#     4  12  26  42  59  83 119 159 200 244 300 358
#
# _framework density 19.949617
#
# number of rings (size 3 to 8) (size 9 to 14) (size 15 to 20)
#    0.000    1.750    2.500    2.625    0.000    4.750 
#    0.000    3.750    0.000    0.750    0.000    0.000 
#    0.000    0.000    0.000    0.000    0.000    0.000 
#
# Total GULP energy -793680.098632 kJ/mol
# GULP energy per Si atom -12401.251541 kJ/mol
# Density = 1.990421 g / cm^3
# Si number density = 19.949617 Si / 1000 Ang^3
#
#
#
# Elastic Constant Matrix: (Units=GPa)
#
#
# Indices 1 2 3 4 5 6 
#
# 1 122.9663 31.7709 41.3425 0.0000 0.0000 0.0000
# 2 31.7709 49.6764 20.4350 0.0000 0.0000 0.0000
# 3 41.3425 20.4350 83.5116 0.0000 0.0000 0.0000
# 4 0.0000 0.0000 0.0000 12.7503 0.0000 0.0000
# 5 0.0000 0.0000 0.0000 0.0000 -6.8908 0.0000
# 6 0.0000 0.0000 0.0000 0.0000 0.0000 14.6608
#
#
#
# Elastic Compliance Matrix: (Units=1/GPa)
#
#
# Indices 1 2 3 4 5 6 
#
# 1 0.010869 -0.005268 -0.004092 0.000000 0.000000 0.000000
# 2 -0.005268 0.024937 -0.003494 0.000000 0.000000 0.000000
# 3 -0.004092 -0.003494 0.014855 0.000000 0.000000 0.000000
# 4 0.000000 0.000000 0.000000 0.078430 0.000000 0.000000
# 5 0.000000 0.000000 0.000000 0.000000 -0.145122 0.000000
# 6 0.000000 0.000000 0.000000 0.000000 0.000000 0.068209
#
#
# Mechanical properties :
#
#
# Convention : Reuss Voigt Hill
#
# Bulk Modulus (GPa) = 40.07491 49.25013 44.66252
# Shear Modulus (GPa) = 58.00250 14.94447 36.47348
#
# Velocity S-wave (km/s) = 5.39793 2.73996 4.28048
# Velocity P-wave (km/s) = 7.67996 5.89497 6.84589
#
# Compressibility (1/GPa) = 0.02495327
#
# Stress axis : x y z
#
# Youngs Moduli (GPa) = 92.00373 40.10119 67.31785
#
# Poissons Ratio (x) = 0.21126 0.27544
# Poissons Ratio (y) = 0.48470 0.23520
# Poissons Ratio (z) = 0.37645 0.14011
#
# Static dielectric constant tensor:
#      x y z
#    x 3.761550 0.000000 0.000000 
#    y 0.000000 3.282530 0.000000 
#    z 0.000000 0.000000 3.680610 
# 
# 
# High freq. dielectric constant tensor:
#      x y z
#    x 1.794290 0.000000 0.000000 
#    y 0.000000 1.741230 0.000000 
#    z 0.000000 0.000000 1.779150 
# 
# From -- ./inp_files/19578.got.cif
#   From: 2010.03.12/outbox.cif.g09.slc.cpg/sg51_10_cif.got.tgz:19578.got - 2010.04.16 13:43:02.
