data_PCOD8207274
_publ_section_title
;
Structure prediction by ZEFSAII (Michael W. Deem and Ramdas Pophale) SiO2 
 PCOD8207274
Probable space group: P M M A
;
_chemical_formula_sum "Si O2"
_cell_formula_units_Z 56
_cell_length_a 22.737558
_cell_length_b 8.782808
_cell_length_c 14.946039
_cell_angle_alpha 90.000000
_cell_angle_beta 90.000000
_cell_angle_gamma 90.000000
_cell_volume 2984.718104
_symmetry_space_group_name_H-M "P M M A"
_symmetry_group_IT_number 51
_symmetry_cell_setting 'orthorhombic'
loop_
_space_group_symop_operation_xyz
x,y,z
1/2-x,-y,z
1/2+x,-y,-z
-x,y,-z
-x,-y,-z
1/2+x,y,-z
1/2-x,y,z
x,-y,z
loop_
_atom_site_type_symbol
_atom_site_label
_atom_site_fract_x
_atom_site_fract_y
_atom_site_fract_z
Si Si1 0.316539 0.322852 0.798542
Si Si2 0.481992 0.677419 0.598622
Si Si3 0.914701 0.177874 0.699540
Si Si4 0.951423 0.823106 0.890909
Si Si5 0.685273 0.180196 0.567494
Si Si6 0.360456 0.179781 0.622101
Si Si7 0.081540 0.819622 0.916900
O O1 0.250000 0.291951 0.833628
O O2 0.329228 0.500000 0.788254
O O3 0.321510 0.248925 0.700750
O O4 0.363786 0.256563 0.867420
O O5 0.500000 0.733002 0.500000
O O6 0.466023 0.500000 0.600067
O O7 0.535063 0.712765 0.664008
O O8 0.427807 0.774147 0.635262
O O9 0.910182 0.210620 0.805516
O O10 0.854698 0.229120 0.651414
O O11 0.929141 0.000000 0.680418
O O12 0.018559 0.763290 0.876120
O O13 0.959648 0.000000 0.908699
O O14 0.919072 0.760422 0.979715
O O15 0.750000 0.248011 0.584908
O O16 0.660818 0.245563 0.473780
O O17 0.687607 0.000000 0.559954
O O18 0.354185 0.000000 0.626610
O O19 0.090380 0.000000 0.907320
#
# Coordination Sequence:
#
# PCOD8207274 Si02
#       7
#     8   8   8   8   8   8   8
#     4  11  24  39  54  78 113 149 184 225 274 326
#     4  11  22  34  50  77 114 145 176 221 273 323
#     4  10  18  32  54  78 106 141 181 221 268 320
#     4   8  16  31  55  84 109 134 169 224 280 319
#     4   9  18  31  48  72 101 133 174 222 262 305
#     4  11  21  35  56  78 103 139 186 228 269 322
#     4   9  17  34  57  81 108 138 178 222 269 326
#
# _framework density 18.762239999999998
#
# number of rings (size 3 to 8) (size 9 to 14) (size 15 to 20)
#    0.000    2.143    1.429    3.429    0.000    3.429 
#    0.000    2.857    0.000    3.857    0.000    0.000 
#    0.000    0.000    0.000    0.000    0.000    0.000 
#
# Total GULP energy -694236.850274 kJ/mol
# GULP energy per Si atom -12397.086612 kJ/mol
# Density = 1.871954 g / cm^3
# Si number density = 18.762240 Si / 1000 Ang^3
#
#
#
# Elastic Constant Matrix: (Units=GPa)
#
#
# Indices 1 2 3 4 5 6 
#
# 1 138.3438 32.4900 72.9627 0.0000 0.0000 0.0000
# 2 32.4900 52.0619 32.5045 0.0000 0.0000 0.0000
# 3 72.9627 32.5045 141.3188 0.0000 0.0000 0.0000
# 4 0.0000 0.0000 0.0000 15.6996 0.0000 0.0000
# 5 0.0000 0.0000 0.0000 0.0000 29.5634 0.0000
# 6 0.0000 0.0000 0.0000 0.0000 0.0000 19.0482
#
#
#
# Elastic Compliance Matrix: (Units=1/GPa)
#
#
# Indices 1 2 3 4 5 6 
#
# 1 0.010511 -0.003703 -0.004575 0.000000 0.000000 0.000000
# 2 -0.003703 0.023733 -0.003547 0.000000 0.000000 0.000000
# 3 -0.004575 -0.003547 0.010254 0.000000 0.000000 0.000000
# 4 0.000000 0.000000 0.000000 0.063696 0.000000 0.000000
# 5 0.000000 0.000000 0.000000 0.000000 0.033826 0.000000
# 6 0.000000 0.000000 0.000000 0.000000 0.000000 0.052498
#
#
# Mechanical properties :
#
#
# Convention : Reuss Voigt Hill
#
# Bulk Modulus (GPa) = 47.96572 67.51544 57.74058
# Shear Modulus (GPa) = 22.21057 25.78006 23.99531
#
# Velocity S-wave (km/s) = 3.44436 3.71083 3.58007
# Velocity P-wave (km/s) = 6.43729 7.37721 6.92322
#
# Compressibility (1/GPa) = 0.02084822
#
# Stress axis : x y z
#
# Youngs Moduli (GPa) = 95.13922 42.13471 97.52192
#
# Poissons Ratio (x) = 0.15603 0.44616
# Poissons Ratio (y) = 0.35231 0.34591
# Poissons Ratio (z) = 0.43526 0.14945
#
# Static dielectric constant tensor:
#      x y z
#    x 3.564760 0.000000 0.000000 
#    y 0.000000 3.134070 0.000000 
#    z 0.000000 0.000000 3.657600 
# 
# 
# High freq. dielectric constant tensor:
#      x y z
#    x 1.726480 0.000000 0.000000 
#    y 0.000000 1.699620 0.000000 
#    z 0.000000 0.000000 1.734220 
# 
# From -- ./inp_files/25708.got.cif
#   From: 2010.03.12/outbox.cif.g09.slc.cpg/sg51_13_cif.got.tgz:25708.got - 2010.04.16 13:43:02.
