data_PCOD8207614
_publ_section_title
;
Structure prediction by ZEFSAII (Michael W. Deem and Ramdas Pophale) SiO2 
 PCOD8207614
Probable space group: P M M A
;
_chemical_formula_sum "Si O2"
_cell_formula_units_Z 44
_cell_length_a 9.078574
_cell_length_b 18.584348
_cell_length_c 19.443729
_cell_angle_alpha 90.000000
_cell_angle_beta 90.000000
_cell_angle_gamma 90.000000
_cell_volume 3280.533874
_symmetry_space_group_name_H-M "P M M A"
_symmetry_group_IT_number 51
_symmetry_cell_setting 'orthorhombic'
loop_
_space_group_symop_operation_xyz
x,y,z
1/2-x,-y,z
1/2+x,-y,-z
-x,y,-z
-x,-y,-z
1/2+x,y,-z
1/2-x,y,z
x,-y,z
loop_
_atom_site_type_symbol
_atom_site_label
_atom_site_fract_x
_atom_site_fract_y
_atom_site_fract_z
Si Si1 0.078659 0.924073 0.928022
Si Si2 0.922275 0.500000 0.072506
Si Si3 0.083684 0.585588 0.566719
Si Si4 0.423659 0.635243 0.836613
Si Si5 0.577117 0.231729 0.073074
Si Si6 0.923099 0.583553 0.704229
O O1 0.250000 0.922890 0.943869
O O2 0.037045 0.847198 0.893241
O O3 0.039091 0.000000 0.887575
O O4 0.000000 0.926460 0.000000
O O5 0.750000 0.500000 0.058575
O O6 0.971930 0.430048 0.114521
O O7 0.000000 0.500000 0.000000
O O8 0.250000 0.615913 0.568278
O O9 0.085449 0.500000 0.563313
O O10 0.000000 0.616914 0.500000
O O11 0.997423 0.611613 0.634257
O O12 0.250000 0.633115 0.821111
O O13 0.475689 0.708848 0.872689
O O14 0.510778 0.630594 0.765532
O O15 0.750000 0.240407 0.059637
O O16 0.500000 0.243813 0.000000
O O17 0.750000 0.596340 0.698464
O O18 0.961289 0.500000 0.717233
#
# Coordination Sequence:
#
# PCOD8207614 Si02
#       6
#     8   4   8   8   8   8
#     4   8  13  22  36  53  71  89 110 139 178 223
#     4  10  20  30  40  50  63  86 119 158 196 228
#     4   9  16  26  41  59  78  97 117 146 182 220
#     4  10  19  30  40  51  69  94 123 155 192 228
#     4   9  17  27  39  54  71  92 119 153 190 228
#     4  10  19  29  41  56  72  93 123 156 188 223
#
# _framework density 13.412451000000001
#
# number of rings (size 3 to 8) (size 9 to 14) (size 15 to 20)
#    0.000    2.727    0.909    1.636    0.000    4.364 
#    0.000    0.000    0.000    0.000    0.000    0.000 
#    0.000    0.000    0.000    0.000    0.000    0.909 
#
# Total GULP energy -545166.799681 kJ/mol
# GULP energy per Si atom -12390.154538 kJ/mol
# Density = 1.338192 g / cm^3
# Si number density = 13.412451 Si / 1000 Ang^3
#
#
#
# Elastic Constant Matrix: (Units=GPa)
#
#
# Indices 1 2 3 4 5 6 
#
# 1 52.5607 27.4833 42.9975 0.0000 0.0000 0.0000
# 2 27.4833 104.2430 47.8543 0.0000 0.0000 0.0000
# 3 42.9975 47.8543 102.9768 0.0000 0.0000 0.0000
# 4 0.0000 0.0000 0.0000 4.5745 0.0000 0.0000
# 5 0.0000 0.0000 0.0000 0.0000 25.5181 0.0000
# 6 0.0000 0.0000 0.0000 0.0000 0.0000 8.2879
#
#
#
# Elastic Compliance Matrix: (Units=1/GPa)
#
#
# Indices 1 2 3 4 5 6 
#
# 1 0.029480 -0.002697 -0.011056 0.000000 0.000000 0.000000
# 2 -0.002697 0.012441 -0.004655 0.000000 0.000000 0.000000
# 3 -0.011056 -0.004655 0.016491 0.000000 0.000000 0.000000
# 4 0.000000 0.000000 0.000000 0.218601 0.000000 0.000000
# 5 0.000000 0.000000 0.000000 0.000000 0.039188 0.000000
# 6 0.000000 0.000000 0.000000 0.000000 0.000000 0.120657
#
#
# Mechanical properties :
#
#
# Convention : Reuss Voigt Hill
#
# Bulk Modulus (GPa) = 46.30627 55.16117 50.73372
# Shear Modulus (GPa) = 10.39773 17.10580 13.75177
#
# Velocity S-wave (km/s) = 2.78732 3.57510 3.20550
# Velocity P-wave (km/s) = 6.70512 7.63269 7.18389
#
# Compressibility (1/GPa) = 0.02159535
#
# Stress axis : x y z
#
# Youngs Moduli (GPa) = 33.92100 80.37841 60.64011
#
# Poissons Ratio (x) = 0.21678 0.67044
# Poissons Ratio (y) = 0.09148 0.28231
# Poissons Ratio (z) = 0.37503 0.37420
#
# Static dielectric constant tensor:
#      x y z
#    x 2.714570 0.000000 0.000000 
#    y 0.000000 2.987420 0.000000 
#    z 0.000000 0.000000 2.517350 
# 
# 
# High freq. dielectric constant tensor:
#      x y z
#    x 1.520780 0.000000 0.000000 
#    y 0.000000 1.486990 0.000000 
#    z 0.000000 0.000000 1.483560 
# 
# From -- ./inp_files/27862.got.cif
#   From: 2010.03.12/outbox.cif.g09.slc.cpg/sg51_14_cif.got.tgz:27862.got - 2010.04.16 13:43:02.
