data_PCOD8207188
_publ_section_title
;
Structure prediction by ZEFSAII (Michael W. Deem and Ramdas Pophale) SiO2 
 PCOD8207188
Probable space group: P M M A
;
_chemical_formula_sum "Si O2"
_cell_formula_units_Z 64
_cell_length_a 8.777749
_cell_length_b 21.786632
_cell_length_c 18.759034
_cell_angle_alpha 90.000000
_cell_angle_beta 90.000000
_cell_angle_gamma 90.000000
_cell_volume 3587.432401
_symmetry_space_group_name_H-M "P M M A"
_symmetry_group_IT_number 51
_symmetry_cell_setting 'orthorhombic'
loop_
_space_group_symop_operation_xyz
x,y,z
1/2-x,-y,z
1/2+x,-y,-z
-x,y,-z
-x,-y,-z
1/2+x,y,-z
1/2-x,y,z
x,-y,z
loop_
_atom_site_type_symbol
_atom_site_label
_atom_site_fract_x
_atom_site_fract_y
_atom_site_fract_z
Si Si1 0.574215 0.569007 0.143470
Si Si2 0.069651 0.316941 0.073425
Si Si3 0.427002 0.832870 0.326255
Si Si4 0.929878 0.739837 0.782196
Si Si5 0.430890 0.613801 0.282220
Si Si6 0.920938 0.749441 0.430541
Si Si7 0.929138 0.930470 0.425504
Si Si8 0.920102 0.604636 0.429029
O O1 0.750000 0.588674 0.149546
O O2 0.557662 0.500000 0.113360
O O3 0.489857 0.614653 0.089215
O O4 0.498106 0.570316 0.221295
O O5 0.250000 0.319560 0.067128
O O6 0.015957 0.270162 0.136238
O O7 0.000000 0.291844 0.000000
O O8 0.250000 0.849948 0.330456
O O9 0.476275 0.808420 0.246745
O O10 0.465884 0.771089 0.369019
O O11 0.520161 0.890371 0.357103
O O12 0.750000 0.734742 0.778245
O O13 0.992469 0.683198 0.733647
O O14 0.250000 0.610202 0.280605
O O15 0.487350 0.587742 0.358088
O O16 0.750000 0.777232 0.421675
O O17 0.912758 0.677271 0.435381
O O18 0.000000 0.777767 0.500000
O O19 0.750000 0.926322 0.433342
O O20 0.000000 0.906382 0.500000
O O21 0.983668 0.000000 0.410757
O O22 0.750000 0.577141 0.424063
O O23 0.000000 0.577267 0.500000
#
# Coordination Sequence:
#
# PCOD8207188 Si02
#       8
#     8   8   8   8   8   8   8   8
#     4  10  21  36  54  77 102 130 167 206 243 288
#     4  10  20  36  56  79 106 137 166 196 240 292
#     4  11  19  30  48  68  94 126 164 208 250 295
#     4   8  17  31  48  71  98 127 158 195 240 293
#     4  10  18  32  51  70  97 128 161 202 252 302
#     4  10  19  28  39  60  89 122 157 196 240 287
#     4  10  21  36  50  66  93 132 178 222 261 300
#     4  10  19  29  43  64  91 123 159 199 244 295
#
# _framework density 17.840057999999999
#
# number of rings (size 3 to 8) (size 9 to 14) (size 15 to 20)
#    0.000    2.125    1.250    3.750    0.000    3.000 
#    0.000    1.875    0.000    0.375    0.000    0.000 
#    0.000    0.500    0.000    1.125    0.000    2.000 
#
# Total GULP energy -793085.289519 kJ/mol
# GULP energy per Si atom -12391.957649 kJ/mol
# Density = 1.779945 g / cm^3
# Si number density = 17.840058 Si / 1000 Ang^3
#
#
#
# Elastic Constant Matrix: (Units=GPa)
#
#
# Indices 1 2 3 4 5 6 
#
# 1 81.4558 19.5769 32.6971 0.0000 0.0000 0.0000
# 2 19.5769 63.6396 29.3611 0.0000 0.0000 0.0000
# 3 32.6971 29.3611 119.0161 0.0000 0.0000 0.0000
# 4 0.0000 0.0000 0.0000 17.0458 0.0000 0.0000
# 5 0.0000 0.0000 0.0000 0.0000 29.7112 0.0000
# 6 0.0000 0.0000 0.0000 0.0000 0.0000 18.6403
#
#
#
# Elastic Compliance Matrix: (Units=1/GPa)
#
#
# Indices 1 2 3 4 5 6 
#
# 1 0.014261 -0.002911 -0.003200 0.000000 0.000000 0.000000
# 2 -0.002911 0.018326 -0.003721 0.000000 0.000000 0.000000
# 3 -0.003200 -0.003721 0.010199 0.000000 0.000000 0.000000
# 4 0.000000 0.000000 0.000000 0.058666 0.000000 0.000000
# 5 0.000000 0.000000 0.000000 0.000000 0.033657 0.000000
# 6 0.000000 0.000000 0.000000 0.000000 0.000000 0.053647
#
#
# Mechanical properties :
#
#
# Convention : Reuss Voigt Hill
#
# Bulk Modulus (GPa) = 43.24827 47.48684 45.36755
# Shear Modulus (GPa) = 23.13460 25.24454 24.18957
#
# Velocity S-wave (km/s) = 3.60499 3.76579 3.68627
# Velocity P-wave (km/s) = 6.45157 6.75160 6.60329
#
# Compressibility (1/GPa) = 0.02312231
#
# Stress axis : x y z
#
# Youngs Moduli (GPa) = 70.12367 54.56805 98.04578
#
# Poissons Ratio (x) = 0.15883 0.31372
# Poissons Ratio (y) = 0.20410 0.36486
# Poissons Ratio (z) = 0.22438 0.20306
#
# Static dielectric constant tensor:
#      x y z
#    x 3.386160 0.000000 0.000000 
#    y 0.000000 3.132670 0.000000 
#    z 0.000000 0.000000 3.443060 
# 
# 
# High freq. dielectric constant tensor:
#      x y z
#    x 1.697900 0.000000 0.000000 
#    y 0.000000 1.655830 0.000000 
#    z 0.000000 0.000000 1.677860 
# 
# From -- ./inp_files/28461.got.cif
#   From: 2010.03.12/outbox.cif.g09.slc.cpg/sg51_15_cif.got.tgz:28461.got - 2010.04.16 13:43:02.
