data_PCOD8207672
_publ_section_title
;
Structure prediction by ZEFSAII (Michael W. Deem and Ramdas Pophale) SiO2 
 PCOD8207672
Probable space group: P M M A
;
_chemical_formula_sum "Si O2"
_cell_formula_units_Z 48
_cell_length_a 8.833821
_cell_length_b 13.700917
_cell_length_c 24.110419
_cell_angle_alpha 90.000000
_cell_angle_beta 90.000000
_cell_angle_gamma 90.000000
_cell_volume 2918.118931
_symmetry_space_group_name_H-M "P M M A"
_symmetry_group_IT_number 51
_symmetry_cell_setting 'orthorhombic'
loop_
_space_group_symop_operation_xyz
x,y,z
1/2-x,-y,z
1/2+x,-y,-z
-x,y,-z
-x,-y,-z
1/2+x,y,-z
1/2-x,y,z
x,-y,z
loop_
_atom_site_type_symbol
_atom_site_label
_atom_site_fract_x
_atom_site_fract_y
_atom_site_fract_z
Si Si1 0.429618 0.203588 0.726393
Si Si2 0.571007 0.721348 0.442383
Si Si3 0.572172 0.113039 0.831915
Si Si4 0.075505 0.887729 0.377447
Si Si5 0.428802 0.392881 0.664998
Si Si6 0.079898 0.884085 0.945175
O O1 0.250000 0.192336 0.723915
O O2 0.488882 0.179623 0.787180
O O3 0.500547 0.128840 0.682509
O O4 0.481348 0.314191 0.711013
O O5 0.500000 0.686268 0.500000
O O6 0.750000 0.729018 0.448128
O O7 0.507936 0.827158 0.425343
O O8 0.520726 0.643308 0.395881
O O9 0.750000 0.129669 0.827880
O O10 0.515350 0.149099 0.891770
O O11 0.529301 0.000000 0.821946
O O12 0.250000 0.855934 0.374072
O O13 0.057939 0.000000 0.393827
O O14 0.250000 0.400948 0.666396
O O15 0.500778 0.500000 0.676860
O O16 0.250000 0.842262 0.941010
O O17 0.083762 0.000000 0.949131
O O18 0.000000 0.840558 0.000000
#
# Coordination Sequence:
#
# PCOD8207672 Si02
#       6
#     8   8   8   8   8   8
#     4  10  19  30  47  69  91 116 147 185 225 266
#     4  10  20  33  50  70  91 115 143 178 217 260
#     4  10  19  29  42  62  91 127 161 191 223 259
#     4  10  20  33  48  65  88 119 150 181 218 259
#     4   8  16  32  51  69  89 113 141 176 222 272
#     4   9  16  26  40  59  86 121 160 197 229 262
#
# _framework density 16.448952999999999
#
# number of rings (size 3 to 8) (size 9 to 14) (size 15 to 20)
#    0.000    2.500    0.000    4.000    0.000    7.000 
#    0.000    0.000    0.000   17.500    0.000    0.000 
#    0.000    0.667    0.000    1.833    0.000    2.667 
#
# Total GULP energy -595160.923832 kJ/mol
# GULP energy per Si atom -12399.185913 kJ/mol
# Density = 1.641151 g / cm^3
# Si number density = 16.448953 Si / 1000 Ang^3
#
#
#
# Elastic Constant Matrix: (Units=GPa)
#
#
# Indices 1 2 3 4 5 6 
#
# 1 83.1293 32.0854 34.8975 0.0000 0.0000 0.0000
# 2 32.0854 82.2619 41.7409 0.0000 0.0000 0.0000
# 3 34.8975 41.7409 113.6398 0.0000 0.0000 0.0000
# 4 0.0000 0.0000 0.0000 6.3882 0.0000 0.0000
# 5 0.0000 0.0000 0.0000 0.0000 34.8235 0.0000
# 6 0.0000 0.0000 0.0000 0.0000 0.0000 11.5365
#
#
#
# Elastic Compliance Matrix: (Units=1/GPa)
#
#
# Indices 1 2 3 4 5 6 
#
# 1 0.014955 -0.004305 -0.003011 0.000000 0.000000 0.000000
# 2 -0.004305 0.016180 -0.004621 0.000000 0.000000 0.000000
# 3 -0.003011 -0.004621 0.011422 0.000000 0.000000 0.000000
# 4 0.000000 0.000000 0.000000 0.156538 0.000000 0.000000
# 5 0.000000 0.000000 0.000000 0.000000 0.028716 0.000000
# 6 0.000000 0.000000 0.000000 0.000000 0.000000 0.086681
#
#
# Mechanical properties :
#
#
# Convention : Reuss Voigt Hill
#
# Bulk Modulus (GPa) = 53.52659 55.16429 54.34544
# Shear Modulus (GPa) = 14.50979 21.90346 18.20663
#
# Velocity S-wave (km/s) = 2.97326 3.65307 3.33055
# Velocity P-wave (km/s) = 6.66323 7.16957 6.92103
#
# Compressibility (1/GPa) = 0.01868230
#
# Stress axis : x y z
#
# Youngs Moduli (GPa) = 66.86618 61.80353 87.55167
#
# Poissons Ratio (x) = 0.26608 0.26364
# Poissons Ratio (y) = 0.28787 0.40458
# Poissons Ratio (z) = 0.20135 0.28560
#
# Static dielectric constant tensor:
#      x y z
#    x 3.155350 0.000000 0.000000 
#    y 0.000000 3.061600 0.000000 
#    z 0.000000 0.000000 3.158430 
# 
# 
# High freq. dielectric constant tensor:
#      x y z
#    x 1.640350 0.000000 0.000000 
#    y 0.000000 1.596120 0.000000 
#    z 0.000000 0.000000 1.632690 
# 
# From -- ./inp_files/34528.got.cif
#   From: 2010.03.12/outbox.cif.g09.slc.cpg/sg51_18_cif.got.tgz:34528.got - 2010.04.16 13:43:02.
