data_PCOD8207752
_publ_section_title
;
Structure prediction by ZEFSAII (Michael W. Deem and Ramdas Pophale) SiO2 
 PCOD8207752
Probable space group: P M M A
;
_chemical_formula_sum "Si O2"
_cell_formula_units_Z 28
_cell_length_a 9.256444
_cell_length_b 9.692035
_cell_length_c 19.354021
_cell_angle_alpha 90.000000
_cell_angle_beta 90.000000
_cell_angle_gamma 90.000000
_cell_volume 1736.322367
_symmetry_space_group_name_H-M "P M M A"
_symmetry_group_IT_number 51
_symmetry_cell_setting 'orthorhombic'
loop_
_space_group_symop_operation_xyz
x,y,z
1/2-x,-y,z
1/2+x,-y,-z
-x,y,-z
-x,-y,-z
1/2+x,y,-z
1/2-x,y,z
x,-y,z
loop_
_atom_site_type_symbol
_atom_site_label
_atom_site_fract_x
_atom_site_fract_y
_atom_site_fract_z
Si Si1 0.913415 0.335824 0.565851
Si Si2 0.412834 0.153030 0.200466
Si Si3 0.082487 0.660807 0.701013
Si Si4 0.913816 0.000000 0.930164
O O1 0.750000 0.277854 0.565292
O O2 0.912123 0.500000 0.562665
O O3 0.000000 0.276324 0.500000
O O4 0.993721 0.285466 0.634866
O O5 0.250000 0.209881 0.212260
O O6 0.528418 0.257590 0.231938
O O7 0.444356 0.135549 0.117881
O O8 0.426351 0.000000 0.234878
O O9 0.250000 0.692039 0.687834
O O10 0.055174 0.500000 0.714487
O O11 0.750000 0.000000 0.954129
O O12 0.000000 0.000000 0.000000
#
# Coordination Sequence:
#
# PCOD8207752 Si02
#       4
#     8   8   8   4
#     4   9  16  26  41  61  87 120 156 194 233 271
#     4   8  17  32  48  69  94 121 153 188 226 273
#     4  10  19  29  44  69  97 123 155 193 231 273
#     4   8  16  30  50  74  95 116 149 188 224 268
#
# _framework density 16.126037
#
# number of rings (size 3 to 8) (size 9 to 14) (size 15 to 20)
#    0.857    2.286    0.000    1.714    0.000    6.857 
#    0.000    0.000    0.000    1.714    0.000    0.000 
#    0.000    0.000    0.000    0.000    0.000    0.000 
#
# Total GULP energy -346933.034110 kJ/mol
# GULP energy per Si atom -12390.465504 kJ/mol
# Density = 1.608933 g / cm^3
# Si number density = 16.126037 Si / 1000 Ang^3
#
#
#
# Elastic Constant Matrix: (Units=GPa)
#
#
# Indices 1 2 3 4 5 6 
#
# 1 135.5234 37.4280 79.7868 0.0000 0.0000 0.0000
# 2 37.4280 32.3579 36.0711 0.0000 0.0000 0.0000
# 3 79.7868 36.0711 123.4584 0.0000 0.0000 0.0000
# 4 0.0000 0.0000 0.0000 15.6982 0.0000 0.0000
# 5 0.0000 0.0000 0.0000 0.0000 38.7541 0.0000
# 6 0.0000 0.0000 0.0000 0.0000 0.0000 22.9811
#
#
#
# Elastic Compliance Matrix: (Units=1/GPa)
#
#
# Indices 1 2 3 4 5 6 
#
# 1 0.013364 -0.008646 -0.006111 0.000000 0.000000 0.000000
# 2 -0.008646 0.051426 -0.009437 0.000000 0.000000 0.000000
# 3 -0.006111 -0.009437 0.014806 0.000000 0.000000 0.000000
# 4 0.000000 0.000000 0.000000 0.063702 0.000000 0.000000
# 5 0.000000 0.000000 0.000000 0.000000 0.025804 0.000000
# 6 0.000000 0.000000 0.000000 0.000000 0.000000 0.043514
#
#
# Mechanical properties :
#
#
# Convention : Reuss Voigt Hill
#
# Bulk Modulus (GPa) = 32.04340 66.43461 49.23901
# Shear Modulus (GPa) = 18.42253 24.69026 21.55639
#
# Velocity S-wave (km/s) = 3.38362 3.91715 3.66012
# Velocity P-wave (km/s) = 5.93118 7.85782 6.96147
#
# Compressibility (1/GPa) = 0.03120767
#
# Stress axis : x y z
#
# Youngs Moduli (GPa) = 74.82691 19.44547 67.53897
#
# Poissons Ratio (x) = 0.16813 0.41270
# Poissons Ratio (y) = 0.64698 0.63739
# Poissons Ratio (z) = 0.45723 0.18351
#
# Static dielectric constant tensor:
#      x y z
#    x 3.120300 0.000000 0.000000 
#    y 0.000000 2.592780 0.000000 
#    z 0.000000 0.000000 2.932770 
# 
# 
# High freq. dielectric constant tensor:
#      x y z
#    x 1.633430 0.000000 0.000000 
#    y 0.000000 1.570280 0.000000 
#    z 0.000000 0.000000 1.613250 
# 
# From -- ./inp_files/26918.got.cif
#   From: 2010.03.12/outbox.cif.g09.slc.cpg/sg51_14_cif.got.tgz:26918.got - 2010.04.16 13:43:02.
