data_PCOD8207750
_publ_section_title
;
Structure prediction by ZEFSAII (Michael W. Deem and Ramdas Pophale) SiO2 
 PCOD8207750
Probable space group: P M M A
;
_chemical_formula_sum "Si O2"
_cell_formula_units_Z 56
_cell_length_a 17.991763
_cell_length_b 9.040206
_cell_length_c 20.398277
_cell_angle_alpha 90.000000
_cell_angle_beta 90.000000
_cell_angle_gamma 90.000000
_cell_volume 3317.764329
_symmetry_space_group_name_H-M "P M M A"
_symmetry_group_IT_number 51
_symmetry_cell_setting 'orthorhombic'
loop_
_space_group_symop_operation_xyz
x,y,z
1/2-x,-y,z
1/2+x,-y,-z
-x,y,-z
-x,-y,-z
1/2+x,y,-z
1/2-x,y,z
x,-y,z
loop_
_atom_site_type_symbol
_atom_site_label
_atom_site_fract_x
_atom_site_fract_y
_atom_site_fract_z
Si Si1 0.835826 0.330054 0.987485
Si Si2 0.468739 0.333146 0.572920
Si Si3 0.407704 0.824784 0.134308
Si Si4 0.393897 0.826767 0.379892
Si Si5 0.164652 0.329038 0.254868
Si Si6 0.165400 0.828581 0.523030
Si Si7 0.449525 0.837386 0.936178
O O1 0.750000 0.307850 0.004807
O O2 0.855427 0.500000 0.973342
O O3 0.855336 0.237711 0.922935
O O4 0.882216 0.276042 0.051262
O O5 0.500000 0.327794 0.500000
O O6 0.464754 0.500000 0.599871
O O7 0.522364 0.237495 0.619527
O O8 0.386289 0.263927 0.572544
O O9 0.387287 0.752100 0.202861
O O10 0.494898 0.785771 0.121874
O O11 0.395217 0.000000 0.137096
O O12 0.345884 0.746128 0.324993
O O13 0.352415 0.791878 0.447688
O O14 0.397896 0.000000 0.364821
O O15 0.250000 0.311664 0.233067
O O16 0.141603 0.500000 0.259193
O O17 0.250000 0.784001 0.537792
O O18 0.150235 0.000000 0.536821
O O19 0.416121 0.000000 0.920805
O O20 0.500000 0.847206 0.000000
#
# Coordination Sequence:
#
# PCOD8207750 Si02
#       7
#     8   8   8   8   8   8   8
#     4  10  19  29  44  69  97 122 150 186 229 274
#     4   9  17  29  45  66  92 121 153 190 233 277
#     4  10  20  33  48  66  90 122 159 193 225 268
#     4  10  19  32  49  67  91 125 161 193 227 270
#     4  11  23  35  47  67  95 125 157 191 226 268
#     4   9  17  29  46  69  95 122 154 192 232 274
#     4   8  16  30  46  65  88 116 152 190 227 269
#
# _framework density 16.878837000000001
#
# number of rings (size 3 to 8) (size 9 to 14) (size 15 to 20)
#    0.000    2.429    0.000    3.857    0.000   10.286 
#    0.000    0.000    0.000    0.000    0.000    1.000 
#    0.000    3.429    0.000    0.000    0.000    0.000 
#
# Total GULP energy -694360.612156 kJ/mol
# GULP energy per Si atom -12399.296646 kJ/mol
# Density = 1.684042 g / cm^3
# Si number density = 16.878837 Si / 1000 Ang^3
#
#
#
# Elastic Constant Matrix: (Units=GPa)
#
#
# Indices 1 2 3 4 5 6 
#
# 1 82.7391 43.7019 15.7690 0.0000 0.0000 0.0000
# 2 43.7019 104.3934 24.3121 0.0000 0.0000 0.0000
# 3 15.7690 24.3121 31.5493 0.0000 0.0000 0.0000
# 4 0.0000 0.0000 0.0000 25.2560 0.0000 0.0000
# 5 0.0000 0.0000 0.0000 0.0000 26.3350 0.0000
# 6 0.0000 0.0000 0.0000 0.0000 0.0000 30.2597
#
#
#
# Elastic Compliance Matrix: (Units=1/GPa)
#
#
# Indices 1 2 3 4 5 6 
#
# 1 0.015814 -0.005825 -0.003415 0.000000 0.000000 0.000000
# 2 -0.005825 0.013820 -0.007738 0.000000 0.000000 0.000000
# 3 -0.003415 -0.007738 0.039367 0.000000 0.000000 0.000000
# 4 0.000000 0.000000 0.000000 0.039595 0.000000 0.000000
# 5 0.000000 0.000000 0.000000 0.000000 0.037972 0.000000
# 6 0.000000 0.000000 0.000000 0.000000 0.000000 0.033047
#
#
# Mechanical properties :
#
#
# Convention : Reuss Voigt Hill
#
# Bulk Modulus (GPa) = 28.53612 42.91642 35.72627
# Shear Modulus (GPa) = 22.19735 25.36337 23.78036
#
# Velocity S-wave (km/s) = 3.63036 3.88064 3.75759
# Velocity P-wave (km/s) = 5.87502 6.74985 6.32757
#
# Compressibility (1/GPa) = 0.03504331
#
# Stress axis : x y z
#
# Youngs Moduli (GPa) = 63.23663 72.36071 25.40212
#
# Poissons Ratio (x) = 0.42147 0.08676
# Poissons Ratio (y) = 0.36833 0.19657
# Poissons Ratio (z) = 0.21598 0.55995
#
# Static dielectric constant tensor:
#      x y z
#    x 3.320260 0.000000 0.000000 
#    y 0.000000 3.329280 0.000000 
#    z 0.000000 0.000000 2.912880 
# 
# 
# High freq. dielectric constant tensor:
#      x y z
#    x 1.649680 0.000000 0.000000 
#    y 0.000000 1.665920 0.000000 
#    z 0.000000 0.000000 1.607220 
# 
# From -- ./inp_files/33681.got.cif
#   From: 2010.03.12/outbox.cif.g09.slc.cpg/sg51_17_cif.got.tgz:33681.got - 2010.04.16 13:43:02.
