data_PCOD8207653
_publ_section_title
;
Structure prediction by ZEFSAII (Michael W. Deem and Ramdas Pophale) SiO2 
 PCOD8207653
Probable space group: P M M A
;
_chemical_formula_sum "Si O2"
_cell_formula_units_Z 64
_cell_length_a 19.837563
_cell_length_b 9.837868
_cell_length_c 19.963990
_cell_angle_alpha 90.000000
_cell_angle_beta 90.000000
_cell_angle_gamma 90.000000
_cell_volume 3896.158837
_symmetry_space_group_name_H-M "P M M A"
_symmetry_group_IT_number 51
_symmetry_cell_setting 'orthorhombic'
loop_
_space_group_symop_operation_xyz
x,y,z
1/2-x,-y,z
1/2+x,-y,-z
-x,y,-z
-x,-y,-z
1/2+x,y,-z
1/2-x,y,z
x,-y,z
loop_
_atom_site_type_symbol
_atom_site_label
_atom_site_fract_x
_atom_site_fract_y
_atom_site_fract_z
Si Si1 0.954089 0.844559 0.603473
Si Si2 0.672961 0.661876 0.984530
Si Si3 0.400940 0.651674 0.753532
Si Si4 0.828119 0.652315 0.371552
Si Si5 0.572831 0.338443 0.871895
Si Si6 0.403181 0.155055 0.541298
Si Si7 0.923392 0.662826 0.102553
Si Si8 0.556689 0.347358 0.724000
O O1 0.907958 0.826037 0.538272
O O2 0.923914 0.750900 0.662539
O O3 0.029204 0.802840 0.581087
O O4 0.952708 0.000000 0.628632
O O5 0.750000 0.718954 0.987860
O O6 0.675112 0.500000 0.987525
O O7 0.636116 0.711644 0.916423
O O8 0.626300 0.718962 0.044971
O O9 0.371617 0.500000 0.760058
O O10 0.358011 0.725082 0.695483
O O11 0.394431 0.720630 0.826739
O O12 0.477195 0.648710 0.730105
O O13 0.750000 0.643123 0.362123
O O14 0.858523 0.500000 0.381872
O O15 0.844455 0.744882 0.435292
O O16 0.568581 0.500000 0.870542
O O17 0.501458 0.286377 0.903987
O O18 0.584994 0.289291 0.795145
O O19 0.384692 0.000000 0.558193
O O20 0.923561 0.500000 0.102474
O O21 0.584403 0.500000 0.709544
#
# Coordination Sequence:
#
# PCOD8207653 Si02
#       8
#     8   8   8   8   8   8   8   8
#     4   9  17  29  46  67  88 107 135 183 225 251
#     4   9  15  21  31  50  78 111 144 177 216 259
#     4   8  14  24  36  55  82 109 141 175 207 248
#     4  10  19  29  42  61  88 119 147 177 210 250
#     4   8  14  23  35  53  78 109 144 178 211 255
#     4   9  18  31  45  63  87 113 141 175 219 260
#     4   8  13  21  34  50  74 110 146 175 205 252
#     4   9  15  25  43  63  84 112 142 172 215 266
#
# _framework density 16.426434
#
# number of rings (size 3 to 8) (size 9 to 14) (size 15 to 20)
#    0.000    3.250    1.250    2.625    0.000    2.750 
#    0.000    3.750    0.000    0.750    0.000    1.750 
#    0.000    9.000    0.000    1.375    0.000    0.000 
#
# Total GULP energy -792861.076280 kJ/mol
# GULP energy per Si atom -12388.454317 kJ/mol
# Density = 1.638905 g / cm^3
# Si number density = 16.426434 Si / 1000 Ang^3
#
#
#
# Elastic Constant Matrix: (Units=GPa)
#
#
# Indices 1 2 3 4 5 6 
#
# 1 62.6350 15.9857 43.7052 0.0000 0.0000 0.0000
# 2 15.9857 31.6329 35.0888 0.0000 0.0000 0.0000
# 3 43.7052 35.0888 118.7406 0.0000 0.0000 0.0000
# 4 0.0000 0.0000 0.0000 1.7240 0.0000 0.0000
# 5 0.0000 0.0000 0.0000 0.0000 19.5819 0.0000
# 6 0.0000 0.0000 0.0000 0.0000 0.0000 11.1755
#
#
#
# Elastic Compliance Matrix: (Units=1/GPa)
#
#
# Indices 1 2 3 4 5 6 
#
# 1 0.021690 -0.003132 -0.007058 0.000000 0.000000 0.000000
# 2 -0.003132 0.047480 -0.012878 0.000000 0.000000 0.000000
# 3 -0.007058 -0.012878 0.014825 0.000000 0.000000 0.000000
# 4 0.000000 0.000000 0.000000 0.580051 0.000000 0.000000
# 5 0.000000 0.000000 0.000000 0.000000 0.051067 0.000000
# 6 0.000000 0.000000 0.000000 0.000000 0.000000 0.089482
#
#
# Mechanical properties :
#
#
# Convention : Reuss Voigt Hill
#
# Bulk Modulus (GPa) = 26.41354 44.72975 35.57164
# Shear Modulus (GPa) = 5.79139 14.37820 10.08480
#
# Velocity S-wave (km/s) = 1.87971 2.96177 2.48046
# Velocity P-wave (km/s) = 4.56354 6.24384 5.46861
#
# Compressibility (1/GPa) = 0.03785938
#
# Stress axis : x y z
#
# Youngs Moduli (GPa) = 46.10498 21.06137 67.45332
#
# Poissons Ratio (x) = 0.06596 0.47607
# Poissons Ratio (y) = 0.14440 0.86866
# Poissons Ratio (z) = 0.32540 0.27123
#
# Static dielectric constant tensor:
#      x y z
#    x 2.952370 0.000000 0.000000 
#    y 0.000000 2.652270 0.000000 
#    z 0.000000 0.000000 3.420430 
# 
# 
# High freq. dielectric constant tensor:
#      x y z
#    x 1.605460 0.000000 0.000000 
#    y 0.000000 1.570100 0.000000 
#    z 0.000000 0.000000 1.645930 
# 
# From -- ./inp_files/30713.got.cif
#   From: 2010.03.12/outbox.cif.g09.slc.cpg/sg51_16_cif.got.tgz:30713.got - 2010.04.16 13:43:02.
