data_PCOD8207932
_publ_section_title
;
Structure prediction by ZEFSAII (Michael W. Deem and Ramdas Pophale) SiO2 
 PCOD8207932
Probable space group: P M M A
;
_chemical_formula_sum "Si O2"
_cell_formula_units_Z 64
_cell_length_a 8.806402
_cell_length_b 30.922833
_cell_length_c 14.355428
_cell_angle_alpha 90.000000
_cell_angle_beta 90.000000
_cell_angle_gamma 90.000000
_cell_volume 3909.254339
_symmetry_space_group_name_H-M "P M M A"
_symmetry_group_IT_number 51
_symmetry_cell_setting 'orthorhombic'
loop_
_space_group_symop_operation_xyz
x,y,z
1/2-x,-y,z
1/2+x,-y,-z
-x,y,-z
-x,-y,-z
1/2+x,y,-z
1/2-x,y,z
x,-y,z
loop_
_atom_site_type_symbol
_atom_site_label
_atom_site_fract_x
_atom_site_fract_y
_atom_site_fract_z
Si Si1 0.927116 0.449837 0.597781
Si Si2 0.429458 0.298043 0.400036
Si Si3 0.070914 0.215106 0.279990
Si Si4 0.072034 0.342478 0.905925
Si Si5 0.069860 0.623126 0.709041
Si Si6 0.929591 0.243544 0.095238
Si Si7 0.427153 0.954385 0.599863
Si Si8 0.929894 0.860530 0.397791
O O1 0.750000 0.438609 0.594437
O O2 0.956940 0.500000 0.618416
O O3 0.000000 0.435807 0.500000
O O4 0.008730 0.423824 0.680281
O O5 0.500000 0.288605 0.500000
O O6 0.250000 0.302962 0.409369
O O7 0.476994 0.258283 0.334687
O O8 0.496927 0.341764 0.358682
O O9 0.250000 0.211157 0.271019
O O10 0.997170 0.215492 0.178436
O O11 0.006302 0.173593 0.330865
O O12 0.250000 0.344974 0.918716
O O13 0.018187 0.369346 0.815785
O O14 0.018121 0.293205 0.891372
O O15 0.000000 0.362326 0.000000
O O16 0.250000 0.625779 0.699031
O O17 0.750000 0.238708 0.093125
O O18 0.000000 0.225096 0.000000
O O19 0.500000 0.955514 0.500000
O O20 0.250000 0.953974 0.582837
O O21 0.470424 0.908249 0.646575
O O22 0.472863 0.000000 0.653287
O O23 0.750000 0.852381 0.403586
O O24 0.000000 0.855346 0.500000
#
# Coordination Sequence:
#
# PCOD8207932 Si02
#       8
#     8   8   8   8   8   8   8   8
#     4  10  21  37  56  78 103 132 164 199 240 285
#     4  11  23  35  48  67  95 131 167 201 237 278
#     4  11  22  34  48  68  95 131 168 202 242 289
#     4   9  19  33  52  76 100 127 157 197 241 285
#     4  11  21  35  54  77 102 128 161 199 242 286
#     4  10  19  34  53  73  97 125 161 203 246 290
#     4   8  14  25  41  61  85 116 157 202 246 290
#     4  10  19  30  45  65  93 130 167 205 247 293
#
# _framework density 16.371407999999999
#
# number of rings (size 3 to 8) (size 9 to 14) (size 15 to 20)
#    0.000    2.000    1.250    3.000    0.000    5.250 
#    0.000    0.000    0.000    0.375    0.000    0.000 
#    0.000    0.500    0.000    1.375    0.000    2.250 
#
# Total GULP energy -793364.529551 kJ/mol
# GULP energy per Si atom -12396.320774 kJ/mol
# Density = 1.633415 g / cm^3
# Si number density = 16.371408 Si / 1000 Ang^3
#
#
#
# Elastic Constant Matrix: (Units=GPa)
#
#
# Indices 1 2 3 4 5 6 
#
# 1 64.4807 35.9607 43.7908 0.0000 0.0000 0.0000
# 2 35.9607 96.8012 53.6833 0.0000 0.0000 0.0000
# 3 43.7908 53.6833 118.5288 0.0000 0.0000 0.0000
# 4 0.0000 0.0000 0.0000 4.9318 0.0000 0.0000
# 5 0.0000 0.0000 0.0000 0.0000 29.3022 0.0000
# 6 0.0000 0.0000 0.0000 0.0000 0.0000 20.3670
#
#
#
# Elastic Compliance Matrix: (Units=1/GPa)
#
#
# Indices 1 2 3 4 5 6 
#
# 1 0.022364 -0.004976 -0.006009 0.000000 0.000000 0.000000
# 2 -0.004976 0.014903 -0.004911 0.000000 0.000000 0.000000
# 3 -0.006009 -0.004911 0.012881 0.000000 0.000000 0.000000
# 4 0.000000 0.000000 0.000000 0.202767 0.000000 0.000000
# 5 0.000000 0.000000 0.000000 0.000000 0.034127 0.000000
# 6 0.000000 0.000000 0.000000 0.000000 0.000000 0.049099
#
#
# Mechanical properties :
#
#
# Convention : Reuss Voigt Hill
#
# Bulk Modulus (GPa) = 54.47776 60.74224 57.61000
# Shear Modulus (GPa) = 13.36713 20.67860 17.02286
#
# Velocity S-wave (km/s) = 2.86053 3.55786 3.22808
# Velocity P-wave (km/s) = 6.65271 7.35262 7.01140
#
# Compressibility (1/GPa) = 0.01835611
#
# Stress axis : x y z
#
# Youngs Moduli (GPa) = 44.71401 67.10269 77.63265
#
# Poissons Ratio (x) = 0.33388 0.46649
# Poissons Ratio (y) = 0.22248 0.38127
# Poissons Ratio (z) = 0.26869 0.32956
#
# Static dielectric constant tensor:
#      x y z
#    x 3.182320 0.000000 0.000000 
#    y 0.000000 3.375440 0.000000 
#    z 0.000000 0.000000 3.025440 
# 
# 
# High freq. dielectric constant tensor:
#      x y z
#    x 1.645850 0.000000 0.000000 
#    y 0.000000 1.624550 0.000000 
#    z 0.000000 0.000000 1.609220 
# 
# From -- ./inp_files/14829.got.cif
#   From: 2010.03.12/outbox.cif.g09.slc.cpg/sg51_8_cif.got.tgz:14829.got - 2010.04.16 13:43:02.
