data_PCOD8207381
_publ_section_title
;
Structure prediction by ZEFSAII (Michael W. Deem and Ramdas Pophale) SiO2 
 PCOD8207381
Probable space group: P M M A
;
_chemical_formula_sum "Si O2"
_cell_formula_units_Z 32
_cell_length_a 19.976660
_cell_length_b 8.456857
_cell_length_c 10.091762
_cell_angle_alpha 90.000000
_cell_angle_beta 90.000000
_cell_angle_gamma 90.000000
_cell_volume 1704.899820
_symmetry_space_group_name_H-M "P M M A"
_symmetry_group_IT_number 51
_symmetry_cell_setting 'orthorhombic'
loop_
_space_group_symop_operation_xyz
x,y,z
1/2-x,-y,z
1/2+x,-y,-z
-x,y,-z
-x,-y,-z
1/2+x,y,-z
1/2-x,y,z
x,-y,z
loop_
_atom_site_type_symbol
_atom_site_label
_atom_site_fract_x
_atom_site_fract_y
_atom_site_fract_z
Si Si1 0.175037 0.811806 0.165783
Si Si2 0.427545 0.813068 0.945966
Si Si3 0.049328 0.316942 0.671086
Si Si4 0.410351 0.184530 0.408872
O O1 0.250000 0.744650 0.148382
O O2 0.146056 0.754129 0.306946
O O3 0.174203 0.000000 0.162704
O O4 0.128681 0.748293 0.046713
O O5 0.413175 0.729459 0.805955
O O6 0.423113 0.000000 0.927013
O O7 0.500000 0.761892 0.000000
O O8 0.029749 0.500000 0.669892
O O9 0.097688 0.279310 0.546508
O O10 0.982478 0.212825 0.657916
O O11 0.402256 0.000000 0.438595
#
# Coordination Sequence:
#
# PCOD8207381 Si02
#       4
#     8   8   8   8
#     4   9  18  33  55  81 106 133 174 224 267 311
#     4  10  18  33  55  80 105 137 176 218 264 310
#     4  11  21  32  50  79 110 137 173 217 263 309
#     4  10  18  33  55  78 104 136 175 218 266 311
#
# _framework density 18.769432999999999
#
# number of rings (size 3 to 8) (size 9 to 14) (size 15 to 20)
#    0.000    2.000    2.500    4.500    0.000    0.500 
#    0.000    1.250    0.000   14.250    0.000    0.000 
#    0.000    0.000    0.000    0.000    0.000    0.000 
#
# Total GULP energy -396826.474351 kJ/mol
# GULP energy per Si atom -12400.827323 kJ/mol
# Density = 1.872671 g / cm^3
# Si number density = 18.769433 Si / 1000 Ang^3
#
#
#
# Elastic Constant Matrix: (Units=GPa)
#
#
# Indices 1 2 3 4 5 6 
#
# 1 121.8253 10.6498 79.5840 0.0000 0.0000 0.0000
# 2 10.6498 40.9096 26.0698 0.0000 0.0000 0.0000
# 3 79.5840 26.0698 175.1616 0.0000 0.0000 0.0000
# 4 0.0000 0.0000 0.0000 7.5676 0.0000 0.0000
# 5 0.0000 0.0000 0.0000 0.0000 30.4946 0.0000
# 6 0.0000 0.0000 0.0000 0.0000 0.0000 3.5727
#
#
#
# Elastic Compliance Matrix: (Units=1/GPa)
#
#
# Indices 1 2 3 4 5 6 
#
# 1 0.011678 0.000377 -0.005362 0.000000 0.000000 0.000000
# 2 0.000377 0.027018 -0.004192 0.000000 0.000000 0.000000
# 3 -0.005362 -0.004192 0.008769 0.000000 0.000000 0.000000
# 4 0.000000 0.000000 0.000000 0.132142 0.000000 0.000000
# 5 0.000000 0.000000 0.000000 0.000000 0.032793 0.000000
# 6 0.000000 0.000000 0.000000 0.000000 0.000000 0.279901
#
#
# Mechanical properties :
#
#
# Convention : Reuss Voigt Hill
#
# Bulk Modulus (GPa) = 34.35241 63.38931 48.87086
# Shear Modulus (GPa) = 9.60874 23.09984 16.35429
#
# Velocity S-wave (km/s) = 2.26505 3.51196 2.95503
# Velocity P-wave (km/s) = 5.01823 7.09162 6.14304
#
# Compressibility (1/GPa) = 0.02911004
#
# Stress axis : x y z
#
# Youngs Moduli (GPa) = 85.62811 37.01289 114.03509
#
# Poissons Ratio (x) = -0.01395 0.61147
# Poissons Ratio (y) = -0.03227 0.47807
# Poissons Ratio (z) = 0.45915 0.15517
#
# Static dielectric constant tensor:
#      x y z
#    x 3.369610 0.000000 0.000000 
#    y 0.000000 3.100030 0.000000 
#    z 0.000000 0.000000 3.749640 
# 
# 
# High freq. dielectric constant tensor:
#      x y z
#    x 1.693960 0.000000 0.000000 
#    y 0.000000 1.705890 0.000000 
#    z 0.000000 0.000000 1.747920 
# 
# From -- ./inp_files/10263.got.cif
#   From: 2010.03.12/outbox.cif.g09.slc.cpg/sg51_6_cif.got.tgz:10263.got - 2010.04.16 13:43:02.
