data_PCOD8207058
_publ_section_title
;
Structure prediction by ZEFSAII (Michael W. Deem and Ramdas Pophale) SiO2 
 PCOD8207058
Probable space group: P M M A
;
_chemical_formula_sum "Si O2"
_cell_formula_units_Z 56
_cell_length_a 18.435180
_cell_length_b 9.141807
_cell_length_c 19.703421
_cell_angle_alpha 90.000000
_cell_angle_beta 90.000000
_cell_angle_gamma 90.000000
_cell_volume 3320.634438
_symmetry_space_group_name_H-M "P M M A"
_symmetry_group_IT_number 51
_symmetry_cell_setting 'orthorhombic'
loop_
_space_group_symop_operation_xyz
x,y,z
1/2-x,-y,z
1/2+x,-y,-z
-x,y,-z
-x,-y,-z
1/2+x,y,-z
1/2-x,y,z
x,-y,z
loop_
_atom_site_type_symbol
_atom_site_label
_atom_site_fract_x
_atom_site_fract_y
_atom_site_fract_z
Si Si1 0.567924 0.335427 0.950821
Si Si2 0.959425 0.173683 0.568782
Si Si3 0.468119 0.826187 0.852627
Si Si4 0.962366 0.832626 0.297736
Si Si5 0.166597 0.668791 0.485819
Si Si6 0.165316 0.828041 0.947807
Si Si7 0.169161 0.164119 0.618741
O O1 0.590894 0.500000 0.929406
O O2 0.539242 0.243070 0.887015
O O3 0.500000 0.341451 0.000000
O O4 0.637428 0.256869 0.985104
O O5 0.878924 0.240173 0.568926
O O6 0.000000 0.227510 0.500000
O O7 0.995140 0.237269 0.638011
O O8 0.957571 0.000000 0.570723
O O9 0.472643 0.760513 0.776064
O O10 0.389859 0.784038 0.886354
O O11 0.476382 0.000000 0.854838
O O12 0.877472 0.814473 0.313927
O O13 0.986329 0.000000 0.291835
O O14 0.250000 0.700198 0.469512
O O15 0.146495 0.500000 0.480679
O O16 0.146085 0.723060 0.560925
O O17 0.250000 0.785440 0.931799
O O18 0.159732 0.000000 0.962661
O O19 0.250000 0.191112 0.643693
O O20 0.157506 0.000000 0.588637
#
# Coordination Sequence:
#
# PCOD8207058 Si02
#       7
#     8   8   8   8   8   8   8
#     4   9  17  30  48  69  94 125 162 196 226 268
#     4  10  18  31  50  70  94 122 161 207 244 286
#     4   9  17  30  48  69  99 132 160 193 237 284
#     4   9  17  29  46  71  97 125 160 199 239 282
#     4  10  20  32  46  66  91 118 153 200 250 294
#     4   9  17  29  48  75 102 127 156 190 230 278
#     4   9  16  28  46  66  91 124 158 191 232 283
#
# _framework density 16.864246999999999
#
# number of rings (size 3 to 8) (size 9 to 14) (size 15 to 20)
#    0.000    2.714    1.429    0.857    0.000    3.714 
#    0.000    4.286    0.000    0.857    0.000    4.000 
#    0.000    0.000    0.000    0.000    0.000    0.000 
#
# Total GULP energy -693856.282375 kJ/mol
# GULP energy per Si atom -12390.290757 kJ/mol
# Density = 1.682586 g / cm^3
# Si number density = 16.864247 Si / 1000 Ang^3
#
#
#
# Elastic Constant Matrix: (Units=GPa)
#
#
# Indices 1 2 3 4 5 6 
#
# 1 69.5326 26.8331 63.5163 0.0000 0.0000 0.0000
# 2 26.8331 31.5349 32.0980 0.0000 0.0000 0.0000
# 3 63.5163 32.0980 129.5220 0.0000 0.0000 0.0000
# 4 0.0000 0.0000 0.0000 8.5898 0.0000 0.0000
# 5 0.0000 0.0000 0.0000 0.0000 19.9120 0.0000
# 6 0.0000 0.0000 0.0000 0.0000 0.0000 19.3472
#
#
#
# Elastic Compliance Matrix: (Units=1/GPa)
#
#
# Indices 1 2 3 4 5 6 
#
# 1 0.030151 -0.014183 -0.011271 0.000000 0.000000 0.000000
# 2 -0.014183 0.049080 -0.005208 0.000000 0.000000 0.000000
# 3 -0.011271 -0.005208 0.014538 0.000000 0.000000 0.000000
# 4 0.000000 0.000000 0.000000 0.116417 0.000000 0.000000
# 5 0.000000 0.000000 0.000000 0.000000 0.050221 0.000000
# 6 0.000000 0.000000 0.000000 0.000000 0.000000 0.051687
#
#
# Mechanical properties :
#
#
# Convention : Reuss Voigt Hill
#
# Bulk Modulus (GPa) = 30.82065 52.83160 41.82612
# Shear Modulus (GPa) = 13.01295 16.77929 14.89612
#
# Velocity S-wave (km/s) = 2.78084 3.15772 2.97525
# Velocity P-wave (km/s) = 5.35034 6.68510 6.05461
#
# Compressibility (1/GPa) = 0.03244578
#
# Stress axis : x y z
#
# Youngs Moduli (GPa) = 33.16678 20.37486 68.78400
#
# Poissons Ratio (x) = 0.28898 0.77524
# Poissons Ratio (y) = 0.47041 0.35820
# Poissons Ratio (z) = 0.37381 0.10610
#
# Static dielectric constant tensor:
#      x y z
#    x 3.275000 0.000000 0.000000 
#    y 0.000000 3.102780 0.000000 
#    z 0.000000 0.000000 3.201730 
# 
# 
# High freq. dielectric constant tensor:
#      x y z
#    x 1.646630 0.000000 0.000000 
#    y 0.000000 1.632370 0.000000 
#    z 0.000000 0.000000 1.629500 
# 
# From -- ./inp_files/33690.got.cif
#   From: 2010.03.12/outbox.cif.g09.slc.cpg/sg51_17_cif.got.tgz:33690.got - 2010.04.16 13:43:02.
