data_PCOD8207731
_publ_section_title
;
Structure prediction by ZEFSAII (Michael W. Deem and Ramdas Pophale) SiO2 
 PCOD8207731
Probable space group: P M M A
;
_chemical_formula_sum "Si O2"
_cell_formula_units_Z 48
_cell_length_a 25.764624
_cell_length_b 9.851826
_cell_length_c 11.607106
_cell_angle_alpha 90.000000
_cell_angle_beta 90.000000
_cell_angle_gamma 90.000000
_cell_volume 2946.215380
_symmetry_space_group_name_H-M "P M M A"
_symmetry_group_IT_number 51
_symmetry_cell_setting 'orthorhombic'
loop_
_space_group_symop_operation_xyz
x,y,z
1/2-x,-y,z
1/2+x,-y,-z
-x,y,-z
-x,-y,-z
1/2+x,y,-z
1/2-x,y,z
x,-y,z
loop_
_atom_site_type_symbol
_atom_site_label
_atom_site_fract_x
_atom_site_fract_y
_atom_site_fract_z
Si Si1 0.690779 0.342695 0.153486
Si Si2 0.957828 0.151795 0.175058
Si Si3 0.127430 0.843227 0.005452
Si Si4 0.571816 0.846121 0.770412
Si Si5 0.554540 0.655053 0.556628
Si Si6 0.897543 0.653269 0.324552
O O1 0.750000 0.306458 0.182056
O O2 0.684313 0.500000 0.119174
O O3 0.672270 0.252976 0.045055
O O4 0.658029 0.306459 0.269027
O O5 0.926587 0.188286 0.059716
O O6 0.943028 0.252715 0.277147
O O7 0.019103 0.166344 0.154901
O O8 0.943535 0.000000 0.215824
O O9 0.144097 0.000000 0.989290
O O10 0.118217 0.810047 0.140512
O O11 0.572215 0.746552 0.662662
O O12 0.578322 0.000000 0.724374
O O13 0.500000 0.702740 0.500000
O O14 0.548960 0.500000 0.599593
O O15 0.601136 0.668418 0.462844
O O16 0.911728 0.500000 0.289002
#
# Coordination Sequence:
#
# PCOD8207731 Si02
#       6
#     8   8   8   8   8   8
#     4   9  18  33  53  73  90 112 148 195 242 284
#     4   9  16  27  44  65  92 124 156 189 222 266
#     4   9  18  31  46  68  95 122 153 189 232 280
#     4  10  19  29  44  66  95 129 160 187 222 270
#     4  10  19  30  44  64  94 130 163 192 225 271
#     4   9  17  30  46  66  93 122 153 192 234 272
#
# _framework density 16.292088
#
# number of rings (size 3 to 8) (size 9 to 14) (size 15 to 20)
#    0.000    2.667    1.667    0.500    0.000    4.000 
#    0.000    0.000    0.000    6.000    0.000    2.333 
#    0.000    0.000    0.000    0.000    0.000    0.000 
#
# Total GULP energy -594950.332853 kJ/mol
# GULP energy per Si atom -12394.798601 kJ/mol
# Density = 1.625501 g / cm^3
# Si number density = 16.292088 Si / 1000 Ang^3
#
#
#
# Elastic Constant Matrix: (Units=GPa)
#
#
# Indices 1 2 3 4 5 6 
#
# 1 72.5041 32.9382 37.8765 0.0000 0.0000 0.0000
# 2 32.9382 67.3608 50.2033 0.0000 0.0000 0.0000
# 3 37.8765 50.2033 93.2129 0.0000 0.0000 0.0000
# 4 0.0000 0.0000 0.0000 31.1649 0.0000 0.0000
# 5 0.0000 0.0000 0.0000 0.0000 16.6782 0.0000
# 6 0.0000 0.0000 0.0000 0.0000 0.0000 24.6079
#
#
#
# Elastic Compliance Matrix: (Units=1/GPa)
#
#
# Indices 1 2 3 4 5 6 
#
# 1 0.018792 -0.005843 -0.004489 0.000000 0.000000 0.000000
# 2 -0.005843 0.026617 -0.011961 0.000000 0.000000 0.000000
# 3 -0.004489 -0.011961 0.018994 0.000000 0.000000 0.000000
# 4 0.000000 0.000000 0.000000 0.032087 0.000000 0.000000
# 5 0.000000 0.000000 0.000000 0.000000 0.059959 0.000000
# 6 0.000000 0.000000 0.000000 0.000000 0.000000 0.040637
#
#
# Mechanical properties :
#
#
# Convention : Reuss Voigt Hill
#
# Bulk Modulus (GPa) = 50.46293 52.79042 51.62667
# Shear Modulus (GPa) = 20.13857 21.96084 21.04971
#
# Velocity S-wave (km/s) = 3.51963 3.67542 3.59837
# Velocity P-wave (km/s) = 6.89624 7.10524 7.00152
#
# Compressibility (1/GPa) = 0.01981653
#
# Stress axis : x y z
#
# Youngs Moduli (GPa) = 53.21434 37.56934 52.64724
#
# Poissons Ratio (x) = 0.21954 0.23632
# Poissons Ratio (y) = 0.31096 0.62973
# Poissons Ratio (z) = 0.23887 0.44938
#
# Static dielectric constant tensor:
#      x y z
#    x 2.915200 0.000000 0.000000 
#    y 0.000000 3.151940 0.000000 
#    z 0.000000 0.000000 3.007710 
# 
# 
# High freq. dielectric constant tensor:
#      x y z
#    x 1.596440 0.000000 0.000000 
#    y 0.000000 1.631770 0.000000 
#    z 0.000000 0.000000 1.616280 
# 
# From -- ./inp_files/11635.got.cif
#   From: 2010.03.12/outbox.cif.g09.slc.cpg/sg51_6_cif.got.tgz:11635.got - 2010.04.16 13:43:02.
