data_PCOD8207980
_publ_section_title
;
Structure prediction by ZEFSAII (Michael W. Deem and Ramdas Pophale) SiO2 
 PCOD8207980
Probable space group: P M M A
;
_chemical_formula_sum "Si O2"
_cell_formula_units_Z 64
_cell_length_a 14.166208
_cell_length_b 9.299655
_cell_length_c 26.002026
_cell_angle_alpha 90.000000
_cell_angle_beta 90.000000
_cell_angle_gamma 90.000000
_cell_volume 3425.528930
_symmetry_space_group_name_H-M "P M M A"
_symmetry_group_IT_number 51
_symmetry_cell_setting 'orthorhombic'
loop_
_space_group_symop_operation_xyz
x,y,z
1/2-x,-y,z
1/2+x,-y,-z
-x,y,-z
-x,-y,-z
1/2+x,y,-z
1/2-x,y,z
x,-y,z
loop_
_atom_site_type_symbol
_atom_site_label
_atom_site_fract_x
_atom_site_fract_y
_atom_site_fract_z
Si Si1 0.643632 0.833542 0.676753
Si Si2 0.957836 0.831975 0.274427
Si Si3 0.044644 0.329597 0.921996
Si Si4 0.106948 0.159411 0.514080
Si Si5 0.644679 0.343660 0.581481
Si Si6 0.355442 0.330078 0.026318
Si Si7 0.359983 0.829456 0.828160
Si Si8 0.641295 0.165117 0.373741
O O1 0.750000 0.785982 0.692812
O O2 0.571467 0.804030 0.724195
O O3 0.599777 0.753255 0.626681
O O4 0.642806 0.000000 0.661303
O O5 0.909362 0.767587 0.223583
O O6 0.914070 0.761169 0.326269
O O7 0.933486 0.000000 0.274724
O O8 0.051345 0.500000 0.912558
O O9 0.083972 0.245194 0.873732
O O10 0.935023 0.282454 0.932094
O O11 0.109365 0.282078 0.970061
O O12 0.152772 0.264440 0.472909
O O13 0.118044 0.233723 0.570325
O O14 0.000000 0.142228 0.500000
O O15 0.155255 0.000000 0.512975
O O16 0.750000 0.370721 0.600593
O O17 0.593251 0.500000 0.576441
O O18 0.250000 0.265082 0.037724
O O19 0.348998 0.500000 0.027329
O O20 0.250000 0.785091 0.828279
O O21 0.371774 0.000000 0.833524
O O22 0.750000 0.183106 0.360414
O O23 0.609519 0.000000 0.378062
#
# Coordination Sequence:
#
# PCOD8207980 Si02
#       8
#     8   8   8   8   8   8   8   8
#     4   9  17  31  52  72  88 113 153 199 241 281
#     4   9  17  31  49  68  91 119 155 196 236 283
#     4   9  17  30  51  77 102 133 174 214 248 287
#     4  10  19  30  46  68  91 115 148 191 234 278
#     4  10  20  32  46  66  93 122 148 179 229 294
#     4   8  14  27  49  76 105 137 173 211 249 289
#     4  10  20  33  50  73 102 134 165 202 251 301
#     4   9  16  26  43  66  88 112 146 188 229 269
#
# _framework density 18.683247000000001
#
# number of rings (size 3 to 8) (size 9 to 14) (size 15 to 20)
#    0.000    2.750    0.000    3.000    0.000    5.750 
#    0.000    2.500    0.000    2.625    0.000    0.000 
#    0.000    0.000    0.000    0.000    0.000    0.000 
#
# Total GULP energy -792900.272354 kJ/mol
# GULP energy per Si atom -12389.066756 kJ/mol
# Density = 1.864072 g / cm^3
# Si number density = 18.683247 Si / 1000 Ang^3
#
#
#
# Elastic Constant Matrix: (Units=GPa)
#
#
# Indices 1 2 3 4 5 6 
#
# 1 134.2416 25.0030 77.1543 0.0000 0.0000 0.0000
# 2 25.0030 43.8413 33.8067 0.0000 0.0000 0.0000
# 3 77.1543 33.8067 140.2457 0.0000 0.0000 0.0000
# 4 0.0000 0.0000 0.0000 3.1801 0.0000 0.0000
# 5 0.0000 0.0000 0.0000 0.0000 31.3618 0.0000
# 6 0.0000 0.0000 0.0000 0.0000 0.0000 14.8570
#
#
#
# Elastic Compliance Matrix: (Units=1/GPa)
#
#
# Indices 1 2 3 4 5 6 
#
# 1 0.011032 -0.001980 -0.005592 0.000000 0.000000 0.000000
# 2 -0.001980 0.028373 -0.005750 0.000000 0.000000 0.000000
# 3 -0.005592 -0.005750 0.011593 0.000000 0.000000 0.000000
# 4 0.000000 0.000000 0.000000 0.314459 0.000000 0.000000
# 5 0.000000 0.000000 0.000000 0.000000 0.031886 0.000000
# 6 0.000000 0.000000 0.000000 0.000000 0.000000 0.067308
#
#
# Mechanical properties :
#
#
# Convention : Reuss Voigt Hill
#
# Bulk Modulus (GPa) = 41.06133 65.58408 53.32270
# Shear Modulus (GPa) = 10.01179 22.03743 16.02461
#
# Velocity S-wave (km/s) = 2.31740 3.43815 2.93183
# Velocity P-wave (km/s) = 5.40239 7.13726 6.32955
#
# Compressibility (1/GPa) = 0.02435381
#
# Stress axis : x y z
#
# Youngs Moduli (GPa) = 90.64690 35.24524 86.26096
#
# Poissons Ratio (x) = 0.06977 0.48236
# Poissons Ratio (y) = 0.17944 0.49602
# Poissons Ratio (z) = 0.50688 0.20267
#
# Static dielectric constant tensor:
#      x y z
#    x 3.726630 0.000000 0.000000 
#    y 0.000000 3.180320 0.000000 
#    z 0.000000 0.000000 3.473100 
# 
# 
# High freq. dielectric constant tensor:
#      x y z
#    x 1.739350 0.000000 0.000000 
#    y 0.000000 1.674780 0.000000 
#    z 0.000000 0.000000 1.712000 
# 
# From -- ./inp_files/35765.got.cif
#   From: 2010.03.12/outbox.cif.g09.slc.cpg/sg51_18_cif.got.tgz:35765.got - 2010.04.16 13:43:02.
