data_PCOD8207779
_publ_section_title
;
Structure prediction by ZEFSAII (Michael W. Deem and Ramdas Pophale) SiO2 
 PCOD8207779
Probable space group: P M M A
;
_chemical_formula_sum "Si O2"
_cell_formula_units_Z 64
_cell_length_a 18.824724
_cell_length_b 9.138834
_cell_length_c 21.091770
_cell_angle_alpha 90.000000
_cell_angle_beta 90.000000
_cell_angle_gamma 90.000000
_cell_volume 3628.544329
_symmetry_space_group_name_H-M "P M M A"
_symmetry_group_IT_number 51
_symmetry_cell_setting 'orthorhombic'
loop_
_space_group_symop_operation_xyz
x,y,z
1/2-x,-y,z
1/2+x,-y,-z
-x,y,-z
-x,-y,-z
1/2+x,y,-z
1/2-x,y,z
x,-y,z
loop_
_atom_site_type_symbol
_atom_site_label
_atom_site_fract_x
_atom_site_fract_y
_atom_site_fract_z
Si Si1 0.871617 0.660813 0.739019
Si Si2 0.527168 0.336693 0.316751
Si Si3 0.573446 0.171423 0.200431
Si Si4 0.918485 0.829884 0.852394
Si Si5 0.578045 0.328767 0.980386
Si Si6 0.671303 0.328984 0.604428
Si Si7 0.033251 0.169146 0.431485
Si Si8 0.333082 0.331616 0.897744
O O1 0.845654 0.500000 0.761128
O O2 0.865306 0.771580 0.797756
O O3 0.826301 0.716386 0.678827
O O4 0.952081 0.651849 0.716609
O O5 0.557713 0.500000 0.329616
O O6 0.578732 0.248859 0.269136
O O7 0.519026 0.250874 0.382805
O O8 0.499763 0.207634 0.164929
O O9 0.637440 0.231211 0.158170
O O10 0.582814 0.000000 0.211398
O O11 0.897012 0.753750 0.917624
O O12 0.905270 0.000000 0.859635
O O13 0.577982 0.500000 0.965315
O O14 0.500000 0.274268 0.000000
O O15 0.632279 0.285784 0.035717
O O16 0.750000 0.298837 0.575949
O O17 0.650516 0.500000 0.598977
O O18 0.612739 0.235719 0.567030
O O19 0.000000 0.189678 0.500000
O O20 0.038616 0.000000 0.411485
O O21 0.250000 0.304182 0.903646
O O22 0.351548 0.500000 0.882070
#
# Coordination Sequence:
#
# PCOD8207779 Si02
#       8
#     8   8   8   8   8   8   8   8
#     4   8  15  28  46  69  97 127 159 200 248 295
#     4   9  17  30  51  76 101 130 167 210 250 291
#     4  10  19  31  50  75 101 127 159 204 257 309
#     4  10  19  29  46  72  98 124 160 206 250 297
#     4  10  19  32  51  71  92 125 170 214 255 306
#     4   9  18  33  53  77 104 138 181 223 262 310
#     4  10  20  33  51  79 114 147 179 216 260 310
#     4  10  21  36  52  71  96 127 166 212 262 316
#
# _framework density 17.637927999999999
#
# number of rings (size 3 to 8) (size 9 to 14) (size 15 to 20)
#    0.000    2.500    1.250    2.250    0.000    6.250 
#    0.000    0.625    0.000    4.500    0.000    3.500 
#    0.000    0.000    0.000    0.000    0.000    0.000 
#
# Total GULP energy -793542.920970 kJ/mol
# GULP energy per Si atom -12399.108140 kJ/mol
# Density = 1.759778 g / cm^3
# Si number density = 17.637928 Si / 1000 Ang^3
#
#
#
# Elastic Constant Matrix: (Units=GPa)
#
#
# Indices 1 2 3 4 5 6 
#
# 1 70.2894 40.9617 39.4682 0.0000 0.0000 0.0000
# 2 40.9617 103.7642 67.1920 0.0000 0.0000 0.0000
# 3 39.4682 67.1920 108.1892 0.0000 0.0000 0.0000
# 4 0.0000 0.0000 0.0000 31.6478 0.0000 0.0000
# 5 0.0000 0.0000 0.0000 0.0000 18.1984 0.0000
# 6 0.0000 0.0000 0.0000 0.0000 0.0000 15.2012
#
#
#
# Elastic Compliance Matrix: (Units=1/GPa)
#
#
# Indices 1 2 3 4 5 6 
#
# 1 0.019406 -0.005146 -0.003884 0.000000 0.000000 0.000000
# 2 -0.005146 0.017485 -0.008982 0.000000 0.000000 0.000000
# 3 -0.003884 -0.008982 0.016238 0.000000 0.000000 0.000000
# 4 0.000000 0.000000 0.000000 0.031598 0.000000 0.000000
# 5 0.000000 0.000000 0.000000 0.000000 0.054950 0.000000
# 6 0.000000 0.000000 0.000000 0.000000 0.000000 0.065784
#
#
# Mechanical properties :
#
#
# Convention : Reuss Voigt Hill
#
# Bulk Modulus (GPa) = 58.45753 64.16517 61.31135
# Shear Modulus (GPa) = 20.22766 21.98421 21.10593
#
# Velocity S-wave (km/s) = 3.39016 3.53429 3.46298
# Velocity P-wave (km/s) = 6.96701 7.28787 7.12925
#
# Compressibility (1/GPa) = 0.01710644
#
# Stress axis : x y z
#
# Youngs Moduli (GPa) = 51.52920 57.19264 61.58365
#
# Poissons Ratio (x) = 0.29431 0.23917
# Poissons Ratio (y) = 0.26517 0.55313
# Poissons Ratio (z) = 0.20012 0.51369
#
# Static dielectric constant tensor:
#      x y z
#    x 3.100210 0.000000 0.000000 
#    y 0.000000 3.361690 0.000000 
#    z 0.000000 0.000000 3.249270 
# 
# 
# High freq. dielectric constant tensor:
#      x y z
#    x 1.649190 0.000000 0.000000 
#    y 0.000000 1.687020 0.000000 
#    z 0.000000 0.000000 1.676530 
# 
# From -- ./inp_files/33914.got.cif
#   From: 2010.03.12/outbox.cif.g09.slc.cpg/sg51_17_cif.got.tgz:33914.got - 2010.04.16 13:43:02.
