data_PCOD8207660
_publ_section_title
;
Structure prediction by ZEFSAII (Michael W. Deem and Ramdas Pophale) SiO2 
 PCOD8207660
Probable space group: P M M A
;
_chemical_formula_sum "Si O2"
_cell_formula_units_Z 64
_cell_length_a 9.328468
_cell_length_b 14.263619
_cell_length_c 31.132507
_cell_angle_alpha 90.000000
_cell_angle_beta 90.000000
_cell_angle_gamma 90.000000
_cell_volume 4142.420194
_symmetry_space_group_name_H-M "P M M A"
_symmetry_group_IT_number 51
_symmetry_cell_setting 'orthorhombic'
loop_
_space_group_symop_operation_xyz
x,y,z
1/2-x,-y,z
1/2+x,-y,-z
-x,y,-z
-x,-y,-z
1/2+x,y,-z
1/2-x,y,z
x,-y,z
loop_
_atom_site_type_symbol
_atom_site_label
_atom_site_fract_x
_atom_site_fract_y
_atom_site_fract_z
Si Si1 0.416477 0.109837 0.205111
Si Si2 0.918130 0.793114 0.709073
Si Si3 0.583029 0.108053 0.041958
Si Si4 0.084928 0.603894 0.832876
Si Si5 0.582949 0.204905 0.128290
Si Si6 0.416806 0.396382 0.253056
Si Si7 0.083506 0.890135 0.375946
Si Si8 0.587631 0.888456 0.459314
O O1 0.250000 0.135532 0.199323
O O2 0.480064 0.155732 0.248646
O O3 0.499961 0.148955 0.164558
O O4 0.441948 0.000000 0.208427
O O5 0.750000 0.812798 0.707754
O O6 0.955320 0.681968 0.711336
O O7 0.981874 0.836034 0.665333
O O8 0.750000 0.122417 0.033056
O O9 0.529256 0.170460 0.081873
O O10 0.546346 0.000000 0.052184
O O11 0.500000 0.143531 0.000000
O O12 0.250000 0.606781 0.819045
O O13 0.044218 0.500000 0.850792
O O14 0.052576 0.683197 0.868514
O O15 0.996048 0.628701 0.790726
O O16 0.750000 0.181461 0.134018
O O17 0.250000 0.391789 0.241851
O O18 0.460354 0.500000 0.270259
O O19 0.250000 0.866221 0.384558
O O20 0.992404 0.854341 0.416428
O O21 0.062906 0.000000 0.367691
O O22 0.500000 0.848313 0.500000
O O23 0.750000 0.849098 0.460086
O O24 0.589579 0.000000 0.461195
#
# Coordination Sequence:
#
# PCOD8207660 Si02
#       8
#     8   8   8   8   8   8   8   8
#     4  10  19  29  42  62  88 118 150 180 208 246
#     4   9  16  27  41  59  85 115 146 177 210 251
#     4   9  18  32  48  65  85 109 138 172 211 255
#     4   9  17  29  45  65  87 111 141 175 213 258
#     4  10  19  31  47  66  88 113 141 176 217 256
#     4   9  16  27  44  63  83 110 145 184 220 251
#     4   9  16  26  40  56  78 113 149 176 207 248
#     4   9  16  26  40  58  80 106 140 181 218 252
#
# _framework density 15.449904999999999
#
# number of rings (size 3 to 8) (size 9 to 14) (size 15 to 20)
#    0.000    2.750    1.250    1.125    0.000    4.250 
#    0.000    2.500    0.000    1.875    0.000    0.000 
#    0.000    0.500    0.000    0.875    0.000    1.250 
#
# Total GULP energy -793388.184352 kJ/mol
# GULP energy per Si atom -12396.690380 kJ/mol
# Density = 1.541474 g / cm^3
# Si number density = 15.449905 Si / 1000 Ang^3
#
#
#
# Elastic Constant Matrix: (Units=GPa)
#
#
# Indices 1 2 3 4 5 6 
#
# 1 50.4632 30.1375 50.5824 0.0000 0.0000 0.0000
# 2 30.1375 79.6089 62.4322 0.0000 0.0000 0.0000
# 3 50.5824 62.4322 145.2767 0.0000 0.0000 0.0000
# 4 0.0000 0.0000 0.0000 11.8639 0.0000 0.0000
# 5 0.0000 0.0000 0.0000 0.0000 24.6435 0.0000
# 6 0.0000 0.0000 0.0000 0.0000 0.0000 14.9010
#
#
#
# Elastic Compliance Matrix: (Units=1/GPa)
#
#
# Indices 1 2 3 4 5 6 
#
# 1 0.031731 -0.005050 -0.008878 0.000000 0.000000 0.000000
# 2 -0.005050 0.019751 -0.006729 0.000000 0.000000 0.000000
# 3 -0.008878 -0.006729 0.012867 0.000000 0.000000 0.000000
# 4 0.000000 0.000000 0.000000 0.084289 0.000000 0.000000
# 5 0.000000 0.000000 0.000000 0.000000 0.040579 0.000000
# 6 0.000000 0.000000 0.000000 0.000000 0.000000 0.067110
#
#
# Mechanical properties :
#
#
# Convention : Reuss Voigt Hill
#
# Bulk Modulus (GPa) = 43.41498 62.40590 52.91044
# Shear Modulus (GPa) = 16.37632 19.09480 17.73556
#
# Velocity S-wave (km/s) = 3.25924 3.51937 3.39180
# Velocity P-wave (km/s) = 6.50577 7.54949 7.04698
#
# Compressibility (1/GPa) = 0.02303353
#
# Stress axis : x y z
#
# Youngs Moduli (GPa) = 31.51459 50.63105 77.72119
#
# Poissons Ratio (x) = 0.25569 0.69000
# Poissons Ratio (y) = 0.15915 0.52302
# Poissons Ratio (z) = 0.27978 0.34072
#
# Static dielectric constant tensor:
#      x y z
#    x 3.231450 0.000000 0.000000 
#    y 0.000000 3.052270 0.000000 
#    z 0.000000 0.000000 2.989650 
# 
# 
# High freq. dielectric constant tensor:
#      x y z
#    x 1.583480 0.000000 0.000000 
#    y 0.000000 1.577290 0.000000 
#    z 0.000000 0.000000 1.580240 
# 
# From -- ./inp_files/37624.got.cif
#   From: 2010.03.12/outbox.cif.g09.slc.cpg/sg51_19_cif.got.tgz:37624.got - 2010.04.16 13:43:02.
