data_PCOD8207071
_publ_section_title
;
Structure prediction by ZEFSAII (Michael W. Deem and Ramdas Pophale) SiO2 
 PCOD8207071
Probable space group: P M M A
;
_chemical_formula_sum "Si O2"
_cell_formula_units_Z 56
_cell_length_a 19.151946
_cell_length_b 17.417195
_cell_length_c 9.412050
_cell_angle_alpha 90.000000
_cell_angle_beta 90.000000
_cell_angle_gamma 90.000000
_cell_volume 3139.607431
_symmetry_space_group_name_H-M "P M M A"
_symmetry_group_IT_number 51
_symmetry_cell_setting 'orthorhombic'
loop_
_space_group_symop_operation_xyz
x,y,z
1/2-x,-y,z
1/2+x,-y,-z
-x,y,-z
-x,-y,-z
1/2+x,y,-z
1/2-x,y,z
x,-y,z
loop_
_atom_site_type_symbol
_atom_site_label
_atom_site_fract_x
_atom_site_fract_y
_atom_site_fract_z
Si Si1 0.912085 0.211955 0.850295
Si Si2 0.927687 0.246587 0.172800
Si Si3 0.965168 0.414401 0.147125
Si Si4 0.327320 0.817765 0.587181
Si Si5 0.168530 0.088963 0.326536
Si Si6 0.441774 0.416252 0.406923
Si Si7 0.173512 0.310065 0.349172
O O1 0.881026 0.133206 0.785677
O O2 0.867571 0.282447 0.789593
O O3 0.991836 0.224209 0.800233
O O4 0.904221 0.213724 0.020227
O O5 0.916496 0.340169 0.184834
O O6 0.881920 0.202610 0.290108
O O7 0.927556 0.500000 0.145506
O O8 0.031998 0.419779 0.247239
O O9 0.000000 0.392737 0.000000
O O10 0.250000 0.829131 0.655697
O O11 0.349881 0.891991 0.492581
O O12 0.323311 0.753106 0.468899
O O13 0.250000 0.110865 0.297863
O O14 0.154383 0.000000 0.300395
O O15 0.500000 0.370248 0.500000
O O16 0.433007 0.500000 0.477115
O O17 0.365816 0.381018 0.419314
O O18 0.250000 0.336834 0.301060
#
# Coordination Sequence:
#
# PCOD8207071 Si02
#       7
#     8   8   8   8   8   8   8
#     4  10  20  33  53  82 106 139 178 220 268 321
#     4  11  19  34  53  80 113 140 180 232 272 312
#     4  10  18  31  50  73 103 142 186 223 263 313
#     4   9  20  34  53  78 102 138 180 222 269 324
#     4   9  19  39  61  80 107 141 176 213 262 330
#     4  10  19  30  47  72  98 132 177 223 271 322
#     4  10  19  32  49  72 102 136 178 222 270 326
#
# _framework density 17.836625999999999
#
# number of rings (size 3 to 8) (size 9 to 14) (size 15 to 20)
#    0.000    2.143    2.857    2.143    0.000    3.143 
#    0.000    3.571    0.000    3.000    0.000    0.000 
#    0.000    0.000    0.000    0.000    0.000    0.000 
#
# Total GULP energy -693780.508310 kJ/mol
# GULP energy per Si atom -12388.937648 kJ/mol
# Density = 1.779603 g / cm^3
# Si number density = 17.836626 Si / 1000 Ang^3
#
#
#
# Elastic Constant Matrix: (Units=GPa)
#
#
# Indices 1 2 3 4 5 6 
#
# 1 125.7978 47.0074 55.7230 0.0000 0.0000 0.0000
# 2 47.0074 105.7594 27.1093 0.0000 0.0000 0.0000
# 3 55.7230 27.1093 80.2031 0.0000 0.0000 0.0000
# 4 0.0000 0.0000 0.0000 55.6506 0.0000 0.0000
# 5 0.0000 0.0000 0.0000 0.0000 26.0740 0.0000
# 6 0.0000 0.0000 0.0000 0.0000 0.0000 16.9943
#
#
#
# Elastic Compliance Matrix: (Units=1/GPa)
#
#
# Indices 1 2 3 4 5 6 
#
# 1 0.012680 -0.003698 -0.007560 0.000000 0.000000 0.000000
# 2 -0.003698 0.011431 -0.001294 0.000000 0.000000 0.000000
# 3 -0.007560 -0.001294 0.018158 0.000000 0.000000 0.000000
# 4 0.000000 0.000000 0.000000 0.017969 0.000000 0.000000
# 5 0.000000 0.000000 0.000000 0.000000 0.038352 0.000000
# 6 0.000000 0.000000 0.000000 0.000000 0.000000 0.058843
#
#
# Mechanical properties :
#
#
# Convention : Reuss Voigt Hill
#
# Bulk Modulus (GPa) = 58.25945 63.49329 60.87637
# Shear Modulus (GPa) = 26.55911 31.87180 29.21546
#
# Velocity S-wave (km/s) = 3.86297 4.23173 4.05155
# Velocity P-wave (km/s) = 7.25468 7.71694 7.48938
#
# Compressibility (1/GPa) = 0.01716460
#
# Stress axis : x y z
#
# Youngs Moduli (GPa) = 78.86626 87.48199 55.07203
#
# Poissons Ratio (x) = 0.32351 0.41632
# Poissons Ratio (y) = 0.29165 0.07129
# Poissons Ratio (z) = 0.59619 0.11324
#
# Static dielectric constant tensor:
#      x y z
#    x 3.140850 0.000000 0.000000 
#    y 0.000000 3.538840 0.000000 
#    z 0.000000 0.000000 3.347140 
# 
# 
# High freq. dielectric constant tensor:
#      x y z
#    x 1.673120 0.000000 0.000000 
#    y 0.000000 1.685300 0.000000 
#    z 0.000000 0.000000 1.692110 
# 
# From -- ./inp_files/11147.got.cif
#   From: 2010.03.12/outbox.cif.g09.slc.cpg/sg51_6_cif.got.tgz:11147.got - 2010.04.16 13:43:02.
