data_PCOD8207156
_publ_section_title
;
Structure prediction by ZEFSAII (Michael W. Deem and Ramdas Pophale) SiO2 
 PCOD8207156
Probable space group: P M M A
;
_chemical_formula_sum "Si O2"
_cell_formula_units_Z 56
_cell_length_a 15.984754
_cell_length_b 9.388877
_cell_length_c 19.392104
_cell_angle_alpha 90.000000
_cell_angle_beta 90.000000
_cell_angle_gamma 90.000000
_cell_volume 2910.345427
_symmetry_space_group_name_H-M "P M M A"
_symmetry_group_IT_number 51
_symmetry_cell_setting 'orthorhombic'
loop_
_space_group_symop_operation_xyz
x,y,z
1/2-x,-y,z
1/2+x,-y,-z
-x,y,-z
-x,-y,-z
1/2+x,y,-z
1/2-x,y,z
x,-y,z
loop_
_atom_site_type_symbol
_atom_site_label
_atom_site_fract_x
_atom_site_fract_y
_atom_site_fract_z
Si Si1 0.657716 0.331463 0.068342
Si Si2 0.656003 0.163461 0.646727
Si Si3 0.849046 0.341753 0.917519
Si Si4 0.426578 0.664500 0.794662
Si Si5 0.658599 0.664953 0.343509
Si Si6 0.086839 0.836553 0.208028
Si Si7 0.994934 0.666166 0.580688
O O1 0.750000 0.262893 0.075379
O O2 0.665661 0.500000 0.076121
O O3 0.600780 0.273728 0.130777
O O4 0.617722 0.294156 0.993508
O O5 0.750000 0.209064 0.624285
O O6 0.651862 0.181192 0.729537
O O7 0.588229 0.259302 0.608525
O O8 0.638501 0.000000 0.626374
O O9 0.750000 0.348511 0.922008
O O10 0.883858 0.500000 0.899028
O O11 0.877027 0.228958 0.861637
O O12 0.453725 0.500000 0.799526
O O13 0.353434 0.684679 0.738598
O O14 0.504076 0.755517 0.767980
O O15 0.750000 0.733086 0.362685
O O16 0.661757 0.500000 0.363426
O O17 0.579998 0.731976 0.385377
O O18 0.065897 0.000000 0.192977
O O19 0.986876 0.500000 0.599439
O O20 0.000000 0.693587 0.500000
#
# Coordination Sequence:
#
# PCOD8207156 Si02
#       7
#     8   8   8   8   8   8   8
#     4   8  15  29  50  76 102 131 175 230 281 329
#     4  10  22  40  60  81 110 152 197 235 274 324
#     4   9  18  33  52  74 101 134 177 229 280 331
#     4  10  18  31  54  78 102 137 185 232 277 327
#     4   9  17  31  54  83 113 145 183 225 271 327
#     4  11  22  35  52  75 108 145 185 231 279 326
#     4  10  21  37  59  90 123 149 178 223 278 333
#
# _framework density 19.241700999999999
#
# number of rings (size 3 to 8) (size 9 to 14) (size 15 to 20)
#    0.000    2.429    1.429    2.143    0.000    4.857 
#    0.000    5.000    0.000    3.857    0.000    0.000 
#    0.000    0.000    0.000    0.000    0.000    0.000 
#
# Total GULP energy -694097.824845 kJ/mol
# GULP energy per Si atom -12394.604015 kJ/mol
# Density = 1.919791 g / cm^3
# Si number density = 19.241701 Si / 1000 Ang^3
#
#
#
# Elastic Constant Matrix: (Units=GPa)
#
#
# Indices 1 2 3 4 5 6 
#
# 1 131.8465 44.0156 58.0788 0.0000 0.0000 0.0000
# 2 44.0156 64.5050 41.0498 0.0000 0.0000 0.0000
# 3 58.0788 41.0498 107.5807 0.0000 0.0000 0.0000
# 4 0.0000 0.0000 0.0000 13.2103 0.0000 0.0000
# 5 0.0000 0.0000 0.0000 0.0000 26.4018 0.0000
# 6 0.0000 0.0000 0.0000 0.0000 0.0000 10.1679
#
#
#
# Elastic Compliance Matrix: (Units=1/GPa)
#
#
# Indices 1 2 3 4 5 6 
#
# 1 0.011024 -0.004933 -0.004069 0.000000 0.000000 0.000000
# 2 -0.004933 0.022681 -0.005992 0.000000 0.000000 0.000000
# 3 -0.004069 -0.005992 0.013778 0.000000 0.000000 0.000000
# 4 0.000000 0.000000 0.000000 0.075699 0.000000 0.000000
# 5 0.000000 0.000000 0.000000 0.000000 0.037876 0.000000
# 6 0.000000 0.000000 0.000000 0.000000 0.000000 0.098349
#
#
# Mechanical properties :
#
#
# Convention : Reuss Voigt Hill
#
# Bulk Modulus (GPa) = 57.15364 65.58006 61.36685
# Shear Modulus (GPa) = 16.93617 20.67520 18.80568
#
# Velocity S-wave (km/s) = 2.97000 3.28151 3.12964
# Velocity P-wave (km/s) = 6.44428 6.96520 6.70980
#
# Compressibility (1/GPa) = 0.01749670
#
# Stress axis : x y z
#
# Youngs Moduli (GPa) = 90.71311 44.08882 72.57743
#
# Poissons Ratio (x) = 0.21747 0.29533
# Poissons Ratio (y) = 0.44745 0.43486
# Poissons Ratio (z) = 0.36913 0.26417
#
# Static dielectric constant tensor:
#      x y z
#    x 3.677890 0.000000 0.000000 
#    y 0.000000 3.154620 0.000000 
#    z 0.000000 0.000000 3.693610 
# 
# 
# High freq. dielectric constant tensor:
#      x y z
#    x 1.754050 0.000000 0.000000 
#    y 0.000000 1.702180 0.000000 
#    z 0.000000 0.000000 1.756280 
# 
# From -- ./inp_files/33367.got.cif
#   From: 2010.03.12/outbox.cif.g09.slc.cpg/sg51_17_cif.got.tgz:33367.got - 2010.04.16 13:43:02.
