data_PCOD8207811
_publ_section_title
;
Structure prediction by ZEFSAII (Michael W. Deem and Ramdas Pophale) SiO2 
 PCOD8207811
Probable space group: P M M A
;
_chemical_formula_sum "Si O2"
_cell_formula_units_Z 64
_cell_length_a 9.011752
_cell_length_b 22.621447
_cell_length_c 19.724727
_cell_angle_alpha 90.000000
_cell_angle_beta 90.000000
_cell_angle_gamma 90.000000
_cell_volume 4021.060562
_symmetry_space_group_name_H-M "P M M A"
_symmetry_group_IT_number 51
_symmetry_cell_setting 'orthorhombic'
loop_
_space_group_symop_operation_xyz
x,y,z
1/2-x,-y,z
1/2+x,-y,-z
-x,y,-z
-x,-y,-z
1/2+x,y,-z
1/2-x,y,z
x,-y,z
loop_
_atom_site_type_symbol
_atom_site_label
_atom_site_fract_x
_atom_site_fract_y
_atom_site_fract_z
Si Si1 0.913646 0.666505 0.280604
Si Si2 0.424072 0.144927 0.568981
Si Si3 0.416907 0.161371 0.220938
Si Si4 0.576373 0.431724 0.183744
Si Si5 0.083285 0.744262 0.853658
Si Si6 0.572989 0.643544 0.929249
Si Si7 0.084376 0.241372 0.353718
Si Si8 0.423596 0.932252 0.697397
O O1 0.750000 0.663409 0.313209
O O2 0.964590 0.601820 0.254213
O O3 0.910512 0.708590 0.215716
O O4 0.022968 0.692881 0.337560
O O5 0.500000 0.123340 0.500000
O O6 0.250000 0.149572 0.557680
O O7 0.483801 0.209567 0.589994
O O8 0.466972 0.096821 0.625657
O O9 0.250000 0.149162 0.196075
O O10 0.507190 0.192179 0.159800
O O11 0.417833 0.203739 0.285535
O O12 0.492461 0.099391 0.240695
O O13 0.750000 0.420695 0.166206
O O14 0.539299 0.500000 0.194470
O O15 0.475967 0.406788 0.123476
O O16 0.250000 0.753942 0.881983
O O17 0.986244 0.708176 0.907922
O O18 0.750000 0.645107 0.934618
O O19 0.500000 0.625355 0.000000
O O20 0.250000 0.247674 0.382754
O O21 0.250000 0.925057 0.710992
O O22 0.474208 0.000000 0.695228
#
# Coordination Sequence:
#
# PCOD8207811 Si02
#       8
#     8   8   8   8   8   8   8   8
#     4   8  14  25  42  62  82 105 134 171 215 256
#     4  10  19  30  43  59  82 112 146 182 217 255
#     4   9  16  26  42  64  85 106 136 176 220 260
#     4   9  18  32  47  63  86 117 151 183 215 254
#     4   9  16  28  45  63  83 108 138 174 218 263
#     4  11  21  32  45  62  86 116 150 185 219 256
#     4   9  16  26  41  60  81 105 135 172 214 258
#     4   9  18  31  44  59  83 117 152 182 214 254
#
# _framework density 15.916198
#
# number of rings (size 3 to 8) (size 9 to 14) (size 15 to 20)
#    0.000    2.750    0.000    3.375    0.000    7.500 
#    0.000    0.000    0.000    0.000    0.000    0.000 
#    0.000    1.000    0.000    3.250    0.000    5.125 
#
# Total GULP energy -793438.831659 kJ/mol
# GULP energy per Si atom -12397.481745 kJ/mol
# Density = 1.587997 g / cm^3
# Si number density = 15.916198 Si / 1000 Ang^3
#
#
#
# Elastic Constant Matrix: (Units=GPa)
#
#
# Indices 1 2 3 4 5 6 
#
# 1 102.7278 55.7292 21.9090 0.0000 0.0000 0.0000
# 2 55.7292 115.3087 42.4799 0.0000 0.0000 0.0000
# 3 21.9090 42.4799 18.4560 0.0000 0.0000 0.0000
# 4 0.0000 0.0000 0.0000 13.4641 0.0000 0.0000
# 5 0.0000 0.0000 0.0000 0.0000 23.2560 0.0000
# 6 0.0000 0.0000 0.0000 0.0000 0.0000 21.4406
#
#
#
# Elastic Compliance Matrix: (Units=1/GPa)
#
#
# Indices 1 2 3 4 5 6 
#
# 1 0.013313 -0.004025 -0.006538 0.000000 0.000000 0.000000
# 2 -0.004025 0.058251 -0.129296 0.000000 0.000000 0.000000
# 3 -0.006538 -0.129296 0.359542 0.000000 0.000000 0.000000
# 4 0.000000 0.000000 0.000000 0.074272 0.000000 0.000000
# 5 0.000000 0.000000 0.000000 0.000000 0.043000 0.000000
# 6 0.000000 0.000000 0.000000 0.000000 0.000000 0.046640
#
#
# Mechanical properties :
#
#
# Convention : Reuss Voigt Hill
#
# Bulk Modulus (GPa) = 6.60561 52.96988 29.78774
# Shear Modulus (GPa) = 5.40425 19.39044 12.39735
#
# Velocity S-wave (km/s) = 1.84467 3.49418 2.79393
# Velocity P-wave (km/s) = 2.94895 7.04498 5.40038
#
# Compressibility (1/GPa) = 0.15138648
#
# Stress axis : x y z
#
# Youngs Moduli (GPa) = 75.11674 17.16719 2.78132
#
# Poissons Ratio (x) = 0.06910 0.01818
# Poissons Ratio (y) = 0.30237 0.35961
# Poissons Ratio (z) = 0.49112 2.21965
#
# Static dielectric constant tensor:
#      x y z
#    x 3.186310 0.000000 0.000000 
#    y 0.000000 3.050940 0.000000 
#    z 0.000000 0.000000 2.755220 
# 
# 
# High freq. dielectric constant tensor:
#      x y z
#    x 1.624720 0.000000 0.000000 
#    y 0.000000 1.594430 0.000000 
#    z 0.000000 0.000000 1.567670 
# 
# From -- ./inp_files/32543.got.cif
#   From: 2010.03.12/outbox.cif.g09.slc.cpg/sg51_17_cif.got.tgz:32543.got - 2010.04.16 13:43:02.
