data_PCOD8207130
_publ_section_title
;
Structure prediction by ZEFSAII (Michael W. Deem and Ramdas Pophale) SiO2 
 PCOD8207130
Probable space group: P M M A
;
_chemical_formula_sum "Si O2"
_cell_formula_units_Z 64
_cell_length_a 18.770645
_cell_length_b 9.558891
_cell_length_c 19.931403
_cell_angle_alpha 90.000000
_cell_angle_beta 90.000000
_cell_angle_gamma 90.000000
_cell_volume 3576.222868
_symmetry_space_group_name_H-M "P M M A"
_symmetry_group_IT_number 51
_symmetry_cell_setting 'orthorhombic'
loop_
_space_group_symop_operation_xyz
x,y,z
1/2-x,-y,z
1/2+x,-y,-z
-x,y,-z
-x,-y,-z
1/2+x,y,-z
1/2-x,y,z
x,-y,z
loop_
_atom_site_type_symbol
_atom_site_label
_atom_site_fract_x
_atom_site_fract_y
_atom_site_fract_z
Si Si1 0.558924 0.834161 0.357960
Si Si2 0.167731 0.340369 0.280957
Si Si3 0.568923 0.340031 0.840803
Si Si4 0.559590 0.162154 0.206602
Si Si5 0.598440 0.165597 0.603949
Si Si6 0.668960 0.838806 0.094648
Si Si7 0.330581 0.833635 0.534349
Si Si8 0.919128 0.339273 0.991276
O O1 0.567215 0.777420 0.282107
O O2 0.483574 0.785537 0.389292
O O3 0.623786 0.774101 0.402914
O O4 0.563241 0.000000 0.358645
O O5 0.250000 0.319761 0.265100
O O6 0.150254 0.500000 0.301533
O O7 0.127082 0.295912 0.213670
O O8 0.145733 0.238137 0.340039
O O9 0.544008 0.500000 0.831566
O O10 0.500272 0.243683 0.833986
O O11 0.603634 0.318818 0.913922
O O12 0.633160 0.185511 0.167232
O O13 0.537310 0.000000 0.209225
O O14 0.629147 0.215572 0.532755
O O15 0.605523 0.000000 0.613486
O O16 0.750000 0.789815 0.102371
O O17 0.662879 0.000000 0.073318
O O18 0.633041 0.750710 0.036285
O O19 0.250000 0.772729 0.536899
O O20 0.327726 0.000000 0.536535
O O21 0.912594 0.500000 0.014314
O O22 0.000000 0.286862 0.000000
#
# Coordination Sequence:
#
# PCOD8207130 Si02
#       8
#     8   8   8   8   8   8   8   8
#     4   9  17  29  48  74 102 134 173 216 257 303
#     4  10  21  35  51  74 104 136 166 202 256 313
#     4  10  20  35  55  77 103 133 171 216 257 307
#     4  10  19  33  54  78 104 139 177 214 260 309
#     4  10  18  31  52  77 103 132 171 215 257 304
#     4  10  22  37  53  79 113 144 176 217 266 317
#     4   9  17  28  45  73 106 137 170 213 263 306
#     4  10  20  35  57  82 104 134 178 221 261 310
#
# _framework density 17.895975
#
# number of rings (size 3 to 8) (size 9 to 14) (size 15 to 20)
#    0.000    2.250    2.500    0.750    0.000    4.250 
#    0.000    3.750    0.000    2.250    0.000    0.000 
#    0.000    0.000    0.000    0.000    0.000    0.000 
#
# Total GULP energy -793640.736603 kJ/mol
# GULP energy per Si atom -12400.636509 kJ/mol
# Density = 1.785524 g / cm^3
# Si number density = 17.895975 Si / 1000 Ang^3
#
#
#
# Elastic Constant Matrix: (Units=GPa)
#
#
# Indices 1 2 3 4 5 6 
#
# 1 132.2737 37.7265 55.4700 0.0000 0.0000 0.0000
# 2 37.7265 36.7141 32.1080 0.0000 0.0000 0.0000
# 3 55.4700 32.1080 113.4725 0.0000 0.0000 0.0000
# 4 0.0000 0.0000 0.0000 17.0453 0.0000 0.0000
# 5 0.0000 0.0000 0.0000 0.0000 32.0548 0.0000
# 6 0.0000 0.0000 0.0000 0.0000 0.0000 -7.4146
#
#
#
# Elastic Compliance Matrix: (Units=1/GPa)
#
#
# Indices 1 2 3 4 5 6 
#
# 1 0.011417 -0.009104 -0.003005 0.000000 0.000000 0.000000
# 2 -0.009104 0.043453 -0.007845 0.000000 0.000000 0.000000
# 3 -0.003005 -0.007845 0.012502 0.000000 0.000000 0.000000
# 4 0.000000 0.000000 0.000000 0.058667 0.000000 0.000000
# 5 0.000000 0.000000 0.000000 0.000000 0.031197 0.000000
# 6 0.000000 0.000000 0.000000 0.000000 0.000000 -0.134869
#
#
# Mechanical properties :
#
#
# Convention : Reuss Voigt Hill
#
# Bulk Modulus (GPa) = 36.41166 59.22993 47.82079
# Shear Modulus (GPa) = 70.00064 18.81417 44.40741
#
# Velocity S-wave (km/s) = 6.26101 3.24590 4.98679
# Velocity P-wave (km/s) = 8.52393 6.87143 7.74190
#
# Compressibility (1/GPa) = 0.02746373
#
# Stress axis : x y z
#
# Youngs Moduli (GPa) = 87.59061 23.01339 79.99002
#
# Poissons Ratio (x) = 0.20950 0.24038
# Poissons Ratio (y) = 0.79738 0.62754
# Poissons Ratio (z) = 0.26322 0.18054
#
# Static dielectric constant tensor:
#      x y z
#    x 3.437750 0.000000 0.000000 
#    y 0.000000 3.040270 0.000000 
#    z 0.000000 0.000000 3.535880 
# 
# 
# High freq. dielectric constant tensor:
#      x y z
#    x 1.696050 0.000000 0.000000 
#    y 0.000000 1.658630 0.000000 
#    z 0.000000 0.000000 1.706240 
# 
# From -- ./inp_files/30592.got.cif
#   From: 2010.03.12/outbox.cif.g09.slc.cpg/sg51_16_cif.got.tgz:30592.got - 2010.04.16 13:43:02.
