data_PCOD8207586
_publ_section_title
;
Structure prediction by ZEFSAII (Michael W. Deem and Ramdas Pophale) SiO2 
 PCOD8207586
Probable space group: P M M A
;
_chemical_formula_sum "Si O2"
_cell_formula_units_Z 56
_cell_length_a 18.005812
_cell_length_b 9.222518
_cell_length_c 20.710596
_cell_angle_alpha 90.000000
_cell_angle_beta 90.000000
_cell_angle_gamma 90.000000
_cell_volume 3439.179314
_symmetry_space_group_name_H-M "P M M A"
_symmetry_group_IT_number 51
_symmetry_cell_setting 'orthorhombic'
loop_
_space_group_symop_operation_xyz
x,y,z
1/2-x,-y,z
1/2+x,-y,-z
-x,y,-z
-x,-y,-z
1/2+x,y,-z
1/2-x,y,z
x,-y,z
loop_
_atom_site_type_symbol
_atom_site_label
_atom_site_fract_x
_atom_site_fract_y
_atom_site_fract_z
Si Si1 0.163960 0.334085 0.761261
Si Si2 0.906616 0.670396 0.372496
Si Si3 0.596180 0.169635 0.121452
Si Si4 0.449397 0.659806 0.437056
Si Si5 0.836001 0.167242 0.490181
Si Si6 0.963979 0.336160 0.929870
Si Si7 0.335059 0.832003 0.016041
O O1 0.250000 0.315670 0.744156
O O2 0.145646 0.500000 0.780392
O O3 0.117321 0.284230 0.699059
O O4 0.143690 0.229221 0.819549
O O5 0.893890 0.500000 0.384964
O O6 0.855677 0.753584 0.423699
O O7 0.994368 0.710476 0.380033
O O8 0.516425 0.248880 0.119368
O O9 0.643225 0.203699 0.057420
O O10 0.581967 0.000000 0.130388
O O11 0.500000 0.653228 0.500000
O O12 0.416534 0.500000 0.422090
O O13 0.381661 0.769941 0.448463
O O14 0.750000 0.190156 0.505990
O O15 0.857052 0.000000 0.482229
O O16 0.954540 0.500000 0.904654
O O17 0.883545 0.260661 0.933541
O O18 0.000000 0.331612 0.000000
O O19 0.250000 0.787933 0.026653
O O20 0.349491 0.000000 0.030916
#
# Coordination Sequence:
#
# PCOD8207586 Si02
#       7
#     8   8   8   8   8   8   8
#     4  10  20  32  46  65  90 120 151 183 219 257
#     4   9  18  32  47  63  86 118 153 184 217 260
#     4  10  19  31  46  64  90 123 155 184 216 259
#     4   8  15  28  45  63  83 111 147 182 217 261
#     4  10  19  28  41  65  93 117 143 179 222 264
#     4   9  17  29  45  65  88 115 149 187 225 264
#     4   9  17  29  45  66  92 120 148 181 223 267
#
# _framework density 16.282955000000001
#
# number of rings (size 3 to 8) (size 9 to 14) (size 15 to 20)
#    0.000    2.714    0.000    3.000    0.000    8.286 
#    0.000    0.000    0.000    0.000    0.000    1.000 
#    0.000    5.714    0.000    0.000    0.000    0.000 
#
# Total GULP energy -694325.197122 kJ/mol
# GULP energy per Si atom -12398.664234 kJ/mol
# Density = 1.624589 g / cm^3
# Si number density = 16.282955 Si / 1000 Ang^3
#
#
#
# Elastic Constant Matrix: (Units=GPa)
#
#
# Indices 1 2 3 4 5 6 
#
# 1 91.8719 49.0795 22.9518 0.0000 0.0000 0.0000
# 2 49.0795 84.6922 23.4648 0.0000 0.0000 0.0000
# 3 22.9518 23.4648 37.6125 0.0000 0.0000 0.0000
# 4 0.0000 0.0000 0.0000 19.4026 0.0000 0.0000
# 5 0.0000 0.0000 0.0000 0.0000 27.1959 0.0000
# 6 0.0000 0.0000 0.0000 0.0000 0.0000 30.1815
#
#
#
# Elastic Compliance Matrix: (Units=1/GPa)
#
#
# Indices 1 2 3 4 5 6 
#
# 1 0.016497 -0.008186 -0.004960 0.000000 0.000000 0.000000
# 2 -0.008186 0.018337 -0.006444 0.000000 0.000000 0.000000
# 3 -0.004960 -0.006444 0.033634 0.000000 0.000000 0.000000
# 4 0.000000 0.000000 0.000000 0.051539 0.000000 0.000000
# 5 0.000000 0.000000 0.000000 0.000000 0.036770 0.000000
# 6 0.000000 0.000000 0.000000 0.000000 0.000000 0.033133
#
#
# Mechanical properties :
#
#
# Convention : Reuss Voigt Hill
#
# Bulk Modulus (GPa) = 34.14448 45.01878 39.58163
# Shear Modulus (GPa) = 20.93343 23.26802 22.10073
#
# Velocity S-wave (km/s) = 3.58942 3.78429 3.68814
# Velocity P-wave (km/s) = 6.18010 6.84122 6.51904
#
# Compressibility (1/GPa) = 0.02928731
#
# Stress axis : x y z
#
# Youngs Moduli (GPa) = 60.61778 54.53566 29.73192
#
# Poissons Ratio (x) = 0.44642 0.14747
# Poissons Ratio (y) = 0.49620 0.19160
# Poissons Ratio (z) = 0.30066 0.35145
#
# Static dielectric constant tensor:
#      x y z
#    x 3.253850 0.000000 0.000000 
#    y 0.000000 3.161010 0.000000 
#    z 0.000000 0.000000 2.868980 
# 
# 
# High freq. dielectric constant tensor:
#      x y z
#    x 1.626650 0.000000 0.000000 
#    y 0.000000 1.633430 0.000000 
#    z 0.000000 0.000000 1.585040 
# 
# From -- ./inp_files/33668.got.cif
#   From: 2010.03.12/outbox.cif.g09.slc.cpg/sg51_17_cif.got.tgz:33668.got - 2010.04.16 13:43:02.
