data_PCOD8207083
_publ_section_title
;
Structure prediction by ZEFSAII (Michael W. Deem and Ramdas Pophale) SiO2 
 PCOD8207083
Probable space group: P M M A
;
_chemical_formula_sum "Si O2"
_cell_formula_units_Z 48
_cell_length_a 8.693388
_cell_length_b 16.053971
_cell_length_c 18.430021
_cell_angle_alpha 90.000000
_cell_angle_beta 90.000000
_cell_angle_gamma 90.000000
_cell_volume 2572.156372
_symmetry_space_group_name_H-M "P M M A"
_symmetry_group_IT_number 51
_symmetry_cell_setting 'orthorhombic'
loop_
_space_group_symop_operation_xyz
x,y,z
1/2-x,-y,z
1/2+x,-y,-z
-x,y,-z
-x,-y,-z
1/2+x,y,-z
1/2-x,y,z
x,-y,z
loop_
_atom_site_type_symbol
_atom_site_label
_atom_site_fract_x
_atom_site_fract_y
_atom_site_fract_z
Si Si1 0.072811 0.404554 0.214743
Si Si2 0.069402 0.167242 0.421089
Si Si3 0.070071 0.667867 0.922956
Si Si4 0.929421 0.000000 0.920052
Si Si5 0.932505 0.000000 0.419857
Si Si6 0.070393 0.743749 0.706580
Si Si7 0.927423 0.159906 0.149907
O O1 0.250000 0.376916 0.220459
O O2 0.050744 0.500000 0.237813
O O3 0.015746 0.392256 0.132898
O O4 0.970068 0.349170 0.268347
O O5 0.250000 0.156420 0.430071
O O6 0.000000 0.186521 0.500000
O O7 0.027335 0.240777 0.366112
O O8 0.996582 0.084165 0.383658
O O9 0.250000 0.647651 0.920430
O O10 0.039398 0.764637 0.905119
O O11 0.000000 0.646205 0.000000
O O12 0.973625 0.918904 0.873893
O O13 0.750000 0.000000 0.931970
O O14 0.000000 0.000000 0.000000
O O15 0.000000 0.000000 0.500000
O O16 0.750000 0.000000 0.418651
O O17 0.250000 0.748698 0.688535
O O18 0.025975 0.810148 0.769288
O O19 0.750000 0.133330 0.147634
#
# Coordination Sequence:
#
# PCOD8207083 Si02
#       7
#     8   8   8   4   4   8   8
#     4  10  21  37  57  81 108 139 175 216 265 323
#     4  11  21  35  56  83 115 149 186 226 269 319
#     4  10  20  34  54  78 104 137 175 219 271 322
#     4  12  24  35  52  75 103 141 185 229 270 313
#     4  10  18  31  50  75 108 143 179 217 259 305
#     4  10  21  38  59  82 108 141 179 221 271 324
#     4   9  20  37  54  73 101 137 178 222 267 315
#
# _framework density 18.661384999999999
#
# number of rings (size 3 to 8) (size 9 to 14) (size 15 to 20)
#    0.000    1.833    0.000    7.000    0.000    7.667 
#    0.000    0.833    0.000    0.500    0.000    0.000 
#    0.000    0.000    0.000    0.000    0.000    0.000 
#
# Total GULP energy -595278.966050 kJ/mol
# GULP energy per Si atom -12401.645126 kJ/mol
# Density = 1.861891 g / cm^3
# Si number density = 18.661385 Si / 1000 Ang^3
#
#
#
# Elastic Constant Matrix: (Units=GPa)
#
#
# Indices 1 2 3 4 5 6 
#
# 1 124.1726 41.6367 38.6838 0.0000 0.0000 0.0000
# 2 41.6367 84.7704 39.4841 0.0000 0.0000 0.0000
# 3 38.6838 39.4841 99.3010 0.0000 0.0000 0.0000
# 4 0.0000 0.0000 0.0000 16.7140 0.0000 0.0000
# 5 0.0000 0.0000 0.0000 0.0000 32.1459 0.0000
# 6 0.0000 0.0000 0.0000 0.0000 0.0000 31.1362
#
#
#
# Elastic Compliance Matrix: (Units=1/GPa)
#
#
# Indices 1 2 3 4 5 6 
#
# 1 0.010089 -0.003835 -0.002405 0.000000 0.000000 0.000000
# 2 -0.003835 0.015936 -0.004842 0.000000 0.000000 0.000000
# 3 -0.002405 -0.004842 0.012933 0.000000 0.000000 0.000000
# 4 0.000000 0.000000 0.000000 0.059830 0.000000 0.000000
# 5 0.000000 0.000000 0.000000 0.000000 0.031108 0.000000
# 6 0.000000 0.000000 0.000000 0.000000 0.000000 0.032117
#
#
# Mechanical properties :
#
#
# Convention : Reuss Voigt Hill
#
# Bulk Modulus (GPa) = 59.55261 60.87258 60.21259
# Shear Modulus (GPa) = 26.34707 28.56186 27.45446
#
# Velocity S-wave (km/s) = 3.76154 3.91645 3.83977
# Velocity P-wave (km/s) = 7.13071 7.28984 7.21071
#
# Compressibility (1/GPa) = 0.01679188
#
# Stress axis : x y z
#
# Youngs Moduli (GPa) = 99.12272 62.75247 77.32256
#
# Poissons Ratio (x) = 0.24065 0.18598
# Poissons Ratio (y) = 0.38012 0.37443
# Poissons Ratio (z) = 0.23842 0.30387
#
# Static dielectric constant tensor:
#      x y z
#    x 3.506490 0.000000 0.000000 
#    y 0.000000 3.479760 0.000000 
#    z 0.000000 0.000000 3.326970 
# 
# 
# High freq. dielectric constant tensor:
#      x y z
#    x 1.739690 0.000000 0.000000 
#    y 0.000000 1.716920 0.000000 
#    z 0.000000 0.000000 1.713260 
# 
# From -- ./inp_files/27681.got.cif
#   From: 2010.03.12/outbox.cif.g09.slc.cpg/sg51_14_cif.got.tgz:27681.got - 2010.04.16 13:43:02.
