data_PCOD8207557
_publ_section_title
;
Structure prediction by ZEFSAII (Michael W. Deem and Ramdas Pophale) SiO2 
 PCOD8207557
Probable space group: P M M A
;
_chemical_formula_sum "Si O2"
_cell_formula_units_Z 64
_cell_length_a 9.075536
_cell_length_b 26.302940
_cell_length_c 18.386147
_cell_angle_alpha 90.000000
_cell_angle_beta 90.000000
_cell_angle_gamma 90.000000
_cell_volume 4389.017436
_symmetry_space_group_name_H-M "P M M A"
_symmetry_group_IT_number 51
_symmetry_cell_setting 'orthorhombic'
loop_
_space_group_symop_operation_xyz
x,y,z
1/2-x,-y,z
1/2+x,-y,-z
-x,y,-z
-x,-y,-z
1/2+x,y,-z
1/2-x,y,z
x,-y,z
loop_
_atom_site_type_symbol
_atom_site_label
_atom_site_fract_x
_atom_site_fract_y
_atom_site_fract_z
Si Si1 0.079156 0.059378 0.926021
Si Si2 0.918880 0.655250 0.652933
Si Si3 0.583029 0.283055 0.784364
Si Si4 0.576656 0.138374 0.831248
Si Si5 0.580351 0.805913 0.286127
Si Si6 0.416755 0.235997 0.073819
Si Si7 0.577593 0.747373 0.425033
Si Si8 0.077140 0.443540 0.425399
O O1 0.250000 0.074062 0.932474
O O2 0.004797 0.088102 0.858866
O O3 0.056326 0.000000 0.911612
O O4 0.000000 0.076774 0.000000
O O5 0.750000 0.663251 0.628792
O O6 0.935152 0.663744 0.740765
O O7 0.969804 0.597675 0.635586
O O8 0.013595 0.695258 0.607451
O O9 0.750000 0.261011 0.770567
O O10 0.458933 0.246581 0.752978
O O11 0.560799 0.284849 0.871952
O O12 0.750000 0.128678 0.829264
O O13 0.519625 0.149537 0.748996
O O14 0.531420 0.185193 0.883888
O O15 0.750000 0.819376 0.271625
O O16 0.549717 0.795827 0.371673
O O17 0.250000 0.229131 0.050010
O O18 0.500000 0.246423 0.000000
O O19 0.500000 0.761680 0.500000
O O20 0.750000 0.738541 0.437658
O O21 0.250000 0.442625 0.439770
O O22 0.026638 0.500000 0.399797
O O23 0.000000 0.427806 0.500000
#
# Coordination Sequence:
#
# PCOD8207557 Si02
#       8
#     8   8   8   8   8   8   8   8
#     4  10  20  32  45  62  85 112 142 176 209 239
#     4   9  16  27  42  55  73 103 133 163 198 235
#     4   8  15  27  39  53  74 100 129 159 194 235
#     4  10  19  30  44  60  80 109 140 168 201 240
#     4   9  17  28  41  58  79 103 132 166 200 234
#     4   9  17  26  37  55  77 100 127 157 190 230
#     4  10  19  28  40  59  82 107 135 166 198 236
#     4   9  17  27  38  54  75  99 128 161 196 232
#
# _framework density 14.581849999999999
#
# number of rings (size 3 to 8) (size 9 to 14) (size 15 to 20)
#    0.000    2.750    0.000    3.000    0.000    7.250 
#    0.000    0.000    0.000    0.000    0.000    0.000 
#    0.000    1.000    0.000    2.000    0.000    3.000 
#
# Total GULP energy -793025.696909 kJ/mol
# GULP energy per Si atom -12391.026514 kJ/mol
# Density = 1.454866 g / cm^3
# Si number density = 14.581850 Si / 1000 Ang^3
#
#
#
# Elastic Constant Matrix: (Units=GPa)
#
#
# Indices 1 2 3 4 5 6 
#
# 1 70.4495 35.7424 46.5765 0.0000 0.0000 0.0000
# 2 35.7424 63.9168 44.5724 0.0000 0.0000 0.0000
# 3 46.5765 44.5724 98.6976 0.0000 0.0000 0.0000
# 4 0.0000 0.0000 0.0000 25.9585 0.0000 0.0000
# 5 0.0000 0.0000 0.0000 0.0000 24.5051 0.0000
# 6 0.0000 0.0000 0.0000 0.0000 0.0000 17.0581
#
#
#
# Elastic Compliance Matrix: (Units=1/GPa)
#
#
# Indices 1 2 3 4 5 6 
#
# 1 0.022973 -0.007717 -0.007356 0.000000 0.000000 0.000000
# 2 -0.007717 0.025430 -0.007843 0.000000 0.000000 0.000000
# 3 -0.007356 -0.007843 0.017145 0.000000 0.000000 0.000000
# 4 0.000000 0.000000 0.000000 0.038523 0.000000 0.000000
# 5 0.000000 0.000000 0.000000 0.000000 0.040808 0.000000
# 6 0.000000 0.000000 0.000000 0.000000 0.000000 0.058623
#
#
# Mechanical properties :
#
#
# Convention : Reuss Voigt Hill
#
# Bulk Modulus (GPa) = 50.71832 54.09406 52.40619
# Shear Modulus (GPa) = 19.53847 20.58251 20.06049
#
# Velocity S-wave (km/s) = 3.66446 3.76109 3.71309
# Velocity P-wave (km/s) = 7.26372 7.48588 7.37564
#
# Compressibility (1/GPa) = 0.01971674
#
# Stress axis : x y z
#
# Youngs Moduli (GPa) = 43.52910 39.32437 58.32511
#
# Poissons Ratio (x) = 0.30345 0.42906
# Poissons Ratio (y) = 0.33590 0.45742
# Poissons Ratio (z) = 0.32022 0.30840
#
# Static dielectric constant tensor:
#      x y z
#    x 2.930800 0.000000 0.000000 
#    y 0.000000 2.755450 0.000000 
#    z 0.000000 0.000000 2.981610 
# 
# 
# High freq. dielectric constant tensor:
#      x y z
#    x 1.570270 0.000000 0.000000 
#    y 0.000000 1.521750 0.000000 
#    z 0.000000 0.000000 1.546900 
# 
# From -- ./inp_files/28694.got.cif
#   From: 2010.03.12/outbox.cif.g09.slc.cpg/sg51_15_cif.got.tgz:28694.got - 2010.04.16 13:43:02.
