data_PCOD8207760
_publ_section_title
;
Structure prediction by ZEFSAII (Michael W. Deem and Ramdas Pophale) SiO2 
 PCOD8207760
Probable space group: P M M A
;
_chemical_formula_sum "Si O2"
_cell_formula_units_Z 64
_cell_length_a 30.336021
_cell_length_b 9.186776
_cell_length_c 14.268617
_cell_angle_alpha 90.000000
_cell_angle_beta 90.000000
_cell_angle_gamma 90.000000
_cell_volume 3976.524149
_symmetry_space_group_name_H-M "P M M A"
_symmetry_group_IT_number 51
_symmetry_cell_setting 'orthorhombic'
loop_
_space_group_symop_operation_xyz
x,y,z
1/2-x,-y,z
1/2+x,-y,-z
-x,y,-z
-x,-y,-z
1/2+x,y,-z
1/2-x,y,z
x,-y,z
loop_
_atom_site_type_symbol
_atom_site_label
_atom_site_fract_x
_atom_site_fract_y
_atom_site_fract_z
Si Si1 0.298879 0.327912 0.841330
Si Si2 0.959040 0.671326 0.933028
Si Si3 0.887609 0.670659 0.075983
Si Si4 0.114713 0.835979 0.561821
Si Si5 0.972541 0.168274 0.739822
Si Si6 0.544428 0.672086 0.554099
Si Si7 0.927152 0.160322 0.240991
Si Si8 0.799104 0.168236 0.350828
O O1 0.250000 0.277952 0.875947
O O2 0.300388 0.500000 0.829012
O O3 0.336417 0.276087 0.916466
O O4 0.310504 0.260701 0.741187
O O5 0.960888 0.500000 0.910574
O O6 0.959394 0.760896 0.837909
O O7 0.912704 0.719080 0.981548
O O8 0.000000 0.715320 0.000000
O O9 0.889495 0.500000 0.082290
O O10 0.915818 0.722426 0.163838
O O11 0.087418 0.718345 0.504204
O O12 0.104417 0.824219 0.671272
O O13 0.167158 0.798624 0.562855
O O14 0.105024 0.000000 0.524130
O O15 0.949588 0.251670 0.654264
O O16 0.024013 0.187476 0.721599
O O17 0.957763 0.000000 0.739772
O O18 0.500000 0.722904 0.500000
O O19 0.544487 0.500000 0.568184
O O20 0.923048 0.000000 0.195337
O O21 0.750000 0.206039 0.387243
O O22 0.803039 0.000000 0.321035
#
# Coordination Sequence:
#
# PCOD8207760 Si02
#       8
#     8   8   8   8   8   8   8   8
#     4   9  17  28  43  66  95 125 158 194 231 275
#     4  10  20  33  48  68  95 126 160 197 236 280
#     4  10  19  30  46  67  94 130 162 192 233 278
#     4  10  19  32  48  69  98 131 163 196 234 280
#     4  11  22  35  50  68  95 128 161 201 241 278
#     4  11  23  35  50  71  95 126 163 200 239 285
#     4  10  19  29  45  69  97 127 160 196 232 274
#     4   9  17  29  46  69  97 128 159 192 234 281
#
# _framework density 16.094459000000001
#
# number of rings (size 3 to 8) (size 9 to 14) (size 15 to 20)
#    0.000    2.000    3.750    0.750    0.000    2.750 
#    0.000    0.000    0.000    0.000    0.000    0.875 
#    0.000    3.000    0.000    0.000    0.000    0.000 
#
# Total GULP energy -793276.349123 kJ/mol
# GULP energy per Si atom -12394.942955 kJ/mol
# Density = 1.605783 g / cm^3
# Si number density = 16.094459 Si / 1000 Ang^3
#
#
#
# Elastic Constant Matrix: (Units=GPa)
#
#
# Indices 1 2 3 4 5 6 
#
# 1 103.2229 39.4295 45.0669 0.0000 0.0000 0.0000
# 2 39.4295 37.9221 37.6442 0.0000 0.0000 0.0000
# 3 45.0669 37.6442 78.5723 0.0000 0.0000 0.0000
# 4 0.0000 0.0000 0.0000 22.3699 0.0000 0.0000
# 5 0.0000 0.0000 0.0000 0.0000 21.4826 0.0000
# 6 0.0000 0.0000 0.0000 0.0000 0.0000 17.8439
#
#
#
# Elastic Compliance Matrix: (Units=1/GPa)
#
#
# Indices 1 2 3 4 5 6 
#
# 1 0.016294 -0.014615 -0.002343 0.000000 0.000000 0.000000
# 2 -0.014615 0.063395 -0.021990 0.000000 0.000000 0.000000
# 3 -0.002343 -0.021990 0.024607 0.000000 0.000000 0.000000
# 4 0.000000 0.000000 0.000000 0.044703 0.000000 0.000000
# 5 0.000000 0.000000 0.000000 0.000000 0.046549 0.000000
# 6 0.000000 0.000000 0.000000 0.000000 0.000000 0.056042
#
#
# Mechanical properties :
#
#
# Convention : Reuss Voigt Hill
#
# Bulk Modulus (GPa) = 37.88122 51.55538 44.71830
# Shear Modulus (GPa) = 14.78046 18.84439 16.81242
#
# Velocity S-wave (km/s) = 3.03373 3.42550 3.23555
# Velocity P-wave (km/s) = 5.98826 6.90999 6.46557
#
# Compressibility (1/GPa) = 0.02639831
#
# Stress axis : x y z
#
# Youngs Moduli (GPa) = 61.37372 15.77424 40.63940
#
# Poissons Ratio (x) = 0.23054 0.09524
# Poissons Ratio (y) = 0.89698 0.89365
# Poissons Ratio (z) = 0.14383 0.34687
#
# Static dielectric constant tensor:
#      x y z
#    x 3.532250 0.000000 0.000000 
#    y 0.000000 3.064470 0.000000 
#    z 0.000000 0.000000 2.839420 
# 
# 
# High freq. dielectric constant tensor:
#      x y z
#    x 1.621220 0.000000 0.000000 
#    y 0.000000 1.621750 0.000000 
#    z 0.000000 0.000000 1.585390 
# 
# From -- ./inp_files/26602.got.cif
#   From: 2010.03.12/outbox.cif.g09.slc.cpg/sg51_14_cif.got.tgz:26602.got - 2010.04.16 13:43:02.
