data_PCOD8207745
_publ_section_title
;
Structure prediction by ZEFSAII (Michael W. Deem and Ramdas Pophale) SiO2 
 PCOD8207745
Probable space group: P M M A
;
_chemical_formula_sum "Si O2"
_cell_formula_units_Z 64
_cell_length_a 8.920304
_cell_length_b 18.909586
_cell_length_c 23.531240
_cell_angle_alpha 90.000000
_cell_angle_beta 90.000000
_cell_angle_gamma 90.000000
_cell_volume 3969.232047
_symmetry_space_group_name_H-M "P M M A"
_symmetry_group_IT_number 51
_symmetry_cell_setting 'orthorhombic'
loop_
_space_group_symop_operation_xyz
x,y,z
1/2-x,-y,z
1/2+x,-y,-z
-x,y,-z
-x,-y,-z
1/2+x,y,-z
1/2-x,y,z
x,-y,z
loop_
_atom_site_type_symbol
_atom_site_label
_atom_site_fract_x
_atom_site_fract_y
_atom_site_fract_z
Si Si1 0.426204 0.580679 0.940908
Si Si2 0.076755 0.919713 0.386435
Si Si3 0.073094 0.208906 0.558295
Si Si4 0.071790 0.578317 0.274975
Si Si5 0.920369 0.793413 0.773915
Si Si6 0.573265 0.345388 0.837175
Si Si7 0.077928 0.079189 0.733281
Si Si8 0.577368 0.289856 0.657694
O O1 0.250000 0.589540 0.946880
O O2 0.470650 0.500000 0.925249
O O3 0.485995 0.633959 0.893571
O O4 0.500000 0.603316 0.000000
O O5 0.250000 0.896816 0.388001
O O6 0.984433 0.870024 0.428531
O O7 0.021266 0.910190 0.322470
O O8 0.053797 0.000000 0.407257
O O9 0.250000 0.207402 0.551793
O O10 0.000000 0.235798 0.500000
O O11 0.027620 0.263322 0.607431
O O12 0.250000 0.578996 0.272211
O O13 0.007806 0.500000 0.287434
O O14 0.013210 0.604959 0.213885
O O15 0.021919 0.631235 0.325305
O O16 0.750000 0.817451 0.782766
O O17 0.964572 0.736115 0.821837
O O18 0.942925 0.759957 0.711963
O O19 0.024240 0.863173 0.779706
O O20 0.750000 0.355732 0.846443
O O21 0.250000 0.092693 0.716884
O O22 0.055899 0.000000 0.758137
O O23 0.750000 0.289794 0.637493
#
# Coordination Sequence:
#
# PCOD8207745 Si02
#       8
#     8   8   8   8   8   8   8   8
#     4  10  20  32  46  66  95 134 174 208 241 277
#     4  10  20  34  51  69  91 119 150 186 226 270
#     4  12  24  36  51  68  88 116 150 189 231 277
#     4   8  14  26  48  75  98 122 150 184 230 279
#     4   9  17  29  47  69  95 126 157 191 234 279
#     4   9  17  29  47  72  99 128 162 199 234 276
#     4  10  19  29  44  68  96 126 158 191 229 274
#     4   9  17  31  49  69  93 118 149 186 225 277
#
# _framework density 16.124026000000001
#
# number of rings (size 3 to 8) (size 9 to 14) (size 15 to 20)
#    0.000    2.375    1.250    4.125    0.000    3.500 
#    0.000    1.875    0.000    1.500    0.000    0.000 
#    0.000    0.500    0.000    1.625    0.000    2.375 
#
# Total GULP energy -793522.131962 kJ/mol
# GULP energy per Si atom -12398.783312 kJ/mol
# Density = 1.608733 g / cm^3
# Si number density = 16.124026 Si / 1000 Ang^3
#
#
#
# Elastic Constant Matrix: (Units=GPa)
#
#
# Indices 1 2 3 4 5 6 
#
# 1 87.9823 44.5969 45.5639 0.0000 0.0000 0.0000
# 2 44.5969 106.4066 48.6141 0.0000 0.0000 0.0000
# 3 45.5639 48.6141 89.9152 0.0000 0.0000 0.0000
# 4 0.0000 0.0000 0.0000 22.7689 0.0000 0.0000
# 5 0.0000 0.0000 0.0000 0.0000 25.2483 0.0000
# 6 0.0000 0.0000 0.0000 0.0000 0.0000 21.8003
#
#
#
# Elastic Compliance Matrix: (Units=1/GPa)
#
#
# Indices 1 2 3 4 5 6 
#
# 1 0.016689 -0.004158 -0.006209 0.000000 0.000000 0.000000
# 2 -0.004158 0.013517 -0.005201 0.000000 0.000000 0.000000
# 3 -0.006209 -0.005201 0.017080 0.000000 0.000000 0.000000
# 4 0.000000 0.000000 0.000000 0.043919 0.000000 0.000000
# 5 0.000000 0.000000 0.000000 0.000000 0.039607 0.000000
# 6 0.000000 0.000000 0.000000 0.000000 0.000000 0.045871
#
#
# Mechanical properties :
#
#
# Convention : Reuss Voigt Hill
#
# Bulk Modulus (GPa) = 61.92025 62.42822 62.17423
# Shear Modulus (GPa) = 23.45193 23.66545 23.55869
#
# Velocity S-wave (km/s) = 3.81789 3.83523 3.82657
# Velocity P-wave (km/s) = 7.61058 7.64288 7.62674
#
# Compressibility (1/GPa) = 0.01614981
#
# Stress axis : x y z
#
# Youngs Moduli (GPa) = 59.91975 73.98199 58.54811
#
# Poissons Ratio (x) = 0.30761 0.36352
# Poissons Ratio (y) = 0.24914 0.30451
# Poissons Ratio (z) = 0.37204 0.38478
#
# Static dielectric constant tensor:
#      x y z
#    x 2.966830 0.000000 0.000000 
#    y 0.000000 3.333070 0.000000 
#    z 0.000000 0.000000 2.802890 
# 
# 
# High freq. dielectric constant tensor:
#      x y z
#    x 1.616500 0.000000 0.000000 
#    y 0.000000 1.620660 0.000000 
#    z 0.000000 0.000000 1.585740 
# 
# From -- ./inp_files/32547.got.cif
#   From: 2010.03.12/outbox.cif.g09.slc.cpg/sg51_17_cif.got.tgz:32547.got - 2010.04.16 13:43:02.
