data_PCOD8207846
_publ_section_title
;
Structure prediction by ZEFSAII (Michael W. Deem and Ramdas Pophale) SiO2 
 PCOD8207846
Probable space group: P M M A
;
_chemical_formula_sum "Si O2"
_cell_formula_units_Z 40
_cell_length_a 8.880456
_cell_length_b 15.604648
_cell_length_c 19.505483
_cell_angle_alpha 90.000000
_cell_angle_beta 90.000000
_cell_angle_gamma 90.000000
_cell_volume 2702.999419
_symmetry_space_group_name_H-M "P M M A"
_symmetry_group_IT_number 51
_symmetry_cell_setting 'orthorhombic'
loop_
_space_group_symop_operation_xyz
x,y,z
1/2-x,-y,z
1/2+x,-y,-z
-x,y,-z
-x,-y,-z
1/2+x,y,-z
1/2-x,y,z
x,-y,z
loop_
_atom_site_type_symbol
_atom_site_label
_atom_site_fract_x
_atom_site_fract_y
_atom_site_fract_z
Si Si1 0.422407 0.500000 0.928609
Si Si2 0.571407 0.835778 0.840756
Si Si3 0.419651 0.898096 0.432307
Si Si4 0.572287 0.686062 0.075045
Si Si5 0.926839 0.099578 0.293125
Si Si6 0.427501 0.000000 0.073807
O O1 0.250000 0.500000 0.947482
O O2 0.461547 0.590825 0.892173
O O3 0.500000 0.500000 0.000000
O O4 0.750000 0.829269 0.838416
O O5 0.503225 0.750580 0.872579
O O6 0.509282 0.844911 0.764304
O O7 0.516754 0.916545 0.885533
O O8 0.500000 0.860380 0.500000
O O9 0.250000 0.862043 0.428213
O O10 0.512591 0.867456 0.366136
O O11 0.417772 0.000000 0.436117
O O12 0.750000 0.704520 0.069071
O O13 0.500000 0.696877 0.000000
O O14 0.750000 0.115809 0.289658
O O15 0.967485 0.000000 0.282179
O O16 0.250000 0.000000 0.064995
O O17 0.500000 0.000000 0.000000
#
# Coordination Sequence:
#
# PCOD8207846 Si02
#       6
#     4   8   8   8   8   4
#     4   8  16  30  48  66  86 106 131 170 219 268
#     4  11  21  33  45  61  84 115 147 182 220 259
#     4   9  16  26  41  60  82 108 140 179 216 254
#     4  10  19  32  48  67  86 109 140 178 221 267
#     4  10  19  30  44  61  82 112 147 182 218 258
#     4  10  22  34  44  56  77 108 145 182 218 252
#
# _framework density 14.798375
#
# number of rings (size 3 to 8) (size 9 to 14) (size 15 to 20)
#    0.000    2.200    1.000    3.000    0.000    7.200 
#    0.000    0.000    0.000    0.000    0.000    0.000 
#    0.000    0.000    0.000    0.900    0.000   11.400 
#
# Total GULP energy -495840.956781 kJ/mol
# GULP energy per Si atom -12396.023920 kJ/mol
# Density = 1.476469 g / cm^3
# Si number density = 14.798375 Si / 1000 Ang^3
#
#
#
# Elastic Constant Matrix: (Units=GPa)
#
#
# Indices 1 2 3 4 5 6 
#
# 1 81.1480 42.8528 47.0903 0.0000 0.0000 0.0000
# 2 42.8528 92.4374 51.9007 0.0000 0.0000 0.0000
# 3 47.0903 51.9007 117.6085 0.0000 0.0000 0.0000
# 4 0.0000 0.0000 0.0000 8.5152 0.0000 0.0000
# 5 0.0000 0.0000 0.0000 0.0000 30.9590 0.0000
# 6 0.0000 0.0000 0.0000 0.0000 0.0000 17.8331
#
#
#
# Elastic Compliance Matrix: (Units=1/GPa)
#
#
# Indices 1 2 3 4 5 6 
#
# 1 0.018087 -0.005741 -0.004708 0.000000 0.000000 0.000000
# 2 -0.005741 0.016204 -0.004852 0.000000 0.000000 0.000000
# 3 -0.004708 -0.004852 0.012529 0.000000 0.000000 0.000000
# 4 0.000000 0.000000 0.000000 0.117437 0.000000 0.000000
# 5 0.000000 0.000000 0.000000 0.000000 0.032301 0.000000
# 6 0.000000 0.000000 0.000000 0.000000 0.000000 0.056076
#
#
# Mechanical properties :
#
#
# Convention : Reuss Voigt Hill
#
# Bulk Modulus (GPa) = 61.66407 63.87571 62.76989
# Shear Modulus (GPa) = 17.32239 21.41813 19.37026
#
# Velocity S-wave (km/s) = 3.42506 3.80851 3.62186
# Velocity P-wave (km/s) = 7.57636 7.91185 7.74592
#
# Compressibility (1/GPa) = 0.01621690
#
# Stress axis : x y z
#
# Youngs Moduli (GPa) = 55.28692 61.71307 79.81337
#
# Poissons Ratio (x) = 0.35432 0.37580
# Poissons Ratio (y) = 0.31743 0.38725
# Poissons Ratio (z) = 0.26032 0.29943
#
# Static dielectric constant tensor:
#      x y z
#    x 3.034100 0.000000 0.000000 
#    y 0.000000 2.769880 0.000000 
#    z 0.000000 0.000000 2.825930 
# 
# 
# High freq. dielectric constant tensor:
#      x y z
#    x 1.586520 0.000000 0.000000 
#    y 0.000000 1.529580 0.000000 
#    z 0.000000 0.000000 1.555070 
# 
# From -- ./inp_files/31528.got.cif
#   From: 2010.03.12/outbox.cif.g09.slc.cpg/sg51_16_cif.got.tgz:31528.got - 2010.04.16 13:43:02.
