data_PCOD8207035
_publ_section_title
;
Structure prediction by ZEFSAII (Michael W. Deem and Ramdas Pophale) SiO2 
 PCOD8207035
Probable space group: P M M A
;
_chemical_formula_sum "Si O2"
_cell_formula_units_Z 52
_cell_length_a 9.093902
_cell_length_b 12.746986
_cell_length_c 30.411298
_cell_angle_alpha 90.000000
_cell_angle_beta 90.000000
_cell_angle_gamma 90.000000
_cell_volume 3525.272843
_symmetry_space_group_name_H-M "P M M A"
_symmetry_group_IT_number 51
_symmetry_cell_setting 'orthorhombic'
loop_
_space_group_symop_operation_xyz
x,y,z
1/2-x,-y,z
1/2+x,-y,-z
-x,y,-z
-x,-y,-z
1/2+x,y,-z
1/2-x,y,z
x,-y,z
loop_
_atom_site_type_symbol
_atom_site_label
_atom_site_fract_x
_atom_site_fract_y
_atom_site_fract_z
Si Si1 0.422786 0.686046 0.099498
Si Si2 0.585292 0.374649 0.712393
Si Si3 0.084791 0.625133 0.628148
Si Si4 0.415773 0.625083 0.457226
Si Si5 0.926705 0.500000 0.047667
Si Si6 0.923882 0.383960 0.807291
Si Si7 0.421013 0.882755 0.044045
O O1 0.250000 0.657812 0.093460
O O2 0.520119 0.602944 0.073283
O O3 0.468234 0.687044 0.151016
O O4 0.460307 0.802649 0.082911
O O5 0.750000 0.331689 0.704493
O O6 0.587022 0.500000 0.712267
O O7 0.484165 0.330268 0.673298
O O8 0.520902 0.337484 0.760192
O O9 0.250000 0.667628 0.624312
O O10 0.081312 0.500000 0.628445
O O11 0.994135 0.668429 0.586567
O O12 0.500000 0.668552 0.500000
O O13 0.250000 0.668072 0.458175
O O14 0.417289 0.500000 0.457304
O O15 0.750000 0.500000 0.043656
O O16 0.000000 0.500000 0.000000
O O17 0.750000 0.393174 0.802970
O O18 0.990269 0.500000 0.815624
O O19 0.250000 0.881243 0.033426
O O20 0.472887 0.000000 0.057788
O O21 0.500000 0.844223 0.000000
#
# Coordination Sequence:
#
# PCOD8207035 Si02
#       7
#     8   8   8   8   4   8   8
#     4  10  18  31  49  64  83 108 132 159 193 234
#     4   8  13  21  33  46  59  79 107 137 164 203
#     4   9  15  21  28  39  55  75 100 131 168 210
#     4   9  15  21  28  37  50  69  95 130 172 216
#     4  12  24  34  44  62  86 108 132 160 189 230
#     4   8  13  23  40  57  72  93 122 147 177 221
#     4   9  18  31  47  66  84 104 131 162 193 227
#
# _framework density 14.750631
#
# number of rings (size 3 to 8) (size 9 to 14) (size 15 to 20)
#    0.000    2.923    0.769    3.000    0.000    5.538 
#    0.000    0.769    0.000    0.000    0.000    0.000 
#    0.000    0.000    0.000    0.000    0.000    0.000 
#
# Total GULP energy -644426.237289 kJ/mol
# GULP energy per Si atom -12392.812256 kJ/mol
# Density = 1.471706 g / cm^3
# Si number density = 14.750631 Si / 1000 Ang^3
#
#
#
# Elastic Constant Matrix: (Units=GPa)
#
#
# Indices 1 2 3 4 5 6 
#
# 1 85.1920 19.5310 62.1946 0.0000 0.0000 0.0000
# 2 19.5310 37.4114 35.8908 0.0000 0.0000 0.0000
# 3 62.1946 35.8908 167.3195 0.0000 0.0000 0.0000
# 4 0.0000 0.0000 0.0000 6.8525 0.0000 0.0000
# 5 0.0000 0.0000 0.0000 0.0000 23.5795 0.0000
# 6 0.0000 0.0000 0.0000 0.0000 0.0000 7.4019
#
#
#
# Elastic Compliance Matrix: (Units=1/GPa)
#
#
# Indices 1 2 3 4 5 6 
#
# 1 0.016452 -0.003427 -0.005380 0.000000 0.000000 0.000000
# 2 -0.003427 0.034370 -0.006098 0.000000 0.000000 0.000000
# 3 -0.005380 -0.006098 0.009285 0.000000 0.000000 0.000000
# 4 0.000000 0.000000 0.000000 0.145933 0.000000 0.000000
# 5 0.000000 0.000000 0.000000 0.000000 0.042410 0.000000
# 6 0.000000 0.000000 0.000000 0.000000 0.000000 0.135101
#
#
# Mechanical properties :
#
#
# Convention : Reuss Voigt Hill
#
# Bulk Modulus (GPa) = 33.00968 58.35061 45.68015
# Shear Modulus (GPa) = 11.80751 19.05386 15.43068
#
# Velocity S-wave (km/s) = 2.83234 3.59797 3.23786
# Velocity P-wave (km/s) = 5.75528 7.54350 6.70923
#
# Compressibility (1/GPa) = 0.03029414
#
# Stress axis : x y z
#
# Youngs Moduli (GPa) = 60.78400 29.09540 107.70536
#
# Poissons Ratio (x) = 0.09972 0.57947
# Poissons Ratio (y) = 0.20833 0.65684
# Poissons Ratio (z) = 0.32702 0.17744
#
# Static dielectric constant tensor:
#      x y z
#    x 2.866500 0.000000 0.000000 
#    y 0.000000 2.390780 0.000000 
#    z 0.000000 0.000000 3.243750 
# 
# 
# High freq. dielectric constant tensor:
#      x y z
#    x 1.559000 0.000000 0.000000 
#    y 0.000000 1.482850 0.000000 
#    z 0.000000 0.000000 1.582090 
# 
# From -- ./inp_files/37363.got.cif
#   From: 2010.03.12/outbox.cif.g09.slc.cpg/sg51_19_cif.got.tgz:37363.got - 2010.04.16 13:43:02.
