data_PCOD8207177
_publ_section_title
;
Structure prediction by ZEFSAII (Michael W. Deem and Ramdas Pophale) SiO2 
 PCOD8207177
Probable space group: P M M A
;
_chemical_formula_sum "Si O2"
_cell_formula_units_Z 64
_cell_length_a 20.096992
_cell_length_b 15.002907
_cell_length_c 10.993902
_cell_angle_alpha 90.000000
_cell_angle_beta 90.000000
_cell_angle_gamma 90.000000
_cell_volume 3314.807693
_symmetry_space_group_name_H-M "P M M A"
_symmetry_group_IT_number 51
_symmetry_cell_setting 'orthorhombic'
loop_
_space_group_symop_operation_xyz
x,y,z
1/2-x,-y,z
1/2+x,-y,-z
-x,y,-z
-x,-y,-z
1/2+x,y,-z
1/2-x,y,z
x,-y,z
loop_
_atom_site_type_symbol
_atom_site_label
_atom_site_fract_x
_atom_site_fract_y
_atom_site_fract_z
Si Si1 0.399637 0.757663 0.980277
Si Si2 0.515552 0.757056 0.794306
Si Si3 0.031432 0.599612 0.623522
Si Si4 0.174128 0.154034 0.571463
Si Si5 0.178199 0.355161 0.622692
Si Si6 0.943208 0.901648 0.598466
Si Si7 0.822966 0.399110 0.108207
Si Si8 0.828261 0.099261 0.162132
O O1 0.457056 0.783576 0.885398
O O2 0.373941 0.656255 0.971739
O O3 0.345714 0.833456 0.948377
O O4 0.419335 0.754013 0.121347
O O5 0.492439 0.664440 0.731418
O O6 0.533638 0.831382 0.697752
O O7 0.005544 0.500000 0.654072
O O8 0.000000 0.637106 0.500000
O O9 0.110795 0.591151 0.596731
O O10 0.250000 0.118688 0.553633
O O11 0.172148 0.260057 0.559968
O O12 0.128065 0.117693 0.463526
O O13 0.144314 0.126556 0.703694
O O14 0.250000 0.399676 0.580967
O O15 0.182221 0.344256 0.767226
O O16 0.000000 0.899207 0.500000
O O17 0.938630 0.000000 0.658307
O O18 0.750000 0.402476 0.046477
O O19 0.849921 0.500000 0.129076
O O20 0.750000 0.099947 0.173077
O O21 0.854968 0.000000 0.130402
#
# Coordination Sequence:
#
# PCOD8207177 Si02
#       8
#     8   8   8   8   8   8   8   8
#     4  11  22  37  56  80 111 153 191 234 287 345
#     4  11  24  38  55  79 113 151 196 238 282 349
#     4  11  22  37  59  86 119 156 192 237 295 354
#     4  10  19  34  59  88 118 148 185 238 293 348
#     4  10  18  31  56  88 119 147 184 235 290 341
#     4  11  23  39  60  84 113 151 194 244 300 353
#     4  10  19  33  57  86 113 143 184 235 288 340
#     4  10  19  33  57  86 112 140 181 235 291 344
#
# _framework density 19.307302
#
# number of rings (size 3 to 8) (size 9 to 14) (size 15 to 20)
#    0.000    1.500    2.500    3.750    0.000    4.000 
#    0.000    3.750    0.000    1.500    0.000    0.000 
#    0.000    0.000    0.000    0.000    0.000    0.000 
#
# Total GULP energy -792906.066845 kJ/mol
# GULP energy per Si atom -12389.157294 kJ/mol
# Density = 1.926336 g / cm^3
# Si number density = 19.307302 Si / 1000 Ang^3
#
#
#
# Elastic Constant Matrix: (Units=GPa)
#
#
# Indices 1 2 3 4 5 6 
#
# 1 74.8842 34.2293 29.0672 0.0000 0.0000 0.0000
# 2 34.2293 111.5609 43.7811 0.0000 0.0000 0.0000
# 3 29.0672 43.7811 64.2109 0.0000 0.0000 0.0000
# 4 0.0000 0.0000 0.0000 5.3512 0.0000 0.0000
# 5 0.0000 0.0000 0.0000 0.0000 30.1419 0.0000
# 6 0.0000 0.0000 0.0000 0.0000 0.0000 21.0317
#
#
#
# Elastic Compliance Matrix: (Units=1/GPa)
#
#
# Indices 1 2 3 4 5 6 
#
# 1 0.016896 -0.002980 -0.005617 0.000000 0.000000 0.000000
# 2 -0.002980 0.012764 -0.007354 0.000000 0.000000 0.000000
# 3 -0.005617 -0.007354 0.023131 0.000000 0.000000 0.000000
# 4 0.000000 0.000000 0.000000 0.186873 0.000000 0.000000
# 5 0.000000 0.000000 0.000000 0.000000 0.033176 0.000000
# 6 0.000000 0.000000 0.000000 0.000000 0.000000 0.047547
#
#
# Mechanical properties :
#
#
# Convention : Reuss Voigt Hill
#
# Bulk Modulus (GPa) = 47.87128 51.64568 49.75848
# Shear Modulus (GPa) = 13.91779 20.87685 17.39732
#
# Velocity S-wave (km/s) = 2.68779 3.29187 3.00505
# Velocity P-wave (km/s) = 5.87201 6.42308 6.15371
#
# Compressibility (1/GPa) = 0.02088935
#
# Stress axis : x y z
#
# Youngs Moduli (GPa) = 59.18457 78.34539 43.23288
#
# Poissons Ratio (x) = 0.23346 0.24284
# Poissons Ratio (y) = 0.17636 0.31793
# Poissons Ratio (z) = 0.33244 0.57615
#
# Static dielectric constant tensor:
#      x y z
#    x 3.855150 0.000000 0.000000 
#    y 0.000000 3.632400 0.000000 
#    z 0.000000 0.000000 3.305150 
# 
# 
# High freq. dielectric constant tensor:
#      x y z
#    x 1.759930 0.000000 0.000000 
#    y 0.000000 1.761640 0.000000 
#    z 0.000000 0.000000 1.712320 
# 
# From -- ./inp_files/17546.got.cif
#   From: 2010.03.12/outbox.cif.g09.slc.cpg/sg51_9_cif.got.tgz:17546.got - 2010.04.16 13:43:02.
