data_PCOD8207598
_publ_section_title
;
Structure prediction by ZEFSAII (Michael W. Deem and Ramdas Pophale) SiO2 
 PCOD8207598
Probable space group: P M M A
;
_chemical_formula_sum "Si O2"
_cell_formula_units_Z 52
_cell_length_a 13.478002
_cell_length_b 11.613167
_cell_length_c 17.771852
_cell_angle_alpha 90.000000
_cell_angle_beta 90.000000
_cell_angle_gamma 90.000000
_cell_volume 2781.690938
_symmetry_space_group_name_H-M "P M M A"
_symmetry_group_IT_number 51
_symmetry_cell_setting 'orthorhombic'
loop_
_space_group_symop_operation_xyz
x,y,z
1/2-x,-y,z
1/2+x,-y,-z
-x,y,-z
-x,-y,-z
1/2+x,y,-z
1/2-x,y,z
x,-y,z
loop_
_atom_site_type_symbol
_atom_site_label
_atom_site_fract_x
_atom_site_fract_y
_atom_site_fract_z
Si Si1 0.935933 0.754274 0.109035
Si Si2 0.138497 0.500000 0.697502
Si Si3 0.450436 0.289900 0.617497
Si Si4 0.640952 0.251120 0.952045
Si Si5 0.143868 0.500000 0.102359
Si Si6 0.135144 0.133819 0.736765
Si Si7 0.063286 0.500000 0.855062
Si Si8 0.136539 0.364240 0.464261
O O1 0.894286 0.802044 0.186809
O O2 0.917820 0.617378 0.100216
O O3 0.052590 0.790557 0.103592
O O4 0.877849 0.800893 0.035715
O O5 0.250000 0.500000 0.664620
O O6 0.079330 0.611098 0.673952
O O7 0.139215 0.500000 0.786534
O O8 0.429099 0.172991 0.663760
O O9 0.566973 0.304693 0.598316
O O10 0.384056 0.299358 0.542565
O O11 0.750000 0.207398 0.924690
O O12 0.637290 0.389987 0.952575
O O13 0.250000 0.500000 0.146090
O O14 0.055793 0.500000 0.164796
O O15 0.250000 0.160934 0.719467
O O16 0.115078 0.000000 0.748695
O O17 0.250000 0.345850 0.439862
O O18 0.110954 0.500000 0.473769
#
# Coordination Sequence:
#
# PCOD8207598 Si02
#       8
#     8   4   8   8   4   8   4   8
#     4  10  19  32  52  77 107 136 176 224 272 329
#     4  12  20  28  49  81 112 139 171 220 272 323
#     4  11  20  36  56  84 116 145 179 218 266 322
#     4   9  17  30  49  74 104 140 176 217 271 329
#     4   8  15  29  45  67 106 146 174 204 260 336
#     4  11  24  40  57  77 105 144 186 230 277 317
#     4  10  19  28  46  80 110 135 169 217 272 330
#     4  10  19  34  58  89 122 148 172 209 262 323
#
# _framework density 18.693666
#
# number of rings (size 3 to 8) (size 9 to 14) (size 15 to 20)
#    0.000    1.846    3.077    2.769    0.000    2.462 
#    0.000    4.615    0.000    3.692    0.000    0.000 
#    0.000    0.000    0.000    0.000    0.000    0.000 
#
# Total GULP energy -644285.720050 kJ/mol
# GULP energy per Si atom -12390.110001 kJ/mol
# Density = 1.865112 g / cm^3
# Si number density = 18.693666 Si / 1000 Ang^3
#
#
#
# Elastic Constant Matrix: (Units=GPa)
#
#
# Indices 1 2 3 4 5 6 
#
# 1 121.8610 32.1771 34.1146 0.0000 0.0000 0.0000
# 2 32.1771 59.3332 25.8913 0.0000 0.0000 0.0000
# 3 34.1146 25.8913 72.6649 0.0000 0.0000 0.0000
# 4 0.0000 0.0000 0.0000 12.6082 0.0000 0.0000
# 5 0.0000 0.0000 0.0000 0.0000 26.5596 0.0000
# 6 0.0000 0.0000 0.0000 0.0000 0.0000 22.0517
#
#
#
# Elastic Compliance Matrix: (Units=1/GPa)
#
#
# Indices 1 2 3 4 5 6 
#
# 1 0.010220 -0.004084 -0.003343 0.000000 0.000000 0.000000
# 2 -0.004084 0.021589 -0.005775 0.000000 0.000000 0.000000
# 3 -0.003343 -0.005775 0.017389 0.000000 0.000000 0.000000
# 4 0.000000 0.000000 0.000000 0.079314 0.000000 0.000000
# 5 0.000000 0.000000 0.000000 0.000000 0.037651 0.000000
# 6 0.000000 0.000000 0.000000 0.000000 0.000000 0.045348
#
#
# Mechanical properties :
#
#
# Convention : Reuss Voigt Hill
#
# Bulk Modulus (GPa) = 43.87086 48.69170 46.28128
# Shear Modulus (GPa) = 20.36554 23.02229 21.69392
#
# Velocity S-wave (km/s) = 3.30424 3.51316 3.41030
# Velocity P-wave (km/s) = 6.17062 6.52381 6.34967
#
# Compressibility (1/GPa) = 0.02279417
#
# Stress axis : x y z
#
# Youngs Moduli (GPa) = 97.84484 46.32057 57.50747
#
# Poissons Ratio (x) = 0.18916 0.19225
# Poissons Ratio (y) = 0.39957 0.33211
# Poissons Ratio (z) = 0.32711 0.26750
#
# Static dielectric constant tensor:
#      x y z
#    x 3.720620 0.000000 0.000000 
#    y 0.000000 2.911900 0.000000 
#    z 0.000000 0.000000 3.245220 
# 
# 
# High freq. dielectric constant tensor:
#      x y z
#    x 1.739450 0.000000 0.000000 
#    y 0.000000 1.686980 0.000000 
#    z 0.000000 0.000000 1.709600 
# 
# From -- ./inp_files/29782.got.cif
#   From: 2010.03.12/outbox.cif.g09.slc.cpg/sg51_15_cif.got.tgz:29782.got - 2010.04.16 13:43:02.
