data_PCOD8207166
_publ_section_title
;
Structure prediction by ZEFSAII (Michael W. Deem and Ramdas Pophale) SiO2 
 PCOD8207166
Probable space group: P M M A
;
_chemical_formula_sum "Si O2"
_cell_formula_units_Z 56
_cell_length_a 16.248944
_cell_length_b 9.368463
_cell_length_c 19.386030
_cell_angle_alpha 90.000000
_cell_angle_beta 90.000000
_cell_angle_gamma 90.000000
_cell_volume 2951.089415
_symmetry_space_group_name_H-M "P M M A"
_symmetry_group_IT_number 51
_symmetry_cell_setting 'orthorhombic'
loop_
_space_group_symop_operation_xyz
x,y,z
1/2-x,-y,z
1/2+x,-y,-z
-x,y,-z
-x,-y,-z
1/2+x,y,-z
1/2-x,y,z
x,-y,z
loop_
_atom_site_type_symbol
_atom_site_label
_atom_site_fract_x
_atom_site_fract_y
_atom_site_fract_z
Si Si1 0.250000 0.173388 0.765790
Si Si2 0.514432 0.333319 0.577459
Si Si3 0.339541 0.834296 0.194625
Si Si4 0.400447 0.667134 0.700582
Si Si5 0.576017 0.659906 0.041193
Si Si6 0.485204 0.656933 0.177444
Si Si7 0.750000 0.673299 0.085010
Si Si8 0.842736 0.836051 0.646823
O O1 0.172724 0.226961 0.720807
O O2 0.250000 0.244743 0.841616
O O3 0.250000 0.000000 0.771700
O O4 0.500000 0.279430 0.500000
O O5 0.533059 0.500000 0.580277
O O6 0.433457 0.298435 0.623641
O O7 0.596514 0.257977 0.602521
O O8 0.250000 0.790625 0.165411
O O9 0.410536 0.756017 0.151927
O O10 0.346365 0.787419 0.273890
O O11 0.354008 0.000000 0.185650
O O12 0.374197 0.500000 0.708617
O O13 0.476955 0.704963 0.750064
O O14 0.579637 0.500000 0.010520
O O15 0.557718 0.662479 0.122179
O O16 0.669531 0.722368 0.039529
O O17 0.500000 0.739404 0.000000
O O18 0.447353 0.500000 0.183851
O O19 0.750000 0.500000 0.097641
O O20 0.750000 0.814334 0.618797
O O21 0.869610 0.000000 0.640305
#
# Coordination Sequence:
#
# PCOD8207166 Si02
#       8
#     4   8   8   8   8   8   4   8
#     4  12  24  36  58  90 114 139 190 244 281 332
#     4  10  21  37  56  79 107 141 181 226 279 335
#     4   9  18  32  50  74 106 141 173 207 259 320
#     4  10  20  37  58  80 109 144 181 226 286 342
#     4   9  18  33  54  82 111 143 187 230 275 334
#     4  10  18  31  55  82 105 134 178 229 275 323
#     4  10  18  36  62  82 114 157 186 228 293 340
#     4   9  18  33  53  76 103 138 176 214 258 315
#
# _framework density 18.976044000000002
#
# number of rings (size 3 to 8) (size 9 to 14) (size 15 to 20)
#    0.000    2.286    2.857    1.500    0.000    2.000 
#    2.571    1.429    0.000    1.714    0.000    0.000 
#    0.000    0.000    0.000    0.000    0.000    0.000 
#
# Total GULP energy -693912.256221 kJ/mol
# GULP energy per Si atom -12391.290290 kJ/mol
# Density = 1.893285 g / cm^3
# Si number density = 18.976044 Si / 1000 Ang^3
#
#
#
# Elastic Constant Matrix: (Units=GPa)
#
#
# Indices 1 2 3 4 5 6 
#
# 1 147.9861 47.9817 32.9212 0.0000 0.0000 0.0000
# 2 47.9817 48.0965 10.3091 0.0000 0.0000 0.0000
# 3 32.9212 10.3091 55.1384 0.0000 0.0000 0.0000
# 4 0.0000 0.0000 0.0000 14.4404 0.0000 0.0000
# 5 0.0000 0.0000 0.0000 0.0000 22.0980 0.0000
# 6 0.0000 0.0000 0.0000 0.0000 0.0000 39.1542
#
#
#
# Elastic Compliance Matrix: (Units=1/GPa)
#
#
# Indices 1 2 3 4 5 6 
#
# 1 0.011057 -0.010017 -0.004729 0.000000 0.000000 0.000000
# 2 -0.010017 0.030735 0.000235 0.000000 0.000000 0.000000
# 3 -0.004729 0.000235 0.020916 0.000000 0.000000 0.000000
# 4 0.000000 0.000000 0.000000 0.069250 0.000000 0.000000
# 5 0.000000 0.000000 0.000000 0.000000 0.045253 0.000000
# 6 0.000000 0.000000 0.000000 0.000000 0.000000 0.025540
#
#
# Mechanical properties :
#
#
# Convention : Reuss Voigt Hill
#
# Bulk Modulus (GPa) = 29.68738 48.18278 38.93508
# Shear Modulus (GPa) = 20.57591 25.80579 23.19085
#
# Velocity S-wave (km/s) = 3.29646 3.69170 3.49966
# Velocity P-wave (km/s) = 5.49249 6.60440 6.07394
#
# Compressibility (1/GPa) = 0.03368435
#
# Stress axis : x y z
#
# Youngs Moduli (GPa) = 90.43757 32.53653 47.81065
#
# Poissons Ratio (x) = 0.32593 0.22610
# Poissons Ratio (y) = 0.90594 -0.01122
# Poissons Ratio (z) = 0.42768 -0.00763
#
# Static dielectric constant tensor:
#      x y z
#    x 3.705890 0.000000 0.000000 
#    y 0.000000 3.250480 0.000000 
#    z 0.000000 0.000000 3.413860 
# 
# 
# High freq. dielectric constant tensor:
#      x y z
#    x 1.752190 0.000000 0.000000 
#    y 0.000000 1.708460 0.000000 
#    z 0.000000 0.000000 1.720590 
# 
# From -- ./inp_files/33562.got.cif
#   From: 2010.03.12/outbox.cif.g09.slc.cpg/sg51_17_cif.got.tgz:33562.got - 2010.04.16 13:43:02.
