data_PCOD8207775
_publ_section_title
;
Structure prediction by ZEFSAII (Michael W. Deem and Ramdas Pophale) SiO2 
 PCOD8207775
Probable space group: P M M A
;
_chemical_formula_sum "Si O2"
_cell_formula_units_Z 48
_cell_length_a 8.874469
_cell_length_b 15.755918
_cell_length_c 21.315919
_cell_angle_alpha 90.000000
_cell_angle_beta 90.000000
_cell_angle_gamma 90.000000
_cell_volume 2980.507025
_symmetry_space_group_name_H-M "P M M A"
_symmetry_group_IT_number 51
_symmetry_cell_setting 'orthorhombic'
loop_
_space_group_symop_operation_xyz
x,y,z
1/2-x,-y,z
1/2+x,-y,-z
-x,y,-z
-x,-y,-z
1/2+x,y,-z
1/2-x,y,z
x,-y,z
loop_
_atom_site_type_symbol
_atom_site_label
_atom_site_fract_x
_atom_site_fract_y
_atom_site_fract_z
Si Si1 0.500000 0.225658 0.500000
Si Si2 0.569216 0.198298 0.698678
Si Si3 0.585867 0.090179 0.588422
Si Si4 0.078380 0.665160 0.617510
Si Si5 0.571306 0.500000 0.568573
Si Si6 0.572172 0.902053 0.190552
Si Si7 0.581315 0.100099 0.938731
O O1 0.611346 0.159200 0.533650
O O2 0.418457 0.282165 0.552237
O O3 0.750000 0.207699 0.698546
O O4 0.501947 0.131322 0.647914
O O5 0.496252 0.287504 0.677113
O O6 0.511762 0.165323 0.765215
O O7 0.750000 0.067236 0.613131
O O8 0.506494 0.000000 0.568564
O O9 0.250000 0.641790 0.634231
O O10 0.980181 0.581537 0.607469
O O11 0.750000 0.500000 0.560878
O O12 0.500000 0.500000 0.500000
O O13 0.750000 0.889589 0.196016
O O14 0.519363 0.876775 0.121200
O O15 0.526936 0.000000 0.206130
O O16 0.750000 0.138409 0.931921
O O17 0.593567 0.000000 0.946751
O O18 0.500000 0.139519 0.000000
#
# Coordination Sequence:
#
# PCOD8207775 Si02
#       7
#     4   8   8   8   4   8   8
#     4  10  19  29  46  64  90 112 150 181 233 274
#     4  10  20  33  48  66  90 121 158 196 237 283
#     4   9  17  28  41  58  81 112 150 190 229 270
#     4  11  22  36  53  72  95 118 146 186 233 285
#     4  12  24  38  58  78  96 116 145 182 231 292
#     4  10  19  30  45  66  93 127 168 208 244 282
#     4   9  16  26  41  62  89 122 161 204 246 283
#
# _framework density 16.104642999999999
#
# number of rings (size 3 to 8) (size 9 to 14) (size 15 to 20)
#    0.000    2.000    0.833    4.000    0.000    5.000 
#    0.000    0.000    0.000    8.000    0.000    0.000 
#    0.000    0.000    0.000    0.750    0.000   10.500 
#
# Total GULP energy -594637.650259 kJ/mol
# GULP energy per Si atom -12388.284380 kJ/mol
# Density = 1.606799 g / cm^3
# Si number density = 16.104643 Si / 1000 Ang^3
#
#
#
# Elastic Constant Matrix: (Units=GPa)
#
#
# Indices 1 2 3 4 5 6 
#
# 1 106.9746 34.6943 34.0880 0.0000 0.0000 0.0000
# 2 34.6943 93.0656 40.3177 0.0000 0.0000 0.0000
# 3 34.0880 40.3177 97.3001 0.0000 0.0000 0.0000
# 4 0.0000 0.0000 0.0000 10.6121 0.0000 0.0000
# 5 0.0000 0.0000 0.0000 0.0000 26.4745 0.0000
# 6 0.0000 0.0000 0.0000 0.0000 0.0000 17.5706
#
#
#
# Elastic Compliance Matrix: (Units=1/GPa)
#
#
# Indices 1 2 3 4 5 6 
#
# 1 0.011174 -0.003010 -0.002668 0.000000 0.000000 0.000000
# 2 -0.003010 0.013907 -0.004708 0.000000 0.000000 0.000000
# 3 -0.002668 -0.004708 0.013163 0.000000 0.000000 0.000000
# 4 0.000000 0.000000 0.000000 0.094232 0.000000 0.000000
# 5 0.000000 0.000000 0.000000 0.000000 0.037772 0.000000
# 6 0.000000 0.000000 0.000000 0.000000 0.000000 0.056913
#
#
# Mechanical properties :
#
#
# Convention : Reuss Voigt Hill
#
# Bulk Modulus (GPa) = 57.23171 57.28226 57.25699
# Shear Modulus (GPa) = 19.70389 23.48078 21.59233
#
# Velocity S-wave (km/s) = 3.50164 3.82254 3.66560
# Velocity P-wave (km/s) = 7.20855 7.42485 7.31750
#
# Compressibility (1/GPa) = 0.01747283
#
# Stress axis : x y z
#
# Youngs Moduli (GPa) = 89.49131 71.90722 75.97164
#
# Poissons Ratio (x) = 0.21645 0.20266
# Poissons Ratio (y) = 0.26938 0.35767
# Poissons Ratio (z) = 0.23872 0.33853
#
# Static dielectric constant tensor:
#      x y z
#    x 3.060720 0.000000 0.000000 
#    y 0.000000 3.058210 0.000000 
#    z 0.000000 0.000000 2.991240 
# 
# 
# High freq. dielectric constant tensor:
#      x y z
#    x 1.626680 0.000000 0.000000 
#    y 0.000000 1.587540 0.000000 
#    z 0.000000 0.000000 1.602230 
# 
# From -- ./inp_files/27677.got.cif
#   From: 2010.03.12/outbox.cif.g09.slc.cpg/sg51_14_cif.got.tgz:27677.got - 2010.04.16 13:43:02.
