data_PCOD8207401
_publ_section_title
;
Structure prediction by ZEFSAII (Michael W. Deem and Ramdas Pophale) SiO2 
 PCOD8207401
Probable space group: P M M A
;
_chemical_formula_sum "Si O2"
_cell_formula_units_Z 56
_cell_length_a 14.175321
_cell_length_b 8.823551
_cell_length_c 23.022506
_cell_angle_alpha 90.000000
_cell_angle_beta 90.000000
_cell_angle_gamma 90.000000
_cell_volume 2879.578335
_symmetry_space_group_name_H-M "P M M A"
_symmetry_group_IT_number 51
_symmetry_cell_setting 'orthorhombic'
loop_
_space_group_symop_operation_xyz
x,y,z
1/2-x,-y,z
1/2+x,-y,-z
-x,y,-z
-x,-y,-z
1/2+x,y,-z
1/2-x,y,z
x,-y,z
loop_
_atom_site_type_symbol
_atom_site_label
_atom_site_fract_x
_atom_site_fract_y
_atom_site_fract_z
Si Si1 0.958053 0.820440 0.588079
Si Si2 0.353600 0.820611 0.856479
Si Si3 0.142636 0.678686 0.303420
Si Si4 0.146182 0.668879 0.097322
Si Si5 0.958002 0.823274 0.804071
Si Si6 0.855304 0.179714 0.472386
Si Si7 0.108352 0.170317 0.984695
O O1 0.922788 0.744698 0.646432
O O2 0.890212 0.765992 0.535755
O O3 0.066629 0.768391 0.575159
O O4 0.953596 0.000000 0.595376
O O5 0.250000 0.766333 0.835137
O O6 0.432071 0.771143 0.808933
O O7 0.374410 0.756619 0.921027
O O8 0.359512 0.000000 0.861698
O O9 0.250000 0.741821 0.307613
O O10 0.143361 0.500000 0.308566
O O11 0.096238 0.724108 0.242818
O O12 0.250000 0.662884 0.125551
O O13 0.100801 0.500000 0.099894
O O14 0.085117 0.790662 0.132683
O O15 0.158697 0.722574 0.031151
O O16 0.947367 0.000000 0.788569
O O17 0.750000 0.246525 0.459334
O O18 0.850695 0.000000 0.472363
O O19 0.150473 0.000000 0.987807
O O20 0.000000 0.168411 0.000000
#
# Coordination Sequence:
#
# PCOD8207401 Si02
#       7
#     8   8   8   8   8   8   8
#     4   9  17  31  55  85 113 147 189 226 263 312
#     4   9  18  34  56  80 105 132 167 217 270 316
#     4  11  24  40  56  77 108 143 177 220 276 327
#     4  11  23  36  51  76 110 142 170 208 264 323
#     4  11  22  38  59  80 101 132 180 226 265 314
#     4   8  14  27  51  85 121 150 181 226 271 307
#     4  10  18  33  56  81 105 133 172 215 260 314
#
# _framework density 19.447292000000001
#
# number of rings (size 3 to 8) (size 9 to 14) (size 15 to 20)
#    0.000    2.143    1.429    3.429    0.000    5.429 
#    0.000    2.143    0.000    8.143    0.000    0.000 
#    0.000    0.000    0.000    0.000    0.000    0.000 
#
# Total GULP energy -694095.428490 kJ/mol
# GULP energy per Si atom -12394.561223 kJ/mol
# Density = 1.940303 g / cm^3
# Si number density = 19.447292 Si / 1000 Ang^3
#
#
#
# Elastic Constant Matrix: (Units=GPa)
#
#
# Indices 1 2 3 4 5 6 
#
# 1 158.6048 23.3920 49.9403 0.0000 0.0000 0.0000
# 2 23.3920 40.2372 17.0432 0.0000 0.0000 0.0000
# 3 49.9403 17.0432 86.4509 0.0000 0.0000 0.0000
# 4 0.0000 0.0000 0.0000 -4.2099 0.0000 0.0000
# 5 0.0000 0.0000 0.0000 0.0000 29.0856 0.0000
# 6 0.0000 0.0000 0.0000 0.0000 0.0000 14.4392
#
#
#
# Elastic Compliance Matrix: (Units=1/GPa)
#
#
# Indices 1 2 3 4 5 6 
#
# 1 0.008014 -0.002944 -0.004049 0.000000 0.000000 0.000000
# 2 -0.002944 0.028198 -0.003859 0.000000 0.000000 0.000000
# 3 -0.004049 -0.003859 0.014667 0.000000 0.000000 0.000000
# 4 0.000000 0.000000 0.000000 -0.237534 0.000000 0.000000
# 5 0.000000 0.000000 0.000000 0.000000 0.034381 0.000000
# 6 0.000000 0.000000 0.000000 0.000000 0.000000 0.069256
#
#
# Mechanical properties :
#
#
# Convention : Reuss Voigt Hill
#
# Bulk Modulus (GPa) = 34.27433 51.78267 43.02850
# Shear Modulus (GPa) = -96.91983 20.85747 -38.03118
#
# Velocity S-wave (km/s) = -7.06720 3.27848 -4.42702
# Velocity P-wave (km/s) = 6.99510 6.40439 1.98937
#
# Compressibility (1/GPa) = 0.02917635
#
# Stress axis : x y z
#
# Youngs Moduli (GPa) = 124.77937 35.46300 68.18011
#
# Poissons Ratio (x) = 0.10440 0.27607
# Poissons Ratio (y) = 0.36734 0.26307
# Poissons Ratio (z) = 0.50525 0.13683
#
# Static dielectric constant tensor:
#      x y z
#    x 4.084870 0.000000 0.000000 
#    y 0.000000 3.218800 0.000000 
#    z 0.000000 0.000000 3.408360 
# 
# 
# High freq. dielectric constant tensor:
#      x y z
#    x 1.775380 0.000000 0.000000 
#    y 0.000000 1.722910 0.000000 
#    z 0.000000 0.000000 1.738760 
# 
# From -- ./inp_files/33411.got.cif
#   From: 2010.03.12/outbox.cif.g09.slc.cpg/sg51_17_cif.got.tgz:33411.got - 2010.04.16 13:43:02.
