data_PCOD8207403
_publ_section_title
;
Structure prediction by ZEFSAII (Michael W. Deem and Ramdas Pophale) SiO2 
 PCOD8207403
Probable space group: P M M A
;
_chemical_formula_sum "Si O2"
_cell_formula_units_Z 48
_cell_length_a 28.135537
_cell_length_b 8.924040
_cell_length_c 10.248727
_cell_angle_alpha 90.000000
_cell_angle_beta 90.000000
_cell_angle_gamma 90.000000
_cell_volume 2573.277612
_symmetry_space_group_name_H-M "P M M A"
_symmetry_group_IT_number 51
_symmetry_cell_setting 'orthorhombic'
loop_
_space_group_symop_operation_xyz
x,y,z
1/2-x,-y,z
1/2+x,-y,-z
-x,y,-z
-x,-y,-z
1/2+x,y,-z
1/2-x,y,z
x,-y,z
loop_
_atom_site_type_symbol
_atom_site_label
_atom_site_fract_x
_atom_site_fract_y
_atom_site_fract_z
Si Si1 0.348983 0.674610 0.498059
Si Si2 0.750000 0.328391 0.630489
Si Si3 0.607728 0.821415 0.258990
Si Si4 0.405601 0.175389 0.269070
Si Si5 0.750000 0.177241 0.904838
Si Si6 0.351780 0.178220 0.012858
Si Si7 0.992509 0.175149 0.355957
O O1 0.358822 0.500000 0.516943
O O2 0.295364 0.708798 0.456773
O O3 0.356271 0.759070 0.633836
O O4 0.384979 0.736339 0.390902
O O5 0.750000 0.500000 0.678521
O O6 0.750000 0.222917 0.754934
O O7 0.554586 0.758616 0.287093
O O8 0.609682 0.000000 0.260892
O O9 0.624600 0.758648 0.118734
O O10 0.382369 0.236754 0.135975
O O11 0.462122 0.206750 0.264000
O O12 0.394929 0.000000 0.289881
O O13 0.702451 0.238887 0.975645
O O14 0.750000 0.000000 0.909013
O O15 0.352469 0.000000 0.012520
O O16 0.000000 0.247118 0.500000
O O17 0.983862 0.000000 0.374915
#
# Coordination Sequence:
#
# PCOD8207403 Si02
#       7
#     8   4   8   8   4   8   8
#     4  11  22  36  54  79 106 137 180 225 265 315
#     4  10  22  37  54  78 106 136 178 223 266 316
#     4  10  20  36  54  78 113 146 175 217 270 320
#     4  10  18  33  56  81 106 138 179 222 266 316
#     4  10  18  33  56  82 108 134 174 221 266 318
#     4   9  19  32  53  82 109 138 175 220 267 317
#     4   9  16  28  52  81 107 139 181 220 261 318
#
# _framework density 18.653254
#
# number of rings (size 3 to 8) (size 9 to 14) (size 15 to 20)
#    0.000    2.167    3.333    0.500    0.000    2.000 
#    0.000    7.500    0.000    0.000    0.000    2.333 
#    0.000    0.000    0.000    0.000    0.000    0.000 
#
# Total GULP energy -595175.000777 kJ/mol
# GULP energy per Si atom -12399.479183 kJ/mol
# Density = 1.861080 g / cm^3
# Si number density = 18.653254 Si / 1000 Ang^3
#
#
#
# Elastic Constant Matrix: (Units=GPa)
#
#
# Indices 1 2 3 4 5 6 
#
# 1 145.3856 17.3830 64.5914 0.0000 0.0000 0.0000
# 2 17.3830 18.4011 15.7942 0.0000 0.0000 0.0000
# 3 64.5914 15.7942 144.6379 0.0000 0.0000 0.0000
# 4 0.0000 0.0000 0.0000 5.1080 0.0000 0.0000
# 5 0.0000 0.0000 0.0000 0.0000 12.6897 0.0000
# 6 0.0000 0.0000 0.0000 0.0000 0.0000 14.9959
#
#
#
# Elastic Compliance Matrix: (Units=1/GPa)
#
#
# Indices 1 2 3 4 5 6 
#
# 1 0.009079 -0.005624 -0.003440 0.000000 0.000000 0.000000
# 2 -0.005624 0.063448 -0.004417 0.000000 0.000000 0.000000
# 3 -0.003440 -0.004417 0.008933 0.000000 0.000000 0.000000
# 4 0.000000 0.000000 0.000000 0.195771 0.000000 0.000000
# 5 0.000000 0.000000 0.000000 0.000000 0.078804 0.000000
# 6 0.000000 0.000000 0.000000 0.000000 0.000000 0.066685
#
#
# Mechanical properties :
#
#
# Convention : Reuss Voigt Hill
#
# Bulk Modulus (GPa) = 18.34939 55.99574 37.17257
# Shear Modulus (GPa) = 10.68722 20.60245 15.64484
#
# Velocity S-wave (km/s) = 2.39622 3.32700 2.89921
# Velocity P-wave (km/s) = 4.18500 6.69650 5.58378
#
# Compressibility (1/GPa) = 0.05449772
#
# Stress axis : x y z
#
# Youngs Moduli (GPa) = 110.14235 15.76081 111.95036
#
# Poissons Ratio (x) = 0.08864 0.38515
# Poissons Ratio (y) = 0.61943 0.49448
# Poissons Ratio (z) = 0.37893 0.06962
#
# Static dielectric constant tensor:
#      x y z
#    x 3.797540 0.000000 0.000000 
#    y 0.000000 3.045710 0.000000 
#    z 0.000000 0.000000 3.537820 
# 
# 
# High freq. dielectric constant tensor:
#      x y z
#    x 1.742460 0.000000 0.000000 
#    y 0.000000 1.679820 0.000000 
#    z 0.000000 0.000000 1.722860 
# 
# From -- ./inp_files/12973.got.cif
#   From: 2010.03.12/outbox.cif.g09.slc.cpg/sg51_7_cif.got.tgz:12973.got - 2010.04.16 13:43:02.
