data_PCOD8207749
_publ_section_title
;
Structure prediction by ZEFSAII (Michael W. Deem and Ramdas Pophale) SiO2 
 PCOD8207749
Probable space group: P M M A
;
_chemical_formula_sum "Si O2"
_cell_formula_units_Z 64
_cell_length_a 25.140935
_cell_length_b 10.952311
_cell_length_c 12.558261
_cell_angle_alpha 90.000000
_cell_angle_beta 90.000000
_cell_angle_gamma 90.000000
_cell_volume 3457.933981
_symmetry_space_group_name_H-M "P M M A"
_symmetry_group_IT_number 51
_symmetry_cell_setting 'orthorhombic'
loop_
_space_group_symop_operation_xyz
x,y,z
1/2-x,-y,z
1/2+x,-y,-z
-x,y,-z
-x,-y,-z
1/2+x,y,-z
1/2-x,y,z
x,-y,z
loop_
_atom_site_type_symbol
_atom_site_label
_atom_site_fract_x
_atom_site_fract_y
_atom_site_fract_z
Si Si1 0.550318 0.278329 0.937066
Si Si2 0.957681 0.293585 0.579669
Si Si3 0.131840 0.860934 0.518755
Si Si4 0.691248 0.855025 0.277605
Si Si5 0.495258 0.865356 0.761922
Si Si6 0.687801 0.139366 0.700166
Si Si7 0.108115 0.862399 0.886995
Si Si8 0.617880 0.368923 0.754765
O O1 0.528014 0.165440 0.868741
O O2 0.578995 0.371640 0.857246
O O3 0.500000 0.339506 0.000000
O O4 0.594334 0.230231 0.019296
O O5 0.923369 0.203996 0.506463
O O6 0.992682 0.221968 0.664987
O O7 0.917328 0.377788 0.646419
O O8 0.000000 0.361613 0.500000
O O9 0.159314 0.799705 0.621824
O O10 0.174625 0.850089 0.423840
O O11 0.116508 0.000000 0.541916
O O12 0.750000 0.797382 0.275311
O O13 0.663724 0.820973 0.165405
O O14 0.694032 0.000000 0.291770
O O15 0.433234 0.857434 0.789137
O O16 0.512684 0.000000 0.726899
O O17 0.750000 0.164204 0.718947
O O18 0.654686 0.247045 0.760353
O O19 0.673149 0.000000 0.739835
O O20 0.111229 0.000000 0.933035
O O21 0.649244 0.500000 0.757676
#
# Coordination Sequence:
#
# PCOD8207749 Si02
#       8
#     8   8   8   8   8   8   8   8
#     4   9  18  32  49  67  91 127 170 211 253 301
#     4  10  19  29  44  68  99 134 170 206 247 294
#     4   9  16  26  43  69 102 136 167 200 242 296
#     4   9  16  25  38  60  93 130 163 195 235 288
#     4   9  16  26  42  67  97 126 160 206 256 301
#     4   9  18  34  56  80 105 134 168 208 255 304
#     4   9  16  26  42  64  91 124 162 204 252 301
#     4  10  22  37  53  76 104 135 173 214 256 306
#
# _framework density 18.508161000000001
#
# number of rings (size 3 to 8) (size 9 to 14) (size 15 to 20)
#    0.000    2.750    0.000    1.875    0.000    9.250 
#    0.000    0.625    0.000    1.500    0.000    0.875 
#    0.000    4.000    0.000    0.000    0.000    0.000 
#
# Total GULP energy -792939.111572 kJ/mol
# GULP energy per Si atom -12389.673618 kJ/mol
# Density = 1.846604 g / cm^3
# Si number density = 18.508161 Si / 1000 Ang^3
#
#
#
# Elastic Constant Matrix: (Units=GPa)
#
#
# Indices 1 2 3 4 5 6 
#
# 1 85.4190 27.6092 40.7266 0.0000 0.0000 0.0000
# 2 27.6092 79.5079 17.8265 0.0000 0.0000 0.0000
# 3 40.7266 17.8265 81.3269 0.0000 0.0000 0.0000
# 4 0.0000 0.0000 0.0000 -1.0748 0.0000 0.0000
# 5 0.0000 0.0000 0.0000 0.0000 25.1737 0.0000
# 6 0.0000 0.0000 0.0000 0.0000 0.0000 10.4747
#
#
#
# Elastic Compliance Matrix: (Units=1/GPa)
#
#
# Indices 1 2 3 4 5 6 
#
# 1 0.016554 -0.004091 -0.007393 0.000000 0.000000 0.000000
# 2 -0.004091 0.014238 -0.001072 0.000000 0.000000 0.000000
# 3 -0.007393 -0.001072 0.016234 0.000000 0.000000 0.000000
# 4 0.000000 0.000000 0.000000 -0.930431 0.000000 0.000000
# 5 0.000000 0.000000 0.000000 0.000000 0.039724 0.000000
# 6 0.000000 0.000000 0.000000 0.000000 0.000000 0.095468
#
#
# Mechanical properties :
#
#
# Convention : Reuss Voigt Hill
#
# Bulk Modulus (GPa) = 45.63483 46.50872 46.07177
# Shear Modulus (GPa) = -6.98523 17.58751 5.30114
#
# Velocity S-wave (km/s) = -1.94482 3.08597 1.69424
# Velocity P-wave (km/s) = 4.43475 6.15475 5.36414
#
# Compressibility (1/GPa) = 0.02191309
#
# Stress axis : x y z
#
# Youngs Moduli (GPa) = 60.40736 70.23282 61.60101
#
# Poissons Ratio (x) = 0.28731 0.45543
# Poissons Ratio (y) = 0.24712 0.06606
# Poissons Ratio (z) = 0.44661 0.07532
#
# Static dielectric constant tensor:
#      x y z
#    x 3.456750 0.000000 0.000000 
#    y 0.000000 2.995740 0.000000 
#    z 0.000000 0.000000 3.442180 
# 
# 
# High freq. dielectric constant tensor:
#      x y z
#    x 1.714300 0.000000 0.000000 
#    y 0.000000 1.669670 0.000000 
#    z 0.000000 0.000000 1.720750 
# 
# From -- ./inp_files/18854.got.cif
#   From: 2010.03.12/outbox.cif.g09.slc.cpg/sg51_10_cif.got.tgz:18854.got - 2010.04.16 13:43:02.
