data_PCOD8207407
_publ_section_title
;
Structure prediction by ZEFSAII (Michael W. Deem and Ramdas Pophale) SiO2 
 PCOD8207407
Probable space group: P M M A
;
_chemical_formula_sum "Si O2"
_cell_formula_units_Z 64
_cell_length_a 14.435535
_cell_length_b 8.990434
_cell_length_c 25.257310
_cell_angle_alpha 90.000000
_cell_angle_beta 90.000000
_cell_angle_gamma 90.000000
_cell_volume 3277.937252
_symmetry_space_group_name_H-M "P M M A"
_symmetry_group_IT_number 51
_symmetry_cell_setting 'orthorhombic'
loop_
_space_group_symop_operation_xyz
x,y,z
1/2-x,-y,z
1/2+x,-y,-z
-x,y,-z
-x,-y,-z
1/2+x,y,-z
1/2-x,y,z
x,-y,z
loop_
_atom_site_type_symbol
_atom_site_label
_atom_site_fract_x
_atom_site_fract_y
_atom_site_fract_z
Si Si1 0.651080 0.673984 0.411433
Si Si2 0.858414 0.824391 0.229431
Si Si3 0.856633 0.174145 0.630420
Si Si4 0.955271 0.828040 0.121851
Si Si5 0.855467 0.326679 0.027045
Si Si6 0.102755 0.332799 0.478259
Si Si7 0.978376 0.677618 0.320541
Si Si8 0.147196 0.828481 0.081915
O O1 0.750000 0.706156 0.383568
O O2 0.631373 0.500000 0.417504
O O3 0.656818 0.737474 0.471304
O O4 0.570896 0.738363 0.374198
O O5 0.750000 0.778388 0.231948
O O6 0.902116 0.771619 0.173862
O O7 0.918625 0.738099 0.272307
O O8 0.870256 0.000000 0.238027
O O9 0.750000 0.210993 0.643131
O O10 0.882488 0.228795 0.571860
O O11 0.918052 0.255945 0.675697
O O12 0.876659 0.000000 0.633507
O O13 0.920586 0.740276 0.071348
O O14 0.067150 0.801037 0.126203
O O15 0.932254 0.000000 0.112896
O O16 0.750000 0.288488 0.041945
O O17 0.874285 0.500000 0.024119
O O18 0.881010 0.261830 0.970032
O O19 0.135770 0.500000 0.462738
O O20 0.000000 0.337257 0.500000
O O21 0.982174 0.500000 0.316880
O O22 0.250000 0.780599 0.103235
O O23 0.148898 0.000000 0.065271
#
# Coordination Sequence:
#
# PCOD8207407 Si02
#       8
#     8   8   8   8   8   8   8   8
#     4   9  17  30  51  79 109 141 178 220 268 324
#     4  10  22  40  60  84 115 147 180 227 288 343
#     4  11  24  40  58  83 116 152 190 233 283 338
#     4  10  20  35  56  80 109 149 193 233 275 329
#     4  10  20  32  49  78 115 150 185 230 284 337
#     4  10  18  33  56  83 114 149 187 226 272 329
#     4  11  22  39  61  83 109 143 189 238 282 334
#     4   9  18  33  53  78 109 147 190 230 271 326
#
# _framework density 19.524474000000001
#
# number of rings (size 3 to 8) (size 9 to 14) (size 15 to 20)
#    0.000    2.000    1.250    2.625    0.000    6.250 
#    0.000    0.625    0.000    4.500    0.000    0.000 
#    0.000    0.000    0.000    0.000    0.000    0.000 
#
# Total GULP energy -793195.874599 kJ/mol
# GULP energy per Si atom -12393.685541 kJ/mol
# Density = 1.948004 g / cm^3
# Si number density = 19.524474 Si / 1000 Ang^3
#
#
#
# Elastic Constant Matrix: (Units=GPa)
#
#
# Indices 1 2 3 4 5 6 
#
# 1 148.5151 50.1147 70.6237 0.0000 0.0000 0.0000
# 2 50.1147 59.5360 36.6886 0.0000 0.0000 0.0000
# 3 70.6237 36.6886 83.2098 0.0000 0.0000 0.0000
# 4 0.0000 0.0000 0.0000 4.0100 0.0000 0.0000
# 5 0.0000 0.0000 0.0000 0.0000 32.8646 0.0000
# 6 0.0000 0.0000 0.0000 0.0000 0.0000 -87.3480
#
#
#
# Elastic Compliance Matrix: (Units=1/GPa)
#
#
# Indices 1 2 3 4 5 6 
#
# 1 0.012458 -0.005452 -0.008170 0.000000 0.000000 0.000000
# 2 -0.005452 0.025449 -0.006594 0.000000 0.000000 0.000000
# 3 -0.008170 -0.006594 0.021859 0.000000 0.000000 0.000000
# 4 0.000000 0.000000 0.000000 0.249374 0.000000 0.000000
# 5 0.000000 0.000000 0.000000 0.000000 0.030428 0.000000
# 6 0.000000 0.000000 0.000000 0.000000 0.000000 -0.011448
#
#
# Mechanical properties :
#
#
# Convention : Reuss Voigt Hill
#
# Bulk Modulus (GPa) = 51.71850 67.34609 59.53229
# Shear Modulus (GPa) = 13.33351 -1.17241 6.08055
#
# Velocity S-wave (km/s) = 2.61610 -0.77575 1.76666
# Velocity P-wave (km/s) = 5.97259 5.81082 5.89226
#
# Compressibility (1/GPa) = 0.01933544
#
# Stress axis : x y z
#
# Youngs Moduli (GPa) = 80.26954 39.29415 45.74767
#
# Poissons Ratio (x) = 0.21423 0.37375
# Poissons Ratio (y) = 0.43763 0.30164
# Poissons Ratio (z) = 0.65578 0.25909
#
# Static dielectric constant tensor:
#      x y z
#    x 3.555650 0.000000 0.000000 
#    y 0.000000 3.412790 0.000000 
#    z 0.000000 0.000000 3.588780 
# 
# 
# High freq. dielectric constant tensor:
#      x y z
#    x 1.783980 0.000000 0.000000 
#    y 0.000000 1.741690 0.000000 
#    z 0.000000 0.000000 1.739640 
# 
# From -- ./inp_files/35705.got.cif
#   From: 2010.03.12/outbox.cif.g09.slc.cpg/sg51_18_cif.got.tgz:35705.got - 2010.04.16 13:43:02.
