data_PCOD8207409
_publ_section_title
;
Structure prediction by ZEFSAII (Michael W. Deem and Ramdas Pophale) SiO2 
 PCOD8207409
Probable space group: P M M A
;
_chemical_formula_sum "Si O2"
_cell_formula_units_Z 64
_cell_length_a 17.475237
_cell_length_b 19.020643
_cell_length_c 9.460800
_cell_angle_alpha 90.000000
_cell_angle_beta 90.000000
_cell_angle_gamma 90.000000
_cell_volume 3144.677623
_symmetry_space_group_name_H-M "P M M A"
_symmetry_group_IT_number 51
_symmetry_cell_setting 'orthorhombic'
loop_
_space_group_symop_operation_xyz
x,y,z
1/2-x,-y,z
1/2+x,-y,-z
-x,y,-z
-x,-y,-z
1/2+x,y,-z
1/2-x,y,z
x,-y,z
loop_
_atom_site_type_symbol
_atom_site_label
_atom_site_fract_x
_atom_site_fract_y
_atom_site_fract_z
Si Si1 0.834567 0.717884 0.025932
Si Si2 0.340180 0.077173 0.735415
Si Si3 0.160887 0.081031 0.056583
Si Si4 0.505903 0.578742 0.831750
Si Si5 0.161610 0.204376 0.542375
Si Si6 0.332550 0.422677 0.101225
Si Si7 0.605195 0.796821 0.765929
Si Si8 0.446018 0.278025 0.732839
O O1 0.750000 0.745709 0.067957
O O2 0.837251 0.632946 0.027353
O O3 0.854185 0.740191 0.866446
O O4 0.895826 0.748542 0.134248
O O5 0.250000 0.070608 0.724725
O O6 0.369362 0.134575 0.623013
O O7 0.375598 0.000000 0.699524
O O8 0.362105 0.098831 0.895375
O O9 0.250000 0.099658 0.083653
O O10 0.106443 0.127607 0.156710
O O11 0.145067 0.000000 0.092236
O O12 0.475702 0.500000 0.793740
O O13 0.596275 0.585774 0.791311
O O14 0.463194 0.638710 0.742856
O O15 0.500000 0.593219 0.000000
O O16 0.250000 0.220577 0.580442
O O17 0.154040 0.195180 0.375817
O O18 0.106013 0.267654 0.593405
O O19 0.250000 0.413635 0.180504
O O20 0.338131 0.500000 0.030043
O O21 0.519954 0.771468 0.729880
#
# Coordination Sequence:
#
# PCOD8207409 Si02
#       8
#     8   8   8   8   8   8   8   8
#     4  11  21  35  59  87 116 153 197 243 292 351
#     4   8  16  34  60  88 115 147 190 239 293 351
#     4   9  18  35  61  91 120 151 192 243 297 357
#     4  10  18  33  56  85 118 149 188 241 300 352
#     4  11  24  40  59  82 116 162 205 246 292 350
#     4   9  17  30  52  86 121 149 185 239 298 351
#     4  12  23  38  58  87 121 152 197 247 297 347
#     4  12  23  39  57  87 120 158 195 243 301 360
#
# _framework density 20.351848
#
# number of rings (size 3 to 8) (size 9 to 14) (size 15 to 20)
#    0.000    1.750    2.500    3.750    0.000    1.500 
#    0.000    1.875    0.000    7.875    0.000    0.000 
#    0.000    0.000    0.000    0.000    0.000    0.000 
#
# Total GULP energy -793187.604834 kJ/mol
# GULP energy per Si atom -12393.556326 kJ/mol
# Density = 2.030553 g / cm^3
# Si number density = 20.351848 Si / 1000 Ang^3
#
#
#
# Elastic Constant Matrix: (Units=GPa)
#
#
# Indices 1 2 3 4 5 6 
#
# 1 103.7813 36.5963 24.4939 0.0000 0.0000 0.0000
# 2 36.5963 116.0170 38.9068 0.0000 0.0000 0.0000
# 3 24.4939 38.9068 90.2391 0.0000 0.0000 0.0000
# 4 0.0000 0.0000 0.0000 13.2046 0.0000 0.0000
# 5 0.0000 0.0000 0.0000 0.0000 26.4051 0.0000
# 6 0.0000 0.0000 0.0000 0.0000 0.0000 26.7687
#
#
#
# Elastic Compliance Matrix: (Units=1/GPa)
#
#
# Indices 1 2 3 4 5 6 
#
# 1 0.011074 -0.002905 -0.001753 0.000000 0.000000 0.000000
# 2 -0.002905 0.010839 -0.003884 0.000000 0.000000 0.000000
# 3 -0.001753 -0.003884 0.013232 0.000000 0.000000 0.000000
# 4 0.000000 0.000000 0.000000 0.075731 0.000000 0.000000
# 5 0.000000 0.000000 0.000000 0.000000 0.037872 0.000000
# 6 0.000000 0.000000 0.000000 0.000000 0.000000 0.037357
#
#
# Mechanical properties :
#
#
# Convention : Reuss Voigt Hill
#
# Bulk Modulus (GPa) = 55.37424 56.67015 56.02219
# Shear Modulus (GPa) = 23.89946 27.27837 25.58892
#
# Velocity S-wave (km/s) = 3.43054 3.66504 3.54973
# Velocity P-wave (km/s) = 6.55431 6.76873 6.66238
#
# Compressibility (1/GPa) = 0.01805894
#
# Stress axis : x y z
#
# Youngs Moduli (GPa) = 90.30244 92.26359 75.57226
#
# Poissons Ratio (x) = 0.26804 0.13250
# Poissons Ratio (y) = 0.26234 0.29356
# Poissons Ratio (z) = 0.15832 0.35840
#
# Static dielectric constant tensor:
#      x y z
#    x 3.873200 0.000000 0.000000 
#    y 0.000000 4.192660 0.000000 
#    z 0.000000 0.000000 3.319910 
# 
# 
# High freq. dielectric constant tensor:
#      x y z
#    x 1.797110 0.000000 0.000000 
#    y 0.000000 1.810930 0.000000 
#    z 0.000000 0.000000 1.747300 
# 
# From -- ./inp_files/10043.got.cif
#   From: 2010.03.12/outbox.cif.g09.slc.cpg/sg51_6_cif.got.tgz:10043.got - 2010.04.16 13:43:02.
