data_PCOD8207070
_publ_section_title
;
Structure prediction by ZEFSAII (Michael W. Deem and Ramdas Pophale) SiO2 
 PCOD8207070
Probable space group: P M M A
;
_chemical_formula_sum "Si O2"
_cell_formula_units_Z 32
_cell_length_a 8.994194
_cell_length_b 7.817240
_cell_length_c 24.028895
_cell_angle_alpha 90.000000
_cell_angle_beta 90.000000
_cell_angle_gamma 90.000000
_cell_volume 1689.466155
_symmetry_space_group_name_H-M "P M M A"
_symmetry_group_IT_number 51
_symmetry_cell_setting 'orthorhombic'
loop_
_space_group_symop_operation_xyz
x,y,z
1/2-x,-y,z
1/2+x,-y,-z
-x,y,-z
-x,-y,-z
1/2+x,y,-z
1/2-x,y,z
x,-y,z
loop_
_atom_site_type_symbol
_atom_site_label
_atom_site_fract_x
_atom_site_fract_y
_atom_site_fract_z
Si Si1 0.084812 0.188257 0.850417
Si Si2 0.927580 0.000000 0.939988
Si Si3 0.924466 0.303086 0.360633
Si Si4 0.411893 0.305427 0.252040
Si Si5 0.424993 0.000000 0.559271
O O1 0.250000 0.262918 0.863724
O O2 0.987392 0.169954 0.907335
O O3 0.001551 0.302756 0.805615
O O4 0.100519 0.000000 0.823252
O O5 0.750000 0.000000 0.943640
O O6 0.000000 0.000000 0.000000
O O7 0.750000 0.292054 0.350365
O O8 0.970239 0.500000 0.375416
O O9 0.998279 0.229216 0.304123
O O10 0.975532 0.173709 0.409173
O O11 0.250000 0.214007 0.245542
O O12 0.385266 0.500000 0.267145
O O13 0.500000 0.000000 0.500000
O O14 0.250000 0.000000 0.550948
#
# Coordination Sequence:
#
# PCOD8207070 Si02
#       5
#     8   4   8   8   4
#     4   9  19  32  49  75 102 134 173 210 254 307
#     4  10  18  31  50  73 102 135 175 221 263 308
#     4   9  19  36  55  75 104 140 174 214 264 319
#     4  10  20  33  51  78 108 136 168 210 263 317
#     4  10  22  37  54  77 102 133 177 219 263 318
#
# _framework density 18.940895999999999
#
# number of rings (size 3 to 8) (size 9 to 14) (size 15 to 20)
#    0.750    1.750    0.000    2.250    1.750    3.000 
#    0.000    0.000    0.000    0.750    0.000    0.000 
#    0.000    0.000    0.000    0.000    0.000    0.000 
#
# Total GULP energy -396436.692847 kJ/mol
# GULP energy per Si atom -12388.646651 kJ/mol
# Density = 1.889779 g / cm^3
# Si number density = 18.940896 Si / 1000 Ang^3
#
#
#
# Elastic Constant Matrix: (Units=GPa)
#
#
# Indices 1 2 3 4 5 6 
#
# 1 132.2668 27.1898 77.0221 0.0000 0.0000 0.0000
# 2 27.1898 61.4728 44.1367 0.0000 0.0000 0.0000
# 3 77.0221 44.1367 173.6632 0.0000 0.0000 0.0000
# 4 0.0000 0.0000 0.0000 22.7550 0.0000 0.0000
# 5 0.0000 0.0000 0.0000 0.0000 39.9727 0.0000
# 6 0.0000 0.0000 0.0000 0.0000 0.0000 16.4434
#
#
#
# Elastic Compliance Matrix: (Units=1/GPa)
#
#
# Indices 1 2 3 4 5 6 
#
# 1 0.010314 -0.001563 -0.004177 0.000000 0.000000 0.000000
# 2 -0.001563 0.020135 -0.004424 0.000000 0.000000 0.000000
# 3 -0.004177 -0.004424 0.008735 0.000000 0.000000 0.000000
# 4 0.000000 0.000000 0.000000 0.043946 0.000000 0.000000
# 5 0.000000 0.000000 0.000000 0.000000 0.025017 0.000000
# 6 0.000000 0.000000 0.000000 0.000000 0.000000 0.060815
#
#
# Mechanical properties :
#
#
# Convention : Reuss Voigt Hill
#
# Bulk Modulus (GPa) = 53.03331 73.78889 63.41110
# Shear Modulus (GPa) = 25.56533 30.43781 28.00157
#
# Velocity S-wave (km/s) = 3.67787 4.01308 3.84912
# Velocity P-wave (km/s) = 6.78939 7.77914 7.30106
#
# Compressibility (1/GPa) = 0.01885607
#
# Stress axis : x y z
#
# Youngs Moduli (GPa) = 96.95262 49.66438 114.47647
#
# Poissons Ratio (x) = 0.07762 0.47821
# Poissons Ratio (y) = 0.15152 0.50647
# Poissons Ratio (z) = 0.40501 0.21973
#
# Static dielectric constant tensor:
#      x y z
#    x 4.112570 0.000000 0.000000 
#    y 0.000000 3.347810 0.000000 
#    z 0.000000 0.000000 3.282640 
# 
# 
# High freq. dielectric constant tensor:
#      x y z
#    x 1.746770 0.000000 0.000000 
#    y 0.000000 1.710280 0.000000 
#    z 0.000000 0.000000 1.725620 
# 
# From -- ./inp_files/34266.got.cif
#   From: 2010.03.12/outbox.cif.g09.slc.cpg/sg51_18_cif.got.tgz:34266.got - 2010.04.16 13:43:02.
