data_PCOD8207723
_publ_section_title
;
Structure prediction by ZEFSAII (Michael W. Deem and Ramdas Pophale) SiO2 
 PCOD8207723
Probable space group: P M M A
;
_chemical_formula_sum "Si O2"
_cell_formula_units_Z 64
_cell_length_a 8.970655
_cell_length_b 31.220212
_cell_length_c 14.306900
_cell_angle_alpha 90.000000
_cell_angle_beta 90.000000
_cell_angle_gamma 90.000000
_cell_volume 4006.872691
_symmetry_space_group_name_H-M "P M M A"
_symmetry_group_IT_number 51
_symmetry_cell_setting 'orthorhombic'
loop_
_space_group_symop_operation_xyz
x,y,z
1/2-x,-y,z
1/2+x,-y,-z
-x,y,-z
-x,-y,-z
1/2+x,y,-z
1/2-x,y,z
x,-y,z
loop_
_atom_site_type_symbol
_atom_site_label
_atom_site_fract_x
_atom_site_fract_y
_atom_site_fract_z
Si Si1 0.425404 0.861864 0.600645
Si Si2 0.923701 0.045164 0.401269
Si Si3 0.924201 0.452209 0.404897
Si Si4 0.577541 0.371605 0.290204
Si Si5 0.577978 0.211659 0.710212
Si Si6 0.424428 0.247312 0.092269
Si Si7 0.574334 0.296336 0.600076
Si Si8 0.075522 0.661997 0.907685
O O1 0.500000 0.854304 0.500000
O O2 0.250000 0.856295 0.586695
O O3 0.467551 0.909046 0.644791
O O4 0.480813 0.827689 0.675093
O O5 0.750000 0.045998 0.420708
O O6 0.000000 0.043378 0.500000
O O7 0.965146 0.000000 0.346454
O O8 0.750000 0.452282 0.424286
O O9 0.979867 0.500000 0.377125
O O10 0.965928 0.419571 0.321933
O O11 0.000000 0.436178 0.500000
O O12 0.750000 0.361140 0.311766
O O13 0.478002 0.338453 0.346667
O O14 0.544962 0.369141 0.179682
O O15 0.750000 0.202282 0.688186
O O16 0.549290 0.215750 0.820910
O O17 0.525981 0.255024 0.659582
O O18 0.250000 0.255219 0.074878
O O19 0.501210 0.292477 0.114407
O O20 0.500000 0.226571 0.000000
O O21 0.500000 0.292774 0.500000
O O22 0.750000 0.298987 0.587130
O O23 0.250000 0.668716 0.925746
O O24 0.000000 0.641398 0.000000
#
# Coordination Sequence:
#
# PCOD8207723 Si02
#       8
#     8   8   8   8   8   8   8   8
#     4  10  19  29  44  64  89 124 161 193 229 271
#     4   8  14  25  40  59  83 112 149 192 232 269
#     4   9  18  33  51  71  95 121 150 185 226 271
#     4  10  20  33  50  72  93 119 154 189 227 270
#     4  10  21  34  46  63  91 124 155 186 224 271
#     4  10  19  33  50  69  90 116 151 189 231 271
#     4  11  22  34  46  64  92 125 157 188 223 263
#     4  10  19  31  49  71  94 118 149 187 228 272
#
# _framework density 15.972557
#
# number of rings (size 3 to 8) (size 9 to 14) (size 15 to 20)
#    0.000    2.250    1.250    3.000    0.000    5.500 
#    0.000    0.000    0.000    0.375    0.000    0.000 
#    0.000    0.500    0.000    1.125    0.000    2.500 
#
# Total GULP energy -793166.284229 kJ/mol
# GULP energy per Si atom -12393.223191 kJ/mol
# Density = 1.593620 g / cm^3
# Si number density = 15.972557 Si / 1000 Ang^3
#
#
#
# Elastic Constant Matrix: (Units=GPa)
#
#
# Indices 1 2 3 4 5 6 
#
# 1 66.9615 45.8910 45.4317 0.0000 0.0000 0.0000
# 2 45.8910 115.4159 59.2122 0.0000 0.0000 0.0000
# 3 45.4317 59.2122 105.9338 0.0000 0.0000 0.0000
# 4 0.0000 0.0000 0.0000 7.5212 0.0000 0.0000
# 5 0.0000 0.0000 0.0000 0.0000 25.4999 0.0000
# 6 0.0000 0.0000 0.0000 0.0000 0.0000 16.9243
#
#
#
# Elastic Compliance Matrix: (Units=1/GPa)
#
#
# Indices 1 2 3 4 5 6 
#
# 1 0.023600 -0.005876 -0.006837 0.000000 0.000000 0.000000
# 2 -0.005876 0.013611 -0.005088 0.000000 0.000000 0.000000
# 3 -0.006837 -0.005088 0.015216 0.000000 0.000000 0.000000
# 4 0.000000 0.000000 0.000000 0.132957 0.000000 0.000000
# 5 0.000000 0.000000 0.000000 0.000000 0.039216 0.000000
# 6 0.000000 0.000000 0.000000 0.000000 0.000000 0.059087
#
#
# Mechanical properties :
#
#
# Convention : Reuss Voigt Hill
#
# Bulk Modulus (GPa) = 59.43495 65.48677 62.46086
# Shear Modulus (GPa) = 15.38956 19.17418 17.28187
#
# Velocity S-wave (km/s) = 3.10740 3.46850 3.29290
# Velocity P-wave (km/s) = 7.08280 7.55839 7.32445
#
# Compressibility (1/GPa) = 0.01682512
#
# Stress axis : x y z
#
# Youngs Moduli (GPa) = 42.37370 73.47022 65.72128
#
# Poissons Ratio (x) = 0.43172 0.44931
# Poissons Ratio (y) = 0.24899 0.33438
# Poissons Ratio (z) = 0.28969 0.37380
#
# Static dielectric constant tensor:
#      x y z
#    x 3.112850 0.000000 0.000000 
#    y 0.000000 3.359420 0.000000 
#    z 0.000000 0.000000 3.033090 
# 
# 
# High freq. dielectric constant tensor:
#      x y z
#    x 1.625420 0.000000 0.000000 
#    y 0.000000 1.607100 0.000000 
#    z 0.000000 0.000000 1.592600 
# 
# From -- ./inp_files/22619.got.cif
#   From: 2010.03.12/outbox.cif.g09.slc.cpg/sg51_12_cif.got.tgz:22619.got - 2010.04.16 13:43:02.
