data_PCOD8207778
_publ_section_title
;
Structure prediction by ZEFSAII (Michael W. Deem and Ramdas Pophale) SiO2 
 PCOD8207778
Probable space group: P M M A
;
_chemical_formula_sum "Si O2"
_cell_formula_units_Z 64
_cell_length_a 28.955045
_cell_length_b 8.882807
_cell_length_c 15.502896
_cell_angle_alpha 90.000000
_cell_angle_beta 90.000000
_cell_angle_gamma 90.000000
_cell_volume 3987.377042
_symmetry_space_group_name_H-M "P M M A"
_symmetry_group_IT_number 51
_symmetry_cell_setting 'orthorhombic'
loop_
_space_group_symop_operation_xyz
x,y,z
1/2-x,-y,z
1/2+x,-y,-z
-x,y,-z
-x,-y,-z
1/2+x,y,-z
1/2-x,y,z
x,-y,z
loop_
_atom_site_type_symbol
_atom_site_label
_atom_site_fract_x
_atom_site_fract_y
_atom_site_fract_z
Si Si1 0.602624 0.676218 0.842939
Si Si2 0.445375 0.834272 0.492238
Si Si3 0.800280 0.321478 0.092008
Si Si4 0.552993 0.178252 0.318539
Si Si5 0.954880 0.674508 0.676284
Si Si6 0.445825 0.174758 0.996634
Si Si7 0.395469 0.321367 0.837256
Si Si8 0.200099 0.321720 0.101741
O O1 0.598266 0.500000 0.866301
O O2 0.582313 0.712240 0.749409
O O3 0.575458 0.769905 0.913996
O O4 0.656443 0.729109 0.840589
O O5 0.500000 0.845566 0.500000
O O6 0.428009 0.776778 0.585978
O O7 0.431820 0.722064 0.414986
O O8 0.425056 0.000000 0.471471
O O9 0.750000 0.266653 0.127696
O O10 0.801419 0.500000 0.089013
O O11 0.842531 0.264493 0.150904
O O12 0.807550 0.259207 0.995118
O O13 0.501263 0.235851 0.302312
O O14 0.587764 0.250754 0.251458
O O15 0.551833 0.000000 0.306914
O O16 0.967588 0.500000 0.672741
O O17 0.434166 0.000000 0.983041
O O18 0.500000 0.204390 0.000000
O O19 0.426172 0.268135 0.916930
O O20 0.399249 0.500000 0.831581
O O21 0.250000 0.261624 0.137579
O O22 0.202182 0.500000 0.098535
#
# Coordination Sequence:
#
# PCOD8207778 Si02
#       8
#     8   8   8   8   8   8   8   8
#     4  10  19  31  46  68  92 117 151 189 226 264
#     4   8  16  31  48  64  87 121 154 186 226 271
#     4   8  14  26  46  69  89 113 147 186 229 274
#     4  10  20  33  47  65  93 125 157 188 222 273
#     4  10  19  29  46  71  96 119 150 193 232 267
#     4  11  23  34  43  59  89 129 162 184 214 263
#     4  11  20  31  49  70  91 118 152 192 231 268
#     4   8  13  25  46  67  87 114 148 185 225 269
#
# _framework density 16.050651999999999
#
# number of rings (size 3 to 8) (size 9 to 14) (size 15 to 20)
#    0.000    2.500    1.250    3.750    0.000    6.750 
#    0.000    0.000    0.000    2.625    0.000    0.875 
#    0.000    5.000    0.000    0.000    0.000    0.000 
#
# Total GULP energy -793179.167535 kJ/mol
# GULP energy per Si atom -12393.424493 kJ/mol
# Density = 1.601412 g / cm^3
# Si number density = 16.050652 Si / 1000 Ang^3
#
#
#
# Elastic Constant Matrix: (Units=GPa)
#
#
# Indices 1 2 3 4 5 6 
#
# 1 121.3171 37.5726 64.8472 0.0000 0.0000 0.0000
# 2 37.5726 52.9411 39.9731 0.0000 0.0000 0.0000
# 3 64.8472 39.9731 116.0319 0.0000 0.0000 0.0000
# 4 0.0000 0.0000 0.0000 23.6684 0.0000 0.0000
# 5 0.0000 0.0000 0.0000 0.0000 8.8232 0.0000
# 6 0.0000 0.0000 0.0000 0.0000 0.0000 2.5058
#
#
#
# Elastic Compliance Matrix: (Units=1/GPa)
#
#
# Indices 1 2 3 4 5 6 
#
# 1 0.012634 -0.004913 -0.005368 0.000000 0.000000 0.000000
# 2 -0.004913 0.027440 -0.006707 0.000000 0.000000 0.000000
# 3 -0.005368 -0.006707 0.013929 0.000000 0.000000 0.000000
# 4 0.000000 0.000000 0.000000 0.042251 0.000000 0.000000
# 5 0.000000 0.000000 0.000000 0.000000 0.113337 0.000000
# 6 0.000000 0.000000 0.000000 0.000000 0.000000 0.399082
#
#
# Mechanical properties :
#
#
# Convention : Reuss Voigt Hill
#
# Bulk Modulus (GPa) = 49.93534 63.89732 56.91633
# Shear Modulus (GPa) = 7.70030 16.85929 12.27979
#
# Velocity S-wave (km/s) = 2.19270 3.24447 2.76898
# Velocity P-wave (km/s) = 6.13100 7.34382 6.76465
#
# Compressibility (1/GPa) = 0.02002590
#
# Stress axis : x y z
#
# Youngs Moduli (GPa) = 79.15195 36.44300 71.79188
#
# Poissons Ratio (x) = 0.17905 0.38539
# Poissons Ratio (y) = 0.38888 0.48153
# Poissons Ratio (z) = 0.42490 0.24444
#
# Static dielectric constant tensor:
#      x y z
#    x 3.146240 0.000000 0.000000 
#    y 0.000000 2.948120 0.000000 
#    z 0.000000 0.000000 3.250970 
# 
# 
# High freq. dielectric constant tensor:
#      x y z
#    x 1.603410 0.000000 0.000000 
#    y 0.000000 1.605780 0.000000 
#    z 0.000000 0.000000 1.606670 
# 
# From -- ./inp_files/26628.got.cif
#   From: 2010.03.12/outbox.cif.g09.slc.cpg/sg51_14_cif.got.tgz:26628.got - 2010.04.16 13:43:02.
