data_PCOD8207499
_publ_section_title
;
Structure prediction by ZEFSAII (Michael W. Deem and Ramdas Pophale) SiO2 
 PCOD8207499
Probable space group: P M M A
;
_chemical_formula_sum "Si O2"
_cell_formula_units_Z 52
_cell_length_a 25.378730
_cell_length_b 11.531438
_cell_length_c 9.604201
_cell_angle_alpha 90.000000
_cell_angle_beta 90.000000
_cell_angle_gamma 90.000000
_cell_volume 2810.700651
_symmetry_space_group_name_H-M "P M M A"
_symmetry_group_IT_number 51
_symmetry_cell_setting 'orthorhombic'
loop_
_space_group_symop_operation_xyz
x,y,z
1/2-x,-y,z
1/2+x,-y,-z
-x,y,-z
-x,-y,-z
1/2+x,y,-z
1/2-x,y,z
x,-y,z
loop_
_atom_site_type_symbol
_atom_site_label
_atom_site_fract_x
_atom_site_fract_y
_atom_site_fract_z
Si Si1 0.059455 0.000000 0.940359
Si Si2 0.914739 0.000000 0.380554
Si Si3 0.105773 0.248196 0.546981
Si Si4 0.809336 0.753796 0.222663
Si Si5 0.587571 0.364547 0.731777
Si Si6 0.804586 0.000000 0.277799
Si Si7 0.533974 0.632278 0.239573
Si Si8 0.600672 0.249889 0.020520
O O1 0.058217 0.000000 0.771457
O O2 0.092601 0.888635 0.992775
O O3 0.000000 0.000000 0.000000
O O4 0.925676 0.122833 0.457292
O O5 0.851904 0.000000 0.383428
O O6 0.162444 0.249391 0.625494
O O7 0.115926 0.295556 0.392849
O O8 0.068050 0.337725 0.625670
O O9 0.750000 0.697061 0.226395
O O10 0.805273 0.888241 0.178208
O O11 0.848079 0.702888 0.105601
O O12 0.602329 0.500000 0.726213
O O13 0.525719 0.342800 0.719967
O O14 0.608529 0.308712 0.872880
O O15 0.750000 0.000000 0.366717
O O16 0.543238 0.500000 0.197974
O O17 0.549092 0.706721 0.103758
#
# Coordination Sequence:
#
# PCOD8207499 Si02
#       8
#     4   4   8   8   8   4   8   8
#     4  12  20  33  54  84 123 152 178 223 279 338
#     4  10  18  35  51  82 113 148 180 219 273 341
#     4  10  20  35  55  80 114 141 183 228 275 333
#     4   9  17  33  58  81 103 140 189 233 273 327
#     4  11  23  37  54  80 111 149 187 231 281 323
#     4   8  12  26  52  78 100 127 172 227 267 300
#     4  10  19  35  57  77 102 146 196 231 261 315
#     4  11  21  35  56  83 114 146 188 231 279 335
#
# _framework density 18.500724999999999
#
# number of rings (size 3 to 8) (size 9 to 14) (size 15 to 20)
#    0.000    1.846    4.615    2.769    0.000    3.077 
#    0.000    3.077    0.000   17.538    0.000    5.385 
#    0.000    0.000    0.000    0.000    0.000    0.000 
#
# Total GULP energy -644199.699299 kJ/mol
# GULP energy per Si atom -12388.455756 kJ/mol
# Density = 1.845862 g / cm^3
# Si number density = 18.500725 Si / 1000 Ang^3
#
#
#
# Elastic Constant Matrix: (Units=GPa)
#
#
# Indices 1 2 3 4 5 6 
#
# 1 90.7808 31.0383 32.9545 0.0000 0.0000 0.0000
# 2 31.0383 89.9683 46.8220 0.0000 0.0000 0.0000
# 3 32.9545 46.8220 130.8910 0.0000 0.0000 0.0000
# 4 0.0000 0.0000 0.0000 31.5263 0.0000 0.0000
# 5 0.0000 0.0000 0.0000 0.0000 14.0329 0.0000
# 6 0.0000 0.0000 0.0000 0.0000 0.0000 13.6588
#
#
#
# Elastic Compliance Matrix: (Units=1/GPa)
#
#
# Indices 1 2 3 4 5 6 
#
# 1 0.012916 -0.003396 -0.002037 0.000000 0.000000 0.000000
# 2 -0.003396 0.014550 -0.004350 0.000000 0.000000 0.000000
# 3 -0.002037 -0.004350 0.009709 0.000000 0.000000 0.000000
# 4 0.000000 0.000000 0.000000 0.031720 0.000000 0.000000
# 5 0.000000 0.000000 0.000000 0.000000 0.071261 0.000000
# 6 0.000000 0.000000 0.000000 0.000000 0.000000 0.073213
#
#
# Mechanical properties :
#
#
# Convention : Reuss Voigt Hill
#
# Bulk Modulus (GPa) = 56.78726 59.25220 58.01973
# Shear Modulus (GPa) = 20.93763 25.23196 23.08480
#
# Velocity S-wave (km/s) = 3.36775 3.69702 3.53622
# Velocity P-wave (km/s) = 6.77374 7.09369 6.93556
#
# Compressibility (1/GPa) = 0.01760958
#
# Stress axis : x y z
#
# Youngs Moduli (GPa) = 77.42293 68.72675 102.99820
#
# Poissons Ratio (x) = 0.23338 0.20982
# Poissons Ratio (y) = 0.26291 0.44804
# Poissons Ratio (z) = 0.15772 0.29896
#
# Static dielectric constant tensor:
#      x y z
#    x 3.520040 0.000000 0.000000 
#    y 0.000000 3.661230 0.000000 
#    z 0.000000 0.000000 3.190170 
# 
# 
# High freq. dielectric constant tensor:
#      x y z
#    x 1.704030 0.000000 0.000000 
#    y 0.000000 1.728180 0.000000 
#    z 0.000000 0.000000 1.692470 
# 
# From -- ./inp_files/12393.got.cif
#   From: 2010.03.12/outbox.cif.g09.slc.cpg/sg51_7_cif.got.tgz:12393.got - 2010.04.16 13:43:02.
