data_PCOD8207312
_publ_section_title
;
Structure prediction by ZEFSAII (Michael W. Deem and Ramdas Pophale) SiO2 
 PCOD8207312
Probable space group: P M M A
;
_chemical_formula_sum "Si O2"
_cell_formula_units_Z 44
_cell_length_a 8.663863
_cell_length_b 28.764201
_cell_length_c 9.153837
_cell_angle_alpha 90.000000
_cell_angle_beta 90.000000
_cell_angle_gamma 90.000000
_cell_volume 2281.219451
_symmetry_space_group_name_H-M "P M M A"
_symmetry_group_IT_number 51
_symmetry_cell_setting 'orthorhombic'
loop_
_space_group_symop_operation_xyz
x,y,z
1/2-x,-y,z
1/2+x,-y,-z
-x,y,-z
-x,-y,-z
1/2+x,y,-z
1/2-x,y,z
x,-y,z
loop_
_atom_site_type_symbol
_atom_site_label
_atom_site_fract_x
_atom_site_fract_y
_atom_site_fract_z
Si Si1 0.930277 0.176996 0.841620
Si Si2 0.067737 0.350108 0.839063
Si Si3 0.067556 0.094131 0.660648
Si Si4 0.066481 0.000000 0.338004
Si Si5 0.931405 0.451014 0.158912
Si Si6 0.571187 0.731649 0.655882
O O1 0.750000 0.164262 0.848362
O O2 0.960743 0.224532 0.757594
O O3 0.023143 0.136366 0.763331
O O4 0.000000 0.184068 0.000000
O O5 0.250000 0.344854 0.852381
O O6 0.018116 0.401238 0.772963
O O7 0.006172 0.313443 0.724278
O O8 0.000000 0.341368 0.000000
O O9 0.250000 0.089391 0.647868
O O10 0.000000 0.102939 0.500000
O O11 0.998054 0.047191 0.735458
O O12 0.000000 0.000000 0.500000
O O13 0.250000 0.000000 0.336063
O O14 0.750000 0.450351 0.142605
O O15 0.981247 0.500000 0.241359
O O16 0.000000 0.452901 0.000000
O O17 0.500000 0.743144 0.500000
O O18 0.750000 0.721231 0.636754
#
# Coordination Sequence:
#
# PCOD8207312 Si02
#       6
#     8   8   8   4   8   8
#     4  11  24  41  60  84 112 145 182 224 275 329
#     4  10  19  32  53  80 111 144 180 223 271 322
#     4  11  21  36  59  87 118 152 190 232 275 322
#     4  10  18  32  55  84 117 152 191 232 272 320
#     4   8  14  25  43  70 103 138 175 216 262 313
#     4  11  24  40  59  81 108 141 181 226 274 329
#
# _framework density 19.287928999999998
#
# number of rings (size 3 to 8) (size 9 to 14) (size 15 to 20)
#    0.000    1.818    0.000    6.273    0.000    6.545 
#    0.000    0.455    0.000    0.545    0.000    0.000 
#    0.000    0.000    0.000    0.000    0.000    0.000 
#
# Total GULP energy -545239.205121 kJ/mol
# GULP energy per Si atom -12391.800116 kJ/mol
# Density = 1.924403 g / cm^3
# Si number density = 19.287929 Si / 1000 Ang^3
#
#
#
# Elastic Constant Matrix: (Units=GPa)
#
#
# Indices 1 2 3 4 5 6 
#
# 1 125.8492 70.4425 46.0024 0.0000 0.0000 0.0000
# 2 70.4425 141.1398 41.7375 0.0000 0.0000 0.0000
# 3 46.0024 41.7375 85.4354 0.0000 0.0000 0.0000
# 4 0.0000 0.0000 0.0000 31.1229 0.0000 0.0000
# 5 0.0000 0.0000 0.0000 0.0000 27.5248 0.0000
# 6 0.0000 0.0000 0.0000 0.0000 0.0000 29.5507
#
#
#
# Elastic Compliance Matrix: (Units=1/GPa)
#
#
# Indices 1 2 3 4 5 6 
#
# 1 0.012192 -0.004843 -0.004198 0.000000 0.000000 0.000000
# 2 -0.004843 0.010206 -0.002378 0.000000 0.000000 0.000000
# 3 -0.004198 -0.002378 0.015127 0.000000 0.000000 0.000000
# 4 0.000000 0.000000 0.000000 0.032131 0.000000 0.000000
# 5 0.000000 0.000000 0.000000 0.000000 0.036331 0.000000
# 6 0.000000 0.000000 0.000000 0.000000 0.000000 0.033840
#
#
# Mechanical properties :
#
#
# Convention : Reuss Voigt Hill
#
# Bulk Modulus (GPa) = 68.09633 74.30991 71.20312
# Shear Modulus (GPa) = 29.84000 30.58915 30.21458
#
# Velocity S-wave (km/s) = 3.93756 3.98668 3.96220
# Velocity P-wave (km/s) = 7.48694 7.73316 7.61105
#
# Compressibility (1/GPa) = 0.01468508
#
# Stress axis : x y z
#
# Youngs Moduli (GPa) = 82.02316 97.98521 66.10657
#
# Poissons Ratio (x) = 0.47457 0.27755
# Poissons Ratio (y) = 0.39726 0.15719
# Poissons Ratio (z) = 0.34437 0.23300
#
# Static dielectric constant tensor:
#      x y z
#    x 3.694030 0.000000 0.000000 
#    y 0.000000 4.531700 0.000000 
#    z 0.000000 0.000000 3.164910 
# 
# 
# High freq. dielectric constant tensor:
#      x y z
#    x 1.766690 0.000000 0.000000 
#    y 0.000000 1.785970 0.000000 
#    z 0.000000 0.000000 1.708030 
# 
# From -- ./inp_files/5717.got.cif
#   From: 2010.03.12/outbox.cif.g09.slc.cpg/sg51_3_cif.got.tgz:5717.got - 2010.04.16 13:43:02.
