data_PCOD8207142
_publ_section_title
;
Structure prediction by ZEFSAII (Michael W. Deem and Ramdas Pophale) SiO2 
 PCOD8207142
Probable space group: P M M A
;
_chemical_formula_sum "Si O2"
_cell_formula_units_Z 48
_cell_length_a 19.153600
_cell_length_b 8.799419
_cell_length_c 15.210863
_cell_angle_alpha 90.000000
_cell_angle_beta 90.000000
_cell_angle_gamma 90.000000
_cell_volume 2563.647243
_symmetry_space_group_name_H-M "P M M A"
_symmetry_group_IT_number 51
_symmetry_cell_setting 'orthorhombic'
loop_
_space_group_symop_operation_xyz
x,y,z
1/2-x,-y,z
1/2+x,-y,-z
-x,y,-z
-x,-y,-z
1/2+x,y,-z
1/2-x,y,z
x,-y,z
loop_
_atom_site_type_symbol
_atom_site_label
_atom_site_fract_x
_atom_site_fract_y
_atom_site_fract_z
Si Si1 0.575720 0.181156 0.528892
Si Si2 0.828322 0.181009 0.373573
Si Si3 0.331009 0.177990 0.116727
Si Si4 0.575176 0.179815 0.724038
Si Si5 0.424913 0.180522 0.784685
Si Si6 0.424022 0.679342 0.969920
O O1 0.500000 0.242139 0.500000
O O2 0.633557 0.243874 0.461110
O O3 0.592718 0.243294 0.626768
O O4 0.575651 0.000000 0.527225
O O5 0.750000 0.247151 0.371009
O O6 0.869460 0.237524 0.287509
O O7 0.827407 0.000000 0.375497
O O8 0.250000 0.218916 0.120212
O O9 0.364291 0.230837 0.209255
O O10 0.365803 0.271394 0.038931
O O11 0.344139 0.000000 0.100387
O O12 0.501028 0.243889 0.757623
O O13 0.569408 0.000000 0.718429
O O14 0.425215 0.000000 0.792370
O O15 0.402497 0.249118 0.877396
O O16 0.424652 0.500000 0.960862
O O17 0.500000 0.740557 0.000000
#
# Coordination Sequence:
#
# PCOD8207142 Si02
#       6
#     8   8   8   8   8   8
#     4   9  14  23  41  68 102 138 169 199 247 307
#     4   9  17  27  42  71 107 136 167 211 258 305
#     4  10  21  36  54  78 106 136 174 219 266 314
#     4   9  16  27  47  73 101 136 174 209 251 306
#     4  10  18  31  53  76 102 138 175 213 259 311
#     4  11  23  37  55  79 104 135 177 220 265 320
#
# _framework density 18.723324000000002
#
# number of rings (size 3 to 8) (size 9 to 14) (size 15 to 20)
#    0.000    2.333    3.333    0.500    0.000    2.333 
#    0.000    5.000    0.000    0.000    0.000    3.500 
#    0.000    0.000    0.000    0.000    0.000    0.000 
#
# Total GULP energy -595182.084647 kJ/mol
# GULP energy per Si atom -12399.626763 kJ/mol
# Density = 1.868071 g / cm^3
# Si number density = 18.723324 Si / 1000 Ang^3
#
#
#
# Elastic Constant Matrix: (Units=GPa)
#
#
# Indices 1 2 3 4 5 6 
#
# 1 148.3478 16.7111 76.4688 0.0000 0.0000 0.0000
# 2 16.7111 17.0062 20.9178 0.0000 0.0000 0.0000
# 3 76.4688 20.9178 186.2378 0.0000 0.0000 0.0000
# 4 0.0000 0.0000 0.0000 -2.0405 0.0000 0.0000
# 5 0.0000 0.0000 0.0000 0.0000 36.1628 0.0000
# 6 0.0000 0.0000 0.0000 0.0000 0.0000 12.1762
#
#
#
# Elastic Compliance Matrix: (Units=1/GPa)
#
#
# Indices 1 2 3 4 5 6 
#
# 1 0.008893 -0.004928 -0.003098 0.000000 0.000000 0.000000
# 2 -0.004928 0.070959 -0.005946 0.000000 0.000000 0.000000
# 3 -0.003098 -0.005946 0.007309 0.000000 0.000000 0.000000
# 4 0.000000 0.000000 0.000000 -0.490069 0.000000 0.000000
# 5 0.000000 0.000000 0.000000 0.000000 0.027653 0.000000
# 6 0.000000 0.000000 0.000000 0.000000 0.000000 0.082128
#
#
# Mechanical properties :
#
#
# Convention : Reuss Voigt Hill
#
# Bulk Modulus (GPa) = 16.88728 64.42080 40.65404
# Shear Modulus (GPa) = -20.37127 25.09262 2.36068
#
# Velocity S-wave (km/s) = -3.30209 3.66482 1.12408
# Velocity P-wave (km/s) = 2.34508 7.23804 4.84200
#
# Compressibility (1/GPa) = 0.05921618
#
# Stress axis : x y z
#
# Youngs Moduli (GPa) = 112.44873 14.09266 136.81100
#
# Poissons Ratio (x) = 0.06945 0.42383
# Poissons Ratio (y) = 0.55417 0.81354
# Poissons Ratio (z) = 0.34835 0.08380
#
# Static dielectric constant tensor:
#      x y z
#    x 3.573560 0.000000 0.000000 
#    y 0.000000 2.801370 0.000000 
#    z 0.000000 0.000000 3.715030 
# 
# 
# High freq. dielectric constant tensor:
#      x y z
#    x 1.728460 0.000000 0.000000 
#    y 0.000000 1.663410 0.000000 
#    z 0.000000 0.000000 1.747050 
# 
# From -- ./inp_files/24750.got.cif
#   From: 2010.03.12/outbox.cif.g09.slc.cpg/sg51_13_cif.got.tgz:24750.got - 2010.04.16 13:43:02.
