data_PCOD8207073
_publ_section_title
;
Structure prediction by ZEFSAII (Michael W. Deem and Ramdas Pophale) SiO2 
 PCOD8207073
Probable space group: P M M A
;
_chemical_formula_sum "Si O2"
_cell_formula_units_Z 56
_cell_length_a 8.800230
_cell_length_b 20.381505
_cell_length_c 15.623858
_cell_angle_alpha 90.000000
_cell_angle_beta 90.000000
_cell_angle_gamma 90.000000
_cell_volume 2802.325352
_symmetry_space_group_name_H-M "P M M A"
_symmetry_group_IT_number 51
_symmetry_cell_setting 'orthorhombic'
loop_
_space_group_symop_operation_xyz
x,y,z
1/2-x,-y,z
1/2+x,-y,-z
-x,y,-z
-x,-y,-z
1/2+x,y,-z
1/2-x,y,z
x,-y,z
loop_
_atom_site_type_symbol
_atom_site_label
_atom_site_fract_x
_atom_site_fract_y
_atom_site_fract_z
Si Si1 0.430779 0.174057 0.411019
Si Si2 0.429839 0.926336 0.267241
Si Si3 0.424900 0.736543 0.139843
Si Si4 0.929993 0.570536 0.269734
Si Si5 0.568939 0.711587 0.317079
Si Si6 0.922527 0.881874 0.913968
Si Si7 0.570498 0.391259 0.083397
O O1 0.500000 0.149008 0.500000
O O2 0.250000 0.175238 0.416223
O O3 0.492586 0.124305 0.338116
O O4 0.492596 0.247684 0.393615
O O5 0.250000 0.916626 0.262322
O O6 0.498072 0.911302 0.172813
O O7 0.474928 0.000000 0.294924
O O8 0.250000 0.717936 0.158680
O O9 0.513072 0.743964 0.229264
O O10 0.436809 0.803669 0.088164
O O11 0.506044 0.682345 0.082347
O O12 0.750000 0.571765 0.272075
O O13 0.989664 0.500000 0.307180
O O14 0.987546 0.634819 0.321423
O O15 0.982650 0.573679 0.170651
O O16 0.750000 0.716053 0.323190
O O17 0.750000 0.905608 0.918706
O O18 0.000000 0.909253 0.000000
O O19 0.750000 0.389994 0.075131
O O20 0.500000 0.427635 0.000000
#
# Coordination Sequence:
#
# PCOD8207073 Si02
#       7
#     8   8   8   8   8   8   8
#     4  11  22  39  63  91 118 147 184 229 281 339
#     4   9  19  38  60  81 113 155 191 228 281 338
#     4  10  18  31  50  73 104 143 187 234 285 333
#     4   8  16  31  50  73 103 141 184 227 277 335
#     4  10  19  33  57  85 112 144 181 226 279 333
#     4  10  20  33  51  78 108 148 193 233 278 325
#     4  10  19  29  43  67  99 139 185 235 288 338
#
# _framework density 19.983404
#
# number of rings (size 3 to 8) (size 9 to 14) (size 15 to 20)
#    0.000    2.286    1.429    3.000    0.000    3.143 
#    0.000    0.000    0.000   18.429    0.000    0.000 
#    0.000    0.000    0.000    0.000    0.000    0.000 
#
# Total GULP energy -694052.787022 kJ/mol
# GULP energy per Si atom -12393.799768 kJ/mol
# Density = 1.993792 g / cm^3
# Si number density = 19.983404 Si / 1000 Ang^3
#
#
#
# Elastic Constant Matrix: (Units=GPa)
#
#
# Indices 1 2 3 4 5 6 
#
# 1 62.9919 25.0556 29.0872 0.0000 0.0000 0.0000
# 2 25.0556 107.5171 53.7619 0.0000 0.0000 0.0000
# 3 29.0872 53.7619 122.6288 0.0000 0.0000 0.0000
# 4 0.0000 0.0000 0.0000 13.4526 0.0000 0.0000
# 5 0.0000 0.0000 0.0000 0.0000 31.4370 0.0000
# 6 0.0000 0.0000 0.0000 0.0000 0.0000 15.6561
#
#
#
# Elastic Compliance Matrix: (Units=1/GPa)
#
#
# Indices 1 2 3 4 5 6 
#
# 1 0.018420 -0.002700 -0.003186 0.000000 0.000000 0.000000
# 2 -0.002700 0.012308 -0.004756 0.000000 0.000000 0.000000
# 3 -0.003186 -0.004756 0.010995 0.000000 0.000000 0.000000
# 4 0.000000 0.000000 0.000000 0.074335 0.000000 0.000000
# 5 0.000000 0.000000 0.000000 0.000000 0.031810 0.000000
# 6 0.000000 0.000000 0.000000 0.000000 0.000000 0.063873
#
#
# Mechanical properties :
#
#
# Convention : Reuss Voigt Hill
#
# Bulk Modulus (GPa) = 48.92044 56.54969 52.73506
# Shear Modulus (GPa) = 20.84757 24.45801 22.65279
#
# Velocity S-wave (km/s) = 3.23343 3.50225 3.37052
# Velocity P-wave (km/s) = 6.20273 6.68686 6.44934
#
# Compressibility (1/GPa) = 0.02044135
#
# Stress axis : x y z
#
# Youngs Moduli (GPa) = 54.28925 81.24865 90.94872
#
# Poissons Ratio (x) = 0.21934 0.28973
# Poissons Ratio (y) = 0.14656 0.43251
# Poissons Ratio (z) = 0.17294 0.38638
#
# Static dielectric constant tensor:
#      x y z
#    x 3.385410 0.000000 0.000000 
#    y 0.000000 3.837620 0.000000 
#    z 0.000000 0.000000 3.522270 
# 
# 
# High freq. dielectric constant tensor:
#      x y z
#    x 1.752680 0.000000 0.000000 
#    y 0.000000 1.782150 0.000000 
#    z 0.000000 0.000000 1.763290 
# 
# From -- ./inp_files/21810.got.cif
#   From: 2010.03.12/outbox.cif.g09.slc.cpg/sg51_11_cif.got.tgz:21810.got - 2010.04.16 13:43:02.
