data_PCOD8207588
_publ_section_title
;
Structure prediction by ZEFSAII (Michael W. Deem and Ramdas Pophale) SiO2 
 PCOD8207588
Probable space group: P M M A
;
_chemical_formula_sum "Si O2"
_cell_formula_units_Z 48
_cell_length_a 8.771103
_cell_length_b 24.298338
_cell_length_c 13.651251
_cell_angle_alpha 90.000000
_cell_angle_beta 90.000000
_cell_angle_gamma 90.000000
_cell_volume 2909.398643
_symmetry_space_group_name_H-M "P M M A"
_symmetry_group_IT_number 51
_symmetry_cell_setting 'orthorhombic'
loop_
_space_group_symop_operation_xyz
x,y,z
1/2-x,-y,z
1/2+x,-y,-z
-x,y,-z
-x,-y,-z
1/2+x,y,-z
1/2-x,y,z
x,-y,z
loop_
_atom_site_type_symbol
_atom_site_label
_atom_site_fract_x
_atom_site_fract_y
_atom_site_fract_z
Si Si1 0.071023 0.220725 0.288435
Si Si2 0.571262 0.440453 0.393168
Si Si3 0.429948 0.122445 0.601293
Si Si4 0.568656 0.168469 0.103612
Si Si5 0.071916 0.667629 0.393618
Si Si6 0.929775 0.939761 0.206684
O O1 0.250000 0.209734 0.278286
O O2 0.033420 0.282499 0.321177
O O3 0.003113 0.180771 0.370933
O O4 0.990814 0.211339 0.184067
O O5 0.500000 0.442368 0.500000
O O6 0.750000 0.430079 0.401272
O O7 0.538319 0.500000 0.341106
O O8 0.494501 0.387699 0.340600
O O9 0.500000 0.101013 0.500000
O O10 0.250000 0.130451 0.592036
O O11 0.473462 0.077341 0.682941
O O12 0.750000 0.171296 0.100843
O O13 0.510109 0.106764 0.131556
O O14 0.500000 0.185644 0.000000
O O15 0.250000 0.660619 0.409176
O O16 0.000000 0.678341 0.500000
O O17 0.750000 0.943385 0.196832
O O18 0.002248 0.000000 0.183397
#
# Coordination Sequence:
#
# PCOD8207588 Si02
#       6
#     8   8   8   8   8   8
#     4  10  20  33  48  67  91 117 151 191 228 270
#     4   9  16  25  38  57  84 120 158 192 223 256
#     4  10  19  30  46  66  90 122 154 185 224 266
#     4  10  20  34  53  72  91 116 143 178 227 276
#     4  10  19  28  42  64  90 123 157 190 225 261
#     4   8  16  31  48  67  91 117 147 182 219 264
#
# _framework density 16.498255
#
# number of rings (size 3 to 8) (size 9 to 14) (size 15 to 20)
#    0.000    2.500    0.000    5.000    0.000    5.667 
#    0.000    0.000    0.000   17.000    0.000    0.000 
#    0.000    0.667    0.000    2.167    0.000    3.500 
#
# Total GULP energy -594922.587720 kJ/mol
# GULP energy per Si atom -12394.220577 kJ/mol
# Density = 1.646070 g / cm^3
# Si number density = 16.498255 Si / 1000 Ang^3
#
#
#
# Elastic Constant Matrix: (Units=GPa)
#
#
# Indices 1 2 3 4 5 6 
#
# 1 82.2313 49.9768 31.4168 0.0000 0.0000 0.0000
# 2 49.9768 129.3422 34.4856 0.0000 0.0000 0.0000
# 3 31.4168 34.4856 81.6438 0.0000 0.0000 0.0000
# 4 0.0000 0.0000 0.0000 11.7460 0.0000 0.0000
# 5 0.0000 0.0000 0.0000 0.0000 23.7868 0.0000
# 6 0.0000 0.0000 0.0000 0.0000 0.0000 22.5794
#
#
#
# Elastic Compliance Matrix: (Units=1/GPa)
#
#
# Indices 1 2 3 4 5 6 
#
# 1 0.017122 -0.005476 -0.004276 0.000000 0.000000 0.000000
# 2 -0.005476 0.010464 -0.002313 0.000000 0.000000 0.000000
# 3 -0.004276 -0.002313 0.014871 0.000000 0.000000 0.000000
# 4 0.000000 0.000000 0.000000 0.085135 0.000000 0.000000
# 5 0.000000 0.000000 0.000000 0.000000 0.042040 0.000000
# 6 0.000000 0.000000 0.000000 0.000000 0.000000 0.044288
#
#
# Mechanical properties :
#
#
# Convention : Reuss Voigt Hill
#
# Bulk Modulus (GPa) = 54.56125 58.33063 56.44594
# Shear Modulus (GPa) = 20.47850 23.44499 21.96175
#
# Velocity S-wave (km/s) = 3.52696 3.77378 3.65246
# Velocity P-wave (km/s) = 7.05186 7.37706 7.21629
#
# Compressibility (1/GPa) = 0.01832802
#
# Stress axis : x y z
#
# Youngs Moduli (GPa) = 58.40284 95.56647 67.24717
#
# Poissons Ratio (x) = 0.52332 0.28753
# Poissons Ratio (y) = 0.31981 0.15552
# Poissons Ratio (z) = 0.24972 0.22102
#
# Static dielectric constant tensor:
#      x y z
#    x 3.155770 0.000000 0.000000 
#    y 0.000000 3.682380 0.000000 
#    z 0.000000 0.000000 2.829110 
# 
# 
# High freq. dielectric constant tensor:
#      x y z
#    x 1.642240 0.000000 0.000000 
#    y 0.000000 1.640240 0.000000 
#    z 0.000000 0.000000 1.595900 
# 
# From -- ./inp_files/21982.got.cif
#   From: 2010.03.12/outbox.cif.g09.slc.cpg/sg51_11_cif.got.tgz:21982.got - 2010.04.16 13:43:02.
