data_PCOD8207498
_publ_section_title
;
Structure prediction by ZEFSAII (Michael W. Deem and Ramdas Pophale) SiO2 
 PCOD8207498
Probable space group: P M M A
;
_chemical_formula_sum "Si O2"
_cell_formula_units_Z 48
_cell_length_a 9.660329
_cell_length_b 27.382108
_cell_length_c 9.316445
_cell_angle_alpha 90.000000
_cell_angle_beta 90.000000
_cell_angle_gamma 90.000000
_cell_volume 2464.387634
_symmetry_space_group_name_H-M "P M M A"
_symmetry_group_IT_number 51
_symmetry_cell_setting 'orthorhombic'
loop_
_space_group_symop_operation_xyz
x,y,z
1/2-x,-y,z
1/2+x,-y,-z
-x,y,-z
-x,-y,-z
1/2+x,y,-z
1/2-x,y,z
x,-y,z
loop_
_atom_site_type_symbol
_atom_site_label
_atom_site_fract_x
_atom_site_fract_y
_atom_site_fract_z
Si Si1 0.085817 0.119910 0.854145
Si Si2 0.088627 0.942484 0.361172
Si Si3 0.981250 0.446730 0.667815
Si Si4 0.519693 0.775125 0.167348
Si Si5 0.750000 0.625633 0.624723
Si Si6 0.250000 0.702661 0.876932
Si Si7 0.750000 0.275073 0.787328
Si Si8 0.750000 0.395466 0.288902
O O1 0.250000 0.106260 0.874500
O O2 0.077277 0.172976 0.774684
O O3 0.000788 0.079862 0.766829
O O4 0.000000 0.122531 0.000000
O O5 0.250000 0.923598 0.369139
O O6 0.000000 0.927753 0.500000
O O7 0.091135 0.000000 0.337510
O O8 0.933871 0.500000 0.729327
O O9 0.877238 0.402665 0.695984
O O10 0.000000 0.453317 0.500000
O O11 0.121853 0.430522 0.743280
O O12 0.620265 0.729749 0.193512
O O13 0.378312 0.760357 0.245203
O O14 0.500000 0.782445 0.000000
O O15 0.750000 0.681262 0.674077
O O16 0.750000 0.625244 0.451703
O O17 0.250000 0.647170 0.827530
O O18 0.250000 0.704462 0.050044
#
# Coordination Sequence:
#
# PCOD8207498 Si02
#       8
#     8   8   8   8   4   4   4   4
#     4  11  22  37  61  90 119 152 198 252 300 343
#     4  10  22  41  64  89 122 163 202 241 292 355
#     4   9  17  30  49  72  97 128 166 208 257 315
#     4   9  19  33  54  77 102 140 184 224 266 329
#     4  10  19  32  48  76  98 129 165 214 263 313
#     4  10  18  35  51  73 101 137 174 215 261 326
#     4  10  20  33  53  73 101 137 178 211 267 328
#     4  10  19  30  52  72 100 125 167 216 261 311
#
# _framework density 19.477454999999999
#
# number of rings (size 3 to 8) (size 9 to 14) (size 15 to 20)
#    0.000    2.167    0.833    2.500    4.667    3.333 
#    0.000    1.667    0.000    3.000    0.000    0.000 
#    0.000    0.000    0.000    0.000    0.000    0.000 
#
# Total GULP energy -594749.877560 kJ/mol
# GULP energy per Si atom -12390.622449 kJ/mol
# Density = 1.943312 g / cm^3
# Si number density = 19.477455 Si / 1000 Ang^3
#
#
#
# Elastic Constant Matrix: (Units=GPa)
#
#
# Indices 1 2 3 4 5 6 
#
# 1 149.6080 29.4688 23.4518 0.0000 0.0000 0.0000
# 2 29.4688 52.0298 25.3056 0.0000 0.0000 0.0000
# 3 23.4518 25.3056 39.3740 0.0000 0.0000 0.0000
# 4 0.0000 0.0000 0.0000 -37.1416 0.0000 0.0000
# 5 0.0000 0.0000 0.0000 0.0000 18.4084 0.0000
# 6 0.0000 0.0000 0.0000 0.0000 0.0000 77.1461
#
#
#
# Elastic Compliance Matrix: (Units=1/GPa)
#
#
# Indices 1 2 3 4 5 6 
#
# 1 0.007701 -0.003100 -0.002595 0.000000 0.000000 0.000000
# 2 -0.003100 0.029207 -0.016925 0.000000 0.000000 0.000000
# 3 -0.002595 -0.016925 0.037821 0.000000 0.000000 0.000000
# 4 0.000000 0.000000 0.000000 -0.026924 0.000000 0.000000
# 5 0.000000 0.000000 0.000000 0.000000 0.054323 0.000000
# 6 0.000000 0.000000 0.000000 0.000000 0.000000 0.012962
#
#
# Mechanical properties :
#
#
# Convention : Reuss Voigt Hill
#
# Bulk Modulus (GPa) = 33.91004 44.16270 39.03637
# Shear Modulus (GPa) = 29.38389 22.53492 25.95941
#
# Velocity S-wave (km/s) = 3.88830 3.40512 3.65470
# Velocity P-wave (km/s) = 6.13239 6.17922 6.15585
#
# Compressibility (1/GPa) = 0.02948979
#
# Stress axis : x y z
#
# Youngs Moduli (GPa) = 129.84497 34.23785 26.44047
#
# Poissons Ratio (x) = 0.10614 0.06861
# Poissons Ratio (y) = 0.40252 0.44751
# Poissons Ratio (z) = 0.33692 0.57948
#
# Static dielectric constant tensor:
#      x y z
#    x 3.576500 0.000000 0.000000 
#    y 0.000000 3.692970 0.000000 
#    z 0.000000 0.000000 3.148130 
# 
# 
# High freq. dielectric constant tensor:
#      x y z
#    x 1.780160 0.000000 0.000000 
#    y 0.000000 1.768840 0.000000 
#    z 0.000000 0.000000 1.708540 
# 
# From -- ./inp_files/6316.got.cif
#   From: 2010.03.12/outbox.cif.g09.slc.cpg/sg51_4_cif.got.tgz:6316.got - 2010.04.16 13:43:02.
