data_PCOD8207294
_publ_section_title
;
Structure prediction by ZEFSAII (Michael W. Deem and Ramdas Pophale) SiO2 
 PCOD8207294
Probable space group: P M M A
;
_chemical_formula_sum "Si O2"
_cell_formula_units_Z 64
_cell_length_a 19.526784
_cell_length_b 9.380941
_cell_length_c 20.499524
_cell_angle_alpha 90.000000
_cell_angle_beta 90.000000
_cell_angle_gamma 90.000000
_cell_volume 3755.094783
_symmetry_space_group_name_H-M "P M M A"
_symmetry_group_IT_number 51
_symmetry_cell_setting 'orthorhombic'
loop_
_space_group_symop_operation_xyz
x,y,z
1/2-x,-y,z
1/2+x,-y,-z
-x,y,-z
-x,-y,-z
1/2+x,y,-z
1/2-x,y,z
x,-y,z
loop_
_atom_site_type_symbol
_atom_site_label
_atom_site_fract_x
_atom_site_fract_y
_atom_site_fract_z
Si Si1 0.827422 0.166171 0.521190
Si Si2 0.449793 0.337147 0.678639
Si Si3 0.534874 0.166712 0.930968
Si Si4 0.676015 0.831098 0.982141
Si Si5 0.672959 0.834442 0.370753
Si Si6 0.450649 0.664432 0.825240
Si Si7 0.671998 0.164606 0.129807
Si Si8 0.954968 0.667781 0.562117
O O1 0.750000 0.202664 0.544162
O O2 0.836439 0.209058 0.445915
O O3 0.881467 0.255684 0.563115
O O4 0.842379 0.000000 0.531394
O O5 0.432023 0.500000 0.662068
O O6 0.379370 0.251465 0.673606
O O7 0.479378 0.320906 0.751710
O O8 0.506293 0.281199 0.627554
O O9 0.614272 0.217382 0.935338
O O10 0.502099 0.256802 0.873563
O O11 0.527831 0.000000 0.914076
O O12 0.500000 0.200199 0.000000
O O13 0.750000 0.772968 0.956566
O O14 0.678396 0.000000 0.985382
O O15 0.663165 0.778983 0.055869
O O16 0.750000 0.798188 0.347819
O O17 0.657669 0.000000 0.360955
O O18 0.444374 0.500000 0.846117
O O19 0.376008 0.737023 0.826103
O O20 0.750000 0.182249 0.153630
O O21 0.648717 0.000000 0.135806
O O22 0.941508 0.500000 0.561129
O O23 0.000000 0.716048 0.500000
#
# Coordination Sequence:
#
# PCOD8207294 Si02
#       8
#     8   8   8   8   8   8   8   8
#     4   9  18  32  51  78 108 131 157 203 262 312
#     4  10  22  37  49  69 102 138 172 209 252 298
#     4  10  18  32  55  78  99 128 172 214 246 292
#     4   8  14  27  50  77 100 123 156 204 253 288
#     4   9  18  32  50  74 103 134 168 204 245 299
#     4  11  23  35  48  70 106 141 167 204 256 305
#     4   9  17  32  53  74  99 133 171 206 242 291
#     4  10  19  33  54  76  97 129 177 219 247 289
#
# _framework density 17.043510999999999
#
# number of rings (size 3 to 8) (size 9 to 14) (size 15 to 20)
#    0.000    2.500    2.500    1.875    0.000    3.250 
#    0.000    3.750    0.000    1.125    0.000    3.500 
#    0.000    0.000    0.000    0.000    0.000    0.000 
#
# Total GULP energy -793450.948017 kJ/mol
# GULP energy per Si atom -12397.671063 kJ/mol
# Density = 1.700472 g / cm^3
# Si number density = 17.043511 Si / 1000 Ang^3
#
#
#
# Elastic Constant Matrix: (Units=GPa)
#
#
# Indices 1 2 3 4 5 6 
#
# 1 122.9316 50.1656 55.7687 0.0000 0.0000 0.0000
# 2 50.1656 60.5186 42.2917 0.0000 0.0000 0.0000
# 3 55.7687 42.2917 87.1428 0.0000 0.0000 0.0000
# 4 0.0000 0.0000 0.0000 22.5572 0.0000 0.0000
# 5 0.0000 0.0000 0.0000 0.0000 21.5280 0.0000
# 6 0.0000 0.0000 0.0000 0.0000 0.0000 16.1907
#
#
#
# Elastic Compliance Matrix: (Units=1/GPa)
#
#
# Indices 1 2 3 4 5 6 
#
# 1 0.013532 -0.007816 -0.004867 0.000000 0.000000 0.000000
# 2 -0.007816 0.029518 -0.009324 0.000000 0.000000 0.000000
# 3 -0.004867 -0.009324 0.019115 0.000000 0.000000 0.000000
# 4 0.000000 0.000000 0.000000 0.044332 0.000000 0.000000
# 5 0.000000 0.000000 0.000000 0.000000 0.046451 0.000000
# 6 0.000000 0.000000 0.000000 0.000000 0.000000 0.061764
#
#
# Mechanical properties :
#
#
# Convention : Reuss Voigt Hill
#
# Bulk Modulus (GPa) = 55.08960 63.00501 59.04731
# Shear Modulus (GPa) = 18.88390 20.21299 19.54845
#
# Velocity S-wave (km/s) = 3.33225 3.44752 3.39037
# Velocity P-wave (km/s) = 6.87010 7.27287 7.07435
#
# Compressibility (1/GPa) = 0.01815225
#
# Stress axis : x y z
#
# Youngs Moduli (GPa) = 73.89875 33.87721 52.31504
#
# Poissons Ratio (x) = 0.26479 0.25461
# Poissons Ratio (y) = 0.57760 0.48777
# Poissons Ratio (z) = 0.35965 0.31586
#
# Static dielectric constant tensor:
#      x y z
#    x 3.547370 0.000000 0.000000 
#    y 0.000000 3.002760 0.000000 
#    z 0.000000 0.000000 3.011440 
# 
# 
# High freq. dielectric constant tensor:
#      x y z
#    x 1.662550 0.000000 0.000000 
#    y 0.000000 1.641910 0.000000 
#    z 0.000000 0.000000 1.634100 
# 
# From -- ./inp_files/30601.got.cif
#   From: 2010.03.12/outbox.cif.g09.slc.cpg/sg51_16_cif.got.tgz:30601.got - 2010.04.16 13:43:02.
