data_PCOD8207167
_publ_section_title
;
Structure prediction by ZEFSAII (Michael W. Deem and Ramdas Pophale) SiO2 
 PCOD8207167
Probable space group: P M M A
;
_chemical_formula_sum "Si O2"
_cell_formula_units_Z 64
_cell_length_a 18.284693
_cell_length_b 19.744451
_cell_length_c 9.940031
_cell_angle_alpha 90.000000
_cell_angle_beta 90.000000
_cell_angle_gamma 90.000000
_cell_volume 3588.562168
_symmetry_space_group_name_H-M "P M M A"
_symmetry_group_IT_number 51
_symmetry_cell_setting 'orthorhombic'
loop_
_space_group_symop_operation_xyz
x,y,z
1/2-x,-y,z
1/2+x,-y,-z
-x,y,-z
-x,-y,-z
1/2+x,y,-z
1/2-x,y,z
x,-y,z
loop_
_atom_site_type_symbol
_atom_site_label
_atom_site_fract_x
_atom_site_fract_y
_atom_site_fract_z
Si Si1 0.581725 0.155489 0.956406
Si Si2 0.336127 0.802950 0.790811
Si Si3 0.663620 0.178351 0.504061
Si Si4 0.836349 0.677577 0.601252
Si Si5 0.576441 0.691903 0.858878
Si Si6 0.589430 0.336271 0.156054
Si Si7 0.165233 0.078630 0.266199
Si Si8 0.334877 0.422044 0.634598
O O1 0.586958 0.228155 0.884508
O O2 0.614574 0.098913 0.858645
O O3 0.500000 0.136891 0.000000
O O4 0.628852 0.153055 0.091728
O O5 0.250000 0.805336 0.808133
O O6 0.362043 0.835497 0.648784
O O7 0.360424 0.725224 0.794727
O O8 0.750000 0.184592 0.506323
O O9 0.631629 0.250154 0.553665
O O10 0.637203 0.118182 0.601209
O O11 0.750000 0.678304 0.619003
O O12 0.870018 0.662012 0.746807
O O13 0.860862 0.620756 0.494774
O O14 0.494342 0.679671 0.808875
O O15 0.595870 0.651835 0.995806
O O16 0.617309 0.402335 0.234862
O O17 0.250000 0.096420 0.234058
O O18 0.155038 0.000000 0.296614
O O19 0.250000 0.407961 0.666815
O O20 0.349533 0.500000 0.600857
#
# Coordination Sequence:
#
# PCOD8207167 Si02
#       8
#     8   8   8   8   8   8   8   8
#     4  11  20  35  53  81 115 146 183 230 281 328
#     4  10  18  31  55  83 107 137 183 237 278 321
#     4   9  17  31  53  80 105 134 182 234 279 319
#     4  10  19  33  54  80 106 141 186 233 277 325
#     4  10  20  34  53  82 114 142 184 234 280 318
#     4  10  19  35  52  81 112 144 180 229 276 332
#     4  10  21  37  57  81 112 150 188 227 278 339
#     4  10  21  38  58  81 113 148 184 229 282 341
#
# _framework density 17.834440000000001
#
# number of rings (size 3 to 8) (size 9 to 14) (size 15 to 20)
#    0.000    2.000    5.000    0.750    0.000    3.250 
#    0.000    5.625    0.000    4.500    0.000    0.000 
#    0.000    0.000    0.000    0.000    0.000    0.000 
#
# Total GULP energy -793614.552058 kJ/mol
# GULP energy per Si atom -12400.227376 kJ/mol
# Density = 1.779385 g / cm^3
# Si number density = 17.834440 Si / 1000 Ang^3
#
#
#
# Elastic Constant Matrix: (Units=GPa)
#
#
# Indices 1 2 3 4 5 6 
#
# 1 74.9966 34.7537 62.8237 0.0000 0.0000 0.0000
# 2 34.7537 97.0437 63.1941 0.0000 0.0000 0.0000
# 3 62.8237 63.1941 147.3445 0.0000 0.0000 0.0000
# 4 0.0000 0.0000 0.0000 25.5973 0.0000 0.0000
# 5 0.0000 0.0000 0.0000 0.0000 23.4828 0.0000
# 6 0.0000 0.0000 0.0000 0.0000 0.0000 14.6874
#
#
#
# Elastic Compliance Matrix: (Units=1/GPa)
#
#
# Indices 1 2 3 4 5 6 
#
# 1 0.021125 -0.002359 -0.007995 0.000000 0.000000 0.000000
# 2 -0.002359 0.014561 -0.005239 0.000000 0.000000 0.000000
# 3 -0.007995 -0.005239 0.012443 0.000000 0.000000 0.000000
# 4 0.000000 0.000000 0.000000 0.039067 0.000000 0.000000
# 5 0.000000 0.000000 0.000000 0.000000 0.042584 0.000000
# 6 0.000000 0.000000 0.000000 0.000000 0.000000 0.068086
#
#
# Mechanical properties :
#
#
# Convention : Reuss Voigt Hill
#
# Bulk Modulus (GPa) = 59.02568 71.21420 65.11994
# Shear Modulus (GPa) = 21.30385 23.32772 22.31578
#
# Velocity S-wave (km/s) = 3.45995 3.62057 3.54117
# Velocity P-wave (km/s) = 7.00928 7.58258 7.30156
#
# Compressibility (1/GPa) = 0.01694178
#
# Stress axis : x y z
#
# Youngs Moduli (GPa) = 47.33826 68.67560 80.36700
#
# Poissons Ratio (x) = 0.16199 0.64256
# Poissons Ratio (y) = 0.11166 0.42108
# Poissons Ratio (z) = 0.37848 0.35982
#
# Static dielectric constant tensor:
#      x y z
#    x 3.204110 0.000000 0.000000 
#    y 0.000000 3.084100 0.000000 
#    z 0.000000 0.000000 3.649490 
# 
# 
# High freq. dielectric constant tensor:
#      x y z
#    x 1.681950 0.000000 0.000000 
#    y 0.000000 1.662480 0.000000 
#    z 0.000000 0.000000 1.704100 
# 
# From -- ./inp_files/10076.got.cif
#   From: 2010.03.12/outbox.cif.g09.slc.cpg/sg51_6_cif.got.tgz:10076.got - 2010.04.16 13:43:02.
