data_PCOD8207889
_publ_section_title
;
Structure prediction by ZEFSAII (Michael W. Deem and Ramdas Pophale) SiO2 
 PCOD8207889
Probable space group: P M M A
;
_chemical_formula_sum "Si O2"
_cell_formula_units_Z 56
_cell_length_a 9.626595
_cell_length_b 13.153316
_cell_length_c 29.950680
_cell_angle_alpha 90.000000
_cell_angle_beta 90.000000
_cell_angle_gamma 90.000000
_cell_volume 3792.404402
_symmetry_space_group_name_H-M "P M M A"
_symmetry_group_IT_number 51
_symmetry_cell_setting 'orthorhombic'
loop_
_space_group_symop_operation_xyz
x,y,z
1/2-x,-y,z
1/2+x,-y,-z
-x,y,-z
-x,-y,-z
1/2+x,y,-z
1/2-x,y,z
x,-y,z
loop_
_atom_site_type_symbol
_atom_site_label
_atom_site_fract_x
_atom_site_fract_y
_atom_site_fract_z
Si Si1 0.402753 0.116605 0.037600
Si Si2 0.906694 0.120864 0.717412
Si Si3 0.090378 0.615001 0.957501
Si Si4 0.594794 0.120912 0.461075
Si Si5 0.591835 0.796997 0.105767
Si Si6 0.406302 0.120905 0.637819
Si Si7 0.407880 0.117190 0.800014
O O1 0.250000 0.169127 0.038809
O O2 0.481998 0.125285 0.084445
O O3 0.381316 0.000000 0.025381
O O4 0.500000 0.169907 0.000000
O O5 0.750000 0.164640 0.718557
O O6 0.986882 0.166008 0.674245
O O7 0.988246 0.155177 0.761688
O O8 0.903926 0.000000 0.714697
O O9 0.250000 0.624225 0.972095
O O10 0.052449 0.500000 0.943261
O O11 0.059293 0.684903 0.914009
O O12 0.000000 0.649629 0.000000
O O13 0.500000 0.169321 0.500000
O O14 0.750000 0.161194 0.469172
O O15 0.543613 0.155030 0.411719
O O16 0.591661 0.000000 0.463949
O O17 0.750000 0.829809 0.093825
O O18 0.569197 0.805546 0.158766
O O19 0.250000 0.161391 0.647142
O O20 0.404392 0.000000 0.640884
O O21 0.250000 0.125465 0.782150
O O22 0.438464 0.000000 0.814147
#
# Coordination Sequence:
#
# PCOD8207889 Si02
#       7
#     8   8   8   8   8   8   8
#     4  10  20  31  42  57  78 102 124 146 172 203
#     4   9  16  24  34  48  64  83 110 143 175 207
#     4   9  18  32  48  65  83 100 119 145 176 210
#     4   8  13  19  26  37  53  73  98 131 172 215
#     4  10  19  30  45  62  78  98 123 148 176 211
#     4   8  13  21  31  41  55  78 107 137 172 214
#     4   9  17  28  40  53  71  95 119 143 173 210
#
# _framework density 14.766356999999999
#
# number of rings (size 3 to 8) (size 9 to 14) (size 15 to 20)
#    0.000    3.000    0.000    2.571    0.000    6.000 
#    0.000    4.286    0.000    0.000    0.000    0.000 
#    0.000    0.000    0.000    0.000    0.000    0.000 
#
# Total GULP energy -693963.170462 kJ/mol
# GULP energy per Si atom -12392.199473 kJ/mol
# Density = 1.473275 g / cm^3
# Si number density = 14.766357 Si / 1000 Ang^3
#
#
#
# Elastic Constant Matrix: (Units=GPa)
#
#
# Indices 1 2 3 4 5 6 
#
# 1 114.5678 16.8752 78.3550 0.0000 0.0000 0.0000
# 2 16.8752 30.2906 24.0529 0.0000 0.0000 0.0000
# 3 78.3550 24.0529 128.8587 0.0000 0.0000 0.0000
# 4 0.0000 0.0000 0.0000 6.0464 0.0000 0.0000
# 5 0.0000 0.0000 0.0000 0.0000 29.4536 0.0000
# 6 0.0000 0.0000 0.0000 0.0000 0.0000 7.1268
#
#
#
# Elastic Compliance Matrix: (Units=1/GPa)
#
#
# Indices 1 2 3 4 5 6 
#
# 1 0.014987 -0.001307 -0.008869 0.000000 0.000000 0.000000
# 2 -0.001307 0.038872 -0.006461 0.000000 0.000000 0.000000
# 3 -0.008869 -0.006461 0.014360 0.000000 0.000000 0.000000
# 4 0.000000 0.000000 0.000000 0.165387 0.000000 0.000000
# 5 0.000000 0.000000 0.000000 0.000000 0.033952 0.000000
# 6 0.000000 0.000000 0.000000 0.000000 0.000000 0.140316
#
#
# Mechanical properties :
#
#
# Convention : Reuss Voigt Hill
#
# Bulk Modulus (GPa) = 28.61696 56.92036 42.76866
# Shear Modulus (GPa) = 11.04253 18.82096 14.93174
#
# Velocity S-wave (km/s) = 2.73759 3.57400 3.18339
# Velocity P-wave (km/s) = 5.42351 7.46072 6.52215
#
# Compressibility (1/GPa) = 0.03494431
#
# Stress axis : x y z
#
# Youngs Moduli (GPa) = 66.72636 25.72531 69.64026
#
# Poissons Ratio (x) = 0.03361 0.61764
# Poissons Ratio (y) = 0.08718 0.44998
# Poissons Ratio (z) = 0.59180 0.16622
#
# Static dielectric constant tensor:
#      x y z
#    x 3.168490 0.000000 0.000000 
#    y 0.000000 2.352390 0.000000 
#    z 0.000000 0.000000 2.974570 
# 
# 
# High freq. dielectric constant tensor:
#      x y z
#    x 1.578030 0.000000 0.000000 
#    y 0.000000 1.488730 0.000000 
#    z 0.000000 0.000000 1.563180 
# 
# From -- ./inp_files/37470.got.cif
#   From: 2010.03.12/outbox.cif.g09.slc.cpg/sg51_19_cif.got.tgz:37470.got - 2010.04.16 13:43:02.
