data_PCOD8207513
_publ_section_title
;
Structure prediction by ZEFSAII (Michael W. Deem and Ramdas Pophale) SiO2 
 PCOD8207513
Probable space group: P M M A
;
_chemical_formula_sum "Si O2"
_cell_formula_units_Z 48
_cell_length_a 14.806357
_cell_length_b 8.989927
_cell_length_c 19.425472
_cell_angle_alpha 90.000000
_cell_angle_beta 90.000000
_cell_angle_gamma 90.000000
_cell_volume 2585.687059
_symmetry_space_group_name_H-M "P M M A"
_symmetry_group_IT_number 51
_symmetry_cell_setting 'orthorhombic'
loop_
_space_group_symop_operation_xyz
x,y,z
1/2-x,-y,z
1/2+x,-y,-z
-x,y,-z
-x,-y,-z
1/2+x,y,-z
1/2-x,y,z
x,-y,z
loop_
_atom_site_type_symbol
_atom_site_label
_atom_site_fract_x
_atom_site_fract_y
_atom_site_fract_z
Si Si1 0.250000 0.177416 0.973908
Si Si2 0.403650 0.166643 0.463837
Si Si3 0.025213 0.676341 0.337623
Si Si4 0.064457 0.324001 0.936136
Si Si5 0.652453 0.668545 0.410387
Si Si6 0.750000 0.675997 0.879067
Si Si7 0.562507 0.324226 0.813818
O O1 0.159866 0.239521 0.937473
O O2 0.250000 0.000000 0.969894
O O3 0.250000 0.231423 0.051729
O O4 0.500000 0.171514 0.500000
O O5 0.403940 0.254244 0.391530
O O6 0.337244 0.242738 0.518202
O O7 0.370787 0.000000 0.448806
O O8 0.037274 0.500000 0.338523
O O9 0.043294 0.742515 0.261789
O O10 0.923970 0.728504 0.358505
O O11 0.083541 0.500000 0.936226
O O12 0.012809 0.268140 0.867617
O O13 0.000000 0.281205 0.000000
O O14 0.750000 0.679496 0.372862
O O15 0.627732 0.500000 0.430365
O O16 0.750000 0.500000 0.896530
O O17 0.837564 0.724818 0.836194
O O18 0.556970 0.500000 0.811056
#
# Coordination Sequence:
#
# PCOD8207513 Si02
#       7
#     4   8   8   8   8   4   8
#     4  12  24  36  54  84 116 145 180 225 278 327
#     4   9  17  30  49  71  95 130 170 206 249 303
#     4   9  17  32  51  75 106 135 167 213 269 319
#     4  10  19  36  61  84 107 142 188 230 267 318
#     4   9  17  30  49  72  99 133 173 217 262 308
#     4  10  18  36  60  80 106 141 184 225 266 327
#     4   9  18  33  57  84 107 138 180 225 272 320
#
# _framework density 18.563731000000001
#
# number of rings (size 3 to 8) (size 9 to 14) (size 15 to 20)
#    0.000    2.500    1.667    1.250    0.000    2.667 
#    3.000    1.667    0.000    0.000    0.000    0.000 
#    0.000    0.000    0.000    0.000    0.000    0.000 
#
# Total GULP energy -595002.342950 kJ/mol
# GULP energy per Si atom -12395.882145 kJ/mol
# Density = 1.852148 g / cm^3
# Si number density = 18.563731 Si / 1000 Ang^3
#
#
#
# Elastic Constant Matrix: (Units=GPa)
#
#
# Indices 1 2 3 4 5 6 
#
# 1 133.9773 35.6065 65.2314 0.0000 0.0000 0.0000
# 2 35.6065 55.9076 34.2365 0.0000 0.0000 0.0000
# 3 65.2314 34.2365 153.3706 0.0000 0.0000 0.0000
# 4 0.0000 0.0000 0.0000 9.9617 0.0000 0.0000
# 5 0.0000 0.0000 0.0000 0.0000 19.6798 0.0000
# 6 0.0000 0.0000 0.0000 0.0000 0.0000 10.4620
#
#
#
# Elastic Compliance Matrix: (Units=1/GPa)
#
#
# Indices 1 2 3 4 5 6 
#
# 1 0.010303 -0.004493 -0.003379 0.000000 0.000000 0.000000
# 2 -0.004493 0.022678 -0.003152 0.000000 0.000000 0.000000
# 3 -0.003379 -0.003152 0.008661 0.000000 0.000000 0.000000
# 4 0.000000 0.000000 0.000000 0.100385 0.000000 0.000000
# 5 0.000000 0.000000 0.000000 0.000000 0.050813 0.000000
# 6 0.000000 0.000000 0.000000 0.000000 0.000000 0.095584
#
#
# Mechanical properties :
#
#
# Convention : Reuss Voigt Hill
#
# Bulk Modulus (GPa) = 51.03288 68.15605 59.59447
# Shear Modulus (GPa) = 15.77274 21.89944 18.83609
#
# Velocity S-wave (km/s) = 2.91804 3.43839 3.18885
# Velocity P-wave (km/s) = 6.23728 7.24967 6.76244
#
# Compressibility (1/GPa) = 0.01959521
#
# Stress axis : x y z
#
# Youngs Moduli (GPa) = 97.05683 44.09603 115.46080
#
# Poissons Ratio (x) = 0.19810 0.39018
# Poissons Ratio (y) = 0.43603 0.36388
# Poissons Ratio (z) = 0.32799 0.13897
#
# Static dielectric constant tensor:
#      x y z
#    x 4.009570 0.000000 0.000000 
#    y 0.000000 3.182260 0.000000 
#    z 0.000000 0.000000 3.593140 
# 
# 
# High freq. dielectric constant tensor:
#      x y z
#    x 1.724720 0.000000 0.000000 
#    y 0.000000 1.691610 0.000000 
#    z 0.000000 0.000000 1.713190 
# 
# From -- ./inp_files/29570.got.cif
#   From: 2010.03.12/outbox.cif.g09.slc.cpg/sg51_15_cif.got.tgz:29570.got - 2010.04.16 13:43:02.
