data_PCOD8207801
_publ_section_title
;
Structure prediction by ZEFSAII (Michael W. Deem and Ramdas Pophale) SiO2 
 PCOD8207801
Probable space group: P M M A
;
_chemical_formula_sum "Si O2"
_cell_formula_units_Z 56
_cell_length_a 9.454183
_cell_length_b 21.533951
_cell_length_c 18.701802
_cell_angle_alpha 90.000000
_cell_angle_beta 90.000000
_cell_angle_gamma 90.000000
_cell_volume 3807.423444
_symmetry_space_group_name_H-M "P M M A"
_symmetry_group_IT_number 51
_symmetry_cell_setting 'orthorhombic'
loop_
_space_group_symop_operation_xyz
x,y,z
1/2-x,-y,z
1/2+x,-y,-z
-x,y,-z
-x,-y,-z
1/2+x,y,-z
1/2-x,y,z
x,-y,z
loop_
_atom_site_type_symbol
_atom_site_label
_atom_site_fract_x
_atom_site_fract_y
_atom_site_fract_z
Si Si1 0.085919 0.364835 0.572528
Si Si2 0.914435 0.685271 0.280574
Si Si3 0.590051 0.000000 0.930404
Si Si4 0.909566 0.500000 0.430959
Si Si5 0.413503 0.365402 0.071887
Si Si6 0.411899 0.569837 0.815320
Si Si7 0.088634 0.753688 0.170023
Si Si8 0.915422 0.865301 0.926093
O O1 0.250000 0.356354 0.552955
O O2 0.041658 0.317302 0.635570
O O3 0.059175 0.434046 0.607600
O O4 0.000000 0.351765 0.500000
O O5 0.750000 0.700557 0.272153
O O6 0.951090 0.618334 0.246601
O O7 0.999661 0.740105 0.241623
O O8 0.559894 0.065704 0.890422
O O9 0.750000 0.000000 0.957134
O O10 0.500000 0.000000 0.000000
O O11 0.750000 0.500000 0.457466
O O12 0.000000 0.500000 0.500000
O O13 0.250000 0.381818 0.056411
O O14 0.484408 0.420517 0.117447
O O15 0.428888 0.301249 0.113720
O O16 0.500000 0.357245 0.000000
O O17 0.250000 0.579557 0.840768
O O18 0.433854 0.500000 0.785436
O O19 0.250000 0.762042 0.194257
O O20 0.030024 0.816081 0.132426
O O21 0.750000 0.853178 0.942841
O O22 0.000000 0.857307 0.000000
#
# Coordination Sequence:
#
# PCOD8207801 Si02
#       8
#     8   8   4   4   8   8   8   8
#     4   9  17  28  43  62  82 103 127 157 194 237
#     4   9  18  30  44  61  79 101 131 164 196 235
#     4   8  14  24  38  58  84 110 137 168 199 232
#     4   8  14  24  38  56  78  98 119 148 185 230
#     4  10  19  30  43  57  74  95 124 163 201 238
#     4   9  18  31  45  58  72  94 124 158 200 243
#     4   9  18  30  42  58  80 106 134 164 199 235
#     4   9  16  26  41  61  84 111 141 171 202 234
#
# _framework density 14.708107999999999
#
# number of rings (size 3 to 8) (size 9 to 14) (size 15 to 20)
#    0.000    3.000    0.000    0.857    1.000    2.286 
#    0.000    0.000    0.000    0.000    0.000    0.000 
#    0.000    0.000    0.000    0.643    0.000    6.714 
#
# Total GULP energy -693751.641235 kJ/mol
# GULP energy per Si atom -12388.422165 kJ/mol
# Density = 1.467463 g / cm^3
# Si number density = 14.708108 Si / 1000 Ang^3
#
#
#
# Elastic Constant Matrix: (Units=GPa)
#
#
# Indices 1 2 3 4 5 6 
#
# 1 57.2083 28.6681 42.5101 0.0000 0.0000 0.0000
# 2 28.6681 90.2940 40.0188 0.0000 0.0000 0.0000
# 3 42.5101 40.0188 87.7198 0.0000 0.0000 0.0000
# 4 0.0000 0.0000 0.0000 14.5901 0.0000 0.0000
# 5 0.0000 0.0000 0.0000 0.0000 22.4000 0.0000
# 6 0.0000 0.0000 0.0000 0.0000 0.0000 16.2452
#
#
#
# Elastic Compliance Matrix: (Units=1/GPa)
#
#
# Indices 1 2 3 4 5 6 
#
# 1 0.028238 -0.003636 -0.012026 0.000000 0.000000 0.000000
# 2 -0.003636 0.014350 -0.004785 0.000000 0.000000 0.000000
# 3 -0.012026 -0.004785 0.019411 0.000000 0.000000 0.000000
# 4 0.000000 0.000000 0.000000 0.068540 0.000000 0.000000
# 5 0.000000 0.000000 0.000000 0.000000 0.044643 0.000000
# 6 0.000000 0.000000 0.000000 0.000000 0.000000 0.061556
#
#
# Mechanical properties :
#
#
# Convention : Reuss Voigt Hill
#
# Bulk Modulus (GPa) = 47.37954 50.84624 49.11289
# Shear Modulus (GPa) = 17.56448 18.91540 18.23994
#
# Velocity S-wave (km/s) = 3.45947 3.59005 3.52537
# Velocity P-wave (km/s) = 6.94553 7.19929 7.07355
#
# Compressibility (1/GPa) = 0.02110616
#
# Stress axis : x y z
#
# Youngs Moduli (GPa) = 35.41329 69.68718 51.51800
#
# Poissons Ratio (x) = 0.25335 0.61955
# Poissons Ratio (y) = 0.12875 0.24650
# Poissons Ratio (z) = 0.42588 0.33344
#
# Static dielectric constant tensor:
#      x y z
#    x 2.925570 0.000000 0.000000 
#    y 0.000000 2.976800 0.000000 
#    z 0.000000 0.000000 2.595160 
# 
# 
# High freq. dielectric constant tensor:
#      x y z
#    x 1.568130 0.000000 0.000000 
#    y 0.000000 1.542860 0.000000 
#    z 0.000000 0.000000 1.534360 
# 
# From -- ./inp_files/32532.got.cif
#   From: 2010.03.12/outbox.cif.g09.slc.cpg/sg51_17_cif.got.tgz:32532.got - 2010.04.16 13:43:02.
