data_PCOD8207865
_publ_section_title
;
Structure prediction by ZEFSAII (Michael W. Deem and Ramdas Pophale) SiO2 
 PCOD8207865
Probable space group: P M M A
;
_chemical_formula_sum "Si O2"
_cell_formula_units_Z 56
_cell_length_a 9.383704
_cell_length_b 21.557828
_cell_length_c 18.210249
_cell_angle_alpha 90.000000
_cell_angle_beta 90.000000
_cell_angle_gamma 90.000000
_cell_volume 3683.792732
_symmetry_space_group_name_H-M "P M M A"
_symmetry_group_IT_number 51
_symmetry_cell_setting 'orthorhombic'
loop_
_space_group_symop_operation_xyz
x,y,z
1/2-x,-y,z
1/2+x,-y,-z
-x,y,-z
-x,-y,-z
1/2+x,y,-z
1/2-x,y,z
x,-y,z
loop_
_atom_site_type_symbol
_atom_site_label
_atom_site_fract_x
_atom_site_fract_y
_atom_site_fract_z
Si Si1 0.406455 0.125870 0.787495
Si Si2 0.418527 0.315305 0.834788
Si Si3 0.418330 0.198974 0.925732
Si Si4 0.585675 0.930990 0.669250
Si Si5 0.909576 0.749394 0.305155
Si Si6 0.919437 0.813269 0.576040
Si Si7 0.583566 0.430012 0.073399
O O1 0.250000 0.095284 0.788728
O O2 0.455325 0.142498 0.870094
O O3 0.510504 0.077713 0.747851
O O4 0.400774 0.189118 0.742550
O O5 0.250000 0.307810 0.833013
O O6 0.477150 0.263631 0.891510
O O7 0.469876 0.303992 0.750424
O O8 0.466157 0.383519 0.861966
O O9 0.250000 0.202670 0.940774
O O10 0.500000 0.184427 0.000000
O O11 0.750000 0.921897 0.686384
O O12 0.537574 0.880605 0.608866
O O13 0.551632 0.000000 0.638722
O O14 0.750000 0.733543 0.335398
O O15 0.021022 0.758522 0.371553
O O16 0.750000 0.805718 0.566048
O O17 0.000000 0.806700 0.500000
O O18 0.750000 0.421788 0.056094
O O19 0.548179 0.500000 0.099162
O O20 0.500000 0.412599 0.000000
#
# Coordination Sequence:
#
# PCOD8207865 Si02
#       7
#     8   8   8   8   8   8   8
#     4   8  15  27  41  57  76  99 128 162 199 238
#     4   8  14  25  40  57  79 108 140 172 203 237
#     4   9  16  25  38  57  79 101 129 166 206 244
#     4   9  18  31  45  61  80 102 129 159 188 222
#     4   8  14  27  44  58  76 104 135 165 199 236
#     4  10  19  30  44  63  87 109 128 153 188 231
#     4   9  16  25  37  55  82 116 150 179 206 237
#
# _framework density 15.201724
#
# number of rings (size 3 to 8) (size 9 to 14) (size 15 to 20)
#    0.000    3.286    0.000    2.571    0.000    1.714 
#    0.000    2.857    0.000    0.429    0.000    0.000 
#    0.000    0.571    0.000    1.000    0.000    1.429 
#
# Total GULP energy -693954.209716 kJ/mol
# GULP energy per Si atom -12392.039459 kJ/mol
# Density = 1.516712 g / cm^3
# Si number density = 15.201724 Si / 1000 Ang^3
#
#
#
# Elastic Constant Matrix: (Units=GPa)
#
#
# Indices 1 2 3 4 5 6 
#
# 1 49.8390 25.0266 49.4876 0.0000 0.0000 0.0000
# 2 25.0266 60.8243 47.8386 0.0000 0.0000 0.0000
# 3 49.4876 47.8386 121.8473 0.0000 0.0000 0.0000
# 4 0.0000 0.0000 0.0000 19.4621 0.0000 0.0000
# 5 0.0000 0.0000 0.0000 0.0000 26.9453 0.0000
# 6 0.0000 0.0000 0.0000 0.0000 0.0000 14.1614
#
#
#
# Elastic Compliance Matrix: (Units=1/GPa)
#
#
# Indices 1 2 3 4 5 6 
#
# 1 0.034489 -0.004592 -0.012205 0.000000 0.000000 0.000000
# 2 -0.004592 0.024397 -0.007714 0.000000 0.000000 0.000000
# 3 -0.012205 -0.007714 0.016192 0.000000 0.000000 0.000000
# 4 0.000000 0.000000 0.000000 0.051382 0.000000 0.000000
# 5 0.000000 0.000000 0.000000 0.000000 0.037112 0.000000
# 6 0.000000 0.000000 0.000000 0.000000 0.000000 0.070615
#
#
# Mechanical properties :
#
#
# Convention : Reuss Voigt Hill
#
# Bulk Modulus (GPa) = 38.37573 53.02404 45.69988
# Shear Modulus (GPa) = 17.12955 19.45760 18.29357
#
# Velocity S-wave (km/s) = 3.36045 3.58153 3.47275
# Velocity P-wave (km/s) = 6.35263 7.21521 6.79762
#
# Compressibility (1/GPa) = 0.02605814
#
# Stress axis : x y z
#
# Youngs Moduli (GPa) = 28.99470 40.98887 61.75758
#
# Poissons Ratio (x) = 0.18821 0.75374
# Poissons Ratio (y) = 0.13313 0.47637
# Poissons Ratio (z) = 0.35387 0.31617
#
# Static dielectric constant tensor:
#      x y z
#    x 2.946100 0.000000 0.000000 
#    y 0.000000 2.955780 0.000000 
#    z 0.000000 0.000000 3.007400 
# 
# 
# High freq. dielectric constant tensor:
#      x y z
#    x 1.573270 0.000000 0.000000 
#    y 0.000000 1.553570 0.000000 
#    z 0.000000 0.000000 1.571790 
# 
# From -- ./inp_files/28526.got.cif
#   From: 2010.03.12/outbox.cif.g09.slc.cpg/sg51_15_cif.got.tgz:28526.got - 2010.04.16 13:43:02.
