data_PCOD8207363
_publ_section_title
;
Structure prediction by ZEFSAII (Michael W. Deem and Ramdas Pophale) SiO2 
 PCOD8207363
Probable space group: P M M A
;
_chemical_formula_sum "Si O2"
_cell_formula_units_Z 64
_cell_length_a 24.693637
_cell_length_b 9.113277
_cell_length_c 15.100233
_cell_angle_alpha 90.000000
_cell_angle_beta 90.000000
_cell_angle_gamma 90.000000
_cell_volume 3398.155741
_symmetry_space_group_name_H-M "P M M A"
_symmetry_group_IT_number 51
_symmetry_cell_setting 'orthorhombic'
loop_
_space_group_symop_operation_xyz
x,y,z
1/2-x,-y,z
1/2+x,-y,-z
-x,y,-z
-x,-y,-z
1/2+x,y,-z
1/2-x,y,z
x,-y,z
loop_
_atom_site_type_symbol
_atom_site_label
_atom_site_fract_x
_atom_site_fract_y
_atom_site_fract_z
Si Si1 0.959726 0.657642 0.576619
Si Si2 0.142513 0.328639 0.534232
Si Si3 0.810049 0.174227 0.938742
Si Si4 0.881030 0.826066 0.779559
Si Si5 0.889949 0.674095 0.270301
Si Si6 0.500845 0.828939 0.733499
Si Si7 0.186233 0.831966 0.862841
Si Si8 0.810756 0.167866 0.615602
O O1 0.951881 0.500000 0.628361
O O2 0.905206 0.712865 0.532586
O O3 0.000000 0.619111 0.500000
O O4 0.984778 0.788559 0.633258
O O5 0.155405 0.500000 0.541063
O O6 0.128558 0.268344 0.632398
O O7 0.190485 0.247390 0.481299
O O8 0.750000 0.238031 0.920318
O O9 0.851395 0.240123 0.866248
O O10 0.807616 0.000000 0.932529
O O11 0.829293 0.217252 0.037482
O O12 0.852573 0.764417 0.689516
O O13 0.944724 0.783386 0.787751
O O14 0.874254 0.000000 0.778032
O O15 0.896457 0.500000 0.271084
O O16 0.947246 0.741123 0.237747
O O17 0.843887 0.722349 0.202699
O O18 0.488070 0.000000 0.742621
O O19 0.250000 0.815311 0.847181
O O20 0.168232 0.000000 0.845162
O O21 0.750000 0.182039 0.654951
O O22 0.826297 0.000000 0.597984
#
# Coordination Sequence:
#
# PCOD8207363 Si02
#       8
#     8   8   8   8   8   8   8   8
#     4  10  18  33  52  70  98 138 183 223 261 310
#     4  10  21  35  51  70  98 139 183 219 255 310
#     4   8  14  29  56  84 108 136 171 214 265 321
#     4   9  17  30  50  80 112 141 173 210 262 324
#     4  11  23  39  56  76 105 146 187 221 264 322
#     4  11  21  32  51  81 112 140 177 225 268 311
#     4   9  19  37  61  87 108 129 169 225 275 315
#     4  10  20  33  50  76 110 142 175 220 270 317
#
# _framework density 18.833745
#
# number of rings (size 3 to 8) (size 9 to 14) (size 15 to 20)
#    0.000    2.250    2.500    1.875    0.000    3.750 
#    0.000    3.125    0.000    6.000    0.000    1.750 
#    0.000    0.000    0.000    0.000    0.000    0.000 
#
# Total GULP energy -792986.654994 kJ/mol
# GULP energy per Si atom -12390.416484 kJ/mol
# Density = 1.879088 g / cm^3
# Si number density = 18.833745 Si / 1000 Ang^3
#
#
#
# Elastic Constant Matrix: (Units=GPa)
#
#
# Indices 1 2 3 4 5 6 
#
# 1 88.4329 32.2892 53.7097 0.0000 0.0000 0.0000
# 2 32.2892 44.9002 32.7341 0.0000 0.0000 0.0000
# 3 53.7097 32.7341 104.9665 0.0000 0.0000 0.0000
# 4 0.0000 0.0000 0.0000 13.1735 0.0000 0.0000
# 5 0.0000 0.0000 0.0000 0.0000 28.4633 0.0000
# 6 0.0000 0.0000 0.0000 0.0000 0.0000 22.2473
#
#
#
# Elastic Compliance Matrix: (Units=1/GPa)
#
#
# Indices 1 2 3 4 5 6 
#
# 1 0.018522 -0.008297 -0.006890 0.000000 0.000000 0.000000
# 2 -0.008297 0.032541 -0.005903 0.000000 0.000000 0.000000
# 3 -0.006890 -0.005903 0.014893 0.000000 0.000000 0.000000
# 4 0.000000 0.000000 0.000000 0.075910 0.000000 0.000000
# 5 0.000000 0.000000 0.000000 0.000000 0.035133 0.000000
# 6 0.000000 0.000000 0.000000 0.000000 0.000000 0.044949
#
#
# Mechanical properties :
#
#
# Convention : Reuss Voigt Hill
#
# Bulk Modulus (GPa) = 42.05661 52.86283 47.45972
# Shear Modulus (GPa) = 18.37870 20.74792 19.56331
#
# Velocity S-wave (km/s) = 3.12723 3.32269 3.22644
# Velocity P-wave (km/s) = 5.95133 6.54595 6.25571
#
# Compressibility (1/GPa) = 0.02377747
#
# Stress axis : x y z
#
# Youngs Moduli (GPa) = 53.98974 30.73009 67.14462
#
# Poissons Ratio (x) = 0.25496 0.46263
# Poissons Ratio (y) = 0.44793 0.39635
# Poissons Ratio (z) = 0.37200 0.18140
#
# Static dielectric constant tensor:
#      x y z
#    x 3.642020 0.000000 0.000000 
#    y 0.000000 3.216950 0.000000 
#    z 0.000000 0.000000 3.475530 
# 
# 
# High freq. dielectric constant tensor:
#      x y z
#    x 1.738860 0.000000 0.000000 
#    y 0.000000 1.702880 0.000000 
#    z 0.000000 0.000000 1.717670 
# 
# From -- ./inp_files/26363.got.cif
#   From: 2010.03.12/outbox.cif.g09.slc.cpg/sg51_14_cif.got.tgz:26363.got - 2010.04.16 13:43:02.
