data_PCOD8207222
_publ_section_title
;
Structure prediction by ZEFSAII (Michael W. Deem and Ramdas Pophale) SiO2 
 PCOD8207222
Probable space group: P M M A
;
_chemical_formula_sum "Si O2"
_cell_formula_units_Z 32
_cell_length_a 8.569378
_cell_length_b 15.576673
_cell_length_c 14.333176
_cell_angle_alpha 90.000000
_cell_angle_beta 90.000000
_cell_angle_gamma 90.000000
_cell_volume 1913.226717
_symmetry_space_group_name_H-M "P M M A"
_symmetry_group_IT_number 51
_symmetry_cell_setting 'orthorhombic'
loop_
_space_group_symop_operation_xyz
x,y,z
1/2-x,-y,z
1/2+x,-y,-z
-x,y,-z
-x,-y,-z
1/2+x,y,-z
1/2-x,y,z
x,-y,z
loop_
_atom_site_type_symbol
_atom_site_label
_atom_site_fract_x
_atom_site_fract_y
_atom_site_fract_z
Si Si1 0.434842 0.835794 0.708158
Si Si2 0.435750 0.000000 0.396764
Si Si3 0.434133 0.324688 0.396721
Si Si4 0.066637 0.903510 0.904749
Si Si5 0.565035 0.500000 0.396329
O O1 0.250000 0.830347 0.693313
O O2 0.516469 0.750664 0.671777
O O3 0.481507 0.845251 0.816838
O O4 0.499870 0.916481 0.653299
O O5 0.500000 0.000000 0.500000
O O6 0.250000 0.000000 0.396497
O O7 0.500000 0.307618 0.500000
O O8 0.250000 0.330648 0.404626
O O9 0.500482 0.412565 0.350054
O O10 0.250000 0.908209 0.913136
O O11 0.998585 0.000000 0.890989
O O12 0.000000 0.862141 0.000000
O O13 0.750000 0.500000 0.394230
O O14 0.500000 0.500000 0.500000
#
# Coordination Sequence:
#
# PCOD8207222 Si02
#       5
#     8   4   8   8   4
#     4  11  21  36  52  72 101 134 170 208 250 298
#     4  12  24  36  49  68  97 136 173 208 246 294
#     4  11  21  34  51  75 103 135 171 210 251 297
#     4   9  18  33  52  73  97 128 164 209 255 296
#     4  10  18  32  52  74  99 132 167 208 254 296
#
# _framework density 16.725670000000001
#
# number of rings (size 3 to 8) (size 9 to 14) (size 15 to 20)
#    0.000    1.500    1.250    7.500    0.000    2.000 
#    0.000    0.000    0.000    0.000    0.000    0.875 
#    0.000    0.000    0.000    0.000    0.000    0.000 
#
# Total GULP energy -396772.657516 kJ/mol
# GULP energy per Si atom -12399.145547 kJ/mol
# Density = 1.668760 g / cm^3
# Si number density = 16.725670 Si / 1000 Ang^3
#
#
#
# Elastic Constant Matrix: (Units=GPa)
#
#
# Indices 1 2 3 4 5 6 
#
# 1 117.0205 48.4467 43.4656 0.0000 0.0000 0.0000
# 2 48.4467 141.4672 60.5177 0.0000 0.0000 0.0000
# 3 43.4656 60.5177 113.8994 0.0000 0.0000 0.0000
# 4 0.0000 0.0000 0.0000 141.4269 0.0000 0.0000
# 5 0.0000 0.0000 0.0000 0.0000 27.2737 0.0000
# 6 0.0000 0.0000 0.0000 0.0000 0.0000 31.5059
#
#
#
# Elastic Compliance Matrix: (Units=1/GPa)
#
#
# Indices 1 2 3 4 5 6 
#
# 1 0.010576 -0.002453 -0.002733 0.000000 0.000000 0.000000
# 2 -0.002453 0.009717 -0.004227 0.000000 0.000000 0.000000
# 3 -0.002733 -0.004227 0.012068 0.000000 0.000000 0.000000
# 4 0.000000 0.000000 0.000000 0.007071 0.000000 0.000000
# 5 0.000000 0.000000 0.000000 0.000000 0.036665 0.000000
# 6 0.000000 0.000000 0.000000 0.000000 0.000000 0.031740
#
#
# Mechanical properties :
#
#
# Convention : Reuss Voigt Hill
#
# Bulk Modulus (GPa) = 73.87397 75.24969 74.56183
# Shear Modulus (GPa) = 38.11716 54.70509 46.41113
#
# Velocity S-wave (km/s) = 4.77903 5.72523 5.27339
# Velocity P-wave (km/s) = 8.64384 9.42298 9.04181
#
# Compressibility (1/GPa) = 0.01353657
#
# Stress axis : x y z
#
# Youngs Moduli (GPa) = 94.55358 102.91290 82.86145
#
# Poissons Ratio (x) = 0.25243 0.22643
# Poissons Ratio (y) = 0.23193 0.35024
# Poissons Ratio (z) = 0.25839 0.43500
#
# Static dielectric constant tensor:
#      x y z
#    x 3.290580 0.000000 0.000000 
#    y 0.000000 3.403800 0.000000 
#    z 0.000000 0.000000 3.175450 
# 
# 
# High freq. dielectric constant tensor:
#      x y z
#    x 1.663190 0.000000 0.000000 
#    y 0.000000 1.639610 0.000000 
#    z 0.000000 0.000000 1.624450 
# 
# From -- ./inp_files/13817.got.cif
#   From: 2010.03.12/outbox.cif.g09.slc.cpg/sg51_7_cif.got.tgz:13817.got - 2010.04.16 13:43:02.
