data_PCOD8207168
_publ_section_title
;
Structure prediction by ZEFSAII (Michael W. Deem and Ramdas Pophale) SiO2 
 PCOD8207168
Probable space group: P M M A
;
_chemical_formula_sum "Si O2"
_cell_formula_units_Z 44
_cell_length_a 9.491975
_cell_length_b 7.682646
_cell_length_c 33.187070
_cell_angle_alpha 90.000000
_cell_angle_beta 90.000000
_cell_angle_gamma 90.000000
_cell_volume 2420.116760
_symmetry_space_group_name_H-M "P M M A"
_symmetry_group_IT_number 51
_symmetry_cell_setting 'orthorhombic'
loop_
_space_group_symop_operation_xyz
x,y,z
1/2-x,-y,z
1/2+x,-y,-z
-x,y,-z
-x,-y,-z
1/2+x,y,-z
1/2-x,y,z
x,-y,z
loop_
_atom_site_type_symbol
_atom_site_label
_atom_site_fract_x
_atom_site_fract_y
_atom_site_fract_z
Si Si1 0.589986 0.693963 0.599167
Si Si2 0.915952 0.000000 0.541046
Si Si3 0.588014 0.796059 0.326516
Si Si4 0.581999 0.000000 0.181822
Si Si5 0.416844 0.305803 0.761010
Si Si6 0.085981 0.000000 0.099985
Si Si7 0.912761 0.302065 0.960837
O O1 0.750000 0.740840 0.611164
O O2 0.579094 0.500000 0.580681
O O3 0.536084 0.829715 0.565848
O O4 0.498010 0.698477 0.639290
O O5 0.000000 0.000000 0.500000
O O6 0.750000 0.000000 0.531774
O O7 0.750000 0.737560 0.330127
O O8 0.524423 0.740950 0.283233
O O9 0.570653 0.000000 0.332418
O O10 0.527344 0.830092 0.205908
O O11 0.510205 0.000000 0.138866
O O12 0.750000 0.000000 0.176381
O O13 0.250000 0.289362 0.758995
O O14 0.465462 0.500000 0.773445
O O15 0.046347 0.173061 0.075154
O O16 0.250000 0.000000 0.112093
O O17 0.750000 0.280587 0.972467
O O18 0.947496 0.500000 0.947315
O O19 0.000000 0.248163 0.000000
#
# Coordination Sequence:
#
# PCOD8207168 Si02
#       7
#     8   4   8   4   8   4   8
#     4  10  21  37  56  79 108 140 171 207 258 312
#     4  10  22  39  56  76 104 138 174 213 254 301
#     4  10  18  31  55  83 108 135 170 213 261 309
#     4  10  20  34  50  71  97 132 178 214 242 290
#     4   9  17  31  51  74 102 133 166 211 259 294
#     4  10  21  35  50  71 102 136 165 201 253 299
#     4   9  18  33  53  76 101 128 160 201 250 302
#
# _framework density 18.180942000000002
#
# number of rings (size 3 to 8) (size 9 to 14) (size 15 to 20)
#    0.000    2.364    1.818    0.818    0.000    3.636 
#    0.000    0.909    0.000    1.091    0.000    0.000 
#    0.000    0.000    0.000    0.000    0.000    0.000 
#
# Total GULP energy -545627.714662 kJ/mol
# GULP energy per Si atom -12400.629879 kJ/mol
# Density = 1.813956 g / cm^3
# Si number density = 18.180942 Si / 1000 Ang^3
#
#
#
# Elastic Constant Matrix: (Units=GPa)
#
#
# Indices 1 2 3 4 5 6 
#
# 1 45.4166 37.0884 54.8769 0.0000 0.0000 0.0000
# 2 37.0884 136.7069 79.0522 0.0000 0.0000 0.0000
# 3 54.8769 79.0522 153.5551 0.0000 0.0000 0.0000
# 4 0.0000 0.0000 0.0000 17.0993 0.0000 0.0000
# 5 0.0000 0.0000 0.0000 0.0000 31.9785 0.0000
# 6 0.0000 0.0000 0.0000 0.0000 0.0000 15.8407
#
#
#
# Elastic Compliance Matrix: (Units=1/GPa)
#
#
# Indices 1 2 3 4 5 6 
#
# 1 0.040014 -0.003683 -0.012404 0.000000 0.000000 0.000000
# 2 -0.003683 0.010755 -0.004220 0.000000 0.000000 0.000000
# 3 -0.012404 -0.004220 0.013118 0.000000 0.000000 0.000000
# 4 0.000000 0.000000 0.000000 0.058482 0.000000 0.000000
# 5 0.000000 0.000000 0.000000 0.000000 0.031271 0.000000
# 6 0.000000 0.000000 0.000000 0.000000 0.000000 0.063129
#
#
# Mechanical properties :
#
#
# Convention : Reuss Voigt Hill
#
# Bulk Modulus (GPa) = 42.97088 75.30153 59.13620
# Shear Modulus (GPa) = 18.85803 23.96112 21.40957
#
# Velocity S-wave (km/s) = 3.22412 3.63426 3.43532
# Velocity P-wave (km/s) = 6.12751 7.68884 6.95214
#
# Compressibility (1/GPa) = 0.02327158
#
# Stress axis : x y z
#
# Youngs Moduli (GPa) = 24.99154 92.98346 76.23192
#
# Poissons Ratio (x) = 0.34246 0.94557
# Poissons Ratio (y) = 0.09204 0.32173
# Poissons Ratio (z) = 0.30999 0.39243
#
# Static dielectric constant tensor:
#      x y z
#    x 3.114380 0.000000 0.000000 
#    y 0.000000 3.684330 0.000000 
#    z 0.000000 0.000000 3.216520 
# 
# 
# High freq. dielectric constant tensor:
#      x y z
#    x 1.677180 0.000000 0.000000 
#    y 0.000000 1.726120 0.000000 
#    z 0.000000 0.000000 1.695750 
# 
# From -- ./inp_files/36842.got.cif
#   From: 2010.03.12/outbox.cif.g09.slc.cpg/sg51_19_cif.got.tgz:36842.got - 2010.04.16 13:43:02.
