data_PCOD8207037
_publ_section_title
;
Structure prediction by ZEFSAII (Michael W. Deem and Ramdas Pophale) SiO2 
 PCOD8207037
Probable space group: P M M A
;
_chemical_formula_sum "Si O2"
_cell_formula_units_Z 56
_cell_length_a 19.832216
_cell_length_b 9.106808
_cell_length_c 17.668626
_cell_angle_alpha 90.000000
_cell_angle_beta 90.000000
_cell_angle_gamma 90.000000
_cell_volume 3191.098444
_symmetry_space_group_name_H-M "P M M A"
_symmetry_group_IT_number 51
_symmetry_cell_setting 'orthorhombic'
loop_
_space_group_symop_operation_xyz
x,y,z
1/2-x,-y,z
1/2+x,-y,-z
-x,y,-z
-x,-y,-z
1/2+x,y,-z
1/2-x,y,z
x,-y,z
loop_
_atom_site_type_symbol
_atom_site_label
_atom_site_fract_x
_atom_site_fract_y
_atom_site_fract_z
Si Si1 0.420176 0.665901 0.511382
Si Si2 0.063102 0.835005 0.656613
Si Si3 0.387166 0.672301 0.216109
Si Si4 0.072666 0.669841 0.970683
Si Si5 0.172456 0.168156 0.077247
Si Si6 0.096285 0.166231 0.365426
Si Si7 0.042162 0.332618 0.800973
O O1 0.500000 0.667338 0.500000
O O2 0.392628 0.500000 0.512219
O O3 0.400666 0.742663 0.590567
O O4 0.383961 0.753897 0.443605
O O5 0.079559 0.766108 0.738462
O O6 0.983605 0.832062 0.643917
O O7 0.091401 0.000000 0.654384
O O8 0.373467 0.500000 0.222909
O O9 0.338560 0.740512 0.153580
O O10 0.369716 0.746428 0.296380
O O11 0.463479 0.707636 0.190853
O O12 0.083752 0.500000 0.993428
O O13 0.078181 0.693656 0.880843
O O14 0.129983 0.767504 0.008020
O O15 0.000000 0.722669 0.000000
O O16 0.250000 0.180797 0.053476
O O17 0.151056 0.000000 0.091529
O O18 0.123875 0.000000 0.367078
O O19 0.048692 0.500000 0.773756
#
# Coordination Sequence:
#
# PCOD8207037 Si02
#       7
#     8   8   8   8   8   8   8
#     4   9  15  23  35  53  81 120 160 194 234 281
#     4   9  16  24  36  57  87 121 156 193 237 287
#     4  10  18  31  49  68  92 124 163 203 244 293
#     4  10  19  35  55  76  98 126 166 211 255 305
#     4  11  24  38  51  72 102 133 166 207 255 305
#     4   9  16  25  38  59  87 119 156 196 237 284
#     4   9  17  29  46  68  94 121 156 203 247 294
#
# _framework density 17.548817
#
# number of rings (size 3 to 8) (size 9 to 14) (size 15 to 20)
#    0.000    2.429    1.429    2.143    0.000    7.714 
#    0.000    0.000    0.000    0.000    0.000    0.000 
#    0.000    1.143    0.000    8.286    0.000    8.143 
#
# Total GULP energy -694466.140139 kJ/mol
# GULP energy per Si atom -12401.181074 kJ/mol
# Density = 1.750887 g / cm^3
# Si number density = 17.548817 Si / 1000 Ang^3
#
#
#
# Elastic Constant Matrix: (Units=GPa)
#
#
# Indices 1 2 3 4 5 6 
#
# 1 37.2649 32.5449 30.9283 0.0000 0.0000 0.0000
# 2 32.5449 142.5243 72.8499 0.0000 0.0000 0.0000
# 3 30.9283 72.8499 126.8606 0.0000 0.0000 0.0000
# 4 0.0000 0.0000 0.0000 35.4576 0.0000 0.0000
# 5 0.0000 0.0000 0.0000 0.0000 12.5817 0.0000
# 6 0.0000 0.0000 0.0000 0.0000 0.0000 15.5331
#
#
#
# Elastic Compliance Matrix: (Units=1/GPa)
#
#
# Indices 1 2 3 4 5 6 
#
# 1 0.036293 -0.005329 -0.005788 0.000000 0.000000 0.000000
# 2 -0.005329 0.010714 -0.004853 0.000000 0.000000 0.000000
# 3 -0.005788 -0.004853 0.012081 0.000000 0.000000 0.000000
# 4 0.000000 0.000000 0.000000 0.028203 0.000000 0.000000
# 5 0.000000 0.000000 0.000000 0.000000 0.079480 0.000000
# 6 0.000000 0.000000 0.000000 0.000000 0.000000 0.064379
#
#
# Mechanical properties :
#
#
# Convention : Reuss Voigt Hill
#
# Bulk Modulus (GPa) = 36.83642 64.36623 50.60132
# Shear Modulus (GPa) = 18.37303 24.06959 21.22131
#
# Velocity S-wave (km/s) = 3.23920 3.70750 3.48123
# Velocity P-wave (km/s) = 5.91830 7.42196 6.71237
#
# Compressibility (1/GPa) = 0.02714704
#
# Stress axis : x y z
#
# Youngs Moduli (GPa) = 27.55387 93.33668 82.77608
#
# Poissons Ratio (x) = 0.49738 0.47910
# Poissons Ratio (y) = 0.14683 0.40174
# Poissons Ratio (z) = 0.15948 0.45299
#
# Static dielectric constant tensor:
#      x y z
#    x 2.610390 0.000000 0.000000 
#    y 0.000000 3.434710 0.000000 
#    z 0.000000 0.000000 3.409170 
# 
# 
# High freq. dielectric constant tensor:
#      x y z
#    x 1.600140 0.000000 0.000000 
#    y 0.000000 1.693160 0.000000 
#    z 0.000000 0.000000 1.694110 
# 
# From -- ./inp_files/30475.got.cif
#   From: 2010.03.12/outbox.cif.g09.slc.cpg/sg51_16_cif.got.tgz:30475.got - 2010.04.16 13:43:02.
