data_PCOD8207152
_publ_section_title
;
Structure prediction by ZEFSAII (Michael W. Deem and Ramdas Pophale) SiO2 
 PCOD8207152
Probable space group: P M M A
;
_chemical_formula_sum "Si O2"
_cell_formula_units_Z 64
_cell_length_a 8.717170
_cell_length_b 15.213567
_cell_length_c 25.153140
_cell_angle_alpha 90.000000
_cell_angle_beta 90.000000
_cell_angle_gamma 90.000000
_cell_volume 3335.790558
_symmetry_space_group_name_H-M "P M M A"
_symmetry_group_IT_number 51
_symmetry_cell_setting 'orthorhombic'
loop_
_space_group_symop_operation_xyz
x,y,z
1/2-x,-y,z
1/2+x,-y,-z
-x,y,-z
-x,-y,-z
1/2+x,y,-z
1/2-x,y,z
x,-y,z
loop_
_atom_site_type_symbol
_atom_site_label
_atom_site_fract_x
_atom_site_fract_y
_atom_site_fract_z
Si Si1 0.572879 0.646177 0.209574
Si Si2 0.068344 0.765875 0.944584
Si Si3 0.571138 0.823780 0.759058
Si Si4 0.569668 0.100578 0.556538
Si Si5 0.426717 0.597291 0.103917
Si Si6 0.567446 0.215056 0.350503
Si Si7 0.073120 0.406215 0.673112
Si Si8 0.926316 0.901972 0.144398
O O1 0.750000 0.671798 0.199575
O O2 0.473108 0.733803 0.212270
O O3 0.508639 0.590314 0.161019
O O4 0.554100 0.591588 0.263419
O O5 0.250000 0.765185 0.948544
O O6 0.010668 0.832484 0.898809
O O7 0.009756 0.667565 0.933453
O O8 0.000000 0.799704 0.000000
O O9 0.750000 0.829748 0.747055
O O10 0.484922 0.834599 0.702804
O O11 0.520679 0.898778 0.800401
O O12 0.500000 0.126451 0.500000
O O13 0.750000 0.115329 0.554631
O O14 0.496553 0.165028 0.599068
O O15 0.528098 0.000000 0.571133
O O16 0.250000 0.624647 0.111002
O O17 0.440769 0.500000 0.078055
O O18 0.750000 0.215896 0.351572
O O19 0.501004 0.316171 0.350881
O O20 0.250000 0.405906 0.657108
O O21 0.000372 0.500000 0.652353
O O22 0.750000 0.880867 0.157599
O O23 0.945632 0.000000 0.120835
#
# Coordination Sequence:
#
# PCOD8207152 Si02
#       8
#     8   8   8   8   8   8   8   8
#     4  10  18  31  53  80 111 149 189 229 278 334
#     4  11  24  42  64  84 109 144 183 232 285 340
#     4  11  21  34  55  83 118 154 189 231 280 335
#     4  10  21  38  60  85 114 149 192 242 294 347
#     4  11  23  37  56  84 115 146 183 229 280 336
#     4  10  20  34  56  85 118 156 195 237 285 337
#     4   8  15  28  48  77 112 149 189 229 271 324
#     4  10  22  41  63  86 112 145 185 229 281 344
#
# _framework density 19.185856999999999
#
# number of rings (size 3 to 8) (size 9 to 14) (size 15 to 20)
#    0.000    1.875    1.250    4.125    0.000    4.000 
#    0.000    0.000    0.000    7.875    0.000    0.000 
#    0.000    0.000    0.000    0.000    0.000    0.000 
#
# Total GULP energy -793418.636615 kJ/mol
# GULP energy per Si atom -12397.166197 kJ/mol
# Density = 1.914219 g / cm^3
# Si number density = 19.185857 Si / 1000 Ang^3
#
#
#
# Elastic Constant Matrix: (Units=GPa)
#
#
# Indices 1 2 3 4 5 6 
#
# 1 75.8082 38.5365 47.8341 0.0000 0.0000 0.0000
# 2 38.5365 111.9168 65.5080 0.0000 0.0000 0.0000
# 3 47.8341 65.5080 121.2066 0.0000 0.0000 0.0000
# 4 0.0000 0.0000 0.0000 22.4806 0.0000 0.0000
# 5 0.0000 0.0000 0.0000 0.0000 34.5448 0.0000
# 6 0.0000 0.0000 0.0000 0.0000 0.0000 22.1021
#
#
#
# Elastic Compliance Matrix: (Units=1/GPa)
#
#
# Indices 1 2 3 4 5 6 
#
# 1 0.018239 -0.003024 -0.005564 0.000000 0.000000 0.000000
# 2 -0.003024 0.013571 -0.006141 0.000000 0.000000 0.000000
# 3 -0.005564 -0.006141 0.013765 0.000000 0.000000 0.000000
# 4 0.000000 0.000000 0.000000 0.044483 0.000000 0.000000
# 5 0.000000 0.000000 0.000000 0.000000 0.028948 0.000000
# 6 0.000000 0.000000 0.000000 0.000000 0.000000 0.045244
#
#
# Mechanical properties :
#
#
# Convention : Reuss Voigt Hill
#
# Bulk Modulus (GPa) = 62.04374 68.07652 65.06013
# Shear Modulus (GPa) = 25.11544 26.29572 25.70558
#
# Velocity S-wave (km/s) = 3.62202 3.70615 3.66432
# Velocity P-wave (km/s) = 7.06403 7.33987 7.20327
#
# Compressibility (1/GPa) = 0.01611766
#
# Stress axis : x y z
#
# Youngs Moduli (GPa) = 54.82784 73.68618 72.64605
#
# Poissons Ratio (x) = 0.22279 0.40419
# Poissons Ratio (y) = 0.16578 0.44615
# Poissons Ratio (z) = 0.30505 0.45254
#
# Static dielectric constant tensor:
#      x y z
#    x 3.450280 0.000000 0.000000 
#    y 0.000000 3.724600 0.000000 
#    z 0.000000 0.000000 3.396380 
# 
# 
# High freq. dielectric constant tensor:
#      x y z
#    x 1.741400 0.000000 0.000000 
#    y 0.000000 1.752730 0.000000 
#    z 0.000000 0.000000 1.726830 
# 
# From -- ./inp_files/35001.got.cif
#   From: 2010.03.12/outbox.cif.g09.slc.cpg/sg51_18_cif.got.tgz:35001.got - 2010.04.16 13:43:02.
