data_PCOD8207722
_publ_section_title
;
Structure prediction by ZEFSAII (Michael W. Deem and Ramdas Pophale) SiO2 
 PCOD8207722
Probable space group: P M M A
;
_chemical_formula_sum "Si O2"
_cell_formula_units_Z 64
_cell_length_a 8.961138
_cell_length_b 18.352564
_cell_length_c 22.897573
_cell_angle_alpha 90.000000
_cell_angle_beta 90.000000
_cell_angle_gamma 90.000000
_cell_volume 3765.731619
_symmetry_space_group_name_H-M "P M M A"
_symmetry_group_IT_number 51
_symmetry_cell_setting 'orthorhombic'
loop_
_space_group_symop_operation_xyz
x,y,z
1/2-x,-y,z
1/2+x,-y,-z
-x,y,-z
-x,-y,-z
1/2+x,y,-z
1/2-x,y,z
x,-y,z
loop_
_atom_site_type_symbol
_atom_site_label
_atom_site_fract_x
_atom_site_fract_y
_atom_site_fract_z
Si Si1 0.578064 0.917945 0.320803
Si Si2 0.083657 0.581659 0.765521
Si Si3 0.074241 0.583138 0.937610
Si Si4 0.076013 0.314620 0.156617
Si Si5 0.426466 0.122089 0.440327
Si Si6 0.421680 0.211118 0.760089
Si Si7 0.579218 0.710600 0.555599
Si Si8 0.412827 0.667988 0.661986
O O1 0.750000 0.897412 0.334299
O O2 0.488553 0.914630 0.381724
O O3 0.517020 0.864196 0.269358
O O4 0.562827 0.000000 0.296512
O O5 0.250000 0.606810 0.788486
O O6 0.055136 0.500000 0.783965
O O7 0.080888 0.590682 0.695412
O O8 0.949182 0.627928 0.791772
O O9 0.250000 0.595296 0.943266
O O10 0.041629 0.500000 0.913954
O O11 0.008529 0.648642 0.898146
O O12 0.000000 0.592538 0.000000
O O13 0.250000 0.304504 0.142147
O O14 0.010349 0.236816 0.180893
O O15 0.500000 0.089631 0.500000
O O16 0.250000 0.108904 0.443656
O O17 0.471663 0.206402 0.435345
O O18 0.250000 0.201973 0.778809
O O19 0.443758 0.270706 0.710102
O O20 0.500000 0.675113 0.500000
O O21 0.750000 0.703588 0.542868
O O22 0.538003 0.665984 0.613029
O O23 0.250000 0.680848 0.633092
#
# Coordination Sequence:
#
# PCOD8207722 Si02
#       8
#     8   8   8   8   8   8   8   8
#     4  10  20  34  52  71  93 123 158 199 248 300
#     4   9  18  32  48  67  92 123 156 190 234 284
#     4  10  20  34  52  75 107 145 180 211 244 283
#     4  11  21  31  48  73 101 133 170 207 239 273
#     4  10  20  32  47  66  90 120 154 192 237 292
#     4   9  18  33  50  68  93 124 159 197 241 289
#     4  10  19  29  44  64  84 108 141 183 228 278
#     4   9  16  28  47  66  85 112 143 184 233 280
#
# _framework density 16.995370000000001
#
# number of rings (size 3 to 8) (size 9 to 14) (size 15 to 20)
#    0.000    2.250    1.250    3.375    0.000    6.500 
#    0.000    0.000    0.000    0.375    0.000    0.000 
#    0.000    0.500    0.000    1.375    0.000    2.000 
#
# Total GULP energy -792926.763926 kJ/mol
# GULP energy per Si atom -12389.480686 kJ/mol
# Density = 1.695669 g / cm^3
# Si number density = 16.995370 Si / 1000 Ang^3
#
#
#
# Elastic Constant Matrix: (Units=GPa)
#
#
# Indices 1 2 3 4 5 6 
#
# 1 74.9695 26.7645 41.0412 0.0000 0.0000 0.0000
# 2 26.7645 58.5470 44.5603 0.0000 0.0000 0.0000
# 3 41.0412 44.5603 88.4150 0.0000 0.0000 0.0000
# 4 0.0000 0.0000 0.0000 18.5936 0.0000 0.0000
# 5 0.0000 0.0000 0.0000 0.0000 30.3080 0.0000
# 6 0.0000 0.0000 0.0000 0.0000 0.0000 16.0569
#
#
#
# Elastic Compliance Matrix: (Units=1/GPa)
#
#
# Indices 1 2 3 4 5 6 
#
# 1 0.018217 -0.003069 -0.006909 0.000000 0.000000 0.000000
# 2 -0.003069 0.028226 -0.012801 0.000000 0.000000 0.000000
# 3 -0.006909 -0.012801 0.020969 0.000000 0.000000 0.000000
# 4 0.000000 0.000000 0.000000 0.053782 0.000000 0.000000
# 5 0.000000 0.000000 0.000000 0.000000 0.032995 0.000000
# 6 0.000000 0.000000 0.000000 0.000000 0.000000 0.062278
#
#
# Mechanical properties :
#
#
# Convention : Reuss Voigt Hill
#
# Bulk Modulus (GPa) = 45.75966 49.62929 47.69447
# Shear Modulus (GPa) = 18.56591 20.29606 19.43099
#
# Velocity S-wave (km/s) = 3.30875 3.45949 3.38496
# Velocity P-wave (km/s) = 6.44828 6.72476 6.58797
#
# Compressibility (1/GPa) = 0.02185331
#
# Stress axis : x y z
#
# Youngs Moduli (GPa) = 54.89430 35.42793 47.68912
#
# Poissons Ratio (x) = 0.10873 0.32950
# Poissons Ratio (y) = 0.16848 0.61048
# Poissons Ratio (z) = 0.37928 0.45352
#
# Static dielectric constant tensor:
#      x y z
#    x 3.156810 0.000000 0.000000 
#    y 0.000000 3.208090 0.000000 
#    z 0.000000 0.000000 3.200900 
# 
# 
# High freq. dielectric constant tensor:
#      x y z
#    x 1.656680 0.000000 0.000000 
#    y 0.000000 1.627730 0.000000 
#    z 0.000000 0.000000 1.637850 
# 
# From -- ./inp_files/32629.got.cif
#   From: 2010.03.12/outbox.cif.g09.slc.cpg/sg51_17_cif.got.tgz:32629.got - 2010.04.16 13:43:02.
