data_PCOD8207000
_publ_section_title
;
Structure prediction by ZEFSAII (Michael W. Deem and Ramdas Pophale) SiO2 
 PCOD8207000
Probable space group: P M M A
;
_chemical_formula_sum "Si O2"
_cell_formula_units_Z 56
_cell_length_a 21.721614
_cell_length_b 9.087059
_cell_length_c 14.589724
_cell_angle_alpha 90.000000
_cell_angle_beta 90.000000
_cell_angle_gamma 90.000000
_cell_volume 2879.801250
_symmetry_space_group_name_H-M "P M M A"
_symmetry_group_IT_number 51
_symmetry_cell_setting 'orthorhombic'
loop_
_space_group_symop_operation_xyz
x,y,z
1/2-x,-y,z
1/2+x,-y,-z
-x,y,-z
-x,-y,-z
1/2+x,y,-z
1/2-x,y,z
x,-y,z
loop_
_atom_site_type_symbol
_atom_site_label
_atom_site_fract_x
_atom_site_fract_y
_atom_site_fract_z
Si Si1 0.250000 0.670856 0.182428
Si Si2 0.933449 0.164069 0.041872
Si Si3 0.416924 0.327031 0.768871
Si Si4 0.952588 0.328947 0.693443
Si Si5 0.750000 0.841013 0.644710
Si Si6 0.880235 0.675293 0.872609
Si Si7 0.876749 0.834672 0.542237
Si Si8 0.678166 0.175126 0.353704
O O1 0.250000 0.500000 0.167142
O O2 0.250000 0.702544 0.289665
O O3 0.188654 0.736666 0.139241
O O4 0.934632 0.254429 0.135248
O O5 0.905930 0.000000 0.057997
O O6 0.895439 0.255436 0.969020
O O7 0.000000 0.148740 0.000000
O O8 0.406435 0.500000 0.783802
O O9 0.474370 0.298439 0.699962
O O10 0.353872 0.254672 0.732456
O O11 0.937425 0.500000 0.685788
O O12 0.920145 0.266121 0.785941
O O13 0.926076 0.257321 0.600681
O O14 0.809349 0.829809 0.583184
O O15 0.750000 0.000000 0.696519
O O16 0.886409 0.500000 0.878975
O O17 0.864045 0.773551 0.439940
O O18 0.902912 0.000000 0.539066
O O19 0.750000 0.224808 0.361328
O O20 0.675066 0.000000 0.341795
#
# Coordination Sequence:
#
# PCOD8207000 Si02
#       8
#     4   8   8   8   4   8   8   8
#     4  10  20  34  54  83 118 155 194 237 288 350
#     4  11  23  39  63  90 114 149 198 246 297 358
#     4  11  24  42  63  88 119 155 198 246 298 354
#     4  10  21  36  58  89 124 158 192 239 294 349
#     4  10  18  30  52  83 116 153 194 237 286 344
#     4  10  20  36  57  84 120 159 195 238 296 354
#     4  10  20  35  59  88 119 156 197 240 291 349
#     4  10  22  43  66  87 117 158 203 249 296 347
#
# _framework density 19.445786999999999
#
# number of rings (size 3 to 8) (size 9 to 14) (size 15 to 20)
#    0.000    1.714    3.571    0.857    0.000    4.286 
#    1.286    2.857    0.000    0.000    0.000    0.000 
#    0.000    0.000    0.000    0.000    0.000    0.000 
#
# Total GULP energy -694094.611539 kJ/mol
# GULP energy per Si atom -12394.546635 kJ/mol
# Density = 1.940153 g / cm^3
# Si number density = 19.445787 Si / 1000 Ang^3
#
#
#
# Elastic Constant Matrix: (Units=GPa)
#
#
# Indices 1 2 3 4 5 6 
#
# 1 89.5314 38.1024 38.3562 0.0000 0.0000 0.0000
# 2 38.1024 56.1880 41.1793 0.0000 0.0000 0.0000
# 3 38.3562 41.1793 100.3095 0.0000 0.0000 0.0000
# 4 0.0000 0.0000 0.0000 30.9784 0.0000 0.0000
# 5 0.0000 0.0000 0.0000 0.0000 23.3007 0.0000
# 6 0.0000 0.0000 0.0000 0.0000 0.0000 27.0205
#
#
#
# Elastic Compliance Matrix: (Units=1/GPa)
#
#
# Indices 1 2 3 4 5 6 
#
# 1 0.016092 -0.009158 -0.002394 0.000000 0.000000 0.000000
# 2 -0.009158 0.030668 -0.009088 0.000000 0.000000 0.000000
# 3 -0.002394 -0.009088 0.014615 0.000000 0.000000 0.000000
# 4 0.000000 0.000000 0.000000 0.032281 0.000000 0.000000
# 5 0.000000 0.000000 0.000000 0.000000 0.042917 0.000000
# 6 0.000000 0.000000 0.000000 0.000000 0.000000 0.037009
#
#
# Mechanical properties :
#
#
# Convention : Reuss Voigt Hill
#
# Bulk Modulus (GPa) = 49.76157 53.47831 51.61994
# Shear Modulus (GPa) = 22.56711 24.81932 23.69322
#
# Velocity S-wave (km/s) = 3.41033 3.57646 3.49438
# Velocity P-wave (km/s) = 6.41503 6.67950 6.54860
#
# Compressibility (1/GPa) = 0.02009583
#
# Stress axis : x y z
#
# Youngs Moduli (GPa) = 62.14166 32.60687 68.42135
#
# Poissons Ratio (x) = 0.29862 0.16378
# Poissons Ratio (y) = 0.56911 0.62182
# Poissons Ratio (z) = 0.14875 0.29634
#
# Static dielectric constant tensor:
#      x y z
#    x 3.449010 0.000000 0.000000 
#    y 0.000000 3.543700 0.000000 
#    z 0.000000 0.000000 3.631240 
# 
# 
# High freq. dielectric constant tensor:
#      x y z
#    x 1.761910 0.000000 0.000000 
#    y 0.000000 1.749840 0.000000 
#    z 0.000000 0.000000 1.755010 
# 
# From -- ./inp_files/25842.got.cif
#   From: 2010.03.12/outbox.cif.g09.slc.cpg/sg51_13_cif.got.tgz:25842.got - 2010.04.16 13:43:02.
