data_PCOD8207388
_publ_section_title
;
Structure prediction by ZEFSAII (Michael W. Deem and Ramdas Pophale) SiO2 
 PCOD8207388
Probable space group: P M M A
;
_chemical_formula_sum "Si O2"
_cell_formula_units_Z 64
_cell_length_a 17.835135
_cell_length_b 15.114974
_cell_length_c 13.303158
_cell_angle_alpha 90.000000
_cell_angle_beta 90.000000
_cell_angle_gamma 90.000000
_cell_volume 3586.233430
_symmetry_space_group_name_H-M "P M M A"
_symmetry_group_IT_number 51
_symmetry_cell_setting 'orthorhombic'
loop_
_space_group_symop_operation_xyz
x,y,z
1/2-x,-y,z
1/2+x,-y,-z
-x,y,-z
-x,-y,-z
1/2+x,y,-z
1/2-x,y,z
x,-y,z
loop_
_atom_site_type_symbol
_atom_site_label
_atom_site_fract_x
_atom_site_fract_y
_atom_site_fract_z
Si Si1 0.662183 0.270184 0.400030
Si Si2 0.027435 0.316040 0.890454
Si Si3 0.060645 0.722107 0.423318
Si Si4 0.833362 0.900991 0.898200
Si Si5 0.665061 0.202889 0.093409
Si Si6 0.542770 0.835616 0.764867
Si Si7 0.543875 0.600247 0.309904
Si Si8 0.883114 0.898593 0.283703
O O1 0.750000 0.290176 0.387072
O O2 0.638019 0.291271 0.515275
O O3 0.614792 0.334612 0.326855
O O4 0.643704 0.168045 0.372043
O O5 0.114630 0.289327 0.892636
O O6 0.019598 0.393537 0.807425
O O7 0.979869 0.231895 0.853287
O O8 0.000000 0.348989 0.000000
O O9 0.076378 0.786555 0.331492
O O10 0.000000 0.764920 0.500000
O O11 0.025562 0.630179 0.380847
O O12 0.750000 0.873105 0.861691
O O13 0.890344 0.895767 0.805467
O O14 0.832615 0.000000 0.939750
O O15 0.860667 0.840947 0.989604
O O16 0.750000 0.236554 0.089453
O O17 0.657387 0.130945 0.181620
O O18 0.472561 0.894573 0.731463
O O19 0.565302 0.500000 0.336730
O O20 0.860843 0.000000 0.310460
#
# Coordination Sequence:
#
# PCOD8207388 Si02
#       8
#     8   8   8   8   8   8   8   8
#     4  11  22  37  57  84 114 141 181 231 276 325
#     4  10  18  33  55  82 110 138 180 221 260 326
#     4   9  18  38  58  76 105 137 179 221 268 329
#     4  10  20  31  46  74 109 144 189 234 267 310
#     4  10  19  32  50  74 109 149 183 218 269 322
#     4  10  18  34  54  76 104 144 188 226 268 313
#     4  10  21  38  62  85 109 141 175 221 279 330
#     4  11  21  33  54  81 112 150 185 223 268 319
#
# _framework density 17.846021
#
# number of rings (size 3 to 8) (size 9 to 14) (size 15 to 20)
#    0.000    1.875    6.250    1.125    0.000    4.750 
#    0.000    3.750    0.000    0.000    0.000    0.000 
#    0.000    0.000    0.000    0.000    0.000    0.000 
#
# Total GULP energy -793314.615381 kJ/mol
# GULP energy per Si atom -12395.540865 kJ/mol
# Density = 1.780540 g / cm^3
# Si number density = 17.846021 Si / 1000 Ang^3
#
#
#
# Elastic Constant Matrix: (Units=GPa)
#
#
# Indices 1 2 3 4 5 6 
#
# 1 83.6167 26.7292 43.2571 0.0000 0.0000 0.0000
# 2 26.7292 82.1671 26.8650 0.0000 0.0000 0.0000
# 3 43.2571 26.8650 106.6258 0.0000 0.0000 0.0000
# 4 0.0000 0.0000 0.0000 12.4151 0.0000 0.0000
# 5 0.0000 0.0000 0.0000 0.0000 23.7970 0.0000
# 6 0.0000 0.0000 0.0000 0.0000 0.0000 12.1187
#
#
#
# Elastic Compliance Matrix: (Units=1/GPa)
#
#
# Indices 1 2 3 4 5 6 
#
# 1 0.015938 -0.003346 -0.005623 0.000000 0.000000 0.000000
# 2 -0.003346 0.013965 -0.002161 0.000000 0.000000 0.000000
# 3 -0.005623 -0.002161 0.012204 0.000000 0.000000 0.000000
# 4 0.000000 0.000000 0.000000 0.080547 0.000000 0.000000
# 5 0.000000 0.000000 0.000000 0.000000 0.042022 0.000000
# 6 0.000000 0.000000 0.000000 0.000000 0.000000 0.082517
#
#
# Mechanical properties :
#
#
# Convention : Reuss Voigt Hill
#
# Bulk Modulus (GPa) = 50.38482 51.79027 51.08754
# Shear Modulus (GPa) = 18.11138 21.37005 19.74072
#
# Velocity S-wave (km/s) = 3.18916 3.46420 3.32952
# Velocity P-wave (km/s) = 6.46957 6.71450 6.59317
#
# Compressibility (1/GPa) = 0.01984725
#
# Stress axis : x y z
#
# Youngs Moduli (GPa) = 62.74405 71.60522 81.93914
#
# Poissons Ratio (x) = 0.23961 0.46072
# Poissons Ratio (y) = 0.20996 0.17708
# Poissons Ratio (z) = 0.35279 0.15475
#
# Static dielectric constant tensor:
#      x y z
#    x 3.259960 0.000000 0.000000 
#    y 0.000000 2.955930 0.000000 
#    z 0.000000 0.000000 3.400220 
# 
# 
# High freq. dielectric constant tensor:
#      x y z
#    x 1.684290 0.000000 0.000000 
#    y 0.000000 1.658070 0.000000 
#    z 0.000000 0.000000 1.696590 
# 
# From -- ./inp_files/17522.got.cif
#   From: 2010.03.12/outbox.cif.g09.slc.cpg/sg51_9_cif.got.tgz:17522.got - 2010.04.16 13:43:02.
