data_PCOD8207929
_publ_section_title
;
Structure prediction by ZEFSAII (Michael W. Deem and Ramdas Pophale) SiO2 
 PCOD8207929
Probable space group: P M M A
;
_chemical_formula_sum "Si O2"
_cell_formula_units_Z 48
_cell_length_a 25.140401
_cell_length_b 18.480870
_cell_length_c 5.024627
_cell_angle_alpha 90.000000
_cell_angle_beta 90.000000
_cell_angle_gamma 90.000000
_cell_volume 2334.524523
_symmetry_space_group_name_H-M "P M M A"
_symmetry_group_IT_number 51
_symmetry_cell_setting 'orthorhombic'
loop_
_space_group_symop_operation_xyz
x,y,z
1/2-x,-y,z
1/2+x,-y,-z
-x,y,-z
-x,-y,-z
1/2+x,y,-z
1/2-x,y,z
x,-y,z
loop_
_atom_site_type_symbol
_atom_site_label
_atom_site_fract_x
_atom_site_fract_y
_atom_site_fract_z
Si Si1 0.688515 0.630168 0.949774
Si Si2 0.553330 0.081954 0.599784
Si Si3 0.382835 0.081635 0.892708
Si Si4 0.562861 0.280030 0.465668
Si Si5 0.624480 0.230174 0.955377
Si Si6 0.129196 0.580928 0.541046
O O1 0.750000 0.622473 0.021175
O O2 0.653274 0.589431 0.166691
O O3 0.673455 0.714910 0.939130
O O4 0.676984 0.593661 0.666741
O O5 0.500000 0.125218 0.500000
O O6 0.565224 0.088099 0.913814
O O7 0.543480 0.000000 0.516896
O O8 0.602806 0.102834 0.408896
O O9 0.348119 0.150762 0.992209
O O10 0.357216 0.000000 0.921787
O O11 0.500000 0.278628 0.500000
O O12 0.590218 0.226877 0.682456
O O13 0.581933 0.362551 0.516825
O O14 0.581633 0.253428 0.177908
O O15 0.105933 0.500000 0.512572
#
# Coordination Sequence:
#
# PCOD8207929 Si02
#       6
#     8   8   8   8   8   8
#     4  10  21  37  56  78 106 137 166 207 263 309
#     4   9  17  27  39  60  89 120 157 199 246 297
#     4  10  19  30  45  65  92 126 163 211 261 293
#     4  10  21  36  53  74 105 144 175 203 245 296
#     4  10  21  35  51  74 102 135 178 215 249 307
#     4  10  21  36  56  84 109 131 169 210 246 301
#
# _framework density 20.560931
#
# number of rings (size 3 to 8) (size 9 to 14) (size 15 to 20)
#    0.000    2.167    0.000    3.000    0.000    8.333 
#    0.000    0.000    0.000    6.500    0.000    0.000 
#    0.000   12.000    0.000    0.000    0.000    2.000 
#
# Total GULP energy -594677.994869 kJ/mol
# GULP energy per Si atom -12389.124893 kJ/mol
# Density = 2.051413 g / cm^3
# Si number density = 20.560931 Si / 1000 Ang^3
#
#
#
# Elastic Constant Matrix: (Units=GPa)
#
#
# Indices 1 2 3 4 5 6 
#
# 1 39.2617 11.8492 1.7469 0.0000 0.0000 0.0000
# 2 11.8492 135.2831 7.4531 0.0000 0.0000 0.0000
# 3 1.7469 7.4531 95.1431 0.0000 0.0000 0.0000
# 4 0.0000 0.0000 0.0000 19.7091 0.0000 0.0000
# 5 0.0000 0.0000 0.0000 0.0000 18.2859 0.0000
# 6 0.0000 0.0000 0.0000 0.0000 0.0000 4.4319
#
#
#
# Elastic Compliance Matrix: (Units=1/GPa)
#
#
# Indices 1 2 3 4 5 6 
#
# 1 0.026170 -0.002276 -0.000302 0.000000 0.000000 0.000000
# 2 -0.002276 0.007622 -0.000555 0.000000 0.000000 0.000000
# 3 -0.000302 -0.000555 0.010560 0.000000 0.000000 0.000000
# 4 0.000000 0.000000 0.000000 0.050738 0.000000 0.000000
# 5 0.000000 0.000000 0.000000 0.000000 0.054687 0.000000
# 6 0.000000 0.000000 0.000000 0.000000 0.000000 0.225637
#
#
# Mechanical properties :
#
#
# Convention : Reuss Voigt Hill
#
# Bulk Modulus (GPa) = 26.25671 34.64292 30.44982
# Shear Modulus (GPa) = 12.67828 25.06129 18.86979
#
# Velocity S-wave (km/s) = 2.48588 3.49503 3.03272
# Velocity P-wave (km/s) = 4.58665 5.75956 5.20624
#
# Compressibility (1/GPa) = 0.03808550
#
# Stress axis : x y z
#
# Youngs Moduli (GPa) = 38.21122 131.20244 94.70117
#
# Poissons Ratio (x) = 0.29856 0.02862
# Poissons Ratio (y) = 0.08695 0.05259
# Poissons Ratio (z) = 0.01155 0.07285
#
# Static dielectric constant tensor:
#      x y z
#    x 3.117840 0.000000 0.000000 
#    y 0.000000 4.196490 0.000000 
#    z 0.000000 0.000000 3.944080 
# 
# 
# High freq. dielectric constant tensor:
#      x y z
#    x 1.730910 0.000000 0.000000 
#    y 0.000000 1.831710 0.000000 
#    z 0.000000 0.000000 1.826380 
# 
# From -- ./inp_files/3078.got.cif
#   From: 2010.03.12/outbox.cif.g09.slc.cpg/sg51_2_cif.got.tgz:3078.got - 2010.04.16 13:43:02.
