data_PCOD8207144
_publ_section_title
;
Structure prediction by ZEFSAII (Michael W. Deem and Ramdas Pophale) SiO2 
 PCOD8207144
Probable space group: P M M A
;
_chemical_formula_sum "Si O2"
_cell_formula_units_Z 64
_cell_length_a 19.287880
_cell_length_b 8.842097
_cell_length_c 19.284508
_cell_angle_alpha 90.000000
_cell_angle_beta 90.000000
_cell_angle_gamma 90.000000
_cell_volume 3288.882316
_symmetry_space_group_name_H-M "P M M A"
_symmetry_group_IT_number 51
_symmetry_cell_setting 'orthorhombic'
loop_
_space_group_symop_operation_xyz
x,y,z
1/2-x,-y,z
1/2+x,-y,-z
-x,y,-z
-x,-y,-z
1/2+x,y,-z
1/2-x,y,z
x,-y,z
loop_
_atom_site_type_symbol
_atom_site_label
_atom_site_fract_x
_atom_site_fract_y
_atom_site_fract_z
Si Si1 0.938951 0.680643 0.947493
Si Si2 0.328716 0.320365 0.458268
Si Si3 0.366125 0.329057 0.821734
Si Si4 0.326605 0.169118 0.693518
Si Si5 0.169309 0.176871 0.961974
Si Si6 0.475052 0.670615 0.203057
Si Si7 0.917549 0.323122 0.414196
Si Si8 0.558943 0.679834 0.647872
O O1 0.932621 0.500000 0.948176
O O2 0.952227 0.746090 0.869761
O O3 0.867272 0.758669 0.969526
O O4 0.000000 0.731801 0.000000
O O5 0.250000 0.253475 0.458882
O O6 0.324423 0.500000 0.465757
O O7 0.376252 0.250918 0.520319
O O8 0.367557 0.275122 0.386624
O O9 0.337376 0.500000 0.822491
O O10 0.319536 0.223021 0.773058
O O11 0.365189 0.265299 0.898703
O O12 0.442753 0.323846 0.790837
O O13 0.250000 0.169706 0.660676
O O14 0.373782 0.288637 0.654105
O O15 0.358234 0.000000 0.689869
O O16 0.250000 0.214478 0.967436
O O17 0.155338 0.000000 0.953491
O O18 0.447476 0.500000 0.200819
O O19 0.444670 0.748629 0.273634
O O20 0.921691 0.500000 0.427111
O O21 0.995662 0.259797 0.401502
O O22 0.549832 0.500000 0.653191
#
# Coordination Sequence:
#
# PCOD8207144 Si02
#       8
#     8   8   8   8   8   8   8   8
#     4  10  19  35  58  81 108 140 182 233 276 322
#     4   9  17  28  46  77 111 139 175 226 277 323
#     4  11  20  35  57  80 108 143 182 223 268 322
#     4  11  23  35  47  72 112 149 178 215 267 323
#     4  11  24  39  54  79 115 149 182 222 271 330
#     4   9  17  31  52  80 107 134 174 225 274 324
#     4  10  18  31  53  78 103 138 183 222 262 321
#     4   9  16  29  50  76 108 140 173 221 277 319
#
# _framework density 19.459499000000001
#
# number of rings (size 3 to 8) (size 9 to 14) (size 15 to 20)
#    0.000    2.000    2.500    2.250    0.000    5.750 
#    0.000    0.625    0.000    3.750    0.000    0.000 
#    0.000    0.000    0.000    0.000    0.000    0.000 
#
# Total GULP energy -793224.689328 kJ/mol
# GULP energy per Si atom -12394.135771 kJ/mol
# Density = 1.941521 g / cm^3
# Si number density = 19.459499 Si / 1000 Ang^3
#
#
#
# Elastic Constant Matrix: (Units=GPa)
#
#
# Indices 1 2 3 4 5 6 
#
# 1 97.1669 12.4905 67.5901 0.0000 0.0000 0.0000
# 2 12.4905 24.2775 14.6459 0.0000 0.0000 0.0000
# 3 67.5901 14.6459 143.2256 0.0000 0.0000 0.0000
# 4 0.0000 0.0000 0.0000 7.8437 0.0000 0.0000
# 5 0.0000 0.0000 0.0000 0.0000 29.2447 0.0000
# 6 0.0000 0.0000 0.0000 0.0000 0.0000 15.8911
#
#
#
# Elastic Compliance Matrix: (Units=1/GPa)
#
#
# Indices 1 2 3 4 5 6 
#
# 1 0.015649 -0.003832 -0.006993 0.000000 0.000000 0.000000
# 2 -0.003832 0.044837 -0.002776 0.000000 0.000000 0.000000
# 3 -0.006993 -0.002776 0.010566 0.000000 0.000000 0.000000
# 4 0.000000 0.000000 0.000000 0.127492 0.000000 0.000000
# 5 0.000000 0.000000 0.000000 0.000000 0.034194 0.000000
# 6 0.000000 0.000000 0.000000 0.000000 0.000000 0.062928
#
#
# Mechanical properties :
#
#
# Convention : Reuss Voigt Hill
#
# Bulk Modulus (GPa) = 22.80594 50.45809 36.63202
# Shear Modulus (GPa) = 14.81549 21.92546 18.37047
#
# Velocity S-wave (km/s) = 2.76225 3.36031 3.07585
# Velocity P-wave (km/s) = 4.68172 6.40638 5.61071
#
# Compressibility (1/GPa) = 0.04384823
#
# Stress axis : x y z
#
# Youngs Moduli (GPa) = 63.90389 22.30300 94.64392
#
# Poissons Ratio (x) = 0.08547 0.66183
# Poissons Ratio (y) = 0.24490 0.26277
# Poissons Ratio (z) = 0.44687 0.06192
#
# Static dielectric constant tensor:
#      x y z
#    x 3.564190 0.000000 0.000000 
#    y 0.000000 3.093620 0.000000 
#    z 0.000000 0.000000 3.753930 
# 
# 
# High freq. dielectric constant tensor:
#      x y z
#    x 1.752030 0.000000 0.000000 
#    y 0.000000 1.707750 0.000000 
#    z 0.000000 0.000000 1.765990 
# 
# From -- ./inp_files/30692.got.cif
#   From: 2010.03.12/outbox.cif.g09.slc.cpg/sg51_16_cif.got.tgz:30692.got - 2010.04.16 13:43:02.
