data_PCOD8207256
_publ_section_title
;
Structure prediction by ZEFSAII (Michael W. Deem and Ramdas Pophale) SiO2 
 PCOD8207256
Probable space group: P M M A
;
_chemical_formula_sum "Si O2"
_cell_formula_units_Z 44
_cell_length_a 8.698885
_cell_length_b 18.143693
_cell_length_c 14.344899
_cell_angle_alpha 90.000000
_cell_angle_beta 90.000000
_cell_angle_gamma 90.000000
_cell_volume 2264.053959
_symmetry_space_group_name_H-M "P M M A"
_symmetry_group_IT_number 51
_symmetry_cell_setting 'orthorhombic'
loop_
_space_group_symop_operation_xyz
x,y,z
1/2-x,-y,z
1/2+x,-y,-z
-x,y,-z
-x,-y,-z
1/2+x,y,-z
1/2-x,y,z
x,-y,z
loop_
_atom_site_type_symbol
_atom_site_label
_atom_site_fract_x
_atom_site_fract_y
_atom_site_fract_z
Si Si1 0.568104 0.718608 0.899212
Si Si2 0.431910 0.814641 0.596171
Si Si3 0.932453 0.581284 0.784453
Si Si4 0.931192 0.000000 0.898048
Si Si5 0.567795 0.653798 0.595232
Si Si6 0.431613 0.859566 0.218967
O O1 0.750000 0.716542 0.907265
O O2 0.502694 0.641871 0.856816
O O3 0.515823 0.784889 0.832440
O O4 0.500000 0.732286 0.000000
O O5 0.500000 0.847478 0.500000
O O6 0.250000 0.811315 0.588561
O O7 0.498497 0.733723 0.614292
O O8 0.483862 0.866040 0.681708
O O9 0.750000 0.581575 0.790086
O O10 0.997657 0.500000 0.809822
O O11 0.982737 0.600829 0.679362
O O12 0.987934 0.927964 0.843006
O O13 0.750000 0.000000 0.908291
O O14 0.000000 0.000000 0.000000
O O15 0.500000 0.619635 0.500000
O O16 0.750000 0.661809 0.587543
O O17 0.250000 0.861111 0.235989
#
# Coordination Sequence:
#
# PCOD8207256 Si02
#       6
#     8   8   8   4   8   8
#     4  10  20  35  55  77 105 140 183 228 272 326
#     4  11  21  34  57  86 114 147 185 228 272 328
#     4   9  18  33  52  74 105 146 183 222 275 329
#     4  10  22  38  61  88 121 152 185 230 280 332
#     4  10  18  32  53  78 109 144 182 226 273 329
#     4  10  20  38  59  84 114 149 184 224 275 326
#
# _framework density 19.434165
#
# number of rings (size 3 to 8) (size 9 to 14) (size 15 to 20)
#    0.000    2.000    1.818    3.818    0.000    2.182 
#    0.000    0.455    0.000    3.818    0.000    0.000 
#    0.000    0.000    0.000    0.000    0.000    0.000 
#
# Total GULP energy -545615.496097 kJ/mol
# GULP energy per Si atom -12400.352184 kJ/mol
# Density = 1.938993 g / cm^3
# Si number density = 19.434165 Si / 1000 Ang^3
#
#
#
# Elastic Constant Matrix: (Units=GPa)
#
#
# Indices 1 2 3 4 5 6 
#
# 1 65.3509 27.6561 43.6940 0.0000 0.0000 0.0000
# 2 27.6561 116.5925 66.9689 0.0000 0.0000 0.0000
# 3 43.6940 66.9689 160.0379 0.0000 0.0000 0.0000
# 4 0.0000 0.0000 0.0000 7.8500 0.0000 0.0000
# 5 0.0000 0.0000 0.0000 0.0000 36.5073 0.0000
# 6 0.0000 0.0000 0.0000 0.0000 0.0000 10.3238
#
#
#
# Elastic Compliance Matrix: (Units=1/GPa)
#
#
# Indices 1 2 3 4 5 6 
#
# 1 0.019073 -0.002018 -0.004363 0.000000 0.000000 0.000000
# 2 -0.002018 0.011504 -0.004263 0.000000 0.000000 0.000000
# 3 -0.004363 -0.004263 0.009224 0.000000 0.000000 0.000000
# 4 0.000000 0.000000 0.000000 0.127388 0.000000 0.000000
# 5 0.000000 0.000000 0.000000 0.000000 0.027392 0.000000
# 6 0.000000 0.000000 0.000000 0.000000 0.000000 0.096864
#
#
# Mechanical properties :
#
#
# Convention : Reuss Voigt Hill
#
# Bulk Modulus (GPa) = 54.01689 68.73549 61.37619
# Shear Modulus (GPa) = 15.67870 24.51370 20.09620
#
# Velocity S-wave (km/s) = 2.84343 3.55543 3.21918
# Velocity P-wave (km/s) = 6.21573 7.23187 6.74297
#
# Compressibility (1/GPa) = 0.01851273
#
# Stress axis : x y z
#
# Youngs Moduli (GPa) = 52.42970 86.92474 108.41801
#
# Poissons Ratio (x) = 0.17544 0.47301
# Poissons Ratio (y) = 0.10582 0.46218
# Poissons Ratio (z) = 0.22874 0.37056
#
# Static dielectric constant tensor:
#      x y z
#    x 3.482640 0.000000 0.000000 
#    y 0.000000 3.694700 0.000000 
#    z 0.000000 0.000000 3.808510 
# 
# 
# High freq. dielectric constant tensor:
#      x y z
#    x 1.735170 0.000000 0.000000 
#    y 0.000000 1.746120 0.000000 
#    z 0.000000 0.000000 1.772310 
# 
# From -- ./inp_files/20919.got.cif
#   From: 2010.03.12/outbox.cif.g09.slc.cpg/sg51_11_cif.got.tgz:20919.got - 2010.04.16 13:43:02.
