data_PCOD8207535
_publ_section_title
;
Structure prediction by ZEFSAII (Michael W. Deem and Ramdas Pophale) SiO2 
 PCOD8207535
Probable space group: P M M A
;
_chemical_formula_sum "Si O2"
_cell_formula_units_Z 64
_cell_length_a 14.673553
_cell_length_b 17.709138
_cell_length_c 15.424341
_cell_angle_alpha 90.000000
_cell_angle_beta 90.000000
_cell_angle_gamma 90.000000
_cell_volume 4008.107170
_symmetry_space_group_name_H-M "P M M A"
_symmetry_group_IT_number 51
_symmetry_cell_setting 'orthorhombic'
loop_
_space_group_symop_operation_xyz
x,y,z
1/2-x,-y,z
1/2+x,-y,-z
-x,y,-z
-x,-y,-z
1/2+x,y,-z
1/2-x,y,z
x,-y,z
loop_
_atom_site_type_symbol
_atom_site_label
_atom_site_fract_x
_atom_site_fract_y
_atom_site_fract_z
Si Si1 0.522380 0.802034 0.319383
Si Si2 0.644561 0.413802 0.065000
Si Si3 0.349621 0.414743 0.667319
Si Si4 0.474248 0.332578 0.800274
Si Si5 0.644485 0.911990 0.403861
Si Si6 0.352047 0.177917 0.425228
Si Si7 0.146160 0.413429 0.137563
Si Si8 0.907797 0.309259 0.465889
O O1 0.526143 0.756524 0.227135
O O2 0.587771 0.875584 0.323308
O O3 0.419584 0.828676 0.342925
O O4 0.561883 0.749636 0.393509
O O5 0.750000 0.397838 0.085937
O O6 0.619565 0.500000 0.094770
O O7 0.582805 0.350997 0.112791
O O8 0.625027 0.405058 0.963876
O O9 0.250000 0.407144 0.712671
O O10 0.374779 0.500000 0.647976
O O11 0.428921 0.380983 0.724946
O O12 0.343660 0.372866 0.574833
O O13 0.578878 0.358738 0.809893
O O14 0.750000 0.894087 0.386020
O O15 0.616183 0.878665 0.497990
O O16 0.623038 0.000000 0.405214
O O17 0.250000 0.158153 0.393564
O O18 0.353576 0.264242 0.459913
O O19 0.250000 0.389112 0.157956
O O20 0.130151 0.500000 0.165721
O O21 0.000000 0.348725 0.500000
#
# Coordination Sequence:
#
# PCOD8207535 Si02
#       8
#     8   8   8   8   8   8   8   8
#     4   9  19  28  39  63  88 111 138 169 210 260
#     4   9  17  29  46  67  87 110 144 184 225 266
#     4  10  19  27  37  56  78 102 136 176 215 253
#     4  11  19  28  42  60  87 118 142 169 216 269
#     4   9  17  30  49  69  87 111 143 179 219 260
#     4   9  16  28  44  59  79 109 142 172 206 249
#     4   9  18  31  46  64  86 115 152 190 223 256
#     4   8  15  28  41  54  73 101 137 175 213 249
#
# _framework density 15.967637
#
# number of rings (size 3 to 8) (size 9 to 14) (size 15 to 20)
#    0.000    2.750    0.000    4.125    0.000    7.250 
#    0.000    0.000    0.000    0.000    0.000   12.250 
#    0.000    2.000    0.000    2.750    0.000    0.625 
#
# Total GULP energy -793075.324875 kJ/mol
# GULP energy per Si atom -12391.801951 kJ/mol
# Density = 1.593129 g / cm^3
# Si number density = 15.967637 Si / 1000 Ang^3
#
#
#
# Elastic Constant Matrix: (Units=GPa)
#
#
# Indices 1 2 3 4 5 6 
#
# 1 93.3083 45.5648 30.8081 0.0000 0.0000 0.0000
# 2 45.5648 79.9926 30.5689 0.0000 0.0000 0.0000
# 3 30.8081 30.5689 37.4602 0.0000 0.0000 0.0000
# 4 0.0000 0.0000 0.0000 18.9504 0.0000 0.0000
# 5 0.0000 0.0000 0.0000 0.0000 22.9407 0.0000
# 6 0.0000 0.0000 0.0000 0.0000 0.0000 21.9226
#
#
#
# Elastic Compliance Matrix: (Units=1/GPa)
#
#
# Indices 1 2 3 4 5 6 
#
# 1 0.016558 -0.006144 -0.008604 0.000000 0.000000 0.000000
# 2 -0.006144 0.020446 -0.011632 0.000000 0.000000 0.000000
# 3 -0.008604 -0.011632 0.043264 0.000000 0.000000 0.000000
# 4 0.000000 0.000000 0.000000 0.052769 0.000000 0.000000
# 5 0.000000 0.000000 0.000000 0.000000 0.043591 0.000000
# 6 0.000000 0.000000 0.000000 0.000000 0.000000 0.045615
#
#
# Mechanical properties :
#
#
# Convention : Reuss Voigt Hill
#
# Bulk Modulus (GPa) = 36.35347 47.18274 41.76810
# Shear Modulus (GPa) = 17.59503 19.68404 18.63954
#
# Velocity S-wave (km/s) = 3.32312 3.51486 3.42033
# Velocity P-wave (km/s) = 6.12703 6.78862 6.46630
#
# Compressibility (1/GPa) = 0.02750769
#
# Stress axis : x y z
#
# Youngs Moduli (GPa) = 60.39301 48.91011 23.11417
#
# Poissons Ratio (x) = 0.30048 0.19888
# Poissons Ratio (y) = 0.37103 0.26886
# Poissons Ratio (z) = 0.51965 0.56891
#
# Static dielectric constant tensor:
#      x y z
#    x 3.213570 0.000000 0.000000 
#    y 0.000000 3.024280 0.000000 
#    z 0.000000 0.000000 2.884960 
# 
# 
# High freq. dielectric constant tensor:
#      x y z
#    x 1.631220 0.000000 0.000000 
#    y 0.000000 1.583980 0.000000 
#    z 0.000000 0.000000 1.572730 
# 
# From -- ./inp_files/24476.got.cif
#   From: 2010.03.12/outbox.cif.g09.slc.cpg/sg51_13_cif.got.tgz:24476.got - 2010.04.16 13:43:02.
