data_PCOD8207511
_publ_section_title
;
Structure prediction by ZEFSAII (Michael W. Deem and Ramdas Pophale) SiO2 
 PCOD8207511
Probable space group: P M M A
;
_chemical_formula_sum "Si O2"
_cell_formula_units_Z 64
_cell_length_a 14.494265
_cell_length_b 22.879861
_cell_length_c 9.273172
_cell_angle_alpha 90.000000
_cell_angle_beta 90.000000
_cell_angle_gamma 90.000000
_cell_volume 3075.232064
_symmetry_space_group_name_H-M "P M M A"
_symmetry_group_IT_number 51
_symmetry_cell_setting 'orthorhombic'
loop_
_space_group_symop_operation_xyz
x,y,z
1/2-x,-y,z
1/2+x,-y,-z
-x,y,-z
-x,-y,-z
1/2+x,y,-z
1/2-x,y,z
x,-y,z
loop_
_atom_site_type_symbol
_atom_site_label
_atom_site_fract_x
_atom_site_fract_y
_atom_site_fract_z
Si Si1 0.856690 0.153183 0.857711
Si Si2 0.520342 0.882196 0.346645
Si Si3 0.063246 0.242185 0.629233
Si Si4 0.856300 0.380793 0.696460
Si Si5 0.855149 0.066039 0.112226
Si Si6 0.352570 0.359179 0.633416
Si Si7 0.564505 0.726442 0.873839
Si Si8 0.516371 0.565444 0.165047
O O1 0.750000 0.143867 0.810829
O O2 0.867619 0.220039 0.917247
O O3 0.922969 0.137882 0.723676
O O4 0.884877 0.110127 0.986951
O O5 0.500000 0.913662 0.500000
O O6 0.587133 0.826283 0.388616
O O7 0.577585 0.925882 0.247708
O O8 0.147158 0.288286 0.643624
O O9 0.000000 0.266067 0.500000
O O10 0.008304 0.241814 0.775407
O O11 0.750000 0.396307 0.718157
O O12 0.881982 0.375584 0.528409
O O13 0.879302 0.323077 0.789117
O O14 0.916759 0.433930 0.757922
O O15 0.750000 0.077899 0.160703
O O16 0.866892 0.000000 0.054566
O O17 0.250000 0.381294 0.667969
O O18 0.418725 0.387993 0.753059
O O19 0.500000 0.699443 0.000000
O O20 0.557996 0.500000 0.176255
O O21 0.500000 0.583944 0.000000
#
# Coordination Sequence:
#
# PCOD8207511 Si02
#       8
#     8   8   8   8   8   8   8   8
#     4  10  21  38  60  90 124 165 212 259 314 377
#     4  10  22  36  59  93 125 165 208 263 321 383
#     4  10  18  36  57  84 127 165 200 245 311 377
#     4  11  23  39  63  94 125 164 208 255 314 377
#     4  10  22  42  64  86 120 167 218 268 317 377
#     4  11  23  40  65  95 126 166 212 255 308 375
#     4  11  20  35  59  88 127 162 202 255 311 369
#     4  11  25  46  67  90 126 167 206 260 314 363
#
# _framework density 20.811437000000002
#
# number of rings (size 3 to 8) (size 9 to 14) (size 15 to 20)
#    0.000    1.500    2.500    3.000    0.000    4.250 
#    0.000    3.125    0.000    1.500    0.000    0.000 
#    0.000    0.000    0.000    0.000    0.000    0.000 
#
# Total GULP energy -793058.144495 kJ/mol
# GULP energy per Si atom -12391.533508 kJ/mol
# Density = 2.076407 g / cm^3
# Si number density = 20.811437 Si / 1000 Ang^3
#
#
#
# Elastic Constant Matrix: (Units=GPa)
#
#
# Indices 1 2 3 4 5 6 
#
# 1 86.2533 20.5795 51.6278 0.0000 0.0000 0.0000
# 2 20.5795 84.1594 36.4482 0.0000 0.0000 0.0000
# 3 51.6278 36.4482 130.3586 0.0000 0.0000 0.0000
# 4 0.0000 0.0000 0.0000 21.6738 0.0000 0.0000
# 5 0.0000 0.0000 0.0000 0.0000 27.2700 0.0000
# 6 0.0000 0.0000 0.0000 0.0000 0.0000 21.9299
#
#
#
# Elastic Compliance Matrix: (Units=1/GPa)
#
#
# Indices 1 2 3 4 5 6 
#
# 1 0.015315 -0.001272 -0.005710 0.000000 0.000000 0.000000
# 2 -0.001272 0.013625 -0.003306 0.000000 0.000000 0.000000
# 3 -0.005710 -0.003306 0.010857 0.000000 0.000000 0.000000
# 4 0.000000 0.000000 0.000000 0.046139 0.000000 0.000000
# 5 0.000000 0.000000 0.000000 0.000000 0.036670 0.000000
# 6 0.000000 0.000000 0.000000 0.000000 0.000000 0.045600
#
#
# Mechanical properties :
#
#
# Convention : Reuss Voigt Hill
#
# Bulk Modulus (GPa) = 52.02523 57.56471 54.79497
# Shear Modulus (GPa) = 25.61640 26.98247 26.29944
#
# Velocity S-wave (km/s) = 3.51220 3.60463 3.55871
# Velocity P-wave (km/s) = 6.44205 6.71153 6.57817
#
# Compressibility (1/GPa) = 0.01922144
#
# Stress axis : x y z
#
# Youngs Moduli (GPa) = 65.29605 73.39479 92.10904
#
# Poissons Ratio (x) = 0.09337 0.52591
# Poissons Ratio (y) = 0.08307 0.30448
# Poissons Ratio (z) = 0.37282 0.24262
#
# Static dielectric constant tensor:
#      x y z
#    x 3.724950 0.000000 0.000000 
#    y 0.000000 3.738360 0.000000 
#    z 0.000000 0.000000 3.831960 
# 
# 
# High freq. dielectric constant tensor:
#      x y z
#    x 1.801730 0.000000 0.000000 
#    y 0.000000 1.811010 0.000000 
#    z 0.000000 0.000000 1.821160 
# 
# From -- ./inp_files/8708.got.cif
#   From: 2010.03.12/outbox.cif.g09.slc.cpg/sg51_5_cif.got.tgz:8708.got - 2010.04.16 13:43:02.
