data_PCOD8207355
_publ_section_title
;
Structure prediction by ZEFSAII (Michael W. Deem and Ramdas Pophale) SiO2 
 PCOD8207355
Probable space group: P M M A
;
_chemical_formula_sum "Si O2"
_cell_formula_units_Z 48
_cell_length_a 8.907512
_cell_length_b 14.344149
_cell_length_c 20.600952
_cell_angle_alpha 90.000000
_cell_angle_beta 90.000000
_cell_angle_gamma 90.000000
_cell_volume 2632.197632
_symmetry_space_group_name_H-M "P M M A"
_symmetry_group_IT_number 51
_symmetry_cell_setting 'orthorhombic'
loop_
_space_group_symop_operation_xyz
x,y,z
1/2-x,-y,z
1/2+x,-y,-z
-x,y,-z
-x,-y,-z
1/2+x,y,-z
1/2-x,y,z
x,-y,z
loop_
_atom_site_type_symbol
_atom_site_label
_atom_site_fract_x
_atom_site_fract_y
_atom_site_fract_z
Si Si1 0.424690 0.605683 0.613361
Si Si2 0.073501 0.207120 0.814863
Si Si3 0.573179 0.783029 0.564995
Si Si4 0.076168 0.891162 0.681149
Si Si5 0.926483 0.106453 0.933703
Si Si6 0.072049 0.600974 0.760410
O O1 0.250000 0.633206 0.607825
O O2 0.451303 0.500000 0.589182
O O3 0.521817 0.675474 0.570018
O O4 0.483436 0.617092 0.687056
O O5 0.250000 0.199966 0.829393
O O6 0.030616 0.148665 0.751171
O O7 0.018693 0.314249 0.805751
O O8 0.982341 0.169061 0.875109
O O9 0.500000 0.826487 0.500000
O O10 0.750000 0.788509 0.558495
O O11 0.522311 0.842221 0.626703
O O12 0.250000 0.869759 0.666723
O O13 0.040312 0.000000 0.680963
O O14 0.750000 0.116228 0.940635
O O15 0.975922 0.000000 0.920544
O O16 0.000000 0.143416 0.000000
O O17 0.250000 0.599121 0.757918
O O18 0.012521 0.500000 0.786360
#
# Coordination Sequence:
#
# PCOD8207355 Si02
#       6
#     8   8   8   8   8   8
#     4   9  17  34  59  82 107 139 177 222 272 327
#     4  10  18  32  58  86 113 143 178 218 264 318
#     4  12  25  39  56  76 106 143 182 228 278 333
#     4  10  21  38  59  82 108 139 180 227 274 329
#     4  10  21  36  54  79 113 149 185 224 268 318
#     4   8  14  27  52  83 111 140 174 213 259 315
#
# _framework density 18.235713000000001
#
# number of rings (size 3 to 8) (size 9 to 14) (size 15 to 20)
#    0.000    2.167    1.667    3.500    0.000    3.667 
#    0.000    0.000    0.000    1.000    0.000    0.000 
#    0.000    0.000    0.000    0.000    0.000    0.000 
#
# Total GULP energy -595182.538137 kJ/mol
# GULP energy per Si atom -12399.636211 kJ/mol
# Density = 1.819421 g / cm^3
# Si number density = 18.235713 Si / 1000 Ang^3
#
#
#
# Elastic Constant Matrix: (Units=GPa)
#
#
# Indices 1 2 3 4 5 6 
#
# 1 81.2529 43.2909 52.0922 0.0000 0.0000 0.0000
# 2 43.2909 109.6449 56.5435 0.0000 0.0000 0.0000
# 3 52.0922 56.5435 116.7440 0.0000 0.0000 0.0000
# 4 0.0000 0.0000 0.0000 20.9211 0.0000 0.0000
# 5 0.0000 0.0000 0.0000 0.0000 32.3024 0.0000
# 6 0.0000 0.0000 0.0000 0.0000 0.0000 24.3645
#
#
#
# Elastic Compliance Matrix: (Units=1/GPa)
#
#
# Indices 1 2 3 4 5 6 
#
# 1 0.018504 -0.004063 -0.006289 0.000000 0.000000 0.000000
# 2 -0.004063 0.013049 -0.004507 0.000000 0.000000 0.000000
# 3 -0.006289 -0.004507 0.013555 0.000000 0.000000 0.000000
# 4 0.000000 0.000000 0.000000 0.047799 0.000000 0.000000
# 5 0.000000 0.000000 0.000000 0.000000 0.030957 0.000000
# 6 0.000000 0.000000 0.000000 0.000000 0.000000 0.041043
#
#
# Mechanical properties :
#
#
# Convention : Reuss Voigt Hill
#
# Bulk Modulus (GPa) = 64.97747 67.94391 66.46069
# Shear Modulus (GPa) = 25.03079 25.89861 25.46470
#
# Velocity S-wave (km/s) = 3.70891 3.77266 3.74092
# Velocity P-wave (km/s) = 7.35192 7.50446 7.42858
#
# Compressibility (1/GPa) = 0.01538995
#
# Stress axis : x y z
#
# Youngs Moduli (GPa) = 54.04352 76.63562 73.77417
#
# Poissons Ratio (x) = 0.31134 0.46395
# Poissons Ratio (y) = 0.21956 0.33252
# Poissons Ratio (z) = 0.33987 0.34541
#
# Static dielectric constant tensor:
#      x y z
#    x 3.117850 0.000000 0.000000 
#    y 0.000000 3.825210 0.000000 
#    z 0.000000 0.000000 3.272040 
# 
# 
# High freq. dielectric constant tensor:
#      x y z
#    x 1.685840 0.000000 0.000000 
#    y 0.000000 1.714590 0.000000 
#    z 0.000000 0.000000 1.696180 
# 
# From -- ./inp_files/27523.got.cif
#   From: 2010.03.12/outbox.cif.g09.slc.cpg/sg51_14_cif.got.tgz:27523.got - 2010.04.16 13:43:02.
