data_PCOD8207503
_publ_section_title
;
Structure prediction by ZEFSAII (Michael W. Deem and Ramdas Pophale) SiO2 
 PCOD8207503
Probable space group: P M M A
;
_chemical_formula_sum "Si O2"
_cell_formula_units_Z 48
_cell_length_a 14.621113
_cell_length_b 15.763692
_cell_length_c 10.211747
_cell_angle_alpha 90.000000
_cell_angle_beta 90.000000
_cell_angle_gamma 90.000000
_cell_volume 2353.631245
_symmetry_space_group_name_H-M "P M M A"
_symmetry_group_IT_number 51
_symmetry_cell_setting 'orthorhombic'
loop_
_space_group_symop_operation_xyz
x,y,z
1/2-x,-y,z
1/2+x,-y,-z
-x,y,-z
-x,-y,-z
1/2+x,y,-z
1/2-x,y,z
x,-y,z
loop_
_atom_site_type_symbol
_atom_site_label
_atom_site_fract_x
_atom_site_fract_y
_atom_site_fract_z
Si Si1 0.592956 0.000000 0.918591
Si Si2 0.851970 0.819326 0.984550
Si Si3 0.490704 0.401729 0.846283
Si Si4 0.642709 0.178147 0.508673
Si Si5 0.140534 0.261717 0.756306
Si Si6 0.142144 0.707405 0.249244
Si Si7 0.360128 0.000000 0.375437
O O1 0.584426 0.000000 0.761369
O O2 0.500000 0.000000 0.000000
O O3 0.649522 0.081057 0.962875
O O4 0.750000 0.784165 0.990057
O O5 0.896033 0.796628 0.123991
O O6 0.897084 0.770641 0.862863
O O7 0.470179 0.500000 0.824833
O O8 0.406501 0.352864 0.777045
O O9 0.585394 0.378984 0.770929
O O10 0.500000 0.379854 0.000000
O O11 0.750000 0.170639 0.497120
O O12 0.602479 0.212710 0.371827
O O13 0.615077 0.247582 0.615981
O O14 0.607516 0.083496 0.544243
O O15 0.250000 0.274400 0.748958
O O16 0.250000 0.687568 0.241861
O O17 0.250000 0.000000 0.348078
#
# Coordination Sequence:
#
# PCOD8207503 Si02
#       7
#     4   8   8   8   8   8   4
#     4  12  24  31  52  90 125 160 204 255 294 341
#     4  10  20  36  58  82 116 160 201 245 294 345
#     4  11  24  40  64  92 120 155 198 253 312 372
#     4   9  19  36  62  89 120 164 203 247 303 360
#     4  10  22  40  62  91 124 159 200 251 310 365
#     4  10  20  38  64  90 117 157 203 248 302 364
#     4  10  18  35  60  87 122 164 217 254 295 366
#
# _framework density 20.394017999999999
#
# number of rings (size 3 to 8) (size 9 to 14) (size 15 to 20)
#    0.000    1.833    3.333    0.750    2.333    2.000 
#    0.000    5.833    0.000    5.000    0.000    0.000 
#    0.000    0.000    0.000    0.000    0.000    0.000 
#
# Total GULP energy -594916.250364 kJ/mol
# GULP energy per Si atom -12394.088549 kJ/mol
# Density = 2.034760 g / cm^3
# Si number density = 20.394018 Si / 1000 Ang^3
#
#
#
# Elastic Constant Matrix: (Units=GPa)
#
#
# Indices 1 2 3 4 5 6 
#
# 1 53.7684 24.1196 22.9166 0.0000 0.0000 0.0000
# 2 24.1196 132.2231 69.5427 0.0000 0.0000 0.0000
# 3 22.9166 69.5427 170.0619 0.0000 0.0000 0.0000
# 4 0.0000 0.0000 0.0000 31.4803 0.0000 0.0000
# 5 0.0000 0.0000 0.0000 0.0000 18.9880 0.0000
# 6 0.0000 0.0000 0.0000 0.0000 0.0000 24.1915
#
#
#
# Elastic Compliance Matrix: (Units=1/GPa)
#
#
# Indices 1 2 3 4 5 6 
#
# 1 0.020583 -0.002925 -0.001578 0.000000 0.000000 0.000000
# 2 -0.002925 0.010051 -0.003716 0.000000 0.000000 0.000000
# 3 -0.001578 -0.003716 0.007612 0.000000 0.000000 0.000000
# 4 0.000000 0.000000 0.000000 0.031766 0.000000 0.000000
# 5 0.000000 0.000000 0.000000 0.000000 0.052665 0.000000
# 6 0.000000 0.000000 0.000000 0.000000 0.000000 0.041337
#
#
# Mechanical properties :
#
#
# Convention : Reuss Voigt Hill
#
# Bulk Modulus (GPa) = 45.85220 65.46790 55.66005
# Shear Modulus (GPa) = 26.63543 30.89694 28.76618
#
# Velocity S-wave (km/s) = 3.61784 3.89652 3.75976
# Velocity P-wave (km/s) = 6.32326 7.23982 6.79701
#
# Compressibility (1/GPa) = 0.02180920
#
# Stress axis : x y z
#
# Youngs Moduli (GPa) = 48.58449 99.49338 131.36577
#
# Poissons Ratio (x) = 0.29101 0.20723
# Poissons Ratio (y) = 0.14210 0.48815
# Poissons Ratio (z) = 0.07664 0.36971
#
# Static dielectric constant tensor:
#      x y z
#    x 3.506710 0.000000 0.000000 
#    y 0.000000 3.635060 0.000000 
#    z 0.000000 0.000000 4.069890 
# 
# 
# High freq. dielectric constant tensor:
#      x y z
#    x 1.789780 0.000000 0.000000 
#    y 0.000000 1.784850 0.000000 
#    z 0.000000 0.000000 1.805510 
# 
# From -- ./inp_files/8331.got.cif
#   From: 2010.03.12/outbox.cif.g09.slc.cpg/sg51_5_cif.got.tgz:8331.got - 2010.04.16 13:43:02.
