data_PCOD8207010
_publ_section_title
;
Structure prediction by ZEFSAII (Michael W. Deem and Ramdas Pophale) SiO2 
 PCOD8207010
Probable space group: P M M A
;
_chemical_formula_sum "Si O2"
_cell_formula_units_Z 48
_cell_length_a 8.798314
_cell_length_b 30.662299
_cell_length_c 9.323346
_cell_angle_alpha 90.000000
_cell_angle_beta 90.000000
_cell_angle_gamma 90.000000
_cell_volume 2515.219974
_symmetry_space_group_name_H-M "P M M A"
_symmetry_group_IT_number 51
_symmetry_cell_setting 'orthorhombic'
loop_
_space_group_symop_operation_xyz
x,y,z
1/2-x,-y,z
1/2+x,-y,-z
-x,y,-z
-x,-y,-z
1/2+x,y,-z
1/2-x,y,z
x,-y,z
loop_
_atom_site_type_symbol
_atom_site_label
_atom_site_fract_x
_atom_site_fract_y
_atom_site_fract_z
Si Si1 0.570460 0.246047 0.155969
Si Si2 0.930900 0.000000 0.158139
Si Si3 0.070589 0.577460 0.649145
Si Si4 0.427701 0.829223 0.344577
Si Si5 0.927507 0.086814 0.845747
Si Si6 0.571676 0.324726 0.350736
Si Si7 0.929689 0.500000 0.153738
O O1 0.750000 0.240825 0.143152
O O2 0.507526 0.209337 0.259832
O O3 0.522776 0.292785 0.222214
O O4 0.500000 0.241280 0.000000
O O5 0.994641 0.955609 0.229544
O O6 0.750000 0.000000 0.159558
O O7 0.000000 0.000000 0.000000
O O8 0.250000 0.575199 0.633600
O O9 0.016325 0.626433 0.689962
O O10 0.011387 0.543617 0.767574
O O11 0.000000 0.562458 0.500000
O O12 0.500000 0.833654 0.500000
O O13 0.250000 0.818982 0.358414
O O14 0.458891 0.873649 0.260338
O O15 0.750000 0.077812 0.868999
O O16 0.000000 0.097759 0.000000
O O17 0.500000 0.308722 0.500000
O O18 0.750000 0.323357 0.374745
O O19 0.750000 0.500000 0.142894
O O20 0.000000 0.500000 0.000000
#
# Coordination Sequence:
#
# PCOD8207010 Si02
#       7
#     8   4   8   8   8   8   4
#     4  11  23  38  57  81 110 143 180 223 270 322
#     4  10  18  30  53  82 111 144 180 220 266 316
#     4   9  18  34  54  77 104 136 177 220 264 317
#     4  11  24  40  59  82 110 145 183 226 274 324
#     4  10  20  35  56  82 111 143 180 222 268 318
#     4   9  19  35  55  79 107 139 175 218 267 320
#     4  10  21  34  50  74 106 140 175 220 268 316
#
# _framework density 19.083815999999999
#
# number of rings (size 3 to 8) (size 9 to 14) (size 15 to 20)
#    0.000    2.000    0.000    4.500    0.000    8.000 
#    0.000    0.417    0.000    0.000    0.000    0.000 
#    0.000    0.000    0.000    0.000    0.000    0.000 
#
# Total GULP energy -595215.099526 kJ/mol
# GULP energy per Si atom -12400.314573 kJ/mol
# Density = 1.904038 g / cm^3
# Si number density = 19.083816 Si / 1000 Ang^3
#
#
#
# Elastic Constant Matrix: (Units=GPa)
#
#
# Indices 1 2 3 4 5 6 
#
# 1 86.4868 64.6684 56.2816 0.0000 0.0000 0.0000
# 2 64.6684 143.0939 83.7101 0.0000 0.0000 0.0000
# 3 56.2816 83.7101 140.6196 0.0000 0.0000 0.0000
# 4 0.0000 0.0000 0.0000 36.2664 0.0000 0.0000
# 5 0.0000 0.0000 0.0000 0.0000 34.6399 0.0000
# 6 0.0000 0.0000 0.0000 0.0000 0.0000 5.8145
#
#
#
# Elastic Compliance Matrix: (Units=1/GPa)
#
#
# Indices 1 2 3 4 5 6 
#
# 1 0.018675 -0.006240 -0.003760 0.000000 0.000000 0.000000
# 2 -0.006240 0.012808 -0.005127 0.000000 0.000000 0.000000
# 3 -0.003760 -0.005127 0.011668 0.000000 0.000000 0.000000
# 4 0.000000 0.000000 0.000000 0.027574 0.000000 0.000000
# 5 0.000000 0.000000 0.000000 0.000000 0.028868 0.000000
# 6 0.000000 0.000000 0.000000 0.000000 0.000000 0.171985
#
#
# Mechanical properties :
#
#
# Convention : Reuss Voigt Hill
#
# Bulk Modulus (GPa) = 77.53515 86.61337 82.07426
# Shear Modulus (GPa) = 16.33286 26.38017 21.35651
#
# Velocity S-wave (km/s) = 2.92866 3.72201 3.34891
# Velocity P-wave (km/s) = 7.22171 7.99721 7.61933
#
# Compressibility (1/GPa) = 0.01289738
#
# Stress axis : x y z
#
# Youngs Moduli (GPa) = 53.54685 78.07724 85.70404
#
# Poissons Ratio (x) = 0.48724 0.32222
# Poissons Ratio (y) = 0.33416 0.43938
# Poissons Ratio (z) = 0.20132 0.40028
#
# Static dielectric constant tensor:
#      x y z
#    x 3.552520 0.000000 0.000000 
#    y 0.000000 4.154460 0.000000 
#    z 0.000000 0.000000 3.307540 
# 
# 
# High freq. dielectric constant tensor:
#      x y z
#    x 1.748080 0.000000 0.000000 
#    y 0.000000 1.764260 0.000000 
#    z 0.000000 0.000000 1.728740 
# 
# From -- ./inp_files/6118.got.cif
#   From: 2010.03.12/outbox.cif.g09.slc.cpg/sg51_4_cif.got.tgz:6118.got - 2010.04.16 13:43:02.
