data_PCOD8207793
_publ_section_title
;
Structure prediction by ZEFSAII (Michael W. Deem and Ramdas Pophale) SiO2 
 PCOD8207793
Probable space group: P M M A
;
_chemical_formula_sum "Si O2"
_cell_formula_units_Z 56
_cell_length_a 8.910695
_cell_length_b 15.682079
_cell_length_c 30.000861
_cell_angle_alpha 90.000000
_cell_angle_beta 90.000000
_cell_angle_gamma 90.000000
_cell_volume 4192.267003
_symmetry_space_group_name_H-M "P M M A"
_symmetry_group_IT_number 51
_symmetry_cell_setting 'orthorhombic'
loop_
_space_group_symop_operation_xyz
x,y,z
1/2-x,-y,z
1/2+x,-y,-z
-x,y,-z
-x,-y,-z
1/2+x,y,-z
1/2-x,y,z
x,-y,z
loop_
_atom_site_type_symbol
_atom_site_label
_atom_site_fract_x
_atom_site_fract_y
_atom_site_fract_z
Si Si1 0.427426 0.652494 0.101949
Si Si2 0.419229 0.601722 0.632532
Si Si3 0.425781 0.183861 0.047820
Si Si4 0.424049 0.600484 0.810335
Si Si5 0.581318 0.398648 0.720502
Si Si6 0.071136 0.500000 0.951611
Si Si7 0.424965 0.000000 0.047089
Si Si8 0.580886 0.398336 0.544144
O O1 0.250000 0.634923 0.098519
O O2 0.475037 0.744402 0.082817
O O3 0.479162 0.650229 0.153042
O O4 0.517848 0.582978 0.074300
O O5 0.250000 0.636346 0.634141
O O6 0.421140 0.500000 0.632710
O O7 0.507374 0.637857 0.675407
O O8 0.496863 0.637017 0.587805
O O9 0.250000 0.189436 0.039042
O O10 0.470690 0.090821 0.069718
O O11 0.500000 0.200088 0.000000
O O12 0.250000 0.624448 0.814792
O O13 0.449754 0.500000 0.816855
O O14 0.482832 0.631740 0.762393
O O15 0.750000 0.362628 0.724832
O O16 0.583822 0.500000 0.718402
O O17 0.250000 0.500000 0.954981
O O18 0.000000 0.500000 0.000000
O O19 0.250000 0.000000 0.039035
O O20 0.500000 0.000000 0.000000
O O21 0.500000 0.362711 0.500000
O O22 0.750000 0.363637 0.544681
O O23 0.578516 0.500000 0.544049
#
# Coordination Sequence:
#
# PCOD8207793 Si02
#       8
#     8   8   8   8   8   4   4   8
#     4  11  21  32  45  61  79 100 125 151 179 212
#     4   9  15  22  31  43  58  75  98 129 164 204
#     4   9  18  30  46  65  82 101 121 145 175 210
#     4  10  19  30  42  55  71  93 120 147 179 212
#     4   9  16  25  37  50  63  81 106 138 173 206
#     4  12  24  36  46  58  76 102 128 152 179 208
#     4   8  14  28  46  64  84 100 118 142 172 208
#     4   9  15  21  28  38  53  73  96 123 159 204
#
# _framework density 13.357927999999999
#
# number of rings (size 3 to 8) (size 9 to 14) (size 15 to 20)
#    0.000    2.429    0.714    3.214    0.000    8.000 
#    0.000    0.000    0.000    0.000    0.000    0.000 
#    0.000    0.000    0.000    0.000    0.000    0.000 
#
# Total GULP energy -694109.000319 kJ/mol
# GULP energy per Si atom -12394.803577 kJ/mol
# Density = 1.332752 g / cm^3
# Si number density = 13.357928 Si / 1000 Ang^3
#
#
#
# Elastic Constant Matrix: (Units=GPa)
#
#
# Indices 1 2 3 4 5 6 
#
# 1 89.5485 24.5669 45.0499 0.0000 0.0000 0.0000
# 2 24.5669 57.1750 30.6370 0.0000 0.0000 0.0000
# 3 45.0499 30.6370 111.2486 0.0000 0.0000 0.0000
# 4 0.0000 0.0000 0.0000 8.0823 0.0000 0.0000
# 5 0.0000 0.0000 0.0000 0.0000 28.4104 0.0000
# 6 0.0000 0.0000 0.0000 0.0000 0.0000 4.3457
#
#
#
# Elastic Compliance Matrix: (Units=1/GPa)
#
#
# Indices 1 2 3 4 5 6 
#
# 1 0.014647 -0.003655 -0.004925 0.000000 0.000000 0.000000
# 2 -0.003655 0.021430 -0.004422 0.000000 0.000000 0.000000
# 3 -0.004925 -0.004422 0.012201 0.000000 0.000000 0.000000
# 4 0.000000 0.000000 0.000000 0.123727 0.000000 0.000000
# 5 0.000000 0.000000 0.000000 0.000000 0.035198 0.000000
# 6 0.000000 0.000000 0.000000 0.000000 0.000000 0.230113
#
#
# Mechanical properties :
#
#
# Convention : Reuss Voigt Hill
#
# Bulk Modulus (GPa) = 44.89224 50.94220 47.91722
# Shear Modulus (GPa) = 10.62148 18.68223 14.65185
#
# Velocity S-wave (km/s) = 2.82289 3.74383 3.31549
# Velocity P-wave (km/s) = 6.65621 7.54370 7.11381
#
# Compressibility (1/GPa) = 0.02227557
#
# Stress axis : x y z
#
# Youngs Moduli (GPa) = 68.27153 46.66397 81.96092
#
# Poissons Ratio (x) = 0.17054 0.40366
# Poissons Ratio (y) = 0.24951 0.36240
# Poissons Ratio (z) = 0.33624 0.20633
#
# Static dielectric constant tensor:
#      x y z
#    x 2.846950 0.000000 0.000000 
#    y 0.000000 2.493460 0.000000 
#    z 0.000000 0.000000 2.812810 
# 
# 
# High freq. dielectric constant tensor:
#      x y z
#    x 1.529090 0.000000 0.000000 
#    y 0.000000 1.438260 0.000000 
#    z 0.000000 0.000000 1.509180 
# 
# From -- ./inp_files/37511.got.cif
#   From: 2010.03.12/outbox.cif.g09.slc.cpg/sg51_19_cif.got.tgz:37511.got - 2010.04.16 13:43:02.
