data_PCOD8207582
_publ_section_title
;
Structure prediction by ZEFSAII (Michael W. Deem and Ramdas Pophale) SiO2 
 PCOD8207582
Probable space group: P M M A
;
_chemical_formula_sum "Si O2"
_cell_formula_units_Z 56
_cell_length_a 30.092035
_cell_length_b 9.645837
_cell_length_c 12.296466
_cell_angle_alpha 90.000000
_cell_angle_beta 90.000000
_cell_angle_gamma 90.000000
_cell_volume 3569.207446
_symmetry_space_group_name_H-M "P M M A"
_symmetry_group_IT_number 51
_symmetry_cell_setting 'orthorhombic'
loop_
_space_group_symop_operation_xyz
x,y,z
1/2-x,-y,z
1/2+x,-y,-z
-x,y,-z
-x,-y,-z
1/2+x,y,-z
1/2-x,y,z
x,-y,z
loop_
_atom_site_type_symbol
_atom_site_label
_atom_site_fract_x
_atom_site_fract_y
_atom_site_fract_z
Si Si1 0.448965 0.843840 0.875171
Si Si2 0.199207 0.661296 0.308310
Si Si3 0.452893 0.154920 0.133289
Si Si4 0.697244 0.846682 0.496130
Si Si5 0.302165 0.159713 0.746990
Si Si6 0.132309 0.337376 0.882443
Si Si7 0.873251 0.659213 0.863932
O O1 0.497470 0.801086 0.827896
O O2 0.412257 0.734289 0.834313
O O3 0.436451 0.000000 0.836747
O O4 0.451256 0.839744 0.004171
O O5 0.250000 0.705076 0.283205
O O6 0.195773 0.500000 0.335026
O O7 0.179603 0.739593 0.413830
O O8 0.170350 0.702780 0.203445
O O9 0.415660 0.256683 0.181523
O O10 0.442436 0.000000 0.174628
O O11 0.750000 0.846784 0.494400
O O12 0.680944 0.805659 0.375286
O O13 0.679640 0.000000 0.526394
O O14 0.250000 0.185728 0.758272
O O15 0.325376 0.265750 0.828528
O O16 0.313652 0.000000 0.776137
O O17 0.131043 0.500000 0.854750
O O18 0.136901 0.309649 0.010652
O O19 0.885393 0.500000 0.845603
#
# Coordination Sequence:
#
# PCOD8207582 Si02
#       7
#     8   8   8   8   8   8   8
#     4   8  14  26  42  59  82 111 142 177 215 250
#     4   9  17  29  44  61  84 115 146 174 208 250
#     4   8  14  25  42  61  80 108 145 180 211 247
#     4   8  15  29  47  64  80 101 137 184 223 250
#     4   9  18  32  47  62  84 114 144 177 218 256
#     4  10  19  28  41  64  91 118 147 175 205 249
#     4   9  18  29  40  60  91 121 144 171 210 252
#
# _framework density 15.689757
#
# number of rings (size 3 to 8) (size 9 to 14) (size 15 to 20)
#    0.000    3.286    0.000    2.143    0.000    3.143 
#    0.000    5.714    0.000    1.714    0.000    1.000 
#    0.000    8.000    0.000    0.000    0.000    0.000 
#
# Total GULP energy -694063.483321 kJ/mol
# GULP energy per Si atom -12393.990774 kJ/mol
# Density = 1.565405 g / cm^3
# Si number density = 15.689757 Si / 1000 Ang^3
#
#
#
# Elastic Constant Matrix: (Units=GPa)
#
#
# Indices 1 2 3 4 5 6 
#
# 1 90.2205 63.6711 40.2862 0.0000 0.0000 0.0000
# 2 63.6711 94.0688 45.8965 0.0000 0.0000 0.0000
# 3 40.2862 45.8965 54.0459 0.0000 0.0000 0.0000
# 4 0.0000 0.0000 0.0000 23.5942 0.0000 0.0000
# 5 0.0000 0.0000 0.0000 0.0000 2.3277 0.0000
# 6 0.0000 0.0000 0.0000 0.0000 0.0000 29.4873
#
#
#
# Elastic Compliance Matrix: (Units=1/GPa)
#
#
# Indices 1 2 3 4 5 6 
#
# 1 0.022503 -0.012033 -0.006555 0.000000 0.000000 0.000000
# 2 -0.012033 0.024586 -0.011909 0.000000 0.000000 0.000000
# 3 -0.006555 -0.011909 0.033502 0.000000 0.000000 0.000000
# 4 0.000000 0.000000 0.000000 0.042383 0.000000 0.000000
# 5 0.000000 0.000000 0.000000 0.000000 0.429616 0.000000
# 6 0.000000 0.000000 0.000000 0.000000 0.000000 0.033913
#
#
# Mechanical properties :
#
#
# Convention : Reuss Voigt Hill
#
# Bulk Modulus (GPa) = 51.02948 59.78252 55.40600
# Shear Modulus (GPa) = 7.64491 16.98058 12.31275
#
# Velocity S-wave (km/s) = 2.20978 3.29336 2.80440
# Velocity P-wave (km/s) = 6.25344 7.25584 6.77321
#
# Compressibility (1/GPa) = 0.01959651
#
# Stress axis : x y z
#
# Youngs Moduli (GPa) = 44.43812 40.67435 29.84858
#
# Poissons Ratio (x) = 0.48944 0.19567
# Poissons Ratio (y) = 0.53472 0.35546
# Poissons Ratio (z) = 0.29131 0.48438
#
# Static dielectric constant tensor:
#      x y z
#    x 3.095320 0.000000 0.000000 
#    y 0.000000 3.133560 0.000000 
#    z 0.000000 0.000000 2.801590 
# 
# 
# High freq. dielectric constant tensor:
#      x y z
#    x 1.593010 0.000000 0.000000 
#    y 0.000000 1.606880 0.000000 
#    z 0.000000 0.000000 1.564740 
# 
# From -- ./inp_files/26509.got.cif
#   From: 2010.03.12/outbox.cif.g09.slc.cpg/sg51_14_cif.got.tgz:26509.got - 2010.04.16 13:43:02.
