data_PCOD8207451
_publ_section_title
;
Structure prediction by ZEFSAII (Michael W. Deem and Ramdas Pophale) SiO2 
 PCOD8207451
Probable space group: P M M A
;
_chemical_formula_sum "Si O2"
_cell_formula_units_Z 48
_cell_length_a 17.412950
_cell_length_b 16.978391
_cell_length_c 8.037145
_cell_angle_alpha 90.000000
_cell_angle_beta 90.000000
_cell_angle_gamma 90.000000
_cell_volume 2376.132680
_symmetry_space_group_name_H-M "P M M A"
_symmetry_group_IT_number 51
_symmetry_cell_setting 'orthorhombic'
loop_
_space_group_symop_operation_xyz
x,y,z
1/2-x,-y,z
1/2+x,-y,-z
-x,y,-z
-x,-y,-z
1/2+x,y,-z
1/2-x,y,z
x,-y,z
loop_
_atom_site_type_symbol
_atom_site_label
_atom_site_fract_x
_atom_site_fract_y
_atom_site_fract_z
Si Si1 0.660903 0.839645 0.137167
Si Si2 0.659074 0.000000 0.601303
Si Si3 0.161545 0.677650 0.018153
Si Si4 0.658487 0.689390 0.617356
Si Si5 0.341221 0.000000 0.026866
Si Si6 0.089802 0.840862 0.520868
Si Si7 0.341627 0.410644 0.697275
O O1 0.750000 0.846564 0.190399
O O2 0.610584 0.813364 0.293669
O O3 0.649741 0.771463 0.000812
O O4 0.628982 0.921958 0.065673
O O5 0.624959 0.000000 0.787528
O O6 0.630602 0.923790 0.505486
O O7 0.750000 0.000000 0.601237
O O8 0.250000 0.654776 0.009632
O O9 0.131297 0.654124 0.202909
O O10 0.122952 0.629490 0.864882
O O11 0.750000 0.699107 0.612531
O O12 0.621456 0.775612 0.605104
O O13 0.628157 0.633653 0.468582
O O14 0.250000 0.000000 0.034366
O O15 0.000000 0.851076 0.500000
O O16 0.250000 0.406128 0.697860
O O17 0.371169 0.500000 0.690261
#
# Coordination Sequence:
#
# PCOD8207451 Si02
#       7
#     8   4   8   8   4   8   8
#     4  10  18  34  56  78 106 146 189 229 277 336
#     4  11  22  39  59  82 111 147 192 235 280 338
#     4   9  17  30  53  82 110 144 190 234 278 337
#     4  10  19  35  58  82 112 152 193 232 284 345
#     4   9  19  33  56  84 106 135 186 234 273 329
#     4  12  24  37  54  82 116 150 191 237 283 332
#     4   9  17  30  52  85 119 145 179 237 294 336
#
# _framework density 20.200893000000001
#
# number of rings (size 3 to 8) (size 9 to 14) (size 15 to 20)
#    0.000    2.000    1.667    3.250    0.000    4.000 
#    0.000    7.500    0.000    0.500    0.000    1.167 
#    0.000    0.000    0.000    0.000    0.000    0.000 
#
# Total GULP energy -595099.429800 kJ/mol
# GULP energy per Si atom -12397.904787 kJ/mol
# Density = 2.015491 g / cm^3
# Si number density = 20.200893 Si / 1000 Ang^3
#
#
#
# Elastic Constant Matrix: (Units=GPa)
#
#
# Indices 1 2 3 4 5 6 
#
# 1 41.8610 17.2603 19.5176 0.0000 0.0000 0.0000
# 2 17.2603 132.3423 63.0982 0.0000 0.0000 0.0000
# 3 19.5176 63.0982 171.1848 0.0000 0.0000 0.0000
# 4 0.0000 0.0000 0.0000 23.7883 0.0000 0.0000
# 5 0.0000 0.0000 0.0000 0.0000 14.9699 0.0000
# 6 0.0000 0.0000 0.0000 0.0000 0.0000 5.8488
#
#
#
# Elastic Compliance Matrix: (Units=1/GPa)
#
#
# Indices 1 2 3 4 5 6 
#
# 1 0.025835 -0.002384 -0.002067 0.000000 0.000000 0.000000
# 2 -0.002384 0.009387 -0.003188 0.000000 0.000000 0.000000
# 3 -0.002067 -0.003188 0.007252 0.000000 0.000000 0.000000
# 4 0.000000 0.000000 0.000000 0.042037 0.000000 0.000000
# 5 0.000000 0.000000 0.000000 0.000000 0.066801 0.000000
# 6 0.000000 0.000000 0.000000 0.000000 0.000000 0.170975
#
#
# Mechanical properties :
#
#
# Convention : Reuss Voigt Hill
#
# Bulk Modulus (GPa) = 36.76933 60.57115 48.67024
# Shear Modulus (GPa) = 14.42450 25.28887 19.85669
#
# Velocity S-wave (km/s) = 2.67508 3.54201 3.13862
# Velocity P-wave (km/s) = 5.27093 6.83939 6.10574
#
# Compressibility (1/GPa) = 0.02719658
#
# Stress axis : x y z
#
# Youngs Moduli (GPa) = 38.70683 106.52806 137.88390
#
# Poissons Ratio (x) = 0.25397 0.28498
# Poissons Ratio (y) = 0.09228 0.43961
# Poissons Ratio (z) = 0.08000 0.33964
#
# Static dielectric constant tensor:
#      x y z
#    x 3.065930 0.000000 0.000000 
#    y 0.000000 3.830060 0.000000 
#    z 0.000000 0.000000 4.041800 
# 
# 
# High freq. dielectric constant tensor:
#      x y z
#    x 1.724210 0.000000 0.000000 
#    y 0.000000 1.790760 0.000000 
#    z 0.000000 0.000000 1.808570 
# 
# From -- ./inp_files/9687.got.cif
#   From: 2010.03.12/outbox.cif.g09.slc.cpg/sg51_5_cif.got.tgz:9687.got - 2010.04.16 13:43:02.
