data_PCOD8207694
_publ_section_title
;
Structure prediction by ZEFSAII (Michael W. Deem and Ramdas Pophale) SiO2 
 PCOD8207694
Probable space group: P M M A
;
_chemical_formula_sum "Si O2"
_cell_formula_units_Z 36
_cell_length_a 8.863394
_cell_length_b 18.330041
_cell_length_c 14.206556
_cell_angle_alpha 90.000000
_cell_angle_beta 90.000000
_cell_angle_gamma 90.000000
_cell_volume 2308.087661
_symmetry_space_group_name_H-M "P M M A"
_symmetry_group_IT_number 51
_symmetry_cell_setting 'orthorhombic'
loop_
_space_group_symop_operation_xyz
x,y,z
1/2-x,-y,z
1/2+x,-y,-z
-x,y,-z
-x,-y,-z
1/2+x,y,-z
1/2-x,y,z
x,-y,z
loop_
_atom_site_type_symbol
_atom_site_label
_atom_site_fract_x
_atom_site_fract_y
_atom_site_fract_z
Si Si1 0.427430 0.862165 0.220921
Si Si2 0.927515 0.916368 0.402936
Si Si3 0.572219 0.000000 0.898775
Si Si4 0.426699 0.579075 0.898167
Si Si5 0.928082 0.721675 0.897519
O O1 0.250000 0.867137 0.239291
O O2 0.511300 0.864897 0.320444
O O3 0.474668 0.787861 0.169660
O O4 0.483907 0.928851 0.156685
O O5 0.750000 0.907995 0.410934
O O6 0.000000 0.888934 0.500000
O O7 0.975842 0.000000 0.382661
O O8 0.750000 0.000000 0.911506
O O9 0.500000 0.000000 0.000000
O O10 0.250000 0.595272 0.907548
O O11 0.453731 0.500000 0.847361
O O12 0.507408 0.647716 0.847396
O O13 0.500000 0.574855 0.000000
O O14 0.750000 0.715857 0.909427
O O15 0.000000 0.734164 0.000000
#
# Coordination Sequence:
#
# PCOD8207694 Si02
#       5
#     8   8   4   8   8
#     4  10  20  33  47  64  89 120 152 188 227 266
#     4  10  20  33  51  71  88 111 144 186 233 277
#     4  10  20  32  45  60  85 120 155 190 220 254
#     4   9  16  26  41  60  83 114 150 186 224 265
#     4  10  19  29  43  64  90 122 155 188 226 264
#
# _framework density 15.597327999999999
#
# number of rings (size 3 to 8) (size 9 to 14) (size 15 to 20)
#    0.000    2.222    1.111    4.000    0.000    4.889 
#    0.000    0.000    0.000    0.000    0.000    0.000 
#    0.000    0.889    0.000    2.889    0.000    4.667 
#
# Total GULP energy -446272.285116 kJ/mol
# GULP energy per Si atom -12396.452364 kJ/mol
# Density = 1.556183 g / cm^3
# Si number density = 15.597328 Si / 1000 Ang^3
#
#
#
# Elastic Constant Matrix: (Units=GPa)
#
#
# Indices 1 2 3 4 5 6 
#
# 1 68.5097 50.7977 40.5536 0.0000 0.0000 0.0000
# 2 50.7977 145.9491 58.6443 0.0000 0.0000 0.0000
# 3 40.5536 58.6443 96.9766 0.0000 0.0000 0.0000
# 4 0.0000 0.0000 0.0000 6.5820 0.0000 0.0000
# 5 0.0000 0.0000 0.0000 0.0000 26.1932 0.0000
# 6 0.0000 0.0000 0.0000 0.0000 0.0000 25.5098
#
#
#
# Elastic Compliance Matrix: (Units=1/GPa)
#
#
# Indices 1 2 3 4 5 6 
#
# 1 0.022074 -0.005249 -0.006056 0.000000 0.000000 0.000000
# 2 -0.005249 0.010299 -0.004033 0.000000 0.000000 0.000000
# 3 -0.006056 -0.004033 0.015283 0.000000 0.000000 0.000000
# 4 0.000000 0.000000 0.000000 0.151929 0.000000 0.000000
# 5 0.000000 0.000000 0.000000 0.000000 0.038178 0.000000
# 6 0.000000 0.000000 0.000000 0.000000 0.000000 0.039201
#
#
# Mechanical properties :
#
#
# Convention : Reuss Voigt Hill
#
# Bulk Modulus (GPa) = 58.89703 67.93628 63.41666
# Shear Modulus (GPa) = 15.95911 22.41967 19.18939
#
# Velocity S-wave (km/s) = 3.20221 3.79542 3.51137
# Velocity P-wave (km/s) = 7.17741 7.92830 7.56218
#
# Compressibility (1/GPa) = 0.01697878
#
# Stress axis : x y z
#
# Youngs Moduli (GPa) = 45.30306 97.09445 65.43069
#
# Poissons Ratio (x) = 0.50967 0.39627
# Poissons Ratio (y) = 0.23780 0.26389
# Poissons Ratio (z) = 0.27437 0.39159
#
# Static dielectric constant tensor:
#      x y z
#    x 3.029580 0.000000 0.000000 
#    y 0.000000 3.578610 0.000000 
#    z 0.000000 0.000000 2.706320 
# 
# 
# High freq. dielectric constant tensor:
#      x y z
#    x 1.612000 0.000000 0.000000 
#    y 0.000000 1.600690 0.000000 
#    z 0.000000 0.000000 1.557570 
# 
# From -- ./inp_files/14172.got.cif
#   From: 2010.03.12/outbox.cif.g09.slc.cpg/sg51_8_cif.got.tgz:14172.got - 2010.04.16 13:43:02.
