data_PCOD8207716
_publ_section_title
;
Structure prediction by ZEFSAII (Michael W. Deem and Ramdas Pophale) SiO2 
 PCOD8207716
Probable space group: P M M A
;
_chemical_formula_sum "Si O2"
_cell_formula_units_Z 56
_cell_length_a 9.284728
_cell_length_b 20.243081
_cell_length_c 15.301636
_cell_angle_alpha 90.000000
_cell_angle_beta 90.000000
_cell_angle_gamma 90.000000
_cell_volume 2875.965453
_symmetry_space_group_name_H-M "P M M A"
_symmetry_group_IT_number 51
_symmetry_cell_setting 'orthorhombic'
loop_
_space_group_symop_operation_xyz
x,y,z
1/2-x,-y,z
1/2+x,-y,-z
-x,y,-z
-x,-y,-z
1/2+x,y,-z
1/2-x,y,z
x,-y,z
loop_
_atom_site_type_symbol
_atom_site_label
_atom_site_fract_x
_atom_site_fract_y
_atom_site_fract_z
Si Si1 0.080087 0.665028 0.588406
Si Si2 0.588105 0.245004 0.859357
Si Si3 0.084422 0.387222 0.082504
Si Si4 0.416385 0.788374 0.691914
Si Si5 0.583695 0.575398 0.724746
Si Si6 0.583860 0.898261 0.916580
Si Si7 0.583600 0.071869 0.256070
O O1 0.250000 0.651773 0.578264
O O2 0.047162 0.742908 0.608077
O O3 0.000000 0.645136 0.500000
O O4 0.019237 0.620158 0.665987
O O5 0.750000 0.248907 0.822914
O O6 0.552361 0.308903 0.916610
O O7 0.489882 0.244062 0.774830
O O8 0.566591 0.180751 0.918857
O O9 0.250000 0.403996 0.066546
O O10 0.033888 0.418603 0.174344
O O11 0.000000 0.418181 0.000000
O O12 0.250000 0.783362 0.713008
O O13 0.460473 0.866364 0.680409
O O14 0.750000 0.598967 0.715316
O O15 0.566587 0.500000 0.694045
O O16 0.750000 0.920413 0.920543
O O17 0.514250 0.927618 0.829569
O O18 0.500000 0.927519 0.000000
O O19 0.750000 0.079623 0.227616
O O20 0.559851 0.000000 0.302623
#
# Coordination Sequence:
#
# PCOD8207716 Si02
#       7
#     8   8   8   8   8   8   8
#     4  11  23  39  63  92 118 146 182 228 281 341
#     4   9  17  30  49  73 102 140 182 228 280 326
#     4  10  20  33  52  79 112 150 192 233 277 326
#     4   9  18  33  55  82 108 137 178 224 272 326
#     4  10  22  41  62  84 116 155 192 234 282 332
#     4  10  19  29  43  66  98 136 180 229 278 328
#     4   9  18  33  52  73 100 137 178 222 273 327
#
# _framework density 19.471722
#
# number of rings (size 3 to 8) (size 9 to 14) (size 15 to 20)
#    0.000    2.286    1.429    1.286    0.000    3.714 
#    0.000    0.000    0.000    0.429    0.000    0.000 
#    0.000    0.000    0.000    0.000    0.000    0.143 
#
# Total GULP energy -694068.182233 kJ/mol
# GULP energy per Si atom -12394.074683 kJ/mol
# Density = 1.942740 g / cm^3
# Si number density = 19.471722 Si / 1000 Ang^3
#
#
#
# Elastic Constant Matrix: (Units=GPa)
#
#
# Indices 1 2 3 4 5 6 
#
# 1 76.1171 36.3972 49.3533 0.0000 0.0000 0.0000
# 2 36.3972 98.9313 37.2997 0.0000 0.0000 0.0000
# 3 49.3533 37.2997 92.3512 0.0000 0.0000 0.0000
# 4 0.0000 0.0000 0.0000 4.7850 0.0000 0.0000
# 5 0.0000 0.0000 0.0000 0.0000 28.2580 0.0000
# 6 0.0000 0.0000 0.0000 0.0000 0.0000 18.5639
#
#
#
# Elastic Compliance Matrix: (Units=1/GPa)
#
#
# Indices 1 2 3 4 5 6 
#
# 1 0.021501 -0.004221 -0.009785 0.000000 0.000000 0.000000
# 2 -0.004221 0.012752 -0.002895 0.000000 0.000000 0.000000
# 3 -0.009785 -0.002895 0.017227 0.000000 0.000000 0.000000
# 4 0.000000 0.000000 0.000000 0.208988 0.000000 0.000000
# 5 0.000000 0.000000 0.000000 0.000000 0.035388 0.000000
# 6 0.000000 0.000000 0.000000 0.000000 0.000000 0.053868
#
#
# Mechanical properties :
#
#
# Convention : Reuss Voigt Hill
#
# Bulk Modulus (GPa) = 56.56868 57.05554 56.81211
# Shear Modulus (GPa) = 12.83964 19.94467 16.39216
#
# Velocity S-wave (km/s) = 2.57066 3.20392 2.90460
# Velocity P-wave (km/s) = 6.15840 6.56142 6.36310
#
# Compressibility (1/GPa) = 0.01767763
#
# Stress axis : x y z
#
# Youngs Moduli (GPa) = 46.51030 78.41704 58.04904
#
# Poissons Ratio (x) = 0.33098 0.56803
# Poissons Ratio (y) = 0.19631 0.16805
# Poissons Ratio (z) = 0.45512 0.22701
#
# Static dielectric constant tensor:
#      x y z
#    x 3.765710 0.000000 0.000000 
#    y 0.000000 3.950960 0.000000 
#    z 0.000000 0.000000 3.202440 
# 
# 
# High freq. dielectric constant tensor:
#      x y z
#    x 1.757860 0.000000 0.000000 
#    y 0.000000 1.771890 0.000000 
#    z 0.000000 0.000000 1.721900 
# 
# From -- ./inp_files/21804.got.cif
#   From: 2010.03.12/outbox.cif.g09.slc.cpg/sg51_11_cif.got.tgz:21804.got - 2010.04.16 13:43:02.
