data_PCOD8207489
_publ_section_title
;
Structure prediction by ZEFSAII (Michael W. Deem and Ramdas Pophale) SiO2 
 PCOD8207489
Probable space group: P M M A
;
_chemical_formula_sum "Si O2"
_cell_formula_units_Z 56
_cell_length_a 15.172504
_cell_length_b 8.861214
_cell_length_c 21.469456
_cell_angle_alpha 90.000000
_cell_angle_beta 90.000000
_cell_angle_gamma 90.000000
_cell_volume 2886.499761
_symmetry_space_group_name_H-M "P M M A"
_symmetry_group_IT_number 51
_symmetry_cell_setting 'orthorhombic'
loop_
_space_group_symop_operation_xyz
x,y,z
1/2-x,-y,z
1/2+x,-y,-z
-x,y,-z
-x,-y,-z
1/2+x,y,-z
1/2-x,y,z
x,-y,z
loop_
_atom_site_type_symbol
_atom_site_label
_atom_site_fract_x
_atom_site_fract_y
_atom_site_fract_z
Si Si1 0.396018 0.671231 0.505253
Si Si2 0.647937 0.675265 0.068624
Si Si3 0.504383 0.823044 0.152968
Si Si4 0.149686 0.174289 0.060545
Si Si5 0.153110 0.321598 0.370964
Si Si6 0.004353 0.321190 0.712897
Si Si7 0.649026 0.827622 0.368653
O O1 0.500000 0.675447 0.500000
O O2 0.363170 0.500000 0.516965
O O3 0.357435 0.739964 0.441215
O O4 0.361940 0.774310 0.560703
O O5 0.750000 0.708767 0.083326
O O6 0.625131 0.500000 0.075732
O O7 0.590920 0.770191 0.116789
O O8 0.624578 0.725449 0.998769
O O9 0.415664 0.779174 0.115873
O O10 0.499936 0.741182 0.218251
O O11 0.511341 0.000000 0.164166
O O12 0.250000 0.205691 0.082519
O O13 0.136711 0.000000 0.041637
O O14 0.250000 0.276880 0.345579
O O15 0.140039 0.500000 0.374105
O O16 0.079274 0.253968 0.325117
O O17 0.001560 0.500000 0.715828
O O18 0.093447 0.272877 0.678822
O O19 0.750000 0.810877 0.348139
O O20 0.617272 0.000000 0.363925
#
# Coordination Sequence:
#
# PCOD8207489 Si02
#       7
#     8   8   8   8   8   8   8
#     4  10  18  34  61  89 114 145 186 232 283 338
#     4  10  21  37  59  88 118 148 187 235 283 330
#     4  11  23  38  58  84 115 153 192 230 282 339
#     4   9  19  37  60  86 118 154 189 227 276 335
#     4   9  18  34  57  84 113 145 184 231 282 336
#     4  11  23  40  59  81 111 150 195 238 282 334
#     4  11  24  40  58  83 115 150 189 235 289 343
#
# _framework density 19.400660999999999
#
# number of rings (size 3 to 8) (size 9 to 14) (size 15 to 20)
#    0.000    1.857    1.429    2.571    0.000    6.857 
#    0.000    0.000    0.000    2.143    0.000    0.000 
#    0.000    0.000    0.000    0.000    0.000    0.000 
#
# Total GULP energy -694560.078381 kJ/mol
# GULP energy per Si atom -12402.858543 kJ/mol
# Density = 1.935650 g / cm^3
# Si number density = 19.400661 Si / 1000 Ang^3
#
#
#
# Elastic Constant Matrix: (Units=GPa)
#
#
# Indices 1 2 3 4 5 6 
#
# 1 113.6001 42.4513 70.3094 0.0000 0.0000 0.0000
# 2 42.4513 71.6259 45.9859 0.0000 0.0000 0.0000
# 3 70.3094 45.9859 134.9663 0.0000 0.0000 0.0000
# 4 0.0000 0.0000 0.0000 55.6838 0.0000 0.0000
# 5 0.0000 0.0000 0.0000 0.0000 9.3278 0.0000
# 6 0.0000 0.0000 0.0000 0.0000 0.0000 15.6251
#
#
#
# Elastic Compliance Matrix: (Units=1/GPa)
#
#
# Indices 1 2 3 4 5 6 
#
# 1 0.014112 -0.004664 -0.005762 0.000000 0.000000 0.000000
# 2 -0.004664 0.019412 -0.004184 0.000000 0.000000 0.000000
# 3 -0.005762 -0.004184 0.011837 0.000000 0.000000 0.000000
# 4 0.000000 0.000000 0.000000 0.017959 0.000000 0.000000
# 5 0.000000 0.000000 0.000000 0.000000 0.107206 0.000000
# 6 0.000000 0.000000 0.000000 0.000000 0.000000 0.064000
#
#
# Mechanical properties :
#
#
# Convention : Reuss Voigt Hill
#
# Bulk Modulus (GPa) = 61.96096 70.85394 66.40745
# Shear Modulus (GPa) = 18.57849 26.89037 22.73443
#
# Velocity S-wave (km/s) = 3.09790 3.72701 3.42693
# Velocity P-wave (km/s) = 6.69350 7.42439 7.06840
#
# Compressibility (1/GPa) = 0.01613919
#
# Stress axis : x y z
#
# Youngs Moduli (GPa) = 70.85989 51.51338 84.48219
#
# Poissons Ratio (x) = 0.24028 0.48682
# Poissons Ratio (y) = 0.33052 0.35350
# Poissons Ratio (z) = 0.40832 0.21555
#
# Static dielectric constant tensor:
#      x y z
#    x 3.791700 0.000000 0.000000 
#    y 0.000000 3.488360 0.000000 
#    z 0.000000 0.000000 3.549760 
# 
# 
# High freq. dielectric constant tensor:
#      x y z
#    x 1.771120 0.000000 0.000000 
#    y 0.000000 1.744290 0.000000 
#    z 0.000000 0.000000 1.753110 
# 
# From -- ./inp_files/33357.got.cif
#   From: 2010.03.12/outbox.cif.g09.slc.cpg/sg51_17_cif.got.tgz:33357.got - 2010.04.16 13:43:02.
