data_PCOD8207710
_publ_section_title
;
Structure prediction by ZEFSAII (Michael W. Deem and Ramdas Pophale) SiO2 
 PCOD8207710
Probable space group: P M M A
;
_chemical_formula_sum "Si O2"
_cell_formula_units_Z 64
_cell_length_a 8.877811
_cell_length_b 24.759865
_cell_length_c 14.891895
_cell_angle_alpha 90.000000
_cell_angle_beta 90.000000
_cell_angle_gamma 90.000000
_cell_volume 3273.438100
_symmetry_space_group_name_H-M "P M M A"
_symmetry_group_IT_number 51
_symmetry_cell_setting 'orthorhombic'
loop_
_space_group_symop_operation_xyz
x,y,z
1/2-x,-y,z
1/2+x,-y,-z
-x,y,-z
-x,-y,-z
1/2+x,y,-z
1/2-x,y,z
x,-y,z
loop_
_atom_site_type_symbol
_atom_site_label
_atom_site_fract_x
_atom_site_fract_y
_atom_site_fract_z
Si Si1 0.921206 0.835379 0.162417
Si Si2 0.574086 0.939653 0.782424
Si Si3 0.574908 0.090137 0.586651
Si Si4 0.424832 0.563022 0.093718
Si Si5 0.425970 0.315822 0.590280
Si Si6 0.421674 0.195642 0.632797
Si Si7 0.428582 0.265057 0.091052
Si Si8 0.928411 0.648475 0.216489
O O1 0.750000 0.835454 0.127070
O O2 0.932837 0.810772 0.260903
O O3 0.983351 0.896685 0.157823
O O4 0.022182 0.797454 0.099296
O O5 0.750000 0.924855 0.786890
O O6 0.517799 0.937002 0.678952
O O7 0.542582 0.000000 0.819193
O O8 0.500000 0.061482 0.500000
O O9 0.750000 0.082341 0.576188
O O10 0.531431 0.153279 0.585341
O O11 0.250000 0.579483 0.089941
O O12 0.447049 0.500000 0.112413
O O13 0.506821 0.593627 0.174659
O O14 0.500000 0.580173 0.000000
O O15 0.500000 0.340084 0.500000
O O16 0.250000 0.316294 0.574913
O O17 0.481822 0.254620 0.606398
O O18 0.468226 0.351747 0.677346
O O19 0.250000 0.185656 0.601110
O O20 0.250000 0.270087 0.088011
O O21 0.493487 0.299531 0.173042
O O22 0.500000 0.289123 0.000000
O O23 0.750000 0.652698 0.200968
#
# Coordination Sequence:
#
# PCOD8207710 Si02
#       8
#     8   8   8   8   8   8   8   8
#     4  10  19  35  56  79 109 139 177 226 277 336
#     4   9  19  35  52  71  97 133 178 224 274 336
#     4  10  19  29  43  66  94 129 172 221 276 331
#     4  10  21  38  61  91 124 159 200 243 289 345
#     4  10  21  35  52  77 111 152 195 240 286 335
#     4   9  17  32  50  70 100 138 178 224 275 327
#     4  12  24  38  59  87 119 154 188 225 281 344
#     4  11  22  39  59  85 123 160 197 242 290 338
#
# _framework density 19.551309
#
# number of rings (size 3 to 8) (size 9 to 14) (size 15 to 20)
#    0.000    1.875    1.250    3.375    0.000    4.750 
#    0.000    0.000    0.000    0.750    0.000    0.000 
#    0.000    0.000    0.000    0.000    0.000    0.000 
#
# Total GULP energy -793655.455912 kJ/mol
# GULP energy per Si atom -12400.866499 kJ/mol
# Density = 1.950681 g / cm^3
# Si number density = 19.551309 Si / 1000 Ang^3
#
#
#
# Elastic Constant Matrix: (Units=GPa)
#
#
# Indices 1 2 3 4 5 6 
#
# 1 105.4776 41.9182 47.2465 0.0000 0.0000 0.0000
# 2 41.9182 87.3949 40.5161 0.0000 0.0000 0.0000
# 3 47.2465 40.5161 93.7359 0.0000 0.0000 0.0000
# 4 0.0000 0.0000 0.0000 10.9785 0.0000 0.0000
# 5 0.0000 0.0000 0.0000 0.0000 31.5534 0.0000
# 6 0.0000 0.0000 0.0000 0.0000 0.0000 29.1983
#
#
#
# Elastic Compliance Matrix: (Units=1/GPa)
#
#
# Indices 1 2 3 4 5 6 
#
# 1 0.013324 -0.004099 -0.004944 0.000000 0.000000 0.000000
# 2 -0.004099 0.015571 -0.004664 0.000000 0.000000 0.000000
# 3 -0.004944 -0.004664 0.015176 0.000000 0.000000 0.000000
# 4 0.000000 0.000000 0.000000 0.091087 0.000000 0.000000
# 5 0.000000 0.000000 0.000000 0.000000 0.031692 0.000000
# 6 0.000000 0.000000 0.000000 0.000000 0.000000 0.034249
#
#
# Mechanical properties :
#
#
# Convention : Reuss Voigt Hill
#
# Bulk Modulus (GPa) = 60.03586 60.66333 60.34960
# Shear Modulus (GPa) = 21.36151 24.80788 23.08470
#
# Velocity S-wave (km/s) = 3.30902 3.56597 3.43989
# Velocity P-wave (km/s) = 6.73594 6.93181 6.83458
#
# Compressibility (1/GPa) = 0.01665671
#
# Stress axis : x y z
#
# Youngs Moduli (GPa) = 75.05097 64.22376 65.89143
#
# Poissons Ratio (x) = 0.26323 0.32579
# Poissons Ratio (y) = 0.30761 0.30734
# Poissons Ratio (z) = 0.37108 0.29956
#
# Static dielectric constant tensor:
#      x y z
#    x 3.547490 0.000000 0.000000 
#    y 0.000000 3.435660 0.000000 
#    z 0.000000 0.000000 3.581530 
# 
# 
# High freq. dielectric constant tensor:
#      x y z
#    x 1.764800 0.000000 0.000000 
#    y 0.000000 1.743710 0.000000 
#    z 0.000000 0.000000 1.753080 
# 
# From -- ./inp_files/22252.got.cif
#   From: 2010.03.12/outbox.cif.g09.slc.cpg/sg51_12_cif.got.tgz:22252.got - 2010.04.16 13:43:02.
