data_PCOD8207561
_publ_section_title
;
Structure prediction by ZEFSAII (Michael W. Deem and Ramdas Pophale) SiO2 
 PCOD8207561
Probable space group: P M M A
;
_chemical_formula_sum "Si O2"
_cell_formula_units_Z 64
_cell_length_a 9.133944
_cell_length_b 18.110348
_cell_length_c 26.804692
_cell_angle_alpha 90.000000
_cell_angle_beta 90.000000
_cell_angle_gamma 90.000000
_cell_volume 4434.002785
_symmetry_space_group_name_H-M "P M M A"
_symmetry_group_IT_number 51
_symmetry_cell_setting 'orthorhombic'
loop_
_space_group_symop_operation_xyz
x,y,z
1/2-x,-y,z
1/2+x,-y,-z
-x,y,-z
-x,-y,-z
1/2+x,y,-z
1/2-x,y,z
x,-y,z
loop_
_atom_site_type_symbol
_atom_site_label
_atom_site_fract_x
_atom_site_fract_y
_atom_site_fract_z
Si Si1 0.418465 0.913811 0.840084
Si Si2 0.088610 0.299144 0.200376
Si Si3 0.084958 0.912040 0.547967
Si Si4 0.922607 0.843932 0.748905
Si Si5 0.078554 0.582746 0.852938
Si Si6 0.423345 0.673818 0.950530
Si Si7 0.920131 0.914999 0.645639
Si Si8 0.915102 0.797805 0.898441
O O1 0.250000 0.887432 0.839528
O O2 0.489014 0.895494 0.786720
O O3 0.503067 0.873947 0.885440
O O4 0.431913 0.000000 0.850333
O O5 0.250000 0.329829 0.212394
O O6 0.035662 0.242936 0.243948
O O7 0.090166 0.250884 0.150803
O O8 0.984503 0.369602 0.193176
O O9 0.250000 0.881987 0.546553
O O10 0.000000 0.879891 0.500000
O O11 0.008709 0.883689 0.598460
O O12 0.080679 0.000000 0.546692
O O13 0.750000 0.856098 0.759266
O O14 0.966351 0.866622 0.693164
O O15 0.250000 0.581845 0.845461
O O16 0.013809 0.500000 0.850876
O O17 0.036314 0.617663 0.906124
O O18 0.250000 0.681073 0.958048
O O19 0.492363 0.754418 0.940206
O O20 0.500000 0.641325 0.000000
O O21 0.750000 0.906609 0.632984
O O22 0.959816 0.000000 0.656971
O O23 0.750000 0.813489 0.917858
#
# Coordination Sequence:
#
# PCOD8207561 Si02
#       8
#     8   8   8   8   8   8   8   8
#     4  10  19  28  40  60  83 104 128 161 199 236
#     4   8  15  27  42  60  79 101 130 160 189 225
#     4   9  16  25  36  49  67  94 130 171 211 249
#     4   9  17  28  41  57  79 106 135 165 199 241
#     4   9  18  31  45  62  84 108 132 157 185 219
#     4  10  19  31  47  65  85 106 128 155 187 224
#     4   9  16  25  37  53  74 101 133 170 210 245
#     4   9  17  30  46  61  78 102 132 160 188 228
#
# _framework density 14.433911
#
# number of rings (size 3 to 8) (size 9 to 14) (size 15 to 20)
#    0.000    2.875    0.000    2.625    0.000    7.500 
#    0.000    1.250    0.000    0.375    0.000    0.000 
#    0.000    0.000    0.000    0.000    0.000    0.625 
#
# Total GULP energy -793414.445606 kJ/mol
# GULP energy per Si atom -12397.100713 kJ/mol
# Density = 1.440106 g / cm^3
# Si number density = 14.433911 Si / 1000 Ang^3
#
#
#
# Elastic Constant Matrix: (Units=GPa)
#
#
# Indices 1 2 3 4 5 6 
#
# 1 74.4467 40.0971 33.4799 0.0000 0.0000 0.0000
# 2 40.0971 77.2844 40.8316 0.0000 0.0000 0.0000
# 3 33.4799 40.8316 68.8745 0.0000 0.0000 0.0000
# 4 0.0000 0.0000 0.0000 11.4177 0.0000 0.0000
# 5 0.0000 0.0000 0.0000 0.0000 23.9425 0.0000
# 6 0.0000 0.0000 0.0000 0.0000 0.0000 19.4382
#
#
#
# Elastic Compliance Matrix: (Units=1/GPa)
#
#
# Indices 1 2 3 4 5 6 
#
# 1 0.019823 -0.007562 -0.005153 0.000000 0.000000 0.000000
# 2 -0.007562 0.021725 -0.009204 0.000000 0.000000 0.000000
# 3 -0.005153 -0.009204 0.022480 0.000000 0.000000 0.000000
# 4 0.000000 0.000000 0.000000 0.087584 0.000000 0.000000
# 5 0.000000 0.000000 0.000000 0.000000 0.041767 0.000000
# 6 0.000000 0.000000 0.000000 0.000000 0.000000 0.051445
#
#
# Mechanical properties :
#
#
# Convention : Reuss Voigt Hill
#
# Bulk Modulus (GPa) = 49.52667 49.93587 49.73127
# Shear Modulus (GPa) = 16.92673 18.03947 17.48310
#
# Velocity S-wave (km/s) = 3.42819 3.53908 3.48408
# Velocity P-wave (km/s) = 7.07511 7.16739 7.12140
#
# Compressibility (1/GPa) = 0.02019114
#
# Stress axis : x y z
#
# Youngs Moduli (GPa) = 50.44721 46.02947 44.48382
#
# Poissons Ratio (x) = 0.34809 0.22921
# Poissons Ratio (y) = 0.38149 0.40941
# Poissons Ratio (z) = 0.25994 0.42363
#
# Static dielectric constant tensor:
#      x y z
#    x 2.960320 0.000000 0.000000 
#    y 0.000000 2.751890 0.000000 
#    z 0.000000 0.000000 2.759190 
# 
# 
# High freq. dielectric constant tensor:
#      x y z
#    x 1.563470 0.000000 0.000000 
#    y 0.000000 1.518510 0.000000 
#    z 0.000000 0.000000 1.527720 
# 
# From -- ./inp_files/36444.got.cif
#   From: 2010.03.12/outbox.cif.g09.slc.cpg/sg51_19_cif.got.tgz:36444.got - 2010.04.16 13:43:02.
