data_PCOD8207303
_publ_section_title
;
Structure prediction by ZEFSAII (Michael W. Deem and Ramdas Pophale) SiO2 
 PCOD8207303
Probable space group: P M M A
;
_chemical_formula_sum "Si O2"
_cell_formula_units_Z 64
_cell_length_a 19.389599
_cell_length_b 9.305983
_cell_length_c 19.172391
_cell_angle_alpha 90.000000
_cell_angle_beta 90.000000
_cell_angle_gamma 90.000000
_cell_volume 3459.452402
_symmetry_space_group_name_H-M "P M M A"
_symmetry_group_IT_number 51
_symmetry_cell_setting 'orthorhombic'
loop_
_space_group_symop_operation_xyz
x,y,z
1/2-x,-y,z
1/2+x,-y,-z
-x,y,-z
-x,-y,-z
1/2+x,y,-z
1/2-x,y,z
x,-y,z
loop_
_atom_site_type_symbol
_atom_site_label
_atom_site_fract_x
_atom_site_fract_y
_atom_site_fract_z
Si Si1 0.579670 0.336928 0.228955
Si Si2 0.432662 0.663977 0.286907
Si Si3 0.407552 0.329545 0.070875
Si Si4 0.056190 0.331659 0.444896
Si Si5 0.937449 0.668151 0.078494
Si Si6 0.673961 0.830252 0.330872
Si Si7 0.331060 0.830899 0.192065
Si Si8 0.670729 0.162725 0.487616
O O1 0.602249 0.500000 0.245384
O O2 0.497325 0.320673 0.235228
O O3 0.601241 0.290292 0.150360
O O4 0.616557 0.232695 0.281601
O O5 0.405305 0.500000 0.287500
O O6 0.459697 0.707500 0.364351
O O7 0.371597 0.765301 0.258650
O O8 0.399355 0.500000 0.086167
O O9 0.485088 0.268646 0.080679
O O10 0.355398 0.244172 0.120485
O O11 0.391552 0.289867 0.989177
O O12 0.061787 0.500000 0.456554
O O13 0.129967 0.263122 0.459884
O O14 0.000000 0.268273 0.500000
O O15 0.950728 0.500000 0.075298
O O16 0.750000 0.778167 0.307191
O O17 0.659730 0.778193 0.409391
O O18 0.670016 0.000000 0.327938
O O19 0.250000 0.801243 0.202391
O O20 0.346715 0.000000 0.187955
O O21 0.750000 0.170782 0.509554
O O22 0.643526 0.000000 0.493756
#
# Coordination Sequence:
#
# PCOD8207303 Si02
#       8
#     8   8   8   8   8   8   8   8
#     4  10  18  32  55  82 108 135 172 221 266 311
#     4  10  21  37  57  80 107 141 180 219 269 328
#     4   9  16  33  58  80 103 136 177 219 265 317
#     4  10  21  36  55  82 111 136 169 221 277 326
#     4   8  15  29  55  84 106 131 170 219 263 310
#     4   9  19  35  52  73 104 141 178 213 257 319
#     4  11  24  39  54  77 112 150 188 231 273 316
#     4   9  19  36  55  73  98 137 181 219 259 314
#
# _framework density 18.500036999999999
#
# number of rings (size 3 to 8) (size 9 to 14) (size 15 to 20)
#    0.000    2.500    1.250    2.625    0.000    4.750 
#    0.000    6.250    0.000    3.750    0.000    0.000 
#    0.000    0.000    0.000    0.000    0.000    0.000 
#
# Total GULP energy -793247.880194 kJ/mol
# GULP energy per Si atom -12394.498128 kJ/mol
# Density = 1.845793 g / cm^3
# Si number density = 18.500037 Si / 1000 Ang^3
#
#
#
# Elastic Constant Matrix: (Units=GPa)
#
#
# Indices 1 2 3 4 5 6 
#
# 1 59.8770 30.1508 35.5723 0.0000 0.0000 0.0000
# 2 30.1508 46.8203 39.4895 0.0000 0.0000 0.0000
# 3 35.5723 39.4895 117.9162 0.0000 0.0000 0.0000
# 4 0.0000 0.0000 0.0000 22.4850 0.0000 0.0000
# 5 0.0000 0.0000 0.0000 0.0000 28.4510 0.0000
# 6 0.0000 0.0000 0.0000 0.0000 0.0000 26.5368
#
#
#
# Elastic Compliance Matrix: (Units=1/GPa)
#
#
# Indices 1 2 3 4 5 6 
#
# 1 0.025481 -0.013833 -0.003054 0.000000 0.000000 0.000000
# 2 -0.013833 0.037275 -0.008310 0.000000 0.000000 0.000000
# 3 -0.003054 -0.008310 0.012185 0.000000 0.000000 0.000000
# 4 0.000000 0.000000 0.000000 0.044474 0.000000 0.000000
# 5 0.000000 0.000000 0.000000 0.000000 0.035148 0.000000
# 6 0.000000 0.000000 0.000000 0.000000 0.000000 0.037684
#
#
# Mechanical properties :
#
#
# Convention : Reuss Voigt Hill
#
# Bulk Modulus (GPa) = 40.73921 48.33762 44.53841
# Shear Modulus (GPa) = 19.93429 23.45462 21.69445
#
# Velocity S-wave (km/s) = 3.28613 3.56450 3.42814
# Velocity P-wave (km/s) = 6.03881 6.56704 6.30845
#
# Compressibility (1/GPa) = 0.02454638
#
# Stress axis : x y z
#
# Youngs Moduli (GPa) = 39.24508 26.82746 82.06729
#
# Poissons Ratio (x) = 0.37110 0.25067
# Poissons Ratio (y) = 0.54287 0.68201
# Poissons Ratio (z) = 0.11987 0.22294
#
# Static dielectric constant tensor:
#      x y z
#    x 3.214340 0.000000 0.000000 
#    y 0.000000 3.162290 0.000000 
#    z 0.000000 0.000000 3.907160 
# 
# 
# High freq. dielectric constant tensor:
#      x y z
#    x 1.699050 0.000000 0.000000 
#    y 0.000000 1.694830 0.000000 
#    z 0.000000 0.000000 1.733530 
# 
# From -- ./inp_files/30643.got.cif
#   From: 2010.03.12/outbox.cif.g09.slc.cpg/sg51_16_cif.got.tgz:30643.got - 2010.04.16 13:43:02.
