data_PCOD8207397
_publ_section_title
;
Structure prediction by ZEFSAII (Michael W. Deem and Ramdas Pophale) SiO2 
 PCOD8207397
Probable space group: P M M A
;
_chemical_formula_sum "Si O2"
_cell_formula_units_Z 56
_cell_length_a 14.139168
_cell_length_b 8.624462
_cell_length_c 23.095580
_cell_angle_alpha 90.000000
_cell_angle_beta 90.000000
_cell_angle_gamma 90.000000
_cell_volume 2816.337779
_symmetry_space_group_name_H-M "P M M A"
_symmetry_group_IT_number 51
_symmetry_cell_setting 'orthorhombic'
loop_
_space_group_symop_operation_xyz
x,y,z
1/2-x,-y,z
1/2+x,-y,-z
-x,y,-z
-x,-y,-z
1/2+x,y,-z
1/2-x,y,z
x,-y,z
loop_
_atom_site_type_symbol
_atom_site_label
_atom_site_fract_x
_atom_site_fract_y
_atom_site_fract_z
Si Si1 0.966621 0.183941 0.916793
Si Si2 0.646045 0.683574 0.357888
Si Si3 0.354015 0.171684 0.400319
Si Si4 0.538952 0.678981 0.698006
Si Si5 0.859492 0.682879 0.024821
Si Si6 0.856202 0.182213 0.804891
Si Si7 0.608717 0.673610 0.485298
O O1 0.919696 0.246705 0.857614
O O2 0.070301 0.262934 0.923507
O O3 0.980579 0.000000 0.917071
O O4 0.894214 0.230135 0.967396
O O5 0.750000 0.735655 0.336471
O O6 0.636408 0.500000 0.363210
O O7 0.569586 0.737850 0.309851
O O8 0.626254 0.750766 0.422214
O O9 0.250000 0.166219 0.372268
O O10 0.414318 0.296862 0.364840
O O11 0.341446 0.221184 0.466852
O O12 0.400359 0.000000 0.396389
O O13 0.545687 0.500000 0.716077
O O14 0.591609 0.780551 0.745343
O O15 0.750000 0.727482 0.038482
O O16 0.869815 0.500000 0.015606
O O17 0.750000 0.255035 0.806282
O O18 0.847150 0.000000 0.811148
O O19 0.500000 0.670299 0.500000
O O20 0.651651 0.500000 0.487227
#
# Coordination Sequence:
#
# PCOD8207397 Si02
#       7
#     8   8   8   8   8   8   8
#     4  10  20  35  58  85 115 153 195 237 280 334
#     4   9  18  34  55  77 103 135 170 215 271 325
#     4  11  23  36  51  75 108 141 171 211 267 325
#     4  11  22  37  57  80 104 135 182 228 267 320
#     4  10  20  34  55  86 124 159 191 233 281 327
#     4  10  22  40  59  81 111 145 181 225 279 331
#     4  10  18  33  56  80 103 130 170 218 266 322
#
# _framework density 19.883977999999999
#
# number of rings (size 3 to 8) (size 9 to 14) (size 15 to 20)
#    0.000    1.857    1.429    3.857    0.000    6.857 
#    0.000    0.714    0.000    5.143    0.000    0.000 
#    0.000    0.000    0.000    0.000    0.000    0.000 
#
# Total GULP energy -694197.893643 kJ/mol
# GULP energy per Si atom -12396.390958 kJ/mol
# Density = 1.983872 g / cm^3
# Si number density = 19.883978 Si / 1000 Ang^3
#
#
#
# Elastic Constant Matrix: (Units=GPa)
#
#
# Indices 1 2 3 4 5 6 
#
# 1 164.1869 19.3006 55.6030 0.0000 0.0000 0.0000
# 2 19.3006 38.7979 6.1238 0.0000 0.0000 0.0000
# 3 55.6030 6.1238 93.7809 0.0000 0.0000 0.0000
# 4 0.0000 0.0000 0.0000 22.2217 0.0000 0.0000
# 5 0.0000 0.0000 0.0000 0.0000 29.9408 0.0000
# 6 0.0000 0.0000 0.0000 0.0000 0.0000 23.9944
#
#
#
# Elastic Compliance Matrix: (Units=1/GPa)
#
#
# Indices 1 2 3 4 5 6 
#
# 1 0.008011 -0.003269 -0.004536 0.000000 0.000000 0.000000
# 2 -0.003269 0.027377 0.000151 0.000000 0.000000 0.000000
# 3 -0.004536 0.000151 0.013343 0.000000 0.000000 0.000000
# 4 0.000000 0.000000 0.000000 0.045001 0.000000 0.000000
# 5 0.000000 0.000000 0.000000 0.000000 0.033399 0.000000
# 6 0.000000 0.000000 0.000000 0.000000 0.000000 0.041676
#
#
# Mechanical properties :
#
#
# Convention : Reuss Voigt Hill
#
# Bulk Modulus (GPa) = 29.92101 50.98003 40.45052
# Shear Modulus (GPa) = 25.60709 29.61394 27.61051
#
# Velocity S-wave (km/s) = 3.59252 3.86338 3.73041
# Velocity P-wave (km/s) = 5.68232 6.75243 6.24036
#
# Compressibility (1/GPa) = 0.03342133
#
# Stress axis : x y z
#
# Youngs Moduli (GPa) = 124.82507 36.52679 74.94590
#
# Poissons Ratio (x) = 0.11942 0.33998
# Poissons Ratio (y) = 0.40809 -0.01129
# Poissons Ratio (z) = 0.56626 -0.00550
#
# Static dielectric constant tensor:
#      x y z
#    x 3.895850 0.000000 0.000000 
#    y 0.000000 3.424060 0.000000 
#    z 0.000000 0.000000 3.512480 
# 
# 
# High freq. dielectric constant tensor:
#      x y z
#    x 1.791910 0.000000 0.000000 
#    y 0.000000 1.757780 0.000000 
#    z 0.000000 0.000000 1.755250 
# 
# From -- ./inp_files/33326.got.cif
#   From: 2010.03.12/outbox.cif.g09.slc.cpg/sg51_17_cif.got.tgz:33326.got - 2010.04.16 13:43:02.
