data_PCOD8207490
_publ_section_title
;
Structure prediction by ZEFSAII (Michael W. Deem and Ramdas Pophale) SiO2 
 PCOD8207490
Probable space group: P M M A
;
_chemical_formula_sum "Si O2"
_cell_formula_units_Z 56
_cell_length_a 15.136145
_cell_length_b 8.887411
_cell_length_c 21.080278
_cell_angle_alpha 90.000000
_cell_angle_beta 90.000000
_cell_angle_gamma 90.000000
_cell_volume 2835.743061
_symmetry_space_group_name_H-M "P M M A"
_symmetry_group_IT_number 51
_symmetry_cell_setting 'orthorhombic'
loop_
_space_group_symop_operation_xyz
x,y,z
1/2-x,-y,z
1/2+x,-y,-z
-x,y,-z
-x,-y,-z
1/2+x,y,-z
1/2-x,y,z
x,-y,z
loop_
_atom_site_type_symbol
_atom_site_label
_atom_site_fract_x
_atom_site_fract_y
_atom_site_fract_z
Si Si1 0.649434 0.174362 0.913361
Si Si2 0.152471 0.178304 0.358964
Si Si3 0.604451 0.828436 0.502686
Si Si4 0.488412 0.676452 0.848858
Si Si5 0.515404 0.822137 0.284535
Si Si6 0.350169 0.328753 0.623205
Si Si7 0.148539 0.826616 0.939806
O O1 0.750000 0.215047 0.895281
O O2 0.585463 0.272235 0.870078
O O3 0.630593 0.000000 0.899471
O O4 0.631747 0.210668 0.986765
O O5 0.250000 0.228636 0.335562
O O6 0.135783 0.238966 0.429918
O O7 0.078975 0.240081 0.310194
O O8 0.143514 0.000000 0.361627
O O9 0.500000 0.820599 0.500000
O O10 0.646938 0.724470 0.449320
O O11 0.637369 0.000000 0.493227
O O12 0.488309 0.500000 0.840842
O O13 0.462379 0.748585 0.782299
O O14 0.414782 0.721066 0.899751
O O15 0.590883 0.780055 0.334195
O O16 0.514100 0.000000 0.276110
O O17 0.250000 0.318073 0.647945
O O18 0.384835 0.500000 0.627911
O O19 0.250000 0.793314 0.921691
O O20 0.125178 0.000000 0.925926
#
# Coordination Sequence:
#
# PCOD8207490 Si02
#       7
#     8   8   8   8   8   8   8
#     4   9  19  38  64  91 118 152 197 244 284 332
#     4   9  18  34  58  86 112 140 183 239 288 331
#     4  10  18  34  61  90 115 144 187 235 283 341
#     4  12  25  38  56  86 123 159 193 235 296 357
#     4  11  23  41  61  81 109 152 203 245 285 338
#     4  11  24  40  58  84 118 153 189 235 296 355
#     4   9  19  38  64  91 117 150 196 244 287 337
#
# _framework density 19.747910000000001
#
# number of rings (size 3 to 8) (size 9 to 14) (size 15 to 20)
#    0.000    1.857    1.429    3.857    0.000    6.000 
#    0.000    2.857    0.000    2.143    0.000    0.000 
#    0.000    0.000    0.000    0.000    0.000    0.000 
#
# Total GULP energy -694551.360819 kJ/mol
# GULP energy per Si atom -12402.702872 kJ/mol
# Density = 1.970296 g / cm^3
# Si number density = 19.747910 Si / 1000 Ang^3
#
#
#
# Elastic Constant Matrix: (Units=GPa)
#
#
# Indices 1 2 3 4 5 6 
#
# 1 85.8776 29.6611 16.5546 0.0000 0.0000 0.0000
# 2 29.6611 85.6719 31.3223 0.0000 0.0000 0.0000
# 3 16.5546 31.3223 61.9271 0.0000 0.0000 0.0000
# 4 0.0000 0.0000 0.0000 0.4648 0.0000 0.0000
# 5 0.0000 0.0000 0.0000 0.0000 9.1111 0.0000
# 6 0.0000 0.0000 0.0000 0.0000 0.0000 20.1519
#
#
#
# Elastic Compliance Matrix: (Units=1/GPa)
#
#
# Indices 1 2 3 4 5 6 
#
# 1 0.013340 -0.004067 -0.001509 0.000000 0.000000 0.000000
# 2 -0.004067 0.015560 -0.006783 0.000000 0.000000 0.000000
# 3 -0.001509 -0.006783 0.019982 0.000000 0.000000 0.000000
# 4 0.000000 0.000000 0.000000 2.151238 0.000000 0.000000
# 5 0.000000 0.000000 0.000000 0.000000 0.109756 0.000000
# 6 0.000000 0.000000 0.000000 0.000000 0.000000 0.049623
#
#
# Mechanical properties :
#
#
# Convention : Reuss Voigt Hill
#
# Bulk Modulus (GPa) = 41.38302 43.17250 42.27776
# Shear Modulus (GPa) = 2.09006 16.34150 9.21578
#
# Velocity S-wave (km/s) = 1.02989 2.87976 2.16260
# Velocity P-wave (km/s) = 4.73449 5.74166 5.26222
#
# Compressibility (1/GPa) = 0.02416450
#
# Stress axis : x y z
#
# Youngs Moduli (GPa) = 74.96246 64.26564 50.04421
#
# Poissons Ratio (x) = 0.26135 0.07552
# Poissons Ratio (y) = 0.30486 0.33946
# Poissons Ratio (z) = 0.11313 0.43593
#
# Static dielectric constant tensor:
#      x y z
#    x 3.748140 0.000000 0.000000 
#    y 0.000000 3.375400 0.000000 
#    z 0.000000 0.000000 3.592150 
# 
# 
# High freq. dielectric constant tensor:
#      x y z
#    x 1.784540 0.000000 0.000000 
#    y 0.000000 1.747980 0.000000 
#    z 0.000000 0.000000 1.768850 
# 
# From -- ./inp_files/33308.got.cif
#   From: 2010.03.12/outbox.cif.g09.slc.cpg/sg51_17_cif.got.tgz:33308.got - 2010.04.16 13:43:02.
