data_PCOD8207563
_publ_section_title
;
Structure prediction by ZEFSAII (Michael W. Deem and Ramdas Pophale) SiO2 
 PCOD8207563
Probable space group: P M M A
;
_chemical_formula_sum "Si O2"
_cell_formula_units_Z 64
_cell_length_a 9.273420
_cell_length_b 18.025395
_cell_length_c 26.554940
_cell_angle_alpha 90.000000
_cell_angle_beta 90.000000
_cell_angle_gamma 90.000000
_cell_volume 4438.845659
_symmetry_space_group_name_H-M "P M M A"
_symmetry_group_IT_number 51
_symmetry_cell_setting 'orthorhombic'
loop_
_space_group_symop_operation_xyz
x,y,z
1/2-x,-y,z
1/2+x,-y,-z
-x,y,-z
-x,-y,-z
1/2+x,y,-z
1/2-x,y,z
x,-y,z
loop_
_atom_site_type_symbol
_atom_site_label
_atom_site_fract_x
_atom_site_fract_y
_atom_site_fract_z
Si Si1 0.081348 0.083241 0.746217
Si Si2 0.582215 0.414656 0.951320
Si Si3 0.916627 0.586539 0.245671
Si Si4 0.580939 0.174182 0.352435
Si Si5 0.412823 0.297589 0.303669
Si Si6 0.581358 0.084874 0.450521
Si Si7 0.409017 0.798723 0.203328
Si Si8 0.420140 0.653595 0.153385
O O1 0.250000 0.082862 0.755063
O O2 0.040829 0.117639 0.692323
O O3 0.014639 0.131295 0.791870
O O4 0.018630 0.000000 0.748131
O O5 0.750000 0.405014 0.961822
O O6 0.540541 0.500000 0.941598
O O7 0.533006 0.368482 0.902671
O O8 0.500000 0.382979 0.000000
O O9 0.750000 0.612354 0.243558
O O10 0.929460 0.500000 0.257079
O O11 0.997187 0.628170 0.291573
O O12 0.990677 0.603815 0.192311
O O13 0.750000 0.192820 0.351622
O O14 0.492593 0.250801 0.347383
O O15 0.532500 0.135498 0.404021
O O16 0.250000 0.317816 0.320840
O O17 0.409907 0.248398 0.254053
O O18 0.500000 0.113779 0.500000
O O19 0.750000 0.092156 0.460571
O O20 0.538774 0.000000 0.438259
O O21 0.250000 0.830280 0.192278
O O22 0.457139 0.741239 0.159633
O O23 0.250000 0.639062 0.163209
#
# Coordination Sequence:
#
# PCOD8207563 Si02
#       8
#     8   8   8   8   8   8   8   8
#     4   9  16  25  38  56  77 102 131 160 192 233
#     4   9  17  28  41  57  78 104 133 165 198 230
#     4  10  19  28  40  60  83 106 134 166 197 232
#     4   9  16  27  42  57  77 106 137 168 201 235
#     4   9  17  28  41  57  78 104 133 164 198 237
#     4   9  17  28  41  58  81 109 140 173 207 240
#     4   8  15  26  38  54  75  99 128 160 192 228
#     4   9  17  29  43  57  77 107 138 165 197 236
#
# _framework density 14.418162000000001
#
# number of rings (size 3 to 8) (size 9 to 14) (size 15 to 20)
#    0.000    3.000    0.000    2.250    0.000    7.250 
#    0.000    1.250    0.000    2.250    0.000    0.000 
#    0.000    1.000    0.000    2.750    0.000    4.000 
#
# Total GULP energy -793429.312092 kJ/mol
# GULP energy per Si atom -12397.333001 kJ/mol
# Density = 1.438535 g / cm^3
# Si number density = 14.418162 Si / 1000 Ang^3
#
#
#
# Elastic Constant Matrix: (Units=GPa)
#
#
# Indices 1 2 3 4 5 6 
#
# 1 63.3378 47.1649 39.9079 0.0000 0.0000 0.0000
# 2 47.1649 86.9732 53.6695 0.0000 0.0000 0.0000
# 3 39.9079 53.6695 90.3098 0.0000 0.0000 0.0000
# 4 0.0000 0.0000 0.0000 25.5032 0.0000 0.0000
# 5 0.0000 0.0000 0.0000 0.0000 22.5157 0.0000
# 6 0.0000 0.0000 0.0000 0.0000 0.0000 23.0784
#
#
#
# Elastic Compliance Matrix: (Units=1/GPa)
#
#
# Indices 1 2 3 4 5 6 
#
# 1 0.027996 -0.011918 -0.005288 0.000000 0.000000 0.000000
# 2 -0.011918 0.023230 -0.008538 0.000000 0.000000 0.000000
# 3 -0.005288 -0.008538 0.018484 0.000000 0.000000 0.000000
# 4 0.000000 0.000000 0.000000 0.039211 0.000000 0.000000
# 5 0.000000 0.000000 0.000000 0.000000 0.044413 0.000000
# 6 0.000000 0.000000 0.000000 0.000000 0.000000 0.043331
#
#
# Mechanical properties :
#
#
# Convention : Reuss Voigt Hill
#
# Bulk Modulus (GPa) = 54.88675 58.01169 56.44922
# Shear Modulus (GPa) = 19.66740 20.87804 20.27272
#
# Velocity S-wave (km/s) = 3.69734 3.80944 3.75381
# Velocity P-wave (km/s) = 7.50850 7.72474 7.61738
#
# Compressibility (1/GPa) = 0.01821933
#
# Stress axis : x y z
#
# Youngs Moduli (GPa) = 35.71988 43.04789 54.10060
#
# Poissons Ratio (x) = 0.51307 0.28610
# Poissons Ratio (y) = 0.42573 0.46193
# Poissons Ratio (z) = 0.18890 0.36756
#
# Static dielectric constant tensor:
#      x y z
#    x 2.910600 0.000000 0.000000 
#    y 0.000000 2.872290 0.000000 
#    z 0.000000 0.000000 2.702900 
# 
# 
# High freq. dielectric constant tensor:
#      x y z
#    x 1.556810 0.000000 0.000000 
#    y 0.000000 1.537680 0.000000 
#    z 0.000000 0.000000 1.518920 
# 
# From -- ./inp_files/36410.got.cif
#   From: 2010.03.12/outbox.cif.g09.slc.cpg/sg51_19_cif.got.tgz:36410.got - 2010.04.16 13:43:02.
