data_PCOD8207097
_publ_section_title
;
Structure prediction by ZEFSAII (Michael W. Deem and Ramdas Pophale) SiO2 
 PCOD8207097
Probable space group: P M M A
;
_chemical_formula_sum "Si O2"
_cell_formula_units_Z 64
_cell_length_a 24.144173
_cell_length_b 8.873688
_cell_length_c 16.242105
_cell_angle_alpha 90.000000
_cell_angle_beta 90.000000
_cell_angle_gamma 90.000000
_cell_volume 3479.836209
_symmetry_space_group_name_H-M "P M M A"
_symmetry_group_IT_number 51
_symmetry_cell_setting 'orthorhombic'
loop_
_space_group_symop_operation_xyz
x,y,z
1/2-x,-y,z
1/2+x,-y,-z
-x,y,-z
-x,-y,-z
1/2+x,y,-z
1/2-x,y,z
x,-y,z
loop_
_atom_site_type_symbol
_atom_site_label
_atom_site_fract_x
_atom_site_fract_y
_atom_site_fract_z
Si Si1 0.616885 0.669348 0.112730
Si Si2 0.098073 0.172555 0.636823
Si Si3 0.978423 0.678563 0.233052
Si Si4 0.687016 0.175238 0.977702
Si Si5 0.943426 0.174626 0.534285
Si Si6 0.186673 0.676201 0.195935
Si Si7 0.688064 0.331282 0.272410
Si Si8 0.413010 0.179287 0.286590
O O1 0.610048 0.500000 0.077253
O O2 0.558611 0.725360 0.153044
O O3 0.662902 0.671011 0.182427
O O4 0.639356 0.779411 0.042322
O O5 0.051611 0.271447 0.682630
O O6 0.100628 0.200509 0.538647
O O7 0.158721 0.214771 0.667204
O O8 0.083795 0.000000 0.657213
O O9 0.985293 0.500000 0.235453
O O10 0.038413 0.756854 0.227281
O O11 0.750000 0.209298 0.009362
O O12 0.674897 0.268660 0.895999
O O13 0.680131 0.000000 0.957580
O O14 0.922676 0.243840 0.620612
O O15 0.000000 0.249572 0.500000
O O16 0.954981 0.000000 0.552383
O O17 0.250000 0.712395 0.221432
O O18 0.174090 0.500000 0.199976
O O19 0.146599 0.761748 0.258680
O O20 0.750000 0.273481 0.264655
O O21 0.683795 0.500000 0.309262
O O22 0.413155 0.000000 0.281946
#
# Coordination Sequence:
#
# PCOD8207097 Si02
#       8
#     8   8   8   8   8   8   8   8
#     4   9  18  32  51  75 106 144 181 216 261 317
#     4  10  18  31  51  74 103 138 179 224 264 310
#     4  10  20  34  51  77 113 147 179 216 265 324
#     4  10  20  34  55  83 110 137 178 229 271 312
#     4   9  17  32  53  79 108 137 174 217 267 322
#     4  10  22  41  62  82 108 142 178 219 270 326
#     4   9  18  32  48  69 104 146 181 216 265 322
#     4  11  21  36  60  84 108 140 179 226 273 319
#
# _framework density 18.391670999999999
#
# number of rings (size 3 to 8) (size 9 to 14) (size 15 to 20)
#    0.000    2.250    1.250    3.000    0.000    4.750 
#    0.000    4.375    0.000    7.500    0.000    0.000 
#    0.000    0.000    0.000    0.000    0.000    0.000 
#
# Total GULP energy -793379.252728 kJ/mol
# GULP energy per Si atom -12396.550824 kJ/mol
# Density = 1.834981 g / cm^3
# Si number density = 18.391671 Si / 1000 Ang^3
#
#
#
# Elastic Constant Matrix: (Units=GPa)
#
#
# Indices 1 2 3 4 5 6 
#
# 1 114.1181 41.9671 53.6886 0.0000 0.0000 0.0000
# 2 41.9671 73.3712 37.6043 0.0000 0.0000 0.0000
# 3 53.6886 37.6043 86.9657 0.0000 0.0000 0.0000
# 4 0.0000 0.0000 0.0000 9.3072 0.0000 0.0000
# 5 0.0000 0.0000 0.0000 0.0000 26.3897 0.0000
# 6 0.0000 0.0000 0.0000 0.0000 0.0000 31.1457
#
#
#
# Elastic Compliance Matrix: (Units=1/GPa)
#
#
# Indices 1 2 3 4 5 6 
#
# 1 0.013366 -0.004389 -0.006354 0.000000 0.000000 0.000000
# 2 -0.004389 0.018951 -0.005485 0.000000 0.000000 0.000000
# 3 -0.006354 -0.005485 0.017793 0.000000 0.000000 0.000000
# 4 0.000000 0.000000 0.000000 0.107444 0.000000 0.000000
# 5 0.000000 0.000000 0.000000 0.000000 0.037894 0.000000
# 6 0.000000 0.000000 0.000000 0.000000 0.000000 0.032107
#
#
# Mechanical properties :
#
#
# Convention : Reuss Voigt Hill
#
# Bulk Modulus (GPa) = 56.64191 60.10832 58.37512
# Shear Modulus (GPa) = 18.80444 22.78152 20.79298
#
# Velocity S-wave (km/s) = 3.20104 3.52332 3.36604
# Velocity P-wave (km/s) = 6.67283 7.02175 6.84951
#
# Compressibility (1/GPa) = 0.01765477
#
# Stress axis : x y z
#
# Youngs Moduli (GPa) = 74.81627 52.76830 56.20134
#
# Poissons Ratio (x) = 0.23158 0.35710
# Poissons Ratio (y) = 0.32834 0.30827
# Poissons Ratio (z) = 0.47538 0.28944
#
# Static dielectric constant tensor:
#      x y z
#    x 3.455190 0.000000 0.000000 
#    y 0.000000 3.360150 0.000000 
#    z 0.000000 0.000000 3.325150 
# 
# 
# High freq. dielectric constant tensor:
#      x y z
#    x 1.709930 0.000000 0.000000 
#    y 0.000000 1.709090 0.000000 
#    z 0.000000 0.000000 1.700110 
# 
# From -- ./inp_files/26166.got.cif
#   From: 2010.03.12/outbox.cif.g09.slc.cpg/sg51_14_cif.got.tgz:26166.got - 2010.04.16 13:43:02.
