data_PCOD8207960
_publ_section_title
;
Structure prediction by ZEFSAII (Michael W. Deem and Ramdas Pophale) SiO2 
 PCOD8207960
Probable space group: P M M A
;
_chemical_formula_sum "Si O2"
_cell_formula_units_Z 64
_cell_length_a 19.677810
_cell_length_b 8.898354
_cell_length_c 19.214108
_cell_angle_alpha 90.000000
_cell_angle_beta 90.000000
_cell_angle_gamma 90.000000
_cell_volume 3364.392604
_symmetry_space_group_name_H-M "P M M A"
_symmetry_group_IT_number 51
_symmetry_cell_setting 'orthorhombic'
loop_
_space_group_symop_operation_xyz
x,y,z
1/2-x,-y,z
1/2+x,-y,-z
-x,y,-z
-x,-y,-z
1/2+x,y,-z
1/2-x,y,z
x,-y,z
loop_
_atom_site_type_symbol
_atom_site_label
_atom_site_fract_x
_atom_site_fract_y
_atom_site_fract_z
Si Si1 0.175598 0.676428 0.467178
Si Si2 0.379860 0.675699 0.322154
Si Si3 0.823798 0.830579 0.796515
Si Si4 0.518721 0.177261 0.297248
Si Si5 0.553176 0.324017 0.441545
Si Si6 0.558759 0.822292 0.145898
Si Si7 0.672132 0.178225 0.043312
Si Si8 0.579789 0.822415 0.918067
O O1 0.250000 0.750055 0.478243
O O2 0.183842 0.500000 0.456684
O O3 0.139924 0.738657 0.397827
O O4 0.129095 0.713547 0.533115
O O5 0.397778 0.500000 0.324119
O O6 0.320043 0.715742 0.268614
O O7 0.441350 0.773203 0.292515
O O8 0.750000 0.826599 0.833174
O O9 0.879531 0.773236 0.850029
O O10 0.840471 0.000000 0.771276
O O11 0.550014 0.248138 0.366702
O O12 0.554431 0.236934 0.225819
O O13 0.525548 0.000000 0.303575
O O14 0.500000 0.262675 0.500000
O O15 0.539087 0.500000 0.431617
O O16 0.632745 0.777821 0.114993
O O17 0.497485 0.761515 0.094750
O O18 0.549052 0.000000 0.147995
O O19 0.750000 0.244220 0.042572
O O20 0.677527 0.000000 0.035435
O O21 0.622626 0.245754 0.982993
O O22 0.578006 0.000000 0.929044
#
# Coordination Sequence:
#
# PCOD8207960 Si02
#       8
#     8   8   8   8   8   8   8   8
#     4   9  18  33  53  75 100 130 166 209 255 301
#     4  11  20  33  52  74 103 137 176 215 254 306
#     4  10  19  30  45  71 108 142 168 204 256 310
#     4  11  21  34  52  77 105 136 173 212 265 317
#     4  10  19  35  56  78 102 132 172 215 254 299
#     4   9  17  29  45  66  98 135 170 209 255 309
#     4   9  16  26  43  69  98 131 172 216 260 305
#     4   9  15  26  44  68  98 133 169 207 253 307
#
# _framework density 19.022749000000001
#
# number of rings (size 3 to 8) (size 9 to 14) (size 15 to 20)
#    0.000    2.250    2.500    1.875    0.000    4.000 
#    0.000    0.625    0.000    2.625    0.000    2.625 
#    0.000    2.000    0.000    0.000    0.000    0.000 
#
# Total GULP energy -792904.441313 kJ/mol
# GULP energy per Si atom -12389.131896 kJ/mol
# Density = 1.897945 g / cm^3
# Si number density = 19.022749 Si / 1000 Ang^3
#
#
#
# Elastic Constant Matrix: (Units=GPa)
#
#
# Indices 1 2 3 4 5 6 
#
# 1 122.4888 16.8957 73.5723 0.0000 0.0000 0.0000
# 2 16.8957 21.0091 23.4154 0.0000 0.0000 0.0000
# 3 73.5723 23.4154 139.2412 0.0000 0.0000 0.0000
# 4 0.0000 0.0000 0.0000 3.8834 0.0000 0.0000
# 5 0.0000 0.0000 0.0000 0.0000 22.0663 0.0000
# 6 0.0000 0.0000 0.0000 0.0000 0.0000 13.9130
#
#
#
# Elastic Compliance Matrix: (Units=1/GPa)
#
#
# Indices 1 2 3 4 5 6 
#
# 1 0.012134 -0.003215 -0.005870 0.000000 0.000000 0.000000
# 2 -0.003215 0.059429 -0.008295 0.000000 0.000000 0.000000
# 3 -0.005870 -0.008295 0.011679 0.000000 0.000000 0.000000
# 4 0.000000 0.000000 0.000000 0.257505 0.000000 0.000000
# 5 0.000000 0.000000 0.000000 0.000000 0.045318 0.000000
# 6 0.000000 0.000000 0.000000 0.000000 0.000000 0.071875
#
#
# Mechanical properties :
#
#
# Convention : Reuss Voigt Hill
#
# Bulk Modulus (GPa) = 20.62699 56.72286 38.67493
# Shear Modulus (GPa) = 9.82587 19.22959 14.52773
#
# Velocity S-wave (km/s) = 2.27520 3.18287 2.76652
# Velocity P-wave (km/s) = 4.21532 6.58716 5.52990
#
# Compressibility (1/GPa) = 0.04848017
#
# Stress axis : x y z
#
# Youngs Moduli (GPa) = 82.41607 16.82671 85.62695
#
# Poissons Ratio (x) = 0.05410 0.50267
# Poissons Ratio (y) = 0.26497 0.71029
# Poissons Ratio (z) = 0.48382 0.13958
#
# Static dielectric constant tensor:
#      x y z
#    x 3.805580 0.000000 0.000000 
#    y 0.000000 2.903950 0.000000 
#    z 0.000000 0.000000 3.636960 
# 
# 
# High freq. dielectric constant tensor:
#      x y z
#    x 1.745100 0.000000 0.000000 
#    y 0.000000 1.675230 0.000000 
#    z 0.000000 0.000000 1.746150 
# 
# From -- ./inp_files/30596.got.cif
#   From: 2010.03.12/outbox.cif.g09.slc.cpg/sg51_16_cif.got.tgz:30596.got - 2010.04.16 13:43:02.
