data_PCOD8207417
_publ_section_title
;
Structure prediction by ZEFSAII (Michael W. Deem and Ramdas Pophale) SiO2 
 PCOD8207417
Probable space group: P M M A
;
_chemical_formula_sum "Si O2"
_cell_formula_units_Z 48
_cell_length_a 14.604715
_cell_length_b 8.841318
_cell_length_c 20.333475
_cell_angle_alpha 90.000000
_cell_angle_beta 90.000000
_cell_angle_gamma 90.000000
_cell_volume 2625.558528
_symmetry_space_group_name_H-M "P M M A"
_symmetry_group_IT_number 51
_symmetry_cell_setting 'orthorhombic'
loop_
_space_group_symop_operation_xyz
x,y,z
1/2-x,-y,z
1/2+x,-y,-z
-x,y,-z
-x,-y,-z
1/2+x,y,-z
1/2-x,y,z
x,-y,z
loop_
_atom_site_type_symbol
_atom_site_label
_atom_site_fract_x
_atom_site_fract_y
_atom_site_fract_z
Si Si1 0.250000 0.821103 0.521087
Si Si2 0.571565 0.674880 0.822705
Si Si3 0.556106 0.320721 0.061906
Si Si4 0.053931 0.178051 0.565916
Si Si5 0.750000 0.320253 0.018286
Si Si6 0.250000 0.179376 0.373446
Si Si7 0.067522 0.674020 0.326545
Si Si8 0.750000 0.178100 0.875027
O O1 0.340819 0.767708 0.559325
O O2 0.250000 0.754154 0.447446
O O3 0.250000 0.000000 0.514528
O O4 0.595486 0.500000 0.837819
O O5 0.490780 0.734389 0.870585
O O6 0.535691 0.695496 0.748584
O O7 0.661780 0.773074 0.833596
O O8 0.555624 0.500000 0.058358
O O9 0.660699 0.261878 0.057839
O O10 0.500000 0.253861 0.000000
O O11 0.000000 0.223712 0.500000
O O12 0.013185 0.263977 0.627993
O O13 0.045344 0.000000 0.578395
O O14 0.750000 0.500000 0.011441
O O15 0.750000 0.256068 0.945396
O O16 0.339273 0.235236 0.336083
O O17 0.250000 0.000000 0.373639
O O18 0.085832 0.500000 0.343654
O O19 0.750000 0.000000 0.884428
#
# Coordination Sequence:
#
# PCOD8207417 Si02
#       8
#     4   8   8   8   4   4   8   4
#     4   9  18  34  57  84 105 136 187 234 266 307
#     4  10  21  38  55  76 111 148 182 221 270 328
#     4   9  16  30  57  82  99 135 185 223 258 313
#     4  10  19  36  60  81 107 147 192 230 265 322
#     4  10  18  33  58  83 105 135 183 230 267 315
#     4  11  20  36  59  81 110 145 186 225 267 335
#     4  11  23  36  53  83 118 146 176 228 291 333
#     4  12  23  33  52  84 114 140 176 223 278 329
#
# _framework density 18.281824
#
# number of rings (size 3 to 8) (size 9 to 14) (size 15 to 20)
#    0.000    1.833    3.333    2.000    0.000    3.667 
#    0.000    2.917    0.000    2.000    0.000    0.000 
#    0.000    0.000    0.000    0.000    0.000    0.000 
#
# Total GULP energy -595244.648621 kJ/mol
# GULP energy per Si atom -12400.930180 kJ/mol
# Density = 1.824021 g / cm^3
# Si number density = 18.281824 Si / 1000 Ang^3
#
#
#
# Elastic Constant Matrix: (Units=GPa)
#
#
# Indices 1 2 3 4 5 6 
#
# 1 161.0778 32.7403 73.2533 0.0000 0.0000 0.0000
# 2 32.7403 46.5147 33.2136 0.0000 0.0000 0.0000
# 3 73.2533 33.2136 131.7535 0.0000 0.0000 0.0000
# 4 0.0000 0.0000 0.0000 10.2269 0.0000 0.0000
# 5 0.0000 0.0000 0.0000 0.0000 19.4419 0.0000
# 6 0.0000 0.0000 0.0000 0.0000 0.0000 17.7228
#
#
#
# Elastic Compliance Matrix: (Units=1/GPa)
#
#
# Indices 1 2 3 4 5 6 
#
# 1 0.008695 -0.003254 -0.004014 0.000000 0.000000 0.000000
# 2 -0.003254 0.027436 -0.005107 0.000000 0.000000 0.000000
# 3 -0.004014 -0.005107 0.011109 0.000000 0.000000 0.000000
# 4 0.000000 0.000000 0.000000 0.097782 0.000000 0.000000
# 5 0.000000 0.000000 0.000000 0.000000 0.051435 0.000000
# 6 0.000000 0.000000 0.000000 0.000000 0.000000 0.056425
#
#
# Mechanical properties :
#
#
# Convention : Reuss Voigt Hill
#
# Bulk Modulus (GPa) = 44.46487 68.64003 56.55245
# Shear Modulus (GPa) = 17.53598 22.82089 20.17844
#
# Velocity S-wave (km/s) = 3.10046 3.53694 3.32587
# Velocity P-wave (km/s) = 6.09851 7.36932 6.76383
#
# Compressibility (1/GPa) = 0.02248967
#
# Stress axis : x y z
#
# Youngs Moduli (GPa) = 115.00812 36.44895 90.01620
#
# Poissons Ratio (x) = 0.11860 0.36133
# Poissons Ratio (y) = 0.37423 0.45972
# Poissons Ratio (z) = 0.46165 0.18615
#
# Static dielectric constant tensor:
#      x y z
#    x 7.221850 0.000000 0.000000 
#    y 0.000000 3.127230 0.000000 
#    z 0.000000 0.000000 3.424820 
# 
# 
# High freq. dielectric constant tensor:
#      x y z
#    x 1.714070 0.000000 0.000000 
#    y 0.000000 1.681960 0.000000 
#    z 0.000000 0.000000 1.708470 
# 
# From -- ./inp_files/29697.got.cif
#   From: 2010.03.12/outbox.cif.g09.slc.cpg/sg51_15_cif.got.tgz:29697.got - 2010.04.16 13:43:02.
