data_PCOD8207205
_publ_section_title
;
Structure prediction by ZEFSAII (Michael W. Deem and Ramdas Pophale) SiO2 
 PCOD8207205
Probable space group: P M M A
;
_chemical_formula_sum "Si O2"
_cell_formula_units_Z 52
_cell_length_a 8.731202
_cell_length_b 22.445282
_cell_length_c 15.373654
_cell_angle_alpha 90.000000
_cell_angle_beta 90.000000
_cell_angle_gamma 90.000000
_cell_volume 3012.840944
_symmetry_space_group_name_H-M "P M M A"
_symmetry_group_IT_number 51
_symmetry_cell_setting 'orthorhombic'
loop_
_space_group_symop_operation_xyz
x,y,z
1/2-x,-y,z
1/2+x,-y,-z
-x,y,-z
-x,-y,-z
1/2+x,y,-z
1/2-x,y,z
x,-y,z
loop_
_atom_site_type_symbol
_atom_site_label
_atom_site_fract_x
_atom_site_fract_y
_atom_site_fract_z
Si Si1 0.932697 0.500000 0.596267
Si Si2 0.430645 0.158947 0.736023
Si Si3 0.417679 0.707282 0.084016
Si Si4 0.578775 0.848552 0.914171
Si Si5 0.930317 0.067070 0.410522
Si Si6 0.432861 0.286656 0.274693
Si Si7 0.068271 0.379862 0.595513
O O1 0.750000 0.500000 0.597077
O O2 0.000000 0.500000 0.500000
O O3 0.997381 0.439657 0.640259
O O4 0.250000 0.171894 0.733705
O O5 0.477244 0.134462 0.830787
O O6 0.483227 0.109001 0.667923
O O7 0.522851 0.218191 0.711070
O O8 0.250000 0.679284 0.081628
O O9 0.411997 0.777947 0.075254
O O10 0.490401 0.691852 0.178470
O O11 0.500000 0.678750 0.000000
O O12 0.750000 0.874784 0.904003
O O13 0.500000 0.876457 0.000000
O O14 0.750000 0.067914 0.420188
O O15 0.000000 0.092095 0.500000
O O16 0.990211 0.000000 0.392117
O O17 0.250000 0.293300 0.283992
O O18 0.521935 0.324419 0.345812
O O19 0.250000 0.385678 0.588733
O O20 0.000000 0.369428 0.500000
#
# Coordination Sequence:
#
# PCOD8207205 Si02
#       7
#     4   8   8   8   8   8   8
#     4  10  18  32  52  72  95 126 163 202 240 282
#     4  10  19  31  48  71  98 127 158 196 243 291
#     4   8  15  26  42  63  90 122 155 191 230 274
#     4   9  16  27  44  67  94 124 156 191 233 283
#     4   9  19  35  53  71  91 119 158 201 242 286
#     4  10  20  33  47  70 102 132 162 198 241 288
#     4  11  21  34  51  72  98 130 166 203 241 285
#
# _framework density 17.259457000000001
#
# number of rings (size 3 to 8) (size 9 to 14) (size 15 to 20)
#    0.000    2.462    0.000    5.308    0.000    6.154 
#    0.000    1.538    0.000    0.462    0.000    0.538 
#    0.000    0.000    0.000    0.000    0.000    0.000 
#
# Total GULP energy -644531.670811 kJ/mol
# GULP energy per Si atom -12394.839823 kJ/mol
# Density = 1.722017 g / cm^3
# Si number density = 17.259457 Si / 1000 Ang^3
#
#
#
# Elastic Constant Matrix: (Units=GPa)
#
#
# Indices 1 2 3 4 5 6 
#
# 1 95.5479 27.5679 43.7964 0.0000 0.0000 0.0000
# 2 27.5679 62.3857 55.8948 0.0000 0.0000 0.0000
# 3 43.7964 55.8948 129.0878 0.0000 0.0000 0.0000
# 4 0.0000 0.0000 0.0000 0.1785 0.0000 0.0000
# 5 0.0000 0.0000 0.0000 0.0000 32.4155 0.0000
# 6 0.0000 0.0000 0.0000 0.0000 0.0000 18.5340
#
#
#
# Elastic Compliance Matrix: (Units=1/GPa)
#
#
# Indices 1 2 3 4 5 6 
#
# 1 0.012698 -0.002861 -0.003069 0.000000 0.000000 0.000000
# 2 -0.002861 0.026834 -0.010648 0.000000 0.000000 0.000000
# 3 -0.003069 -0.010648 0.013399 0.000000 0.000000 0.000000
# 4 0.000000 0.000000 0.000000 5.601957 0.000000 0.000000
# 5 0.000000 0.000000 0.000000 0.000000 0.030849 0.000000
# 6 0.000000 0.000000 0.000000 0.000000 0.000000 0.053955
#
#
# Mechanical properties :
#
#
# Convention : Reuss Voigt Hill
#
# Bulk Modulus (GPa) = 50.57343 60.17107 55.37225
# Shear Modulus (GPa) = 0.86514 20.87643 10.87078
#
# Velocity S-wave (km/s) = 0.70876 3.48165 2.51239
# Velocity P-wave (km/s) = 5.48044 7.14849 6.36931
#
# Compressibility (1/GPa) = 0.01977323
#
# Stress axis : x y z
#
# Youngs Moduli (GPa) = 78.75003 37.26588 74.63397
#
# Poissons Ratio (x) = 0.10663 0.22907
# Poissons Ratio (y) = 0.22534 0.79473
# Poissons Ratio (z) = 0.24171 0.39682
#
# Static dielectric constant tensor:
#      x y z
#    x 3.363750 0.000000 0.000000 
#    y 0.000000 3.157180 0.000000 
#    z 0.000000 0.000000 3.382750 
# 
# 
# High freq. dielectric constant tensor:
#      x y z
#    x 1.678660 0.000000 0.000000 
#    y 0.000000 1.625760 0.000000 
#    z 0.000000 0.000000 1.667760 
# 
# From -- ./inp_files/21582.got.cif
#   From: 2010.03.12/outbox.cif.g09.slc.cpg/sg51_11_cif.got.tgz:21582.got - 2010.04.16 13:43:02.
