data_PCOD8207626
_publ_section_title
;
Structure prediction by ZEFSAII (Michael W. Deem and Ramdas Pophale) SiO2 
 PCOD8207626
Probable space group: P M M A
;
_chemical_formula_sum "Si O2"
_cell_formula_units_Z 40
_cell_length_a 13.772104
_cell_length_b 8.946135
_cell_length_c 18.715223
_cell_angle_alpha 90.000000
_cell_angle_beta 90.000000
_cell_angle_gamma 90.000000
_cell_volume 2305.848382
_symmetry_space_group_name_H-M "P M M A"
_symmetry_group_IT_number 51
_symmetry_cell_setting 'orthorhombic'
loop_
_space_group_symop_operation_xyz
x,y,z
1/2-x,-y,z
1/2+x,-y,-z
-x,y,-z
-x,-y,-z
1/2+x,y,-z
1/2-x,y,z
x,-y,z
loop_
_atom_site_type_symbol
_atom_site_label
_atom_site_fract_x
_atom_site_fract_y
_atom_site_fract_z
Si Si1 0.139380 0.822357 0.246527
Si Si2 0.450811 0.822332 0.392723
Si Si3 0.455156 0.323160 0.111314
Si Si4 0.143377 0.322821 0.966929
Si Si5 0.643223 0.822122 0.462208
O O1 0.250000 0.764796 0.241067
O O2 0.091826 0.757186 0.319143
O O3 0.076509 0.761144 0.181809
O O4 0.135828 0.000000 0.245506
O O5 0.562563 0.768075 0.404667
O O6 0.385627 0.764223 0.458752
O O7 0.447031 0.000000 0.390448
O O8 0.446967 0.500000 0.123320
O O9 0.565777 0.273173 0.092990
O O10 0.387793 0.268635 0.045787
O O11 0.250000 0.256854 0.948439
O O12 0.145532 0.500000 0.968910
O O13 0.750000 0.758642 0.441788
O O14 0.645177 0.000000 0.463598
#
# Coordination Sequence:
#
# PCOD8207626 Si02
#       5
#     8   8   8   8   8
#     4  10  19  29  41  60  89 118 137 164 214 263
#     4   8  14  23  35  54  80 107 135 167 205 249
#     4   9  17  29  47  68  85 106 141 178 206 241
#     4   8  14  27  47  67  85 107 138 176 212 242
#     4   8  12  20  36  55  74 101 139 177 205 233
#
# _framework density 17.347196
#
# number of rings (size 3 to 8) (size 9 to 14) (size 15 to 20)
#    0.000    3.400    0.000    3.600    0.000    3.600 
#    0.000    3.000    0.000    3.000    0.000    2.800 
#    0.000    1.600    0.000    0.000    0.000    0.000 
#
# Total GULP energy -495641.206786 kJ/mol
# GULP energy per Si atom -12391.030170 kJ/mol
# Density = 1.730771 g / cm^3
# Si number density = 17.347196 Si / 1000 Ang^3
#
#
#
# Elastic Constant Matrix: (Units=GPa)
#
#
# Indices 1 2 3 4 5 6 
#
# 1 177.3302 12.4925 76.4641 0.0000 0.0000 0.0000
# 2 12.4925 6.9593 13.4919 0.0000 0.0000 0.0000
# 3 76.4641 13.4919 127.8168 0.0000 0.0000 0.0000
# 4 0.0000 0.0000 0.0000 -30.7548 0.0000 0.0000
# 5 0.0000 0.0000 0.0000 0.0000 25.4937 0.0000
# 6 0.0000 0.0000 0.0000 0.0000 0.0000 12.5711
#
#
#
# Elastic Compliance Matrix: (Units=1/GPa)
#
#
# Indices 1 2 3 4 5 6 
#
# 1 0.007809 -0.006238 -0.004013 0.000000 0.000000 0.000000
# 2 -0.006238 0.185646 -0.015865 0.000000 0.000000 0.000000
# 3 -0.004013 -0.015865 0.011899 0.000000 0.000000 0.000000
# 4 0.000000 0.000000 0.000000 -0.032515 0.000000 0.000000
# 5 0.000000 0.000000 0.000000 0.000000 0.039225 0.000000
# 6 0.000000 0.000000 0.000000 0.000000 0.000000 0.079548
#
#
# Mechanical properties :
#
#
# Convention : Reuss Voigt Hill
#
# Bulk Modulus (GPa) = 6.53067 57.44482 31.98774
# Shear Modulus (GPa) = 12.66193 15.43919 14.05056
#
# Velocity S-wave (km/s) = 2.70462 2.98654 2.84907
# Velocity P-wave (km/s) = 3.67779 6.71411 5.41320
#
# Compressibility (1/GPa) = 0.15312362
#
# Stress axis : x y z
#
# Youngs Moduli (GPa) = 128.05545 5.38659 84.03938
#
# Poissons Ratio (x) = 0.03360 0.33727
# Poissons Ratio (y) = 0.79875 1.33326
# Poissons Ratio (z) = 0.51392 0.08546
#
# Static dielectric constant tensor:
#      x y z
#    x 3.882260 0.000000 0.000000 
#    y 0.000000 2.571720 0.000000 
#    z 0.000000 0.000000 3.244390 
# 
# 
# High freq. dielectric constant tensor:
#      x y z
#    x 1.687860 0.000000 0.000000 
#    y 0.000000 1.601860 0.000000 
#    z 0.000000 0.000000 1.661010 
# 
# From -- ./inp_files/23689.got.cif
#   From: 2010.03.12/outbox.cif.g09.slc.cpg/sg51_12_cif.got.tgz:23689.got - 2010.04.16 13:43:02.
