data_PCOD8207583
_publ_section_title
;
Structure prediction by ZEFSAII (Michael W. Deem and Ramdas Pophale) SiO2 
 PCOD8207583
Probable space group: P M M A
;
_chemical_formula_sum "Si O2"
_cell_formula_units_Z 56
_cell_length_a 20.063837
_cell_length_b 9.340626
_cell_length_c 17.879439
_cell_angle_alpha 90.000000
_cell_angle_beta 90.000000
_cell_angle_gamma 90.000000
_cell_volume 3350.764164
_symmetry_space_group_name_H-M "P M M A"
_symmetry_group_IT_number 51
_symmetry_cell_setting 'orthorhombic'
loop_
_space_group_symop_operation_xyz
x,y,z
1/2-x,-y,z
1/2+x,-y,-z
-x,y,-z
-x,-y,-z
1/2+x,y,-z
1/2-x,y,z
x,-y,z
loop_
_atom_site_type_symbol
_atom_site_label
_atom_site_fract_x
_atom_site_fract_y
_atom_site_fract_z
Si Si1 0.326383 0.836921 0.080339
Si Si2 0.888556 0.333286 0.788509
Si Si3 0.927646 0.830087 0.489497
Si Si4 0.543288 0.667022 0.188667
Si Si5 0.402868 0.839393 0.352667
Si Si6 0.567184 0.166879 0.042273
Si Si7 0.439230 0.160759 0.670362
O O1 0.250000 0.819088 0.056220
O O2 0.340955 0.736035 0.150223
O O3 0.343218 0.000000 0.103679
O O4 0.370535 0.792068 0.009502
O O5 0.873235 0.500000 0.784403
O O6 0.870552 0.266363 0.707877
O O7 0.964638 0.300655 0.810524
O O8 0.882899 0.787189 0.562388
O O9 0.900728 0.787666 0.406247
O O10 0.000000 0.757532 0.500000
O O11 0.935617 0.000000 0.490888
O O12 0.559005 0.500000 0.186035
O O13 0.575415 0.741618 0.117001
O O14 0.578355 0.732000 0.262412
O O15 0.482480 0.837798 0.346837
O O16 0.376067 0.000000 0.337370
O O17 0.565611 0.000000 0.063760
O O18 0.500000 0.212391 0.000000
O O19 0.417025 0.000000 0.693098
#
# Coordination Sequence:
#
# PCOD8207583 Si02
#       7
#     8   8   8   8   8   8   8
#     4  10  21  36  52  69  89 114 148 191 234 274
#     4  10  19  29  42  63  91 120 151 184 222 269
#     4   7  10  18  33  54  78 109 148 185 219 256
#     4  10  19  28  41  64  92 120 151 187 225 268
#     4   8  13  22  38  57  80 113 152 187 218 257
#     4  10  19  32  51  70  87 113 151 189 229 278
#     4   8  13  22  37  56  82 115 150 186 223 262
#
# _framework density 16.712606000000001
#
# number of rings (size 3 to 8) (size 9 to 14) (size 15 to 20)
#    0.000    3.000    1.429    2.571    0.000    2.286 
#    0.000    0.714    0.000    4.286    0.000    0.000 
#    0.000    1.143    0.000    9.143    0.000    6.143 
#
# Total GULP energy -693922.638602 kJ/mol
# GULP energy per Si atom -12391.475689 kJ/mol
# Density = 1.667457 g / cm^3
# Si number density = 16.712606 Si / 1000 Ang^3
#
#
#
# Elastic Constant Matrix: (Units=GPa)
#
#
# Indices 1 2 3 4 5 6 
#
# 1 42.5946 24.7859 38.7782 0.0000 0.0000 0.0000
# 2 24.7859 77.6692 72.8737 0.0000 0.0000 0.0000
# 3 38.7782 72.8737 173.3410 0.0000 0.0000 0.0000
# 4 0.0000 0.0000 0.0000 6.4180 0.0000 0.0000
# 5 0.0000 0.0000 0.0000 0.0000 11.4740 0.0000
# 6 0.0000 0.0000 0.0000 0.0000 0.0000 10.2481
#
#
#
# Elastic Compliance Matrix: (Units=1/GPa)
#
#
# Indices 1 2 3 4 5 6 
#
# 1 0.030874 -0.005569 -0.004566 0.000000 0.000000 0.000000
# 2 -0.005569 0.022266 -0.008115 0.000000 0.000000 0.000000
# 3 -0.004566 -0.008115 0.010202 0.000000 0.000000 0.000000
# 4 0.000000 0.000000 0.000000 0.155811 0.000000 0.000000
# 5 0.000000 0.000000 0.000000 0.000000 0.087153 0.000000
# 6 0.000000 0.000000 0.000000 0.000000 0.000000 0.097579
#
#
# Mechanical properties :
#
#
# Convention : Reuss Voigt Hill
#
# Bulk Modulus (GPa) = 37.25320 62.94227 50.09773
# Shear Modulus (GPa) = 11.12758 16.10581 13.61669
#
# Velocity S-wave (km/s) = 2.58315 3.10771 2.85749
# Velocity P-wave (km/s) = 5.58889 7.11480 6.39751
#
# Compressibility (1/GPa) = 0.02684333
#
# Stress axis : x y z
#
# Youngs Moduli (GPa) = 32.38937 44.91091 98.01972
#
# Poissons Ratio (x) = 0.25010 0.44753
# Poissons Ratio (y) = 0.18037 0.79544
# Poissons Ratio (z) = 0.14788 0.36446
#
# Static dielectric constant tensor:
#      x y z
#    x 2.572300 0.000000 0.000000 
#    y 0.000000 2.996190 0.000000 
#    z 0.000000 0.000000 3.558710 
# 
# 
# High freq. dielectric constant tensor:
#      x y z
#    x 1.570150 0.000000 0.000000 
#    y 0.000000 1.628950 0.000000 
#    z 0.000000 0.000000 1.666110 
# 
# From -- ./inp_files/30407.got.cif
#   From: 2010.03.12/outbox.cif.g09.slc.cpg/sg51_16_cif.got.tgz:30407.got - 2010.04.16 13:43:02.
