data_PCOD8207608
_publ_section_title
;
Structure prediction by ZEFSAII (Michael W. Deem and Ramdas Pophale) SiO2 
 PCOD8207608
Probable space group: P M M A
;
_chemical_formula_sum "Si O2"
_cell_formula_units_Z 56
_cell_length_a 13.802405
_cell_length_b 13.830231
_cell_length_c 19.714543
_cell_angle_alpha 90.000000
_cell_angle_beta 90.000000
_cell_angle_gamma 90.000000
_cell_volume 3763.317975
_symmetry_space_group_name_H-M "P M M A"
_symmetry_group_IT_number 51
_symmetry_cell_setting 'orthorhombic'
loop_
_space_group_symop_operation_xyz
x,y,z
1/2-x,-y,z
1/2+x,-y,-z
-x,y,-z
-x,-y,-z
1/2+x,y,-z
1/2-x,y,z
x,-y,z
loop_
_atom_site_type_symbol
_atom_site_label
_atom_site_fract_x
_atom_site_fract_y
_atom_site_fract_z
Si Si1 0.364571 0.108016 0.049707
Si Si2 0.550502 0.385534 0.600295
Si Si3 0.356655 0.615102 0.537224
Si Si4 0.635296 0.612878 0.742749
Si Si5 0.857363 0.768748 0.077712
Si Si6 0.951191 0.268004 0.864196
Si Si7 0.857136 0.608251 0.973235
O O1 0.250000 0.106738 0.048158
O O2 0.394368 0.170372 0.115522
O O3 0.407620 0.000000 0.055842
O O4 0.398764 0.155193 0.978253
O O5 0.553845 0.500000 0.598550
O O6 0.614576 0.346015 0.537639
O O7 0.438400 0.350382 0.591298
O O8 0.595839 0.349699 0.670568
O O9 0.250000 0.656057 0.556993
O O10 0.353725 0.500000 0.535646
O O11 0.750000 0.626502 0.745758
O O12 0.608237 0.500000 0.756903
O O13 0.584214 0.685716 0.794597
O O14 0.750000 0.798484 0.104974
O O15 0.934454 0.760424 0.139142
O O16 0.851381 0.663929 0.043766
O O17 0.935906 0.346756 0.923165
O O18 0.750000 0.612105 0.938200
O O19 0.889305 0.500000 0.989608
#
# Coordination Sequence:
#
# PCOD8207608 Si02
#       7
#     8   8   8   8   8   8   8
#     4   9  17  30  48  67  82  94 116 157 206 249
#     4   8  14  23  35  53  75 101 132 162 193 223
#     4   8  12  20  36  55  74  97 129 167 197 220
#     4  10  19  29  40  55  78 106 134 162 192 231
#     4   9  19  31  40  54  74  96 125 161 197 231
#     4  11  19  27  41  57  76 101 128 155 188 234
#     4   9  16  26  40  56  72  91 120 158 194 225
#
# _framework density 14.880485999999999
#
# number of rings (size 3 to 8) (size 9 to 14) (size 15 to 20)
#    0.000    2.857    0.000    5.571    0.000    5.714 
#    0.000    0.714    0.000    0.857    0.000    0.000 
#    0.000    0.000    0.000    2.571    0.000    4.857 
#
# Total GULP energy -693853.232118 kJ/mol
# GULP energy per Si atom -12390.236288 kJ/mol
# Density = 1.484662 g / cm^3
# Si number density = 14.880486 Si / 1000 Ang^3
#
#
#
# Elastic Constant Matrix: (Units=GPa)
#
#
# Indices 1 2 3 4 5 6 
#
# 1 93.9840 15.1932 38.3668 0.0000 0.0000 0.0000
# 2 15.1932 77.6559 23.8592 0.0000 0.0000 0.0000
# 3 38.3668 23.8592 72.4541 0.0000 0.0000 0.0000
# 4 0.0000 0.0000 0.0000 10.1679 0.0000 0.0000
# 5 0.0000 0.0000 0.0000 0.0000 20.8398 0.0000
# 6 0.0000 0.0000 0.0000 0.0000 0.0000 10.0853
#
#
#
# Elastic Compliance Matrix: (Units=1/GPa)
#
#
# Indices 1 2 3 4 5 6 
#
# 1 0.013592 -0.000498 -0.007033 0.000000 0.000000 0.000000
# 2 -0.000498 0.014345 -0.004460 0.000000 0.000000 0.000000
# 3 -0.007033 -0.004460 0.018995 0.000000 0.000000 0.000000
# 4 0.000000 0.000000 0.000000 0.098348 0.000000 0.000000
# 5 0.000000 0.000000 0.000000 0.000000 0.047985 0.000000
# 6 0.000000 0.000000 0.000000 0.000000 0.000000 0.099154
#
#
# Mechanical properties :
#
#
# Convention : Reuss Voigt Hill
#
# Bulk Modulus (GPa) = 43.57539 44.32584 43.95061
# Shear Modulus (GPa) = 15.42962 19.33026 17.37994
#
# Velocity S-wave (km/s) = 3.22359 3.60812 3.42126
# Velocity P-wave (km/s) = 6.57286 6.87100 6.72358
#
# Compressibility (1/GPa) = 0.02294874
#
# Stress axis : x y z
#
# Youngs Moduli (GPa) = 73.57368 69.71019 52.64589
#
# Poissons Ratio (x) = 0.03474 0.37027
# Poissons Ratio (y) = 0.03666 0.23480
# Poissons Ratio (z) = 0.51746 0.31091
#
# Static dielectric constant tensor:
#      x y z
#    x 3.234010 0.000000 0.000000 
#    y 0.000000 2.737470 0.000000 
#    z 0.000000 0.000000 2.721770 
# 
# 
# High freq. dielectric constant tensor:
#      x y z
#    x 1.591310 0.000000 0.000000 
#    y 0.000000 1.526280 0.000000 
#    z 0.000000 0.000000 1.528340 
# 
# From -- ./inp_files/29918.got.cif
#   From: 2010.03.12/outbox.cif.g09.slc.cpg/sg51_15_cif.got.tgz:29918.got - 2010.04.16 13:43:02.
