data_PCOD8207615
_publ_section_title
;
Structure prediction by ZEFSAII (Michael W. Deem and Ramdas Pophale) SiO2 
 PCOD8207615
Probable space group: P M M A
;
_chemical_formula_sum "Si O2"
_cell_formula_units_Z 48
_cell_length_a 9.243988
_cell_length_b 17.977586
_cell_length_c 17.171483
_cell_angle_alpha 90.000000
_cell_angle_beta 90.000000
_cell_angle_gamma 90.000000
_cell_volume 2853.635849
_symmetry_space_group_name_H-M "P M M A"
_symmetry_group_IT_number 51
_symmetry_cell_setting 'orthorhombic'
loop_
_space_group_symop_operation_xyz
x,y,z
1/2-x,-y,z
1/2+x,-y,-z
-x,y,-z
-x,-y,-z
1/2+x,y,-z
1/2-x,y,z
x,-y,z
loop_
_atom_site_type_symbol
_atom_site_label
_atom_site_fract_x
_atom_site_fract_y
_atom_site_fract_z
Si Si1 0.079365 0.084423 0.918300
Si Si2 0.410794 0.298595 0.704472
Si Si3 0.092838 0.815126 0.566636
Si Si4 0.415197 0.189804 0.199632
Si Si5 0.080645 0.586046 0.578923
Si Si6 0.089400 0.081538 0.344211
O O1 0.250000 0.100136 0.927679
O O2 0.011049 0.148871 0.865160
O O3 0.054753 0.000000 0.885438
O O4 0.000000 0.091463 0.000000
O O5 0.250000 0.316730 0.738219
O O6 0.396574 0.233333 0.642932
O O7 0.514394 0.269836 0.774767
O O8 0.474155 0.369487 0.656111
O O9 0.250000 0.831878 0.532170
O O10 0.000000 0.773424 0.500000
O O11 0.016775 0.892943 0.587303
O O12 0.250000 0.203861 0.170640
O O13 0.416292 0.135916 0.272068
O O14 0.250000 0.603001 0.565946
O O15 0.049244 0.500000 0.595924
O O16 0.000000 0.611702 0.500000
O O17 0.250000 0.080486 0.379399
O O18 0.041263 0.000000 0.315584
#
# Coordination Sequence:
#
# PCOD8207615 Si02
#       6
#     8   8   8   8   8   8
#     4  10  20  33  50  72  98 127 157 190 229 273
#     4   9  18  31  45  63  88 117 150 186 226 275
#     4  10  19  29  41  56  75 102 137 178 221 263
#     4  10  19  31  48  68  90 117 150 187 227 271
#     4   9  17  29  46  68  94 124 157 195 239 285
#     4   9  18  31  44  57  75 102 137 177 219 261
#
# _framework density 16.820647000000001
#
# number of rings (size 3 to 8) (size 9 to 14) (size 15 to 20)
#    0.000    2.500    0.000    2.500    0.000    4.333 
#    0.000    0.000    0.000    0.000    0.000    0.000 
#    0.000    0.667    0.000    1.833    0.000    2.667 
#
# Total GULP energy -594729.736042 kJ/mol
# GULP energy per Si atom -12390.202834 kJ/mol
# Density = 1.678236 g / cm^3
# Si number density = 16.820647 Si / 1000 Ang^3
#
#
#
# Elastic Constant Matrix: (Units=GPa)
#
#
# Indices 1 2 3 4 5 6 
#
# 1 114.4074 35.6183 43.4017 0.0000 0.0000 0.0000
# 2 35.6183 81.9642 29.5845 0.0000 0.0000 0.0000
# 3 43.4017 29.5845 55.9374 0.0000 0.0000 0.0000
# 4 0.0000 0.0000 0.0000 27.6750 0.0000 0.0000
# 5 0.0000 0.0000 0.0000 0.0000 29.8354 0.0000
# 6 0.0000 0.0000 0.0000 0.0000 0.0000 20.6573
#
#
#
# Elastic Compliance Matrix: (Units=1/GPa)
#
#
# Indices 1 2 3 4 5 6 
#
# 1 0.012769 -0.002438 -0.008618 0.000000 0.000000 0.000000
# 2 -0.002438 0.015545 -0.006329 0.000000 0.000000 0.000000
# 3 -0.008618 -0.006329 0.027911 0.000000 0.000000 0.000000
# 4 0.000000 0.000000 0.000000 0.036134 0.000000 0.000000
# 5 0.000000 0.000000 0.000000 0.000000 0.033517 0.000000
# 6 0.000000 0.000000 0.000000 0.000000 0.000000 0.048409
#
#
# Mechanical properties :
#
#
# Convention : Reuss Voigt Hill
#
# Bulk Modulus (GPa) = 46.61211 52.16867 49.39039
# Shear Modulus (GPa) = 23.12592 25.21384 24.16988
#
# Velocity S-wave (km/s) = 3.71192 3.87587 3.79478
# Velocity P-wave (km/s) = 6.79283 7.14925 6.97332
#
# Compressibility (1/GPa) = 0.02145365
#
# Stress axis : x y z
#
# Youngs Moduli (GPa) = 78.31384 64.33097 35.82780
#
# Poissons Ratio (x) = 0.15686 0.30876
# Poissons Ratio (y) = 0.19096 0.22677
# Poissons Ratio (z) = 0.67490 0.40718
#
# Static dielectric constant tensor:
#      x y z
#    x 3.599570 0.000000 0.000000 
#    y 0.000000 3.170530 0.000000 
#    z 0.000000 0.000000 2.968100 
# 
# 
# High freq. dielectric constant tensor:
#      x y z
#    x 1.661040 0.000000 0.000000 
#    y 0.000000 1.628070 0.000000 
#    z 0.000000 0.000000 1.615740 
# 
# From -- ./inp_files/27806.got.cif
#   From: 2010.03.12/outbox.cif.g09.slc.cpg/sg51_14_cif.got.tgz:27806.got - 2010.04.16 13:43:02.
