data_PCOD8207501
_publ_section_title
;
Structure prediction by ZEFSAII (Michael W. Deem and Ramdas Pophale) SiO2 
 PCOD8207501
Probable space group: P M M A
;
_chemical_formula_sum "Si O2"
_cell_formula_units_Z 48
_cell_length_a 31.149847
_cell_length_b 7.632548
_cell_length_c 9.836246
_cell_angle_alpha 90.000000
_cell_angle_beta 90.000000
_cell_angle_gamma 90.000000
_cell_volume 2338.594068
_symmetry_space_group_name_H-M "P M M A"
_symmetry_group_IT_number 51
_symmetry_cell_setting 'orthorhombic'
loop_
_space_group_symop_operation_xyz
x,y,z
1/2-x,-y,z
1/2+x,-y,-z
-x,y,-z
-x,-y,-z
1/2+x,y,-z
1/2-x,y,z
x,-y,z
loop_
_atom_site_type_symbol
_atom_site_label
_atom_site_fract_x
_atom_site_fract_y
_atom_site_fract_z
Si Si1 0.657681 0.794245 0.235912
Si Si2 0.957082 0.500000 0.913296
Si Si3 0.397411 0.197104 0.518676
Si Si4 0.109805 0.207507 0.038427
Si Si5 0.750000 0.805050 0.310503
Si Si6 0.250000 0.312126 0.399791
Si Si7 0.333074 0.193367 0.280571
Si Si8 0.957276 0.500000 0.587859
O O1 0.621517 0.723442 0.340884
O O2 0.640320 0.747772 0.087897
O O3 0.705639 0.711522 0.258846
O O4 0.661358 0.000000 0.262994
O O5 0.965989 0.500000 0.750375
O O6 0.933013 0.323112 0.961438
O O7 0.000000 0.500000 0.000000
O O8 0.356330 0.186899 0.423685
O O9 0.432520 0.324045 0.454026
O O10 0.417217 0.000000 0.536148
O O11 0.097798 0.000000 0.045100
O O12 0.135951 0.277174 0.168558
O O13 0.750000 0.823102 0.475378
O O14 0.750000 0.000000 0.249402
O O15 0.250000 0.500000 0.472693
O O16 0.290037 0.301765 0.298456
O O17 0.320226 0.000000 0.230023
O O18 0.000000 0.500000 0.500000
#
# Coordination Sequence:
#
# PCOD8207501 Si02
#       8
#     8   4   8   8   4   4   8   4
#     4   9  19  36  64  95 125 168 213 254 307 366
#     4  12  28  46  68  95 128 164 201 262 331 387
#     4  10  21  40  67  93 126 167 207 255 311 370
#     4  10  23  44  68  93 126 170 212 255 316 383
#     4  10  18  35  58  88 129 165 211 261 301 355
#     4  12  24  31  54  92 131 167 217 265 305 361
#     4  10  20  38  62  87 121 170 212 254 305 361
#     4  12  28  44  68  97 126 156 207 264 321 389
#
# _framework density 20.525154000000001
#
# number of rings (size 3 to 8) (size 9 to 14) (size 15 to 20)
#    0.000    1.667    3.333    0.750    4.667    1.333 
#    1.500    2.500    0.000    0.000    0.000    0.000 
#    0.000    0.000    0.000    0.000    0.000    0.000 
#
# Total GULP energy -594942.769557 kJ/mol
# GULP energy per Si atom -12394.641032 kJ/mol
# Density = 2.047844 g / cm^3
# Si number density = 20.525154 Si / 1000 Ang^3
#
#
#
# Elastic Constant Matrix: (Units=GPa)
#
#
# Indices 1 2 3 4 5 6 
#
# 1 141.9177 53.5282 47.7068 0.0000 0.0000 0.0000
# 2 53.5282 85.0695 24.0887 0.0000 0.0000 0.0000
# 3 47.7068 24.0887 95.8105 0.0000 0.0000 0.0000
# 4 0.0000 0.0000 0.0000 14.3339 0.0000 0.0000
# 5 0.0000 0.0000 0.0000 0.0000 38.3015 0.0000
# 6 0.0000 0.0000 0.0000 0.0000 0.0000 26.0597
#
#
#
# Elastic Compliance Matrix: (Units=1/GPa)
#
#
# Indices 1 2 3 4 5 6 
#
# 1 0.010381 -0.005457 -0.003797 0.000000 0.000000 0.000000
# 2 -0.005457 0.015525 -0.001186 0.000000 0.000000 0.000000
# 3 -0.003797 -0.001186 0.012626 0.000000 0.000000 0.000000
# 4 0.000000 0.000000 0.000000 0.069765 0.000000 0.000000
# 5 0.000000 0.000000 0.000000 0.000000 0.026109 0.000000
# 6 0.000000 0.000000 0.000000 0.000000 0.000000 0.038373
#
#
# Mechanical properties :
#
#
# Convention : Reuss Voigt Hill
#
# Bulk Modulus (GPa) = 56.65149 63.71610 60.18379
# Shear Modulus (GPa) = 25.05739 28.90397 26.98068
#
# Velocity S-wave (km/s) = 3.49781 3.75670 3.62956
# Velocity P-wave (km/s) = 6.63127 7.06593 6.85205
#
# Compressibility (1/GPa) = 0.01765179
#
# Stress axis : x y z
#
# Youngs Moduli (GPa) = 96.33062 64.41423 79.20089
#
# Poissons Ratio (x) = 0.35149 0.30073
# Poissons Ratio (y) = 0.52566 0.09394
# Poissons Ratio (z) = 0.36577 0.07640
#
# Static dielectric constant tensor:
#      x y z
#    x 3.680030 0.000000 0.000000 
#    y 0.000000 3.830550 0.000000 
#    z 0.000000 0.000000 3.742580 
# 
# 
# High freq. dielectric constant tensor:
#      x y z
#    x 1.794480 0.000000 0.000000 
#    y 0.000000 1.794460 0.000000 
#    z 0.000000 0.000000 1.806390 
# 
# From -- ./inp_files/13006.got.cif
#   From: 2010.03.12/outbox.cif.g09.slc.cpg/sg51_7_cif.got.tgz:13006.got - 2010.04.16 13:43:02.
