data_PCOD8207066
_publ_section_title
;
Structure prediction by ZEFSAII (Michael W. Deem and Ramdas Pophale) SiO2 
 PCOD8207066
Probable space group: P M M A
;
_chemical_formula_sum "Si O2"
_cell_formula_units_Z 48
_cell_length_a 23.450926
_cell_length_b 8.585276
_cell_length_c 13.885568
_cell_angle_alpha 90.000000
_cell_angle_beta 90.000000
_cell_angle_gamma 90.000000
_cell_volume 2795.618510
_symmetry_space_group_name_H-M "P M M A"
_symmetry_group_IT_number 51
_symmetry_cell_setting 'orthorhombic'
loop_
_space_group_symop_operation_xyz
x,y,z
1/2-x,-y,z
1/2+x,-y,-z
-x,y,-z
-x,-y,-z
1/2+x,y,-z
1/2-x,y,z
x,-y,z
loop_
_atom_site_type_symbol
_atom_site_label
_atom_site_fract_x
_atom_site_fract_y
_atom_site_fract_z
Si Si1 0.974567 0.815929 0.638928
Si Si2 0.814963 0.319987 0.154958
Si Si3 0.588810 0.184263 0.036392
Si Si4 0.918025 0.681863 0.461592
Si Si5 0.022104 0.184179 0.145915
Si Si6 0.184631 0.181662 0.642708
O O1 0.038632 0.777096 0.605835
O O2 0.928209 0.729643 0.572474
O O3 0.965541 0.751602 0.747307
O O4 0.964992 0.000000 0.631825
O O5 0.750000 0.283209 0.126265
O O6 0.823796 0.500000 0.179914
O O7 0.853025 0.270130 0.064335
O O8 0.833645 0.222072 0.248480
O O9 0.538737 0.245111 0.107117
O O10 0.597413 0.000000 0.044519
O O11 0.572618 0.233768 0.927062
O O12 0.929627 0.500000 0.448456
O O13 0.853647 0.723741 0.432829
O O14 0.017829 0.000000 0.148427
O O15 0.250000 0.232027 0.624947
O O16 0.175365 0.000000 0.625289
#
# Coordination Sequence:
#
# PCOD8207066 Si02
#       6
#     8   8   8   8   8   8
#     4  10  18  31  50  71  97 130 166 198 232 277
#     4  10  20  32  46  69 100 128 154 189 233 278
#     4   9  16  30  50  71  95 123 157 193 233 278
#     4  11  21  32  47  71 101 128 156 194 242 288
#     4   8  16  29  48  72  95 121 155 198 236 269
#     4  10  20  34  52  72  93 122 160 197 235 283
#
# _framework density 17.169725
#
# number of rings (size 3 to 8) (size 9 to 14) (size 15 to 20)
#    0.000    2.333    0.000    6.000    0.000    3.333 
#    0.000    4.167    0.000    1.000    0.000    2.333 
#    0.000    0.000    0.000    0.000    0.000    0.000 
#
# Total GULP energy -595215.041243 kJ/mol
# GULP energy per Si atom -12400.313359 kJ/mol
# Density = 1.713065 g / cm^3
# Si number density = 17.169725 Si / 1000 Ang^3
#
#
#
# Elastic Constant Matrix: (Units=GPa)
#
#
# Indices 1 2 3 4 5 6 
#
# 1 94.0486 21.9933 59.6070 0.0000 0.0000 0.0000
# 2 21.9933 44.2961 19.3125 0.0000 0.0000 0.0000
# 3 59.6070 19.3125 136.5448 0.0000 0.0000 0.0000
# 4 0.0000 0.0000 0.0000 9.6793 0.0000 0.0000
# 5 0.0000 0.0000 0.0000 0.0000 29.6006 0.0000
# 6 0.0000 0.0000 0.0000 0.0000 0.0000 24.0087
#
#
#
# Elastic Compliance Matrix: (Units=1/GPa)
#
#
# Indices 1 2 3 4 5 6 
#
# 1 0.015723 -0.005130 -0.006138 0.000000 0.000000 0.000000
# 2 -0.005130 0.025733 -0.001400 0.000000 0.000000 0.000000
# 3 -0.006138 -0.001400 0.010201 0.000000 0.000000 0.000000
# 4 0.000000 0.000000 0.000000 0.103313 0.000000 0.000000
# 5 0.000000 0.000000 0.000000 0.000000 0.033783 0.000000
# 6 0.000000 0.000000 0.000000 0.000000 0.000000 0.041652
#
#
# Mechanical properties :
#
#
# Convention : Reuss Voigt Hill
#
# Bulk Modulus (GPa) = 37.99369 52.96834 45.48102
# Shear Modulus (GPa) = 18.90256 24.25616 21.57936
#
# Velocity S-wave (km/s) = 3.32162 3.76271 3.54902
# Velocity P-wave (km/s) = 6.07348 7.05649 6.58336
#
# Compressibility (1/GPa) = 0.02632016
#
# Stress axis : x y z
#
# Youngs Moduli (GPa) = 63.60233 38.86063 98.02905
#
# Poissons Ratio (x) = 0.19937 0.60170
# Poissons Ratio (y) = 0.32630 0.13724
# Poissons Ratio (z) = 0.39039 0.05440
#
# Static dielectric constant tensor:
#      x y z
#    x 3.137440 0.000000 0.000000 
#    y 0.000000 3.059450 0.000000 
#    z 0.000000 0.000000 3.432760 
# 
# 
# High freq. dielectric constant tensor:
#      x y z
#    x 1.649550 0.000000 0.000000 
#    y 0.000000 1.658430 0.000000 
#    z 0.000000 0.000000 1.655520 
# 
# From -- ./inp_files/26028.got.cif
#   From: 2010.03.12/outbox.cif.g09.slc.cpg/sg51_14_cif.got.tgz:26028.got - 2010.04.16 13:43:02.
