data_PCOD8207562
_publ_section_title
;
Structure prediction by ZEFSAII (Michael W. Deem and Ramdas Pophale) SiO2 
 PCOD8207562
Probable space group: P M M A
;
_chemical_formula_sum "Si O2"
_cell_formula_units_Z 56
_cell_length_a 9.221741
_cell_length_b 21.226042
_cell_length_c 18.091181
_cell_angle_alpha 90.000000
_cell_angle_beta 90.000000
_cell_angle_gamma 90.000000
_cell_volume 3541.186978
_symmetry_space_group_name_H-M "P M M A"
_symmetry_group_IT_number 51
_symmetry_cell_setting 'orthorhombic'
loop_
_space_group_symop_operation_xyz
x,y,z
1/2-x,-y,z
1/2+x,-y,-z
-x,y,-z
-x,-y,-z
1/2+x,y,-z
1/2-x,y,z
x,-y,z
loop_
_atom_site_type_symbol
_atom_site_label
_atom_site_fract_x
_atom_site_fract_y
_atom_site_fract_z
Si Si1 0.082835 0.573960 0.425937
Si Si2 0.922847 0.070089 0.826064
Si Si3 0.584736 0.335605 0.324316
Si Si4 0.089775 0.267181 0.210405
Si Si5 0.414982 0.213130 0.574859
Si Si6 0.421386 0.184311 0.076340
Si Si7 0.411003 0.144685 0.310680
O O1 0.250000 0.594851 0.433770
O O2 0.068268 0.500000 0.412424
O O3 0.000000 0.594947 0.500000
O O4 0.010513 0.607559 0.356097
O O5 0.750000 0.072369 0.825702
O O6 0.979786 0.118550 0.888390
O O7 0.974966 0.090774 0.743844
O O8 0.981984 0.000000 0.843627
O O9 0.750000 0.358077 0.315029
O O10 0.522746 0.317928 0.243252
O O11 0.572993 0.276570 0.378473
O O12 0.250000 0.298086 0.204751
O O13 0.038159 0.242615 0.130142
O O14 0.099626 0.208042 0.264077
O O15 0.500000 0.224969 0.500000
O O16 0.250000 0.195814 0.556617
O O17 0.483506 0.154352 0.619579
O O18 0.250000 0.180764 0.063736
O O19 0.500000 0.196957 0.000000
O O20 0.250000 0.126696 0.339727
#
# Coordination Sequence:
#
# PCOD8207562 Si02
#       7
#     8   8   8   8   8   8   8
#     4  10  20  32  45  62  88 123 157 186 216 249
#     4   8  14  26  44  63  82 108 142 173 204 250
#     4  10  19  29  44  65  86 111 144 181 218 254
#     4   8  15  28  43  59  82 112 143 174 211 255
#     4  10  19  28  40  60  83 105 132 170 215 258
#     4   9  17  28  43  64  90 118 143 171 210 253
#     4   8  14  26  43  59  76 102 135 171 211 252
#
# _framework density 15.813907
#
# number of rings (size 3 to 8) (size 9 to 14) (size 15 to 20)
#    0.000    3.000    0.000    3.429    0.000    4.571 
#    0.000    2.143    0.000    1.714    0.000    0.000 
#    0.000    0.571    0.000    1.857    0.000    2.286 
#
# Total GULP energy -694164.111603 kJ/mol
# GULP energy per Si atom -12395.787707 kJ/mol
# Density = 1.577791 g / cm^3
# Si number density = 15.813907 Si / 1000 Ang^3
#
#
#
# Elastic Constant Matrix: (Units=GPa)
#
#
# Indices 1 2 3 4 5 6 
#
# 1 98.6803 35.4204 50.9928 0.0000 0.0000 0.0000
# 2 35.4204 47.8584 33.8740 0.0000 0.0000 0.0000
# 3 50.9928 33.8740 75.2538 0.0000 0.0000 0.0000
# 4 0.0000 0.0000 0.0000 20.4263 0.0000 0.0000
# 5 0.0000 0.0000 0.0000 0.0000 27.8948 0.0000
# 6 0.0000 0.0000 0.0000 0.0000 0.0000 13.9644
#
#
#
# Elastic Compliance Matrix: (Units=1/GPa)
#
#
# Indices 1 2 3 4 5 6 
#
# 1 0.016846 -0.006440 -0.008516 0.000000 0.000000 0.000000
# 2 -0.006440 0.033127 -0.010547 0.000000 0.000000 0.000000
# 3 -0.008516 -0.010547 0.023807 0.000000 0.000000 0.000000
# 4 0.000000 0.000000 0.000000 0.048957 0.000000 0.000000
# 5 0.000000 0.000000 0.000000 0.000000 0.035849 0.000000
# 6 0.000000 0.000000 0.000000 0.000000 0.000000 0.071611
#
#
# Mechanical properties :
#
#
# Convention : Reuss Voigt Hill
#
# Bulk Modulus (GPa) = 43.91346 51.37409 47.64377
# Shear Modulus (GPa) = 17.31336 19.22411 18.26873
#
# Velocity S-wave (km/s) = 3.31239 3.49039 3.40256
# Velocity P-wave (km/s) = 6.51601 6.98577 6.75498
#
# Compressibility (1/GPa) = 0.02277206
#
# Stress axis : x y z
#
# Youngs Moduli (GPa) = 59.36085 30.18702 42.00495
#
# Poissons Ratio (x) = 0.19441 0.35772
# Poissons Ratio (y) = 0.38230 0.44304
# Poissons Ratio (z) = 0.50553 0.31839
#
# Static dielectric constant tensor:
#      x y z
#    x 3.123780 0.000000 0.000000 
#    y 0.000000 2.908510 0.000000 
#    z 0.000000 0.000000 2.995520 
# 
# 
# High freq. dielectric constant tensor:
#      x y z
#    x 1.602950 0.000000 0.000000 
#    y 0.000000 1.575460 0.000000 
#    z 0.000000 0.000000 1.593460 
# 
# From -- ./inp_files/28179.got.cif
#   From: 2010.03.12/outbox.cif.g09.slc.cpg/sg51_15_cif.got.tgz:28179.got - 2010.04.16 13:43:02.
