data_PCOD8207607
_publ_section_title
;
Structure prediction by ZEFSAII (Michael W. Deem and Ramdas Pophale) SiO2 
 PCOD8207607
Probable space group: P M M A
;
_chemical_formula_sum "Si O2"
_cell_formula_units_Z 64
_cell_length_a 9.408401
_cell_length_b 19.634019
_cell_length_c 19.345937
_cell_angle_alpha 90.000000
_cell_angle_beta 90.000000
_cell_angle_gamma 90.000000
_cell_volume 3573.672873
_symmetry_space_group_name_H-M "P M M A"
_symmetry_group_IT_number 51
_symmetry_cell_setting 'orthorhombic'
loop_
_space_group_symop_operation_xyz
x,y,z
1/2-x,-y,z
1/2+x,-y,-z
-x,y,-z
-x,-y,-z
1/2+x,y,-z
1/2-x,y,z
x,-y,z
loop_
_atom_site_type_symbol
_atom_site_label
_atom_site_fract_x
_atom_site_fract_y
_atom_site_fract_z
Si Si1 0.092726 0.075947 0.664698
Si Si2 0.912173 0.577698 0.822225
Si Si3 0.094368 0.858376 0.439490
Si Si4 0.416947 0.779500 0.827033
Si Si5 0.083829 0.695438 0.282106
Si Si6 0.088558 0.927232 0.827653
Si Si7 0.583375 0.342001 0.070960
Si Si8 0.093225 0.699012 0.437501
O O1 0.250000 0.100598 0.642580
O O2 0.079002 0.076612 0.746021
O O3 0.977490 0.127323 0.634072
O O4 0.064564 0.000000 0.636373
O O5 0.750000 0.588665 0.847848
O O6 0.940210 0.500000 0.800680
O O7 0.943000 0.623345 0.755086
O O8 0.018781 0.596660 0.884053
O O9 0.250000 0.892093 0.441155
O O10 0.107015 0.778614 0.450827
O O11 0.000000 0.891971 0.500000
O O12 0.250000 0.784129 0.807860
O O13 0.498785 0.754490 0.758400
O O14 0.475715 0.854330 0.852609
O O15 0.444451 0.728960 0.890226
O O16 0.250000 0.716124 0.282871
O O17 0.026946 0.687011 0.360832
O O18 0.250000 0.931203 0.853344
O O19 0.015051 0.000000 0.852176
O O20 0.750000 0.355626 0.058460
O O21 0.500000 0.338053 0.000000
O O22 0.250000 0.665279 0.441030
O O23 0.000000 0.666478 0.500000
#
# Coordination Sequence:
#
# PCOD8207607 Si02
#       8
#     8   8   8   8   8   8   8   8
#     4   9  17  28  41  57  77 102 133 171 219 274
#     4   9  18  33  53  76 101 130 161 191 228 275
#     4  10  19  29  40  54  74 102 137 177 221 269
#     4   9  17  29  48  73  95 120 159 199 234 278
#     4   9  17  30  48  70  96 124 155 194 239 284
#     4   8  14  26  45  67  89 113 144 186 233 277
#     4  10  20  33  50  74 103 133 163 194 228 269
#     4   9  18  30  44  64  88 115 149 189 233 278
#
# _framework density 17.908747000000002
#
# number of rings (size 3 to 8) (size 9 to 14) (size 15 to 20)
#    0.000    2.875    0.000    2.250    0.000    2.500 
#    0.000    0.000    0.000    1.875    0.000    0.000 
#    0.000    0.000    0.000    0.000    0.000    0.375 
#
# Total GULP energy -793000.134670 kJ/mol
# GULP energy per Si atom -12390.627104 kJ/mol
# Density = 1.786799 g / cm^3
# Si number density = 17.908747 Si / 1000 Ang^3
#
#
#
# Elastic Constant Matrix: (Units=GPa)
#
#
# Indices 1 2 3 4 5 6 
#
# 1 76.5673 18.5617 34.0622 0.0000 0.0000 0.0000
# 2 18.5617 87.6577 13.8647 0.0000 0.0000 0.0000
# 3 34.0622 13.8647 80.4393 0.0000 0.0000 0.0000
# 4 0.0000 0.0000 0.0000 16.7567 0.0000 0.0000
# 5 0.0000 0.0000 0.0000 0.0000 24.8913 0.0000
# 6 0.0000 0.0000 0.0000 0.0000 0.0000 16.3851
#
#
#
# Elastic Compliance Matrix: (Units=1/GPa)
#
#
# Indices 1 2 3 4 5 6 
#
# 1 0.016596 -0.002470 -0.006602 0.000000 0.000000 0.000000
# 2 -0.002470 0.012095 -0.001039 0.000000 0.000000 0.000000
# 3 -0.006602 -0.001039 0.015406 0.000000 0.000000 0.000000
# 4 0.000000 0.000000 0.000000 0.059677 0.000000 0.000000
# 5 0.000000 0.000000 0.000000 0.000000 0.040175 0.000000
# 6 0.000000 0.000000 0.000000 0.000000 0.000000 0.061031
#
#
# Mechanical properties :
#
#
# Convention : Reuss Voigt Hill
#
# Bulk Modulus (GPa) = 41.88258 41.96016 41.92137
# Shear Modulus (GPa) = 21.44437 23.48502 22.46470
#
# Velocity S-wave (km/s) = 3.46414 3.62522 3.54559
# Velocity P-wave (km/s) = 6.27995 6.40342 6.34198
#
# Compressibility (1/GPa) = 0.02387628
#
# Stress axis : x y z
#
# Youngs Moduli (GPa) = 60.25486 82.67635 64.90812
#
# Poissons Ratio (x) = 0.20422 0.42852
# Poissons Ratio (y) = 0.14883 0.06743
# Poissons Ratio (z) = 0.39780 0.08589
#
# Static dielectric constant tensor:
#      x y z
#    x 3.432790 0.000000 0.000000 
#    y 0.000000 3.528050 0.000000 
#    z 0.000000 0.000000 3.151240 
# 
# 
# High freq. dielectric constant tensor:
#      x y z
#    x 1.680940 0.000000 0.000000 
#    y 0.000000 1.681350 0.000000 
#    z 0.000000 0.000000 1.675660 
# 
# From -- ./inp_files/28315.got.cif
#   From: 2010.03.12/outbox.cif.g09.slc.cpg/sg51_15_cif.got.tgz:28315.got - 2010.04.16 13:43:02.
