data_PCOD8207516
_publ_section_title
;
Structure prediction by ZEFSAII (Michael W. Deem and Ramdas Pophale) SiO2 
 PCOD8207516
Probable space group: P M M A
;
_chemical_formula_sum "Si O2"
_cell_formula_units_Z 56
_cell_length_a 14.500514
_cell_length_b 9.184211
_cell_length_c 22.557631
_cell_angle_alpha 90.000000
_cell_angle_beta 90.000000
_cell_angle_gamma 90.000000
_cell_volume 3004.130108
_symmetry_space_group_name_H-M "P M M A"
_symmetry_group_IT_number 51
_symmetry_cell_setting 'orthorhombic'
loop_
_space_group_symop_operation_xyz
x,y,z
1/2-x,-y,z
1/2+x,-y,-z
-x,y,-z
-x,-y,-z
1/2+x,y,-z
1/2-x,y,z
x,-y,z
loop_
_atom_site_type_symbol
_atom_site_label
_atom_site_fract_x
_atom_site_fract_y
_atom_site_fract_z
Si Si1 0.518367 0.828178 0.707600
Si Si2 0.750000 0.674689 0.016663
Si Si3 0.432179 0.829194 0.945357
Si Si4 0.250000 0.827607 0.108891
Si Si5 0.352980 0.829538 0.628864
Si Si6 0.642721 0.669248 0.614923
Si Si7 0.140407 0.338458 0.515735
Si Si8 0.056859 0.172006 0.162285
O O1 0.416511 0.785695 0.684426
O O2 0.594209 0.763474 0.664550
O O3 0.530211 0.762585 0.773573
O O4 0.533124 0.000000 0.708157
O O5 0.750000 0.500000 0.016358
O O6 0.659786 0.733829 0.050152
O O7 0.750000 0.736358 0.950739
O O8 0.484362 0.772501 0.886581
O O9 0.406010 0.000000 0.942452
O O10 0.500000 0.799288 0.000000
O O11 0.339273 0.780668 0.146380
O O12 0.250000 0.000000 0.093358
O O13 0.250000 0.769470 0.641826
O O14 0.395528 0.763795 0.568451
O O15 0.351163 0.000000 0.618937
O O16 0.750000 0.704918 0.619800
O O17 0.623218 0.500000 0.626414
O O18 0.605122 0.713351 0.549126
O O19 0.250000 0.339115 0.513488
O O20 0.102961 0.500000 0.529090
O O21 0.051120 0.000000 0.163872
#
# Coordination Sequence:
#
# PCOD8207516 Si02
#       8
#     8   4   8   4   8   8   8   8
#     4  10  21  35  52  79 108 138 177 219 269 319
#     4  12  24  36  56  90 124 148 173 220 287 336
#     4  10  19  37  63  86 110 145 192 234 265 311
#     4  10  18  36  62  84 110 146 187 222 259 316
#     4   9  18  33  51  72 103 137 171 218 274 325
#     4   9  19  35  52  74 106 140 174 216 265 320
#     4   8  15  30  52  74  96 129 177 224 264 312
#     4   9  19  35  58  85 110 140 184 230 262 307
#
# _framework density 18.641003999999999
#
# number of rings (size 3 to 8) (size 9 to 14) (size 15 to 20)
#    0.000    2.571    1.429    1.500    1.000    2.286 
#    1.286    5.714    0.000    0.000    0.000    0.000 
#    0.000    0.000    0.000    0.000    0.000    0.000 
#
# Total GULP energy -694225.326386 kJ/mol
# GULP energy per Si atom -12396.880828 kJ/mol
# Density = 1.859858 g / cm^3
# Si number density = 18.641004 Si / 1000 Ang^3
#
#
#
# Elastic Constant Matrix: (Units=GPa)
#
#
# Indices 1 2 3 4 5 6 
#
# 1 116.0565 43.3177 81.1527 0.0000 0.0000 0.0000
# 2 43.3177 40.2072 41.4290 0.0000 0.0000 0.0000
# 3 81.1527 41.4290 178.9203 0.0000 0.0000 0.0000
# 4 0.0000 0.0000 0.0000 4.7527 0.0000 0.0000
# 5 0.0000 0.0000 0.0000 0.0000 32.7360 0.0000
# 6 0.0000 0.0000 0.0000 0.0000 0.0000 17.0621
#
#
#
# Elastic Compliance Matrix: (Units=1/GPa)
#
#
# Indices 1 2 3 4 5 6 
#
# 1 0.016779 -0.013443 -0.004498 0.000000 0.000000 0.000000
# 2 -0.013443 0.043434 -0.003960 0.000000 0.000000 0.000000
# 3 -0.004498 -0.003960 0.008546 0.000000 0.000000 0.000000
# 4 0.000000 0.000000 0.000000 0.210408 0.000000 0.000000
# 5 0.000000 0.000000 0.000000 0.000000 0.030547 0.000000
# 6 0.000000 0.000000 0.000000 0.000000 0.000000 0.058609
#
#
# Mechanical properties :
#
#
# Convention : Reuss Voigt Hill
#
# Bulk Modulus (GPa) = 40.06676 74.10921 57.08798
# Shear Modulus (GPa) = 11.89218 22.19578 17.04398
#
# Velocity S-wave (km/s) = 2.52852 3.45439 3.02706
# Velocity P-wave (km/s) = 5.48317 7.46678 6.55049
#
# Compressibility (1/GPa) = 0.02495834
#
# Stress axis : x y z
#
# Youngs Moduli (GPa) = 59.59835 23.02340 117.01254
#
# Poissons Ratio (x) = 0.30949 0.52630
# Poissons Ratio (y) = 0.80115 0.46337
# Poissons Ratio (z) = 0.26806 0.09117
#
# Static dielectric constant tensor:
#      x y z
#    x 3.680560 0.000000 0.000000 
#    y 0.000000 3.205040 0.000000 
#    z 0.000000 0.000000 3.754070 
# 
# 
# High freq. dielectric constant tensor:
#      x y z
#    x 1.731350 0.000000 0.000000 
#    y 0.000000 1.692900 0.000000 
#    z 0.000000 0.000000 1.725850 
# 
# From -- ./inp_files/33559.got.cif
#   From: 2010.03.12/outbox.cif.g09.slc.cpg/sg51_17_cif.got.tgz:33559.got - 2010.04.16 13:43:02.
