data_PCOD8207061
_publ_section_title
;
Structure prediction by ZEFSAII (Michael W. Deem and Ramdas Pophale) SiO2 
 PCOD8207061
Probable space group: P M M A
;
_chemical_formula_sum "Si O2"
_cell_formula_units_Z 64
_cell_length_a 14.431464
_cell_length_b 17.406926
_cell_length_c 15.479767
_cell_angle_alpha 90.000000
_cell_angle_beta 90.000000
_cell_angle_gamma 90.000000
_cell_volume 3888.632422
_symmetry_space_group_name_H-M "P M M A"
_symmetry_group_IT_number 51
_symmetry_cell_setting 'orthorhombic'
loop_
_space_group_symop_operation_xyz
x,y,z
1/2-x,-y,z
1/2+x,-y,-z
-x,y,-z
-x,-y,-z
1/2+x,y,-z
1/2-x,y,z
x,-y,z
loop_
_atom_site_type_symbol
_atom_site_label
_atom_site_fract_x
_atom_site_fract_y
_atom_site_fract_z
Si Si1 0.356204 0.702702 0.775636
Si Si2 0.351349 0.678406 0.335503
Si Si3 0.599718 0.202917 0.531442
Si Si4 0.987749 0.708342 0.900408
Si Si5 0.993175 0.409900 0.762281
Si Si6 0.954457 0.911170 0.678402
Si Si7 0.857044 0.190801 0.806015
Si Si8 0.649174 0.157171 0.348194
O O1 0.250000 0.688565 0.801878
O O2 0.413311 0.734560 0.858896
O O3 0.403069 0.622538 0.743958
O O4 0.368350 0.761745 0.697683
O O5 0.250000 0.640766 0.325769
O O6 0.356911 0.719623 0.428578
O O7 0.427057 0.612017 0.318958
O O8 0.368197 0.744677 0.266132
O O9 0.500000 0.228661 0.500000
O O10 0.594268 0.133829 0.600278
O O11 0.657521 0.172169 0.450516
O O12 0.954253 0.630630 0.850264
O O13 0.911974 0.776826 0.889685
O O14 0.000000 0.688651 0.000000
O O15 0.996147 0.500000 0.775727
O O16 0.908790 0.884770 0.769229
O O17 0.065915 0.899539 0.677530
O O18 0.932625 0.000000 0.665349
O O19 0.750000 0.172732 0.829155
O O20 0.750000 0.123221 0.319326
#
# Coordination Sequence:
#
# PCOD8207061 Si02
#       8
#     8   8   8   8   8   8   8   8
#     4   9  18  33  51  71  96 131 169 199 236 289
#     4   9  16  29  48  69  95 130 172 209 238 277
#     4   9  17  28  47  71  97 131 172 210 248 278
#     4   9  18  33  53  78  99 122 160 204 248 284
#     4   9  18  31  48  72 103 130 154 191 246 305
#     4  10  19  32  47  71 106 132 159 200 246 295
#     4   9  17  32  51  70  95 129 167 199 237 285
#     4  10  18  31  50  70  96 132 172 208 241 284
#
# _framework density 16.458228999999999
#
# number of rings (size 3 to 8) (size 9 to 14) (size 15 to 20)
#    0.750    2.000    1.250    1.875    0.000    4.500 
#    0.000    0.000    0.000    3.750    0.000    3.500 
#    0.000    0.000    0.000    0.000    0.000    0.000 
#
# Total GULP energy -792974.279178 kJ/mol
# GULP energy per Si atom -12390.223112 kJ/mol
# Density = 1.642077 g / cm^3
# Si number density = 16.458229 Si / 1000 Ang^3
#
#
#
# Elastic Constant Matrix: (Units=GPa)
#
#
# Indices 1 2 3 4 5 6 
#
# 1 110.8394 39.8552 24.3284 0.0000 0.0000 0.0000
# 2 39.8552 81.1469 46.0976 0.0000 0.0000 0.0000
# 3 24.3284 46.0976 37.6180 0.0000 0.0000 0.0000
# 4 0.0000 0.0000 0.0000 13.1833 0.0000 0.0000
# 5 0.0000 0.0000 0.0000 0.0000 10.5255 0.0000
# 6 0.0000 0.0000 0.0000 0.0000 0.0000 11.5262
#
#
#
# Elastic Compliance Matrix: (Units=1/GPa)
#
#
# Indices 1 2 3 4 5 6 
#
# 1 0.010987 -0.004475 -0.001622 0.000000 0.000000 0.000000
# 2 -0.004475 0.042377 -0.049035 0.000000 0.000000 0.000000
# 3 -0.001622 -0.049035 0.087721 0.000000 0.000000 0.000000
# 4 0.000000 0.000000 0.000000 0.075853 0.000000 0.000000
# 5 0.000000 0.000000 0.000000 0.000000 0.095008 0.000000
# 6 0.000000 0.000000 0.000000 0.000000 0.000000 0.086759
#
#
# Mechanical properties :
#
#
# Convention : Reuss Voigt Hill
#
# Bulk Modulus (GPa) = 32.44622 50.01852 41.23237
# Shear Modulus (GPa) = 9.62941 15.00187 12.31564
#
# Velocity S-wave (km/s) = 2.42147 3.02240 2.73847
# Velocity P-wave (km/s) = 5.25120 6.52970 5.92504
#
# Compressibility (1/GPa) = 0.03082023
#
# Stress axis : x y z
#
# Youngs Moduli (GPa) = 91.01545 23.59776 11.39982
#
# Poissons Ratio (x) = 0.10560 0.01849
# Poissons Ratio (y) = 0.40728 0.55899
# Poissons Ratio (z) = 0.14764 1.15712
#
# Static dielectric constant tensor:
#      x y z
#    x 3.297370 0.000000 0.000000 
#    y 0.000000 2.763140 0.000000 
#    z 0.000000 0.000000 2.951480 
# 
# 
# High freq. dielectric constant tensor:
#      x y z
#    x 1.646880 0.000000 0.000000 
#    y 0.000000 1.599480 0.000000 
#    z 0.000000 0.000000 1.607700 
# 
# From -- ./inp_files/24447.got.cif
#   From: 2010.03.12/outbox.cif.g09.slc.cpg/sg51_13_cif.got.tgz:24447.got - 2010.04.16 13:43:02.
