data_PCOD8207497
_publ_section_title
;
Structure prediction by ZEFSAII (Michael W. Deem and Ramdas Pophale) SiO2 
 PCOD8207497
Probable space group: P M M A
;
_chemical_formula_sum "Si O2"
_cell_formula_units_Z 64
_cell_length_a 16.443221
_cell_length_b 15.571352
_cell_length_c 11.881812
_cell_angle_alpha 90.000000
_cell_angle_beta 90.000000
_cell_angle_gamma 90.000000
_cell_volume 3042.256955
_symmetry_space_group_name_H-M "P M M A"
_symmetry_group_IT_number 51
_symmetry_cell_setting 'orthorhombic'
loop_
_space_group_symop_operation_xyz
x,y,z
1/2-x,-y,z
1/2+x,-y,-z
-x,y,-z
-x,-y,-z
1/2+x,y,-z
1/2-x,y,z
x,-y,z
loop_
_atom_site_type_symbol
_atom_site_label
_atom_site_fract_x
_atom_site_fract_y
_atom_site_fract_z
Si Si1 0.589630 0.744616 0.957730
Si Si2 0.652197 0.741902 0.709411
Si Si3 0.088425 0.597610 0.457038
Si Si4 0.346948 0.151821 0.668414
Si Si5 0.156088 0.342217 0.677334
Si Si6 0.653629 0.906214 0.568646
Si Si7 0.655536 0.407704 0.092113
Si Si8 0.845468 0.903553 0.089319
O O1 0.601916 0.743585 0.824555
O O2 0.500000 0.722467 0.000000
O O3 0.644898 0.667895 0.003400
O O4 0.613210 0.837909 0.004075
O O5 0.750000 0.738831 0.728164
O O6 0.623740 0.658995 0.639406
O O7 0.623149 0.828632 0.646618
O O8 0.087046 0.500000 0.410276
O O9 0.145807 0.600712 0.566398
O O10 0.000000 0.627556 0.500000
O O11 0.250000 0.149767 0.666820
O O12 0.382405 0.248078 0.660726
O O13 0.380961 0.102681 0.558682
O O14 0.378790 0.108659 0.783588
O O15 0.250000 0.329114 0.703291
O O16 0.114401 0.385282 0.786881
O O17 0.750000 0.900539 0.563887
O O18 0.625992 0.000000 0.615522
O O19 0.750000 0.419715 0.112139
O O20 0.619214 0.500000 0.050609
O O21 0.750000 0.885662 0.085915
O O22 0.866245 0.000000 0.049246
#
# Coordination Sequence:
#
# PCOD8207497 Si02
#       8
#     8   8   8   8   8   8   8   8
#     4  12  27  43  62  88 127 173 215 267 325 380
#     4  11  24  43  66  92 125 172 222 264 313 384
#     4  11  25  41  62  93 131 168 204 253 319 387
#     4   9  15  28  57  93 123 151 189 249 319 372
#     4  10  18  34  63  93 122 157 200 253 309 369
#     4   9  17  32  58  93 126 155 197 255 314 373
#     4  10  21  39  65  92 118 154 205 263 313 369
#     4  10  20  37  64  93 122 163 218 275 324 378
#
# _framework density 21.037012000000001
#
# number of rings (size 3 to 8) (size 9 to 14) (size 15 to 20)
#    0.000    1.750    2.500    2.250    1.750    4.500 
#    0.000    1.250    0.000    0.375    0.000    0.000 
#    0.000    0.000    0.000    0.000    0.000    0.000 
#
# Total GULP energy -793291.629159 kJ/mol
# GULP energy per Si atom -12395.181706 kJ/mol
# Density = 2.098913 g / cm^3
# Si number density = 21.037012 Si / 1000 Ang^3
#
#
#
# Elastic Constant Matrix: (Units=GPa)
#
#
# Indices 1 2 3 4 5 6 
#
# 1 32.4647 18.6091 11.2423 0.0000 0.0000 0.0000
# 2 18.6091 150.7703 57.0058 0.0000 0.0000 0.0000
# 3 11.2423 57.0058 137.6001 0.0000 0.0000 0.0000
# 4 0.0000 0.0000 0.0000 -0.3807 0.0000 0.0000
# 5 0.0000 0.0000 0.0000 0.0000 24.3110 0.0000
# 6 0.0000 0.0000 0.0000 0.0000 0.0000 14.5908
#
#
#
# Elastic Compliance Matrix: (Units=1/GPa)
#
#
# Indices 1 2 3 4 5 6 
#
# 1 0.033316 -0.003656 -0.001208 0.000000 0.000000 0.000000
# 2 -0.003656 0.008266 -0.003126 0.000000 0.000000 0.000000
# 3 -0.001208 -0.003126 0.008661 0.000000 0.000000 0.000000
# 4 0.000000 0.000000 0.000000 -2.626417 0.000000 0.000000
# 5 0.000000 0.000000 0.000000 0.000000 0.041134 0.000000
# 6 0.000000 0.000000 0.000000 0.000000 0.000000 0.068536
#
#
# Mechanical properties :
#
#
# Convention : Reuss Voigt Hill
#
# Bulk Modulus (GPa) = 29.18405 54.94995 42.06700
# Shear Modulus (GPa) = -2.04993 23.30274 10.62641
#
# Velocity S-wave (km/s) = -0.98821 3.33183 2.24995
# Velocity P-wave (km/s) = 3.54975 6.40146 5.17588
#
# Compressibility (1/GPa) = 0.03426530
#
# Stress axis : x y z
#
# Youngs Moduli (GPa) = 30.01541 120.98337 115.45990
#
# Poissons Ratio (x) = 0.44226 0.13943
# Poissons Ratio (y) = 0.10972 0.36089
# Poissons Ratio (z) = 0.03625 0.37815
#
# Static dielectric constant tensor:
#      x y z
#    x 3.455690 0.000000 0.000000 
#    y 0.000000 4.122580 0.000000 
#    z 0.000000 0.000000 3.810640 
# 
# 
# High freq. dielectric constant tensor:
#      x y z
#    x 1.783110 0.000000 0.000000 
#    y 0.000000 1.842650 0.000000 
#    z 0.000000 0.000000 1.822650 
# 
# From -- ./inp_files/17547.got.cif
#   From: 2010.03.12/outbox.cif.g09.slc.cpg/sg51_9_cif.got.tgz:17547.got - 2010.04.16 13:43:02.
