data_PCOD8207311
_publ_section_title
;
Structure prediction by ZEFSAII (Michael W. Deem and Ramdas Pophale) SiO2 
 PCOD8207311
Probable space group: P M M A
;
_chemical_formula_sum "Si O2"
_cell_formula_units_Z 48
_cell_length_a 8.624291
_cell_length_b 30.670648
_cell_length_c 9.341395
_cell_angle_alpha 90.000000
_cell_angle_beta 90.000000
_cell_angle_gamma 90.000000
_cell_volume 2470.916618
_symmetry_space_group_name_H-M "P M M A"
_symmetry_group_IT_number 51
_symmetry_cell_setting 'orthorhombic'
loop_
_space_group_symop_operation_xyz
x,y,z
1/2-x,-y,z
1/2+x,-y,-z
-x,y,-z
-x,-y,-z
1/2+x,y,-z
1/2-x,y,z
x,-y,z
loop_
_atom_site_type_symbol
_atom_site_label
_atom_site_fract_x
_atom_site_fract_y
_atom_site_fract_z
Si Si1 0.932100 0.249750 0.344336
Si Si2 0.065523 0.000000 0.658747
Si Si3 0.066672 0.574184 0.847539
Si Si4 0.566213 0.088975 0.658550
Si Si5 0.566927 0.500000 0.656179
Si Si6 0.566194 0.833247 0.158100
Si Si7 0.432691 0.672987 0.848611
O O1 0.750000 0.252111 0.361000
O O2 0.981787 0.210107 0.243054
O O3 0.995993 0.294664 0.274367
O O4 0.000000 0.242560 0.500000
O O5 0.000000 0.000000 0.500000
O O6 0.999973 0.044247 0.729681
O O7 0.250000 0.000000 0.661893
O O8 0.250000 0.568086 0.849087
O O9 0.016591 0.623713 0.810863
O O10 0.992261 0.543734 0.729678
O O11 0.000000 0.559811 0.000000
O O12 0.500000 0.097545 0.500000
O O13 0.750000 0.086334 0.647425
O O14 0.515353 0.126811 0.763964
O O15 0.750000 0.500000 0.653680
O O16 0.500000 0.500000 0.500000
O O17 0.750000 0.840404 0.154666
O O18 0.500000 0.828854 0.000000
O O19 0.250000 0.676713 0.862002
O O20 0.500000 0.688083 0.000000
#
# Coordination Sequence:
#
# PCOD8207311 Si02
#       7
#     8   4   8   8   4   8   8
#     4  10  22  38  57  83 114 147 186 229 277 331
#     4  10  18  32  55  84 115 148 187 230 278 332
#     4  10  20  37  60  85 114 148 189 231 277 333
#     4  11  21  36  58  85 116 150 189 233 280 331
#     4  12  25  40  57  80 112 148 188 234 287 336
#     4  11  23  39  58  82 112 148 189 233 282 335
#     4   9  19  36  58  85 114 146 184 228 275 329
#
# _framework density 19.425989999999999
#
# number of rings (size 3 to 8) (size 9 to 14) (size 15 to 20)
#    0.000    1.667    0.000    6.250    0.000    4.667 
#    0.000    2.083    0.000    0.000    0.000    0.000 
#    0.000    0.000    0.000    0.000    0.000    0.000 
#
# Total GULP energy -595274.694134 kJ/mol
# GULP energy per Si atom -12401.556128 kJ/mol
# Density = 1.938178 g / cm^3
# Si number density = 19.425990 Si / 1000 Ang^3
#
#
#
# Elastic Constant Matrix: (Units=GPa)
#
#
# Indices 1 2 3 4 5 6 
#
# 1 110.1492 60.9563 58.3914 0.0000 0.0000 0.0000
# 2 60.9563 153.5393 92.5876 0.0000 0.0000 0.0000
# 3 58.3914 92.5876 153.1587 0.0000 0.0000 0.0000
# 4 0.0000 0.0000 0.0000 43.6141 0.0000 0.0000
# 5 0.0000 0.0000 0.0000 0.0000 35.0494 0.0000
# 6 0.0000 0.0000 0.0000 0.0000 0.0000 -16.1550
#
#
#
# Elastic Compliance Matrix: (Units=1/GPa)
#
#
# Indices 1 2 3 4 5 6 
#
# 1 0.012324 -0.003241 -0.002739 0.000000 0.000000 0.000000
# 2 -0.003241 0.011101 -0.005475 0.000000 0.000000 0.000000
# 3 -0.002739 -0.005475 0.010884 0.000000 0.000000 0.000000
# 4 0.000000 0.000000 0.000000 0.022928 0.000000 0.000000
# 5 0.000000 0.000000 0.000000 0.000000 0.028531 0.000000
# 6 0.000000 0.000000 0.000000 0.000000 0.000000 -0.061900
#
#
# Mechanical properties :
#
#
# Convention : Reuss Voigt Hill
#
# Bulk Modulus (GPa) = 87.73638 93.41306 90.57472
# Shear Modulus (GPa) = 98.85383 26.16247 62.50815
#
# Velocity S-wave (km/s) = 7.14128 3.67383 5.67868
# Velocity P-wave (km/s) = 10.64235 8.13554 9.47224
#
# Compressibility (1/GPa) = 0.01139778
#
# Stress axis : x y z
#
# Youngs Moduli (GPa) = 81.14052 90.07792 91.88119
#
# Poissons Ratio (x) = 0.29193 0.25170
# Poissons Ratio (y) = 0.26297 0.50309
# Poissons Ratio (z) = 0.22228 0.49322
#
# Static dielectric constant tensor:
#      x y z
#    x 3.620340 0.000000 0.000000 
#    y 0.000000 4.173910 0.000000 
#    z 0.000000 0.000000 3.323400 
# 
# 
# High freq. dielectric constant tensor:
#      x y z
#    x 1.765820 0.000000 0.000000 
#    y 0.000000 1.778470 0.000000 
#    z 0.000000 0.000000 1.745790 
# 
# From -- ./inp_files/6296.got.cif
#   From: 2010.03.12/outbox.cif.g09.slc.cpg/sg51_4_cif.got.tgz:6296.got - 2010.04.16 13:43:02.
