data_PCOD8207736
_publ_section_title
;
Structure prediction by ZEFSAII (Michael W. Deem and Ramdas Pophale) SiO2 
 PCOD8207736
Probable space group: P M M A
;
_chemical_formula_sum "Si O2"
_cell_formula_units_Z 56
_cell_length_a 20.103390
_cell_length_b 9.069984
_cell_length_c 17.703487
_cell_angle_alpha 90.000000
_cell_angle_beta 90.000000
_cell_angle_gamma 90.000000
_cell_volume 3228.008245
_symmetry_space_group_name_H-M "P M M A"
_symmetry_group_IT_number 51
_symmetry_cell_setting 'orthorhombic'
loop_
_space_group_symop_operation_xyz
x,y,z
1/2-x,-y,z
1/2+x,-y,-z
-x,y,-z
-x,-y,-z
1/2+x,y,-z
1/2-x,y,z
x,-y,z
loop_
_atom_site_type_symbol
_atom_site_label
_atom_site_fract_x
_atom_site_fract_y
_atom_site_fract_z
Si Si1 0.438202 0.833432 0.657904
Si Si2 0.543081 0.327198 0.193302
Si Si3 0.095195 0.166356 0.365670
Si Si4 0.673857 0.831714 0.918391
Si Si5 0.067314 0.827827 0.958187
Si Si6 0.609958 0.672319 0.783184
Si Si7 0.921293 0.333304 0.488246
O O1 0.421457 0.749313 0.735400
O O2 0.516453 0.832395 0.643996
O O3 0.401999 0.750343 0.588921
O O4 0.411033 0.000000 0.662637
O O5 0.556040 0.500000 0.199129
O O6 0.576272 0.264365 0.117963
O O7 0.464931 0.289136 0.191861
O O8 0.128980 0.247553 0.294837
O O9 0.114778 0.251293 0.442280
O O10 0.122498 0.000000 0.370329
O O11 0.750000 0.812352 0.943022
O O12 0.659527 0.728194 0.847383
O O13 0.657423 0.000000 0.895188
O O14 0.629321 0.784744 0.989427
O O15 0.065533 0.000000 0.937590
O O16 0.000000 0.779301 0.000000
O O17 0.619910 0.500000 0.770522
O O18 0.894517 0.500000 0.483801
O O19 0.000000 0.332314 0.500000
#
# Coordination Sequence:
#
# PCOD8207736 Si02
#       7
#     8   8   8   8   8   8   8
#     4   9  16  25  38  57  85 120 156 192 233 280
#     4  10  19  29  44  67  93 121 156 198 241 285
#     4   9  16  25  39  58  83 118 158 193 228 275
#     4  10  21  36  52  70  94 124 158 198 244 292
#     4  10  19  32  51  71  92 121 159 199 241 291
#     4  10  19  30  45  66  92 121 156 196 238 283
#     4   9  15  23  35  54  84 119 154 191 233 278
#
# _framework density 17.34816
#
# number of rings (size 3 to 8) (size 9 to 14) (size 15 to 20)
#    0.000    2.429    1.429    2.143    0.000    7.429 
#    0.000    0.000    0.000    0.000    0.000    0.000 
#    0.000    1.143    0.000    6.857    0.000    6.143 
#
# Total GULP energy -694507.098054 kJ/mol
# GULP energy per Si atom -12401.912465 kJ/mol
# Density = 1.730867 g / cm^3
# Si number density = 17.348160 Si / 1000 Ang^3
#
#
#
# Elastic Constant Matrix: (Units=GPa)
#
#
# Indices 1 2 3 4 5 6 
#
# 1 43.8802 25.6987 35.6833 0.0000 0.0000 0.0000
# 2 25.6987 126.0823 83.3618 0.0000 0.0000 0.0000
# 3 35.6833 83.3618 167.4284 0.0000 0.0000 0.0000
# 4 0.0000 0.0000 0.0000 36.7741 0.0000 0.0000
# 5 0.0000 0.0000 0.0000 0.0000 11.6894 0.0000
# 6 0.0000 0.0000 0.0000 0.0000 0.0000 11.4245
#
#
#
# Elastic Compliance Matrix: (Units=1/GPa)
#
#
# Indices 1 2 3 4 5 6 
#
# 1 0.028144 -0.002640 -0.004684 0.000000 0.000000 0.000000
# 2 -0.002640 0.012071 -0.005448 0.000000 0.000000 0.000000
# 3 -0.004684 -0.005448 0.009683 0.000000 0.000000 0.000000
# 4 0.000000 0.000000 0.000000 0.027193 0.000000 0.000000
# 5 0.000000 0.000000 0.000000 0.000000 0.085548 0.000000
# 6 0.000000 0.000000 0.000000 0.000000 0.000000 0.087531
#
#
# Mechanical properties :
#
#
# Convention : Reuss Voigt Hill
#
# Bulk Modulus (GPa) = 41.05713 69.65317 55.35515
# Shear Modulus (GPa) = 17.61605 24.82074 21.21840
#
# Velocity S-wave (km/s) = 3.19006 3.78662 3.50107
# Velocity P-wave (km/s) = 6.10627 7.70424 6.95133
#
# Compressibility (1/GPa) = 0.02435630
#
# Stress axis : x y z
#
# Youngs Moduli (GPa) = 35.53128 82.84240 103.27034
#
# Poissons Ratio (x) = 0.21867 0.48372
# Poissons Ratio (y) = 0.09379 0.56258
# Poissons Ratio (z) = 0.16643 0.45129
#
# Static dielectric constant tensor:
#      x y z
#    x 2.618050 0.000000 0.000000 
#    y 0.000000 3.341850 0.000000 
#    z 0.000000 0.000000 3.359340 
# 
# 
# High freq. dielectric constant tensor:
#      x y z
#    x 1.593370 0.000000 0.000000 
#    y 0.000000 1.683890 0.000000 
#    z 0.000000 0.000000 1.684630 
# 
# From -- ./inp_files/30404.got.cif
#   From: 2010.03.12/outbox.cif.g09.slc.cpg/sg51_16_cif.got.tgz:30404.got - 2010.04.16 13:43:02.
