data_PCOD8207895
_publ_section_title
;
Structure prediction by ZEFSAII (Michael W. Deem and Ramdas Pophale) SiO2 
 PCOD8207895
Probable space group: P M M A
;
_chemical_formula_sum "Si O2"
_cell_formula_units_Z 52
_cell_length_a 9.154234
_cell_length_b 18.577111
_cell_length_c 18.609562
_cell_angle_alpha 90.000000
_cell_angle_beta 90.000000
_cell_angle_gamma 90.000000
_cell_volume 3164.727619
_symmetry_space_group_name_H-M "P M M A"
_symmetry_group_IT_number 51
_symmetry_cell_setting 'orthorhombic'
loop_
_space_group_symop_operation_xyz
x,y,z
1/2-x,-y,z
1/2+x,-y,-z
-x,y,-z
-x,-y,-z
1/2+x,y,-z
1/2-x,y,z
x,-y,z
loop_
_atom_site_type_symbol
_atom_site_label
_atom_site_fract_x
_atom_site_fract_y
_atom_site_fract_z
Si Si1 0.922032 0.656835 0.923175
Si Si2 0.078912 0.712528 0.792331
Si Si3 0.581874 0.792915 0.674299
Si Si4 0.582668 0.419255 0.307605
Si Si5 0.920691 0.081814 0.572268
Si Si6 0.581607 0.342382 0.574537
Si Si7 0.584544 0.500000 0.927780
O O1 0.750000 0.673501 0.931305
O O2 0.949298 0.576206 0.888683
O O3 0.995444 0.713203 0.868488
O O4 0.000000 0.664959 0.000000
O O5 0.250000 0.724000 0.805343
O O6 0.042178 0.636616 0.754746
O O7 0.018189 0.777753 0.743665
O O8 0.750000 0.794293 0.699521
O O9 0.532691 0.868775 0.639623
O O10 0.556466 0.733085 0.613904
O O11 0.750000 0.408587 0.331335
O O12 0.553973 0.500000 0.278527
O O13 0.483130 0.406488 0.377231
O O14 0.750000 0.090373 0.557140
O O15 0.000000 0.107791 0.500000
O O16 0.964137 0.000000 0.591647
O O17 0.500000 0.338920 0.500000
O O18 0.750000 0.358953 0.560391
O O19 0.750000 0.500000 0.952549
O O20 0.500000 0.500000 0.000000
#
# Coordination Sequence:
#
# PCOD8207895 Si02
#       7
#     8   8   8   8   8   8   4
#     4  10  19  32  48  68  93 120 152 190 232 279
#     4  10  20  32  48  68  89 118 153 190 233 278
#     4   9  18  32  47  65  92 123 154 187 224 271
#     4   9  19  34  47  60  80 108 144 187 232 275
#     4   9  17  29  47  72 100 129 159 191 229 272
#     4  10  19  30  45  63  82 109 145 185 228 271
#     4   8  16  28  42  62  86 114 145 180 225 274
#
# _framework density 16.431114999999998
#
# number of rings (size 3 to 8) (size 9 to 14) (size 15 to 20)
#    0.000    2.615    0.000    1.846    1.077    3.077 
#    0.000    0.000    0.000    0.000    0.000    0.000 
#    0.000    0.615    0.000    1.692    0.000    2.462 
#
# Total GULP energy -644597.445303 kJ/mol
# GULP energy per Si atom -12396.104717 kJ/mol
# Density = 1.639372 g / cm^3
# Si number density = 16.431115 Si / 1000 Ang^3
#
#
#
# Elastic Constant Matrix: (Units=GPa)
#
#
# Indices 1 2 3 4 5 6 
#
# 1 82.9958 30.0645 58.8240 0.0000 0.0000 0.0000
# 2 30.0645 70.4768 39.0812 0.0000 0.0000 0.0000
# 3 58.8240 39.0812 100.5759 0.0000 0.0000 0.0000
# 4 0.0000 0.0000 0.0000 20.5390 0.0000 0.0000
# 5 0.0000 0.0000 0.0000 0.0000 30.1434 0.0000
# 6 0.0000 0.0000 0.0000 0.0000 0.0000 19.0205
#
#
#
# Elastic Compliance Matrix: (Units=1/GPa)
#
#
# Indices 1 2 3 4 5 6 
#
# 1 0.020986 -0.002735 -0.011211 0.000000 0.000000 0.000000
# 2 -0.002735 0.018443 -0.005567 0.000000 0.000000 0.000000
# 3 -0.011211 -0.005567 0.018663 0.000000 0.000000 0.000000
# 4 0.000000 0.000000 0.000000 0.048688 0.000000 0.000000
# 5 0.000000 0.000000 0.000000 0.000000 0.033175 0.000000
# 6 0.000000 0.000000 0.000000 0.000000 0.000000 0.052575
#
#
# Mechanical properties :
#
#
# Convention : Reuss Voigt Hill
#
# Bulk Modulus (GPa) = 52.45141 56.66531 54.55836
# Shear Modulus (GPa) = 21.01641 22.34582 21.68111
#
# Velocity S-wave (km/s) = 3.58028 3.69178 3.63645
# Velocity P-wave (km/s) = 7.00589 7.26180 7.13499
#
# Compressibility (1/GPa) = 0.01906526
#
# Stress axis : x y z
#
# Youngs Moduli (GPa) = 47.65191 54.22192 53.58282
#
# Poissons Ratio (x) = 0.14832 0.60071
# Poissons Ratio (y) = 0.13035 0.29827
# Poissons Ratio (z) = 0.53422 0.30183
#
# Static dielectric constant tensor:
#      x y z
#    x 3.166110 0.000000 0.000000 
#    y 0.000000 2.961640 0.000000 
#    z 0.000000 0.000000 2.900750 
# 
# 
# High freq. dielectric constant tensor:
#      x y z
#    x 1.644010 0.000000 0.000000 
#    y 0.000000 1.602610 0.000000 
#    z 0.000000 0.000000 1.616860 
# 
# From -- ./inp_files/27911.got.cif
#   From: 2010.03.12/outbox.cif.g09.slc.cpg/sg51_14_cif.got.tgz:27911.got - 2010.04.16 13:43:02.
