data_PCOD8207028
_publ_section_title
;
Structure prediction by ZEFSAII (Michael W. Deem and Ramdas Pophale) SiO2 
 PCOD8207028
Probable space group: P M M A
;
_chemical_formula_sum "Si O2"
_cell_formula_units_Z 64
_cell_length_a 9.118401
_cell_length_b 20.040823
_cell_length_c 19.931836
_cell_angle_alpha 90.000000
_cell_angle_beta 90.000000
_cell_angle_gamma 90.000000
_cell_volume 3642.348903
_symmetry_space_group_name_H-M "P M M A"
_symmetry_group_IT_number 51
_symmetry_cell_setting 'orthorhombic'
loop_
_space_group_symop_operation_xyz
x,y,z
1/2-x,-y,z
1/2+x,-y,-z
-x,y,-z
-x,-y,-z
1/2+x,y,-z
1/2-x,y,z
x,-y,z
loop_
_atom_site_type_symbol
_atom_site_label
_atom_site_fract_x
_atom_site_fract_y
_atom_site_fract_z
Si Si1 0.579679 0.740864 0.600538
Si Si2 0.921166 0.573792 0.288072
Si Si3 0.079591 0.123970 0.563673
Si Si4 0.583010 0.299857 0.752100
Si Si5 0.076582 0.164499 0.191630
Si Si6 0.083297 0.925764 0.707371
Si Si7 0.423683 0.610322 0.563867
Si Si8 0.922439 0.076266 0.931408
O O1 0.750000 0.736602 0.579169
O O2 0.508732 0.808858 0.577255
O O3 0.562042 0.733635 0.680086
O O4 0.486148 0.684753 0.563509
O O5 0.750000 0.587547 0.283524
O O6 0.961996 0.500000 0.260354
O O7 0.970704 0.576017 0.366030
O O8 0.995052 0.630726 0.242208
O O9 0.250000 0.138896 0.548360
O O10 0.062510 0.076037 0.627368
O O11 0.000000 0.089051 0.500000
O O12 0.750000 0.319162 0.766400
O O13 0.528840 0.242953 0.805400
O O14 0.250000 0.159619 0.194883
O O15 0.017403 0.127263 0.125116
O O16 0.019867 0.127222 0.257273
O O17 0.250000 0.908081 0.726668
O O18 0.042040 0.000000 0.731811
O O19 0.500000 0.573198 0.500000
O O20 0.250000 0.609027 0.554200
O O21 0.750000 0.084227 0.941739
O O22 0.962448 0.000000 0.911183
O O23 0.000000 0.097013 0.000000
#
# Coordination Sequence:
#
# PCOD8207028 Si02
#       8
#     8   8   8   8   8   8   8   8
#     4  10  18  31  48  66  88 114 150 195 246 300
#     4   9  19  34  49  66  92 125 158 195 244 301
#     4  11  22  34  48  64  86 116 154 202 257 309
#     4   9  18  31  50  74  97 121 157 203 245 289
#     4  10  19  34  55  79 104 133 170 209 247 290
#     4  10  22  37  51  70  95 123 160 207 256 304
#     4  10  19  30  44  63  87 115 150 192 241 297
#     4   9  18  32  51  77 111 148 179 206 239 283
#
# _framework density 17.571079000000001
#
# number of rings (size 3 to 8) (size 9 to 14) (size 15 to 20)
#    0.000    2.250    1.250    1.875    0.000    4.000 
#    0.000    1.250    0.000    0.000    0.000    0.000 
#    0.000    0.500    0.000    1.125    0.000    2.000 
#
# Total GULP energy -793327.655407 kJ/mol
# GULP energy per Si atom -12395.744616 kJ/mol
# Density = 1.753109 g / cm^3
# Si number density = 17.571079 Si / 1000 Ang^3
#
#
#
# Elastic Constant Matrix: (Units=GPa)
#
#
# Indices 1 2 3 4 5 6 
#
# 1 50.0358 35.6532 27.5534 0.0000 0.0000 0.0000
# 2 35.6532 113.8289 47.9364 0.0000 0.0000 0.0000
# 3 27.5534 47.9364 70.4298 0.0000 0.0000 0.0000
# 4 0.0000 0.0000 0.0000 15.9173 0.0000 0.0000
# 5 0.0000 0.0000 0.0000 0.0000 22.6358 0.0000
# 6 0.0000 0.0000 0.0000 0.0000 0.0000 21.3576
#
#
#
# Elastic Compliance Matrix: (Units=1/GPa)
#
#
# Indices 1 2 3 4 5 6 
#
# 1 0.027980 -0.005823 -0.006983 0.000000 0.000000 0.000000
# 2 -0.005823 0.013527 -0.006929 0.000000 0.000000 0.000000
# 3 -0.006983 -0.006929 0.021646 0.000000 0.000000 0.000000
# 4 0.000000 0.000000 0.000000 0.062825 0.000000 0.000000
# 5 0.000000 0.000000 0.000000 0.000000 0.044178 0.000000
# 6 0.000000 0.000000 0.000000 0.000000 0.000000 0.046822
#
#
# Mechanical properties :
#
#
# Convention : Reuss Voigt Hill
#
# Bulk Modulus (GPa) = 42.22285 50.73114 46.47700
# Shear Modulus (GPa) = 18.91491 20.19226 19.55359
#
# Velocity S-wave (km/s) = 3.28453 3.39363 3.33953
# Velocity P-wave (km/s) = 6.20211 6.65509 6.43259
#
# Compressibility (1/GPa) = 0.02368386
#
# Stress axis : x y z
#
# Youngs Moduli (GPa) = 35.73929 73.92698 46.19753
#
# Poissons Ratio (x) = 0.43049 0.32260
# Poissons Ratio (y) = 0.20812 0.32008
# Poissons Ratio (z) = 0.24957 0.51221
#
# Static dielectric constant tensor:
#      x y z
#    x 3.269070 0.000000 0.000000 
#    y 0.000000 3.322770 0.000000 
#    z 0.000000 0.000000 3.209470 
# 
# 
# High freq. dielectric constant tensor:
#      x y z
#    x 1.680940 0.000000 0.000000 
#    y 0.000000 1.675320 0.000000 
#    z 0.000000 0.000000 1.642300 
# 
# From -- ./inp_files/28328.got.cif
#   From: 2010.03.12/outbox.cif.g09.slc.cpg/sg51_15_cif.got.tgz:28328.got - 2010.04.16 13:43:02.
