data_PCOD8207975
_publ_section_title
;
Structure prediction by ZEFSAII (Michael W. Deem and Ramdas Pophale) SiO2 
 PCOD8207975
Probable space group: P M M A
;
_chemical_formula_sum "Si O2"
_cell_formula_units_Z 64
_cell_length_a 8.932382
_cell_length_b 14.076447
_cell_length_c 29.281536
_cell_angle_alpha 90.000000
_cell_angle_beta 90.000000
_cell_angle_gamma 90.000000
_cell_volume 3681.749120
_symmetry_space_group_name_H-M "P M M A"
_symmetry_group_IT_number 51
_symmetry_cell_setting 'orthorhombic'
loop_
_space_group_symop_operation_xyz
x,y,z
1/2-x,-y,z
1/2+x,-y,-z
-x,y,-z
-x,-y,-z
1/2+x,y,-z
1/2-x,y,z
x,-y,z
loop_
_atom_site_type_symbol
_atom_site_label
_atom_site_fract_x
_atom_site_fract_y
_atom_site_fract_z
Si Si1 0.427480 0.725169 0.047009
Si Si2 0.916789 0.111473 0.363291
Si Si3 0.926253 0.605546 0.865950
Si Si4 0.926470 0.215310 0.450885
Si Si5 0.927434 0.208175 0.817565
Si Si6 0.925623 0.889882 0.098916
Si Si7 0.076003 0.601746 0.451256
Si Si8 0.425995 0.107631 0.273753
O O1 0.250000 0.733773 0.042184
O O2 0.474438 0.647540 0.084979
O O3 0.492681 0.828287 0.060052
O O4 0.500000 0.689958 0.000000
O O5 0.750000 0.153073 0.358016
O O6 0.977891 0.137913 0.413603
O O7 0.012778 0.151831 0.321096
O O8 0.919678 0.000000 0.360175
O O9 0.750000 0.594243 0.864336
O O10 0.998610 0.500000 0.858321
O O11 0.976206 0.681910 0.827065
O O12 0.750000 0.218827 0.458336
O O13 0.000000 0.193183 0.500000
O O14 0.987302 0.312764 0.427309
O O15 0.750000 0.196235 0.825323
O O16 0.977255 0.177631 0.766852
O O17 0.009754 0.136910 0.851698
O O18 0.750000 0.867775 0.097944
O O19 0.959107 0.000000 0.088982
O O20 0.250000 0.628408 0.456960
O O21 0.058447 0.500000 0.425270
O O22 0.000000 0.592122 0.500000
O O23 0.250000 0.105462 0.277844
O O24 0.485991 0.000000 0.264837
#
# Coordination Sequence:
#
# PCOD8207975 Si02
#       8
#     8   8   8   8   8   8   8   8
#     4  10  20  33  49  68  93 126 162 201 240 279
#     4   9  19  34  48  65  92 125 160 194 229 273
#     4   8  15  29  49  72  96 123 156 192 232 277
#     4  10  19  30  46  67  91 122 158 196 237 279
#     4   9  17  30  50  74  98 123 151 189 234 279
#     4  10  20  32  47  69  96 125 157 193 234 282
#     4   9  16  26  42  64  88 113 143 182 226 270
#     4   9  17  29  47  71  95 120 153 191 232 278
#
# _framework density 17.383042
#
# number of rings (size 3 to 8) (size 9 to 14) (size 15 to 20)
#    0.000    2.750    0.000    3.375    0.000    4.500 
#    0.000    1.250    0.000    9.750    0.000    1.750 
#    0.000    0.000    0.000    0.000    0.000    0.000 
#
# Total GULP energy -793018.105075 kJ/mol
# GULP energy per Si atom -12390.907892 kJ/mol
# Density = 1.734348 g / cm^3
# Si number density = 17.383042 Si / 1000 Ang^3
#
#
#
# Elastic Constant Matrix: (Units=GPa)
#
#
# Indices 1 2 3 4 5 6 
#
# 1 57.7000 29.9902 36.1667 0.0000 0.0000 0.0000
# 2 29.9902 90.6024 54.2997 0.0000 0.0000 0.0000
# 3 36.1667 54.2997 124.3772 0.0000 0.0000 0.0000
# 4 0.0000 0.0000 0.0000 17.9905 0.0000 0.0000
# 5 0.0000 0.0000 0.0000 0.0000 27.4759 0.0000
# 6 0.0000 0.0000 0.0000 0.0000 0.0000 18.7785
#
#
#
# Elastic Compliance Matrix: (Units=1/GPa)
#
#
# Indices 1 2 3 4 5 6 
#
# 1 0.022640 -0.004806 -0.004485 0.000000 0.000000 0.000000
# 2 -0.004806 0.015969 -0.005574 0.000000 0.000000 0.000000
# 3 -0.004485 -0.005574 0.011778 0.000000 0.000000 0.000000
# 4 0.000000 0.000000 0.000000 0.055585 0.000000 0.000000
# 5 0.000000 0.000000 0.000000 0.000000 0.036396 0.000000
# 6 0.000000 0.000000 0.000000 0.000000 0.000000 0.053252
#
#
# Mechanical properties :
#
#
# Convention : Reuss Voigt Hill
#
# Bulk Modulus (GPa) = 48.41151 57.06589 52.73870
# Shear Modulus (GPa) = 21.52985 22.99717 22.26351
#
# Velocity S-wave (km/s) = 3.52313 3.64121 3.58265
# Velocity P-wave (km/s) = 6.66785 7.11179 6.89340
#
# Compressibility (1/GPa) = 0.02065624
#
# Stress axis : x y z
#
# Youngs Moduli (GPa) = 44.16877 62.62261 84.90601
#
# Poissons Ratio (x) = 0.30097 0.38082
# Poissons Ratio (y) = 0.21228 0.47326
# Poissons Ratio (z) = 0.19811 0.34906
#
# Static dielectric constant tensor:
#      x y z
#    x 3.251930 0.000000 0.000000 
#    y 0.000000 3.757130 0.000000 
#    z 0.000000 0.000000 3.207460 
# 
# 
# High freq. dielectric constant tensor:
#      x y z
#    x 1.665980 0.000000 0.000000 
#    y 0.000000 1.668280 0.000000 
#    z 0.000000 0.000000 1.652430 
# 
# From -- ./inp_files/37635.got.cif
#   From: 2010.03.12/outbox.cif.g09.slc.cpg/sg51_19_cif.got.tgz:37635.got - 2010.04.16 13:43:02.
