data_PCOD8207286
_publ_section_title
;
Structure prediction by ZEFSAII (Michael W. Deem and Ramdas Pophale) SiO2 
 PCOD8207286
Probable space group: P M M A
;
_chemical_formula_sum "Si O2"
_cell_formula_units_Z 32
_cell_length_a 8.593451
_cell_length_b 12.639023
_cell_length_c 14.309734
_cell_angle_alpha 90.000000
_cell_angle_beta 90.000000
_cell_angle_gamma 90.000000
_cell_volume 1554.220632
_symmetry_space_group_name_H-M "P M M A"
_symmetry_group_IT_number 51
_symmetry_cell_setting 'orthorhombic'
loop_
_space_group_symop_operation_xyz
x,y,z
1/2-x,-y,z
1/2+x,-y,-z
-x,y,-z
-x,-y,-z
1/2+x,y,-z
1/2-x,y,z
x,-y,z
loop_
_atom_site_type_symbol
_atom_site_label
_atom_site_fract_x
_atom_site_fract_y
_atom_site_fract_z
Si Si1 0.565063 0.500000 0.896416
Si Si2 0.433202 0.717137 0.897644
Si Si3 0.567088 0.198915 0.722878
Si Si4 0.065882 0.000000 0.396422
Si Si5 0.931701 0.622079 0.399452
O O1 0.750000 0.500000 0.893445
O O2 0.499155 0.607861 0.851812
O O3 0.500000 0.500000 0.000000
O O4 0.250000 0.709546 0.906259
O O5 0.484986 0.808061 0.824802
O O6 0.500000 0.742266 0.000000
O O7 0.750000 0.191188 0.738478
O O8 0.505328 0.102816 0.659152
O O9 0.522933 0.309181 0.675410
O O10 0.000000 0.000000 0.500000
O O11 0.250000 0.000000 0.403711
O O12 0.750000 0.650177 0.397931
O O13 0.962289 0.500000 0.374189
O O14 0.000000 0.650368 0.500000
#
# Coordination Sequence:
#
# PCOD8207286 Si02
#       5
#     4   8   8   4   8
#     4  10  18  32  54  82 117 160 201 244 294 350
#     4  11  22  38  59  87 123 162 205 252 302 360
#     4  11  23  40  62  89 120 158 205 252 308 365
#     4  10  24  44  67  92 121 156 201 258 308 364
#     4  10  21  37  57  85 121 157 196 244 303 366
#
# _framework density 20.589096999999999
#
# number of rings (size 3 to 8) (size 9 to 14) (size 15 to 20)
#    0.000    1.500    0.000    7.125    1.750    5.500 
#    0.000    0.625    0.000    0.000    0.000    0.000 
#    0.000    0.000    0.000    0.000    0.000    0.000 
#
# Total GULP energy -396837.306654 kJ/mol
# GULP energy per Si atom -12401.165833 kJ/mol
# Density = 2.054224 g / cm^3
# Si number density = 20.589097 Si / 1000 Ang^3
#
#
#
# Elastic Constant Matrix: (Units=GPa)
#
#
# Indices 1 2 3 4 5 6 
#
# 1 134.1381 40.5311 48.6951 0.0000 0.0000 0.0000
# 2 40.5311 86.2173 76.4526 0.0000 0.0000 0.0000
# 3 48.6951 76.4526 149.1027 0.0000 0.0000 0.0000
# 4 0.0000 0.0000 0.0000 35.0578 0.0000 0.0000
# 5 0.0000 0.0000 0.0000 0.0000 39.2402 0.0000
# 6 0.0000 0.0000 0.0000 0.0000 0.0000 23.2411
#
#
#
# Elastic Compliance Matrix: (Units=1/GPa)
#
#
# Indices 1 2 3 4 5 6 
#
# 1 0.008843 -0.002927 -0.001387 0.000000 0.000000 0.000000
# 2 -0.002927 0.022238 -0.010447 0.000000 0.000000 0.000000
# 3 -0.001387 -0.010447 0.012516 0.000000 0.000000 0.000000
# 4 0.000000 0.000000 0.000000 0.028524 0.000000 0.000000
# 5 0.000000 0.000000 0.000000 0.000000 0.025484 0.000000
# 6 0.000000 0.000000 0.000000 0.000000 0.000000 0.043027
#
#
# Mechanical properties :
#
#
# Convention : Reuss Voigt Hill
#
# Bulk Modulus (GPa) = 71.04452 77.86843 74.45647
# Shear Modulus (GPa) = 28.59641 33.09310 30.84475
#
# Velocity S-wave (km/s) = 3.73085 4.01348 3.87474
# Velocity P-wave (km/s) = 7.28971 7.70582 7.50065
#
# Compressibility (1/GPa) = 0.01407568
#
# Stress axis : x y z
#
# Youngs Moduli (GPa) = 113.08362 44.96766 79.89529
#
# Poissons Ratio (x) = 0.13162 0.11083
# Poissons Ratio (y) = 0.33101 0.83464
# Poissons Ratio (z) = 0.15686 0.46976
#
# Static dielectric constant tensor:
#      x y z
#    x 3.654260 0.000000 0.000000 
#    y 0.000000 4.071910 0.000000 
#    z 0.000000 0.000000 3.797480 
# 
# 
# High freq. dielectric constant tensor:
#      x y z
#    x 1.814770 0.000000 0.000000 
#    y 0.000000 1.788780 0.000000 
#    z 0.000000 0.000000 1.817460 
# 
# From -- ./inp_files/20124.got.cif
#   From: 2010.03.12/outbox.cif.g09.slc.cpg/sg51_11_cif.got.tgz:20124.got - 2010.04.16 13:43:02.
