data_PCOD8207620
_publ_section_title
;
Structure prediction by ZEFSAII (Michael W. Deem and Ramdas Pophale) SiO2 
 PCOD8207620
Probable space group: P M M A
;
_chemical_formula_sum "Si O2"
_cell_formula_units_Z 44
_cell_length_a 9.496681
_cell_length_b 16.065383
_cell_length_c 19.520804
_cell_angle_alpha 90.000000
_cell_angle_beta 90.000000
_cell_angle_gamma 90.000000
_cell_volume 2978.246462
_symmetry_space_group_name_H-M "P M M A"
_symmetry_group_IT_number 51
_symmetry_cell_setting 'orthorhombic'
loop_
_space_group_symop_operation_xyz
x,y,z
1/2-x,-y,z
1/2+x,-y,-z
-x,y,-z
-x,-y,-z
1/2+x,y,-z
1/2-x,y,z
x,-y,z
loop_
_atom_site_type_symbol
_atom_site_label
_atom_site_fract_x
_atom_site_fract_y
_atom_site_fract_z
Si Si1 0.096217 0.405009 0.442071
Si Si2 0.909322 0.598858 0.936847
Si Si3 0.410453 0.404001 0.807514
Si Si4 0.586849 0.180466 0.429793
Si Si5 0.411599 0.333414 0.663243
Si Si6 0.090287 0.000000 0.566408
O O1 0.250000 0.361430 0.438662
O O2 0.118398 0.500000 0.462904
O O3 0.000000 0.359527 0.500000
O O4 0.015162 0.400905 0.370257
O O5 0.750000 0.634617 0.938738
O O6 0.905625 0.500000 0.941998
O O7 0.984663 0.626315 0.866728
O O8 0.000000 0.635523 0.000000
O O9 0.250000 0.396557 0.834232
O O10 0.440514 0.500000 0.785826
O O11 0.435967 0.340625 0.744490
O O12 0.500000 0.194272 0.500000
O O13 0.750000 0.191891 0.449363
O O14 0.544563 0.244188 0.368939
O O15 0.558752 0.088225 0.395753
O O16 0.250000 0.355818 0.645641
O O17 0.000000 0.000000 0.500000
O O18 0.250000 0.000000 0.541653
#
# Coordination Sequence:
#
# PCOD8207620 Si02
#       6
#     8   8   8   8   8   4
#     4  10  20  31  41  52  68  94 129 166 200 232
#     4   9  16  26  41  59  77  98 127 161 192 223
#     4   9  17  28  40  54  75 103 131 159 192 227
#     4   9  17  28  42  59  77  99 128 162 200 240
#     4  10  19  29  41  57  77 101 129 161 197 235
#     4   8  14  26  42  58  76  96 121 156 197 240
#
# _framework density 14.773794000000001
#
# number of rings (size 3 to 8) (size 9 to 14) (size 15 to 20)
#    0.000    2.727    0.000    2.182    0.000    6.909 
#    0.000    1.818    0.000    0.000    0.000    0.000 
#    0.000    0.000    0.000    0.818    0.000    5.818 
#
# Total GULP energy -545099.552926 kJ/mol
# GULP energy per Si atom -12388.626203 kJ/mol
# Density = 1.474017 g / cm^3
# Si number density = 14.773794 Si / 1000 Ang^3
#
#
#
# Elastic Constant Matrix: (Units=GPa)
#
#
# Indices 1 2 3 4 5 6 
#
# 1 103.8924 23.0861 61.0025 0.0000 0.0000 0.0000
# 2 23.0861 56.6687 33.6474 0.0000 0.0000 0.0000
# 3 61.0025 33.6474 98.4042 0.0000 0.0000 0.0000
# 4 0.0000 0.0000 0.0000 10.4107 0.0000 0.0000
# 5 0.0000 0.0000 0.0000 0.0000 25.7304 0.0000
# 6 0.0000 0.0000 0.0000 0.0000 0.0000 10.3919
#
#
#
# Elastic Compliance Matrix: (Units=1/GPa)
#
#
# Indices 1 2 3 4 5 6 
#
# 1 0.015159 -0.000748 -0.009142 0.000000 0.000000 0.000000
# 2 -0.000748 0.022179 -0.007120 0.000000 0.000000 0.000000
# 3 -0.009142 -0.007120 0.018264 0.000000 0.000000 0.000000
# 4 0.000000 0.000000 0.000000 0.096055 0.000000 0.000000
# 5 0.000000 0.000000 0.000000 0.000000 0.038864 0.000000
# 6 0.000000 0.000000 0.000000 0.000000 0.000000 0.096228
#
#
# Mechanical properties :
#
#
# Convention : Reuss Voigt Hill
#
# Bulk Modulus (GPa) = 46.33350 54.93751 50.63550
# Shear Modulus (GPa) = 15.24561 18.72190 16.98375
#
# Velocity S-wave (km/s) = 3.21586 3.56369 3.39423
# Velocity P-wave (km/s) = 6.72451 7.36204 7.05049
#
# Compressibility (1/GPa) = 0.02158266
#
# Stress axis : x y z
#
# Youngs Moduli (GPa) = 65.96601 45.08855 54.75266
#
# Poissons Ratio (x) = 0.03371 0.50054
# Poissons Ratio (y) = 0.04932 0.38984
# Poissons Ratio (z) = 0.60305 0.32103
#
# Static dielectric constant tensor:
#      x y z
#    x 3.138220 0.000000 0.000000 
#    y 0.000000 3.041240 0.000000 
#    z 0.000000 0.000000 2.665320 
# 
# 
# High freq. dielectric constant tensor:
#      x y z
#    x 1.582280 0.000000 0.000000 
#    y 0.000000 1.526540 0.000000 
#    z 0.000000 0.000000 1.538480 
# 
# From -- ./inp_files/27807.got.cif
#   From: 2010.03.12/outbox.cif.g09.slc.cpg/sg51_14_cif.got.tgz:27807.got - 2010.04.16 13:43:02.
