data_PCOD8207202
_publ_section_title
;
Structure prediction by ZEFSAII (Michael W. Deem and Ramdas Pophale) SiO2 
 PCOD8207202
Probable space group: P M M A
;
_chemical_formula_sum "Si O2"
_cell_formula_units_Z 52
_cell_length_a 8.789167
_cell_length_b 22.192723
_cell_length_c 15.418440
_cell_angle_alpha 90.000000
_cell_angle_beta 90.000000
_cell_angle_gamma 90.000000
_cell_volume 3007.452273
_symmetry_space_group_name_H-M "P M M A"
_symmetry_group_IT_number 51
_symmetry_cell_setting 'orthorhombic'
loop_
_space_group_symop_operation_xyz
x,y,z
1/2-x,-y,z
1/2+x,-y,-z
-x,y,-z
-x,-y,-z
1/2+x,y,-z
1/2-x,y,z
x,-y,z
loop_
_atom_site_type_symbol
_atom_site_label
_atom_site_fract_x
_atom_site_fract_y
_atom_site_fract_z
Si Si1 0.070804 0.292528 0.734279
Si Si2 0.580369 0.152027 0.915067
Si Si3 0.070325 0.931690 0.589703
Si Si4 0.431354 0.378289 0.404647
Si Si5 0.067787 0.500000 0.595636
Si Si6 0.577707 0.295440 0.912781
Si Si7 0.928040 0.153205 0.259178
O O1 0.250000 0.304761 0.724913
O O2 0.028989 0.222435 0.723956
O O3 0.978211 0.324112 0.657737
O O4 0.015672 0.316895 0.828054
O O5 0.750000 0.126951 0.914131
O O6 0.575905 0.223856 0.917681
O O7 0.497976 0.128152 0.829501
O O8 0.500000 0.125132 0.000000
O O9 0.250000 0.926583 0.582296
O O10 0.005704 0.887567 0.663558
O O11 0.000000 0.909109 0.500000
O O12 0.019042 0.000000 0.610661
O O13 0.500000 0.366481 0.500000
O O14 0.250000 0.383529 0.411870
O O15 0.502104 0.439105 0.361079
O O16 0.250000 0.500000 0.596592
O O17 0.000000 0.500000 0.500000
O O18 0.750000 0.319970 0.906632
O O19 0.500000 0.322027 0.000000
O O20 0.750000 0.145015 0.250311
#
# Coordination Sequence:
#
# PCOD8207202 Si02
#       7
#     8   8   8   8   4   8   8
#     4  10  19  31  46  69  99 128 158 194 238 286
#     4   9  16  26  43  66  92 121 152 186 227 277
#     4   9  18  33  51  69  89 117 155 197 238 281
#     4  11  21  34  50  70  97 129 163 198 236 280
#     4  10  18  32  52  72  93 122 161 200 236 276
#     4   9  16  27  43  65  92 124 158 193 233 278
#     4   9  18  31  47  68  95 124 154 192 238 284
#
# _framework density 17.290384
#
# number of rings (size 3 to 8) (size 9 to 14) (size 15 to 20)
#    0.000    2.462    0.000    4.385    0.000    5.538 
#    0.000    1.538    0.000    0.462    0.000    0.538 
#    0.000    0.000    0.000    0.000    0.000    0.000 
#
# Total GULP energy -644702.094904 kJ/mol
# GULP energy per Si atom -12398.117210 kJ/mol
# Density = 1.725103 g / cm^3
# Si number density = 17.290384 Si / 1000 Ang^3
#
#
#
# Elastic Constant Matrix: (Units=GPa)
#
#
# Indices 1 2 3 4 5 6 
#
# 1 99.4425 38.2699 57.7844 0.0000 0.0000 0.0000
# 2 38.2699 56.0941 60.0882 0.0000 0.0000 0.0000
# 3 57.7844 60.0882 150.5299 0.0000 0.0000 0.0000
# 4 0.0000 0.0000 0.0000 2.8058 0.0000 0.0000
# 5 0.0000 0.0000 0.0000 0.0000 35.6700 0.0000
# 6 0.0000 0.0000 0.0000 0.0000 0.0000 18.0214
#
#
#
# Elastic Compliance Matrix: (Units=1/GPa)
#
#
# Indices 1 2 3 4 5 6 
#
# 1 0.014273 -0.006759 -0.002781 0.000000 0.000000 0.000000
# 2 -0.006759 0.034345 -0.011115 0.000000 0.000000 0.000000
# 3 -0.002781 -0.011115 0.012148 0.000000 0.000000 0.000000
# 4 0.000000 0.000000 0.000000 0.356407 0.000000 0.000000
# 5 0.000000 0.000000 0.000000 0.000000 0.028035 0.000000
# 6 0.000000 0.000000 0.000000 0.000000 0.000000 0.055490
#
#
# Mechanical properties :
#
#
# Convention : Reuss Voigt Hill
#
# Bulk Modulus (GPa) = 51.39867 68.70572 60.05220
# Shear Modulus (GPa) = 9.11589 21.29437 15.20513
#
# Velocity S-wave (km/s) = 2.29862 3.51318 2.96868
# Velocity P-wave (km/s) = 6.06928 7.50195 6.82332
#
# Compressibility (1/GPa) = 0.01945576
#
# Stress axis : x y z
#
# Youngs Moduli (GPa) = 70.06151 29.11640 82.31931
#
# Poissons Ratio (x) = 0.19678 0.22895
# Poissons Ratio (y) = 0.47351 0.91500
# Poissons Ratio (z) = 0.19486 0.32364
#
# Static dielectric constant tensor:
#      x y z
#    x 3.372060 0.000000 0.000000 
#    y 0.000000 3.202590 0.000000 
#    z 0.000000 0.000000 3.343290 
# 
# 
# High freq. dielectric constant tensor:
#      x y z
#    x 1.680420 0.000000 0.000000 
#    y 0.000000 1.626970 0.000000 
#    z 0.000000 0.000000 1.669540 
# 
# From -- ./inp_files/21521.got.cif
#   From: 2010.03.12/outbox.cif.g09.slc.cpg/sg51_11_cif.got.tgz:21521.got - 2010.04.16 13:43:02.
