data_PCOD8207133
_publ_section_title
;
Structure prediction by ZEFSAII (Michael W. Deem and Ramdas Pophale) SiO2 
 PCOD8207133
Probable space group: P M M A
;
_chemical_formula_sum "Si O2"
_cell_formula_units_Z 64
_cell_length_a 14.255710
_cell_length_b 14.048861
_cell_length_c 17.362887
_cell_angle_alpha 90.000000
_cell_angle_beta 90.000000
_cell_angle_gamma 90.000000
_cell_volume 3477.378034
_symmetry_space_group_name_H-M "P M M A"
_symmetry_group_IT_number 51
_symmetry_cell_setting 'orthorhombic'
loop_
_space_group_symop_operation_xyz
x,y,z
1/2-x,-y,z
1/2+x,-y,-z
-x,y,-z
-x,-y,-z
1/2+x,y,-z
1/2-x,y,z
x,-y,z
loop_
_atom_site_type_symbol
_atom_site_label
_atom_site_fract_x
_atom_site_fract_y
_atom_site_fract_z
Si Si1 0.643215 0.746535 0.645196
Si Si2 0.997557 0.888322 0.914526
Si Si3 0.140412 0.801459 0.811026
Si Si4 0.640790 0.889564 0.781579
Si Si5 0.140870 0.397010 0.760819
Si Si6 0.361359 0.105539 0.654654
Si Si7 0.519568 0.392101 0.389134
Si Si8 0.642742 0.250536 0.472395
O O1 0.750000 0.712519 0.662722
O O2 0.612244 0.826590 0.707045
O O3 0.574804 0.655679 0.644877
O O4 0.637265 0.789903 0.559087
O O5 0.097597 0.859770 0.880763
O O6 0.915308 0.851284 0.857083
O O7 0.986784 0.000000 0.921997
O O8 0.000000 0.842306 0.000000
O O9 0.250000 0.816916 0.817423
O O10 0.110506 0.689878 0.816315
O O11 0.100249 0.844332 0.731516
O O12 0.750000 0.877652 0.800888
O O13 0.616257 0.000000 0.763532
O O14 0.250000 0.386202 0.743238
O O15 0.117422 0.500000 0.799512
O O16 0.094306 0.388293 0.678566
O O17 0.250000 0.100279 0.656359
O O18 0.395651 0.166815 0.582240
O O19 0.404742 0.000000 0.648837
O O20 0.495953 0.500000 0.413944
O O21 0.571563 0.339713 0.461231
O O22 0.750000 0.280033 0.451997
#
# Coordination Sequence:
#
# PCOD8207133 Si02
#       8
#     8   8   8   8   8   8   8   8
#     4  10  22  37  52  71  99 137 182 224 257 299
#     4  10  21  35  53  79 108 137 170 210 257 312
#     4  10  18  31  52  78 109 138 166 204 256 317
#     4   9  19  37  58  76  99 137 180 218 256 302
#     4   9  17  30  52  81 107 133 167 207 256 313
#     4   9  17  29  47  73 104 136 166 201 252 309
#     4  11  21  34  52  72 100 138 179 223 269 309
#     4  10  20  34  50  73 104 136 174 219 263 310
#
# _framework density 18.404672000000001
#
# number of rings (size 3 to 8) (size 9 to 14) (size 15 to 20)
#    0.000    2.250    1.250    1.875    0.000    3.750 
#    0.000    5.000    0.000    1.875    0.000    0.000 
#    0.000    2.000    0.000    0.000    0.000    0.000 
#
# Total GULP energy -793257.990393 kJ/mol
# GULP energy per Si atom -12394.656100 kJ/mol
# Density = 1.836278 g / cm^3
# Si number density = 18.404672 Si / 1000 Ang^3
#
#
#
# Elastic Constant Matrix: (Units=GPa)
#
#
# Indices 1 2 3 4 5 6 
#
# 1 59.0898 43.9076 40.3843 0.0000 0.0000 0.0000
# 2 43.9076 87.3103 42.7817 0.0000 0.0000 0.0000
# 3 40.3843 42.7817 119.5386 0.0000 0.0000 0.0000
# 4 0.0000 0.0000 0.0000 17.4941 0.0000 0.0000
# 5 0.0000 0.0000 0.0000 0.0000 19.8288 0.0000
# 6 0.0000 0.0000 0.0000 0.0000 0.0000 25.9686
#
#
#
# Elastic Compliance Matrix: (Units=1/GPa)
#
#
# Indices 1 2 3 4 5 6 
#
# 1 0.029943 -0.012249 -0.005732 0.000000 0.000000 0.000000
# 2 -0.012249 0.018900 -0.002626 0.000000 0.000000 0.000000
# 3 -0.005732 -0.002626 0.011242 0.000000 0.000000 0.000000
# 4 0.000000 0.000000 0.000000 0.057162 0.000000 0.000000
# 5 0.000000 0.000000 0.000000 0.000000 0.050432 0.000000
# 6 0.000000 0.000000 0.000000 0.000000 0.000000 0.038508
#
#
# Mechanical properties :
#
#
# Convention : Reuss Voigt Hill
#
# Bulk Modulus (GPa) = 52.99287 57.78734 55.39010
# Shear Modulus (GPa) = 19.70899 21.91596 20.81247
#
# Velocity S-wave (km/s) = 3.27596 3.45452 3.36642
# Velocity P-wave (km/s) = 6.57000 6.88316 6.72840
#
# Compressibility (1/GPa) = 0.01887046
#
# Stress axis : x y z
#
# Youngs Moduli (GPa) = 33.39693 52.90938 88.95460
#
# Poissons Ratio (x) = 0.64811 0.50987
# Poissons Ratio (y) = 0.40909 0.23359
# Poissons Ratio (z) = 0.19142 0.13894
#
# Static dielectric constant tensor:
#      x y z
#    x 3.430790 0.000000 0.000000 
#    y 0.000000 3.630040 0.000000 
#    z 0.000000 0.000000 3.361720 
# 
# 
# High freq. dielectric constant tensor:
#      x y z
#    x 1.719890 0.000000 0.000000 
#    y 0.000000 1.703790 0.000000 
#    z 0.000000 0.000000 1.690830 
# 
# From -- ./inp_files/29972.got.cif
#   From: 2010.03.12/outbox.cif.g09.slc.cpg/sg51_15_cif.got.tgz:29972.got - 2010.04.16 13:43:02.
