data_PCOD8207484
_publ_section_title
;
Structure prediction by ZEFSAII (Michael W. Deem and Ramdas Pophale) SiO2 
 PCOD8207484
Probable space group: P M M A
;
_chemical_formula_sum "Si O2"
_cell_formula_units_Z 48
_cell_length_a 18.028123
_cell_length_b 13.802480
_cell_length_c 10.059231
_cell_angle_alpha 90.000000
_cell_angle_beta 90.000000
_cell_angle_gamma 90.000000
_cell_volume 2503.066687
_symmetry_space_group_name_H-M "P M M A"
_symmetry_group_IT_number 51
_symmetry_cell_setting 'orthorhombic'
loop_
_space_group_symop_operation_xyz
x,y,z
1/2-x,-y,z
1/2+x,-y,-z
-x,y,-z
-x,-y,-z
1/2+x,y,-z
1/2-x,y,z
x,-y,z
loop_
_atom_site_type_symbol
_atom_site_label
_atom_site_fract_x
_atom_site_fract_y
_atom_site_fract_z
Si Si1 0.928283 0.609982 0.581226
Si Si2 0.076326 0.784803 0.239492
Si Si3 0.912047 0.106487 0.503098
Si Si4 0.337128 0.111426 0.014711
Si Si5 0.095632 0.794138 0.764037
Si Si6 0.835637 0.609430 0.328470
O O1 0.942970 0.500000 0.627731
O O2 0.916131 0.672662 0.714762
O O3 0.858518 0.618241 0.483223
O O4 0.000000 0.650608 0.500000
O O5 0.111909 0.848144 0.357312
O O6 0.122687 0.810741 0.109306
O O7 0.991064 0.809062 0.207117
O O8 0.881229 0.170339 0.382690
O O9 0.000000 0.102168 0.500000
O O10 0.876983 0.000000 0.492124
O O11 0.250000 0.121890 0.035300
O O12 0.362362 0.000000 0.041807
O O13 0.358322 0.140742 0.865761
O O14 0.118236 0.680712 0.768525
O O15 0.750000 0.637085 0.318179
O O16 0.851146 0.500000 0.278488
#
# Coordination Sequence:
#
# PCOD8207484 Si02
#       6
#     8   8   8   8   8   8
#     4  10  18  34  60  92 127 155 189 241 298 357
#     4  11  20  36  60  90 116 152 198 247 303 356
#     4   9  17  30  53  85 114 137 182 247 299 346
#     4  11  26  44  58  79 119 166 205 248 306 366
#     4  11  20  37  61  87 115 153 202 250 299 357
#     4  10  20  34  57  89 123 159 195 238 297 356
#
# _framework density 19.176476000000001
#
# number of rings (size 3 to 8) (size 9 to 14) (size 15 to 20)
#    0.000    1.667    3.333    2.500    0.000    3.333 
#    0.000    0.833    0.000    6.000    0.000    0.000 
#    0.000    0.000    0.000    0.000    0.000    0.000 
#
# Total GULP energy -595201.127749 kJ/mol
# GULP energy per Si atom -12400.023495 kJ/mol
# Density = 1.913283 g / cm^3
# Si number density = 19.176476 Si / 1000 Ang^3
#
#
#
# Elastic Constant Matrix: (Units=GPa)
#
#
# Indices 1 2 3 4 5 6 
#
# 1 75.3433 39.1427 33.3956 0.0000 0.0000 0.0000
# 2 39.1427 128.2526 38.3100 0.0000 0.0000 0.0000
# 3 33.3956 38.3100 74.6815 0.0000 0.0000 0.0000
# 4 0.0000 0.0000 0.0000 31.3806 0.0000 0.0000
# 5 0.0000 0.0000 0.0000 0.0000 25.5151 0.0000
# 6 0.0000 0.0000 0.0000 0.0000 0.0000 24.5954
#
#
#
# Elastic Compliance Matrix: (Units=1/GPa)
#
#
# Indices 1 2 3 4 5 6 
#
# 1 0.017874 -0.003623 -0.006134 0.000000 0.000000 0.000000
# 2 -0.003623 0.009942 -0.003480 0.000000 0.000000 0.000000
# 3 -0.006134 -0.003480 0.017919 0.000000 0.000000 0.000000
# 4 0.000000 0.000000 0.000000 0.031867 0.000000 0.000000
# 5 0.000000 0.000000 0.000000 0.000000 0.039193 0.000000
# 6 0.000000 0.000000 0.000000 0.000000 0.000000 0.040658
#
#
# Mechanical properties :
#
#
# Convention : Reuss Voigt Hill
#
# Bulk Modulus (GPa) = 51.92061 55.55265 53.73663
# Shear Modulus (GPa) = 26.26790 27.46014 26.86402
#
# Velocity S-wave (km/s) = 3.70509 3.78824 3.74690
# Velocity P-wave (km/s) = 6.74074 6.94020 6.84120
#
# Compressibility (1/GPa) = 0.01926018
#
# Stress axis : x y z
#
# Youngs Moduli (GPa) = 55.94830 100.58011 55.80802
#
# Poissons Ratio (x) = 0.36437 0.34234
# Poissons Ratio (y) = 0.20268 0.19422
# Poissons Ratio (z) = 0.34320 0.35004
#
# Static dielectric constant tensor:
#      x y z
#    x 3.330360 0.000000 0.000000 
#    y 0.000000 3.763180 0.000000 
#    z 0.000000 0.000000 3.290690 
# 
# 
# High freq. dielectric constant tensor:
#      x y z
#    x 1.730040 0.000000 0.000000 
#    y 0.000000 1.762440 0.000000 
#    z 0.000000 0.000000 1.721910 
# 
# From -- ./inp_files/9576.got.cif
#   From: 2010.03.12/outbox.cif.g09.slc.cpg/sg51_5_cif.got.tgz:9576.got - 2010.04.16 13:43:02.
