data_PCOD8207362
_publ_section_title
;
Structure prediction by ZEFSAII (Michael W. Deem and Ramdas Pophale) SiO2 
 PCOD8207362
Probable space group: P M M A
;
_chemical_formula_sum "Si O2"
_cell_formula_units_Z 64
_cell_length_a 18.338163
_cell_length_b 13.976675
_cell_length_c 15.659864
_cell_angle_alpha 90.000000
_cell_angle_beta 90.000000
_cell_angle_gamma 90.000000
_cell_volume 4013.725627
_symmetry_space_group_name_H-M "P M M A"
_symmetry_group_IT_number 51
_symmetry_cell_setting 'orthorhombic'
loop_
_space_group_symop_operation_xyz
x,y,z
1/2-x,-y,z
1/2+x,-y,-z
-x,y,-z
-x,-y,-z
1/2+x,y,-z
1/2-x,y,z
x,-y,z
loop_
_atom_site_type_symbol
_atom_site_label
_atom_site_fract_x
_atom_site_fract_y
_atom_site_fract_z
Si Si1 0.336196 0.104553 0.489571
Si Si2 0.917813 0.218708 0.841396
Si Si3 0.926911 0.391905 0.952463
Si Si4 0.335879 0.111506 0.303478
Si Si5 0.665746 0.391734 0.115239
Si Si6 0.912159 0.787073 0.173707
Si Si7 0.086609 0.893555 0.995008
Si Si8 0.833049 0.114078 0.326937
O O1 0.250000 0.092546 0.492701
O O2 0.357825 0.151539 0.398538
O O3 0.359020 0.155227 0.579220
O O4 0.372499 0.000000 0.488698
O O5 0.908376 0.329890 0.868473
O O6 0.873083 0.187422 0.758980
O O7 0.001816 0.202037 0.820975
O O8 0.885533 0.156473 0.919237
O O9 0.942145 0.500000 0.921717
O O10 0.859427 0.385929 0.016975
O O11 0.000000 0.350777 0.000000
O O12 0.250000 0.117181 0.289199
O O13 0.361038 0.000000 0.290138
O O14 0.750000 0.360789 0.120115
O O15 0.654673 0.500000 0.149420
O O16 0.616597 0.322200 0.173913
O O17 0.883358 0.836688 0.086974
O O18 0.883703 0.840842 0.256193
O O19 0.119096 0.000000 0.990460
O O20 0.000000 0.895058 0.000000
O O21 0.750000 0.144402 0.308032
O O22 0.841024 0.000000 0.325941
#
# Coordination Sequence:
#
# PCOD8207362 Si02
#       8
#     8   8   8   8   8   8   8   8
#     4   7  12  27  48  65  86 121 160 195 236 283
#     4  11  19  30  46  69  92 125 161 192 232 284
#     4  10  18  33  52  68  90 123 162 198 238 285
#     4   9  18  32  49  69  95 127 162 200 238 281
#     4  10  20  33  50  70  92 121 159 203 241 276
#     4  11  19  30  45  67  96 126 155 192 239 283
#     4   9  17  28  40  57  88 126 157 179 212 268
#     4   9  17  29  46  68  93 123 159 196 236 283
#
# _framework density 15.945285
#
# number of rings (size 3 to 8) (size 9 to 14) (size 15 to 20)
#    0.000    2.500    2.500    3.000    0.000    2.000 
#    0.000    0.625    0.000    4.500    0.000    0.875 
#    0.000    5.000    0.000    0.000    0.000    0.000 
#
# Total GULP energy -792963.436524 kJ/mol
# GULP energy per Si atom -12390.053696 kJ/mol
# Density = 1.590899 g / cm^3
# Si number density = 15.945285 Si / 1000 Ang^3
#
#
#
# Elastic Constant Matrix: (Units=GPa)
#
#
# Indices 1 2 3 4 5 6 
#
# 1 43.1438 23.6154 36.2158 0.0000 0.0000 0.0000
# 2 23.6154 75.3413 42.9878 0.0000 0.0000 0.0000
# 3 36.2158 42.9878 129.0128 0.0000 0.0000 0.0000
# 4 0.0000 0.0000 0.0000 12.1858 0.0000 0.0000
# 5 0.0000 0.0000 0.0000 0.0000 22.3415 0.0000
# 6 0.0000 0.0000 0.0000 0.0000 0.0000 19.6137
#
#
#
# Elastic Compliance Matrix: (Units=1/GPa)
#
#
# Indices 1 2 3 4 5 6 
#
# 1 0.032476 -0.006146 -0.007069 0.000000 0.000000 0.000000
# 2 -0.006146 0.017552 -0.004123 0.000000 0.000000 0.000000
# 3 -0.007069 -0.004123 0.011109 0.000000 0.000000 0.000000
# 4 0.000000 0.000000 0.000000 0.082063 0.000000 0.000000
# 5 0.000000 0.000000 0.000000 0.000000 0.044760 0.000000
# 6 0.000000 0.000000 0.000000 0.000000 0.000000 0.050985
#
#
# Mechanical properties :
#
#
# Convention : Reuss Voigt Hill
#
# Bulk Modulus (GPa) = 37.79088 50.34845 44.06967
# Shear Modulus (GPa) = 17.70282 20.47345 19.08814
#
# Velocity S-wave (km/s) = 3.33562 3.58716 3.46367
# Velocity P-wave (km/s) = 6.21184 6.98579 6.61015
#
# Compressibility (1/GPa) = 0.02646141
#
# Stress axis : x y z
#
# Youngs Moduli (GPa) = 30.79192 56.97354 90.01526
#
# Poissons Ratio (x) = 0.35018 0.63627
# Poissons Ratio (y) = 0.18926 0.37114
# Poissons Ratio (z) = 0.21765 0.23490
#
# Static dielectric constant tensor:
#      x y z
#    x 2.828050 0.000000 0.000000 
#    y 0.000000 2.994410 0.000000 
#    z 0.000000 0.000000 3.182050 
# 
# 
# High freq. dielectric constant tensor:
#      x y z
#    x 1.593830 0.000000 0.000000 
#    y 0.000000 1.593270 0.000000 
#    z 0.000000 0.000000 1.605280 
# 
# From -- ./inp_files/25360.got.cif
#   From: 2010.03.12/outbox.cif.g09.slc.cpg/sg51_13_cif.got.tgz:25360.got - 2010.04.16 13:43:02.
