data_PCOD8207448
_publ_section_title
;
Structure prediction by ZEFSAII (Michael W. Deem and Ramdas Pophale) SiO2 
 PCOD8207448
Probable space group: P M M A
;
_chemical_formula_sum "Si O2"
_cell_formula_units_Z 30
_cell_length_a 14.201276
_cell_length_b 11.600602
_cell_length_c 9.252250
_cell_angle_alpha 90.000000
_cell_angle_beta 90.000000
_cell_angle_gamma 90.000000
_cell_volume 1524.246667
_symmetry_space_group_name_H-M "P M M A"
_symmetry_group_IT_number 51
_symmetry_cell_setting 'orthorhombic'
loop_
_space_group_symop_operation_xyz
x,y,z
1/2-x,-y,z
1/2+x,-y,-z
-x,y,-z
-x,-y,-z
1/2+x,y,-z
1/2-x,y,z
x,-y,z
loop_
_atom_site_type_symbol
_atom_site_label
_atom_site_fract_x
_atom_site_fract_y
_atom_site_fract_z
Si Si1 0.750000 0.370981 0.158984
Si Si2 0.750000 0.500000 0.715560
Si Si3 0.091989 0.873122 0.591855
Si Si4 0.750000 0.701060 0.482309
Si Si5 0.946213 0.724759 0.143741
Si Si6 0.042697 0.500000 0.162585
O O1 0.750000 0.500000 0.102789
O O2 0.750000 0.369079 0.333150
O O3 0.658349 0.310551 0.093199
O O4 0.750000 0.613914 0.616373
O O5 0.656112 0.500000 0.816107
O O6 0.159410 0.783058 0.511724
O O7 0.061968 0.832608 0.751066
O O8 0.000000 0.884207 0.500000
O O9 0.139527 0.000000 0.605902
O O10 0.998445 0.617784 0.228310
O O11 0.000000 0.764332 0.000000
O O12 0.000000 0.500000 0.000000
#
# Coordination Sequence:
#
# PCOD8207448 Si02
#       6
#     4   2   8   4   8   4
#     4  10  18  34  55  81 116 150 190 237 296 340
#     4  12  22  36  60  88 118 158 194 244 300 362
#     4  10  21  38  60  83 114 152 195 250 299 341
#     4  10  21  36  58  88 114 147 195 247 298 360
#     4  10  21  36  56  84 116 158 196 238 289 362
#     4  10  22  35  52  83 121 158 195 240 295 356
#
# _framework density 19.681854999999999
#
# number of rings (size 3 to 8) (size 9 to 14) (size 15 to 20)
#    0.000    1.867    2.000    2.000    0.000    4.800 
#    0.000    5.333    0.000    0.000    0.000    0.000 
#    0.000    0.000    0.000    0.000    0.000    0.000 
#
# Total GULP energy -371835.195162 kJ/mol
# GULP energy per Si atom -12394.506505 kJ/mol
# Density = 1.963706 g / cm^3
# Si number density = 19.681855 Si / 1000 Ang^3
#
#
#
# Elastic Constant Matrix: (Units=GPa)
#
#
# Indices 1 2 3 4 5 6 
#
# 1 151.5048 47.0656 49.3660 0.0000 0.0000 0.0000
# 2 47.0656 132.1004 47.1356 0.0000 0.0000 0.0000
# 3 49.3660 47.1356 84.5601 0.0000 0.0000 0.0000
# 4 0.0000 0.0000 0.0000 25.4742 0.0000 0.0000
# 5 0.0000 0.0000 0.0000 0.0000 30.7981 0.0000
# 6 0.0000 0.0000 0.0000 0.0000 0.0000 18.5140
#
#
#
# Elastic Compliance Matrix: (Units=1/GPa)
#
#
# Indices 1 2 3 4 5 6 
#
# 1 0.008398 -0.001551 -0.004038 0.000000 0.000000 0.000000
# 2 -0.001551 0.009736 -0.004521 0.000000 0.000000 0.000000
# 3 -0.004038 -0.004521 0.016704 0.000000 0.000000 0.000000
# 4 0.000000 0.000000 0.000000 0.039255 0.000000 0.000000
# 5 0.000000 0.000000 0.000000 0.000000 0.032470 0.000000
# 6 0.000000 0.000000 0.000000 0.000000 0.000000 0.054013
#
#
# Mechanical properties :
#
#
# Convention : Reuss Voigt Hill
#
# Bulk Modulus (GPa) = 68.41712 72.81106 70.61409
# Shear Modulus (GPa) = 26.92957 29.93048 28.43003
#
# Velocity S-wave (km/s) = 3.70299 3.90386 3.80475
# Velocity P-wave (km/s) = 7.28834 7.57592 7.43352
#
# Compressibility (1/GPa) = 0.01461622
#
# Stress axis : x y z
#
# Youngs Moduli (GPa) = 119.07424 102.71143 59.86710
#
# Poissons Ratio (x) = 0.15933 0.24175
# Poissons Ratio (y) = 0.18472 0.27068
# Poissons Ratio (z) = 0.48083 0.46440
#
# Static dielectric constant tensor:
#      x y z
#    x 3.774390 0.000000 0.000000 
#    y 0.000000 4.043300 0.000000 
#    z 0.000000 0.000000 3.355520 
# 
# 
# High freq. dielectric constant tensor:
#      x y z
#    x 1.784450 0.000000 0.000000 
#    y 0.000000 1.768230 0.000000 
#    z 0.000000 0.000000 1.743600 
# 
# From -- ./inp_files/7530.got.cif
#   From: 2010.03.12/outbox.cif.g09.slc.cpg/sg51_4_cif.got.tgz:7530.got - 2010.04.16 13:43:02.
