data_PCOD8207820
_publ_section_title
;
Structure prediction by ZEFSAII (Michael W. Deem and Ramdas Pophale) SiO2 
 PCOD8207820
Probable space group: P M M A
;
_chemical_formula_sum "Si O2"
_cell_formula_units_Z 56
_cell_length_a 9.055928
_cell_length_b 24.941003
_cell_length_c 15.390963
_cell_angle_alpha 90.000000
_cell_angle_beta 90.000000
_cell_angle_gamma 90.000000
_cell_volume 3476.263350
_symmetry_space_group_name_H-M "P M M A"
_symmetry_group_IT_number 51
_symmetry_cell_setting 'orthorhombic'
loop_
_space_group_symop_operation_xyz
x,y,z
1/2-x,-y,z
1/2+x,-y,-z
-x,y,-z
-x,-y,-z
1/2+x,y,-z
1/2-x,y,z
x,-y,z
loop_
_atom_site_type_symbol
_atom_site_label
_atom_site_fract_x
_atom_site_fract_y
_atom_site_fract_z
Si Si1 0.425349 0.826806 0.905774
Si Si2 0.920902 0.632529 0.754131
Si Si3 0.917604 0.759799 0.414659
Si Si4 0.584678 0.632154 0.416582
Si Si5 0.576832 0.561199 0.912496
Si Si6 0.079186 0.056582 0.909398
Si Si7 0.422725 0.757848 0.239686
O O1 0.250000 0.816271 0.913655
O O2 0.460420 0.886407 0.864561
O O3 0.497456 0.784444 0.841634
O O4 0.500000 0.820351 0.000000
O O5 0.750000 0.620912 0.737026
O O6 0.981346 0.598885 0.835435
O O7 0.949882 0.694822 0.771603
O O8 0.006749 0.611232 0.670152
O O9 0.750000 0.781971 0.411874
O O10 0.917195 0.696068 0.418870
O O11 0.000000 0.782978 0.500000
O O12 0.004857 0.779178 0.329038
O O13 0.500000 0.608812 0.500000
O O14 0.750000 0.609660 0.418604
O O15 0.750000 0.567837 0.925772
O O16 0.533011 0.500000 0.891118
O O17 0.500000 0.581329 0.000000
O O18 0.250000 0.057795 0.931545
O O19 0.041015 0.000000 0.857809
O O20 0.000000 0.054479 0.000000
O O21 0.250000 0.772246 0.240889
#
# Coordination Sequence:
#
# PCOD8207820 Si02
#       7
#     8   8   8   8   8   8   8
#     4  10  19  30  43  60  86 119 151 182 217 257
#     4   9  18  31  46  65  88 114 143 176 215 258
#     4   9  16  27  43  63  86 113 145 179 216 255
#     4   9  16  26  43  66  90 115 141 171 207 251
#     4   9  18  33  51  68  85 107 139 181 224 260
#     4   8  14  25  41  59  78 104 141 182 219 253
#     4  10  19  30  43  62  90 120 148 177 212 258
#
# _framework density 16.109252000000001
#
# number of rings (size 3 to 8) (size 9 to 14) (size 15 to 20)
#    0.000    2.857    0.000    1.714    0.000    5.714 
#    0.000    1.429    0.000    0.429    0.000    0.000 
#    0.000    0.571    0.000    1.571    0.000    2.571 
#
# Total GULP energy -693940.827541 kJ/mol
# GULP energy per Si atom -12391.800492 kJ/mol
# Density = 1.607259 g / cm^3
# Si number density = 16.109252 Si / 1000 Ang^3
#
#
#
# Elastic Constant Matrix: (Units=GPa)
#
#
# Indices 1 2 3 4 5 6 
#
# 1 96.1615 36.2970 68.2839 0.0000 0.0000 0.0000
# 2 36.2970 47.4073 51.5265 0.0000 0.0000 0.0000
# 3 68.2839 51.5265 139.1522 0.0000 0.0000 0.0000
# 4 0.0000 0.0000 0.0000 0.8059 0.0000 0.0000
# 5 0.0000 0.0000 0.0000 0.0000 33.1699 0.0000
# 6 0.0000 0.0000 0.0000 0.0000 0.0000 13.8910
#
#
#
# Elastic Compliance Matrix: (Units=1/GPa)
#
#
# Indices 1 2 3 4 5 6 
#
# 1 0.017131 -0.006660 -0.005941 0.000000 0.000000 0.000000
# 2 -0.006660 0.037890 -0.010762 0.000000 0.000000 0.000000
# 3 -0.005941 -0.010762 0.014087 0.000000 0.000000 0.000000
# 4 0.000000 0.000000 0.000000 1.240843 0.000000 0.000000
# 5 0.000000 0.000000 0.000000 0.000000 0.030148 0.000000
# 6 0.000000 0.000000 0.000000 0.000000 0.000000 0.071989
#
#
# Mechanical properties :
#
#
# Convention : Reuss Voigt Hill
#
# Bulk Modulus (GPa) = 44.67673 66.10397 55.39035
# Shear Modulus (GPa) = 3.41000 18.01427 10.71213
#
# Velocity S-wave (km/s) = 1.45650 3.34766 2.58149
# Velocity P-wave (km/s) = 5.53374 7.48774 6.58364
#
# Compressibility (1/GPa) = 0.02238302
#
# Stress axis : x y z
#
# Youngs Moduli (GPa) = 58.37267 26.39207 70.98926
#
# Poissons Ratio (x) = 0.17576 0.42172
# Poissons Ratio (y) = 0.38874 0.76401
# Poissons Ratio (z) = 0.34677 0.28404
#
# Static dielectric constant tensor:
#      x y z
#    x 3.203910 0.000000 0.000000 
#    y 0.000000 3.125610 0.000000 
#    z 0.000000 0.000000 3.019300 
# 
# 
# High freq. dielectric constant tensor:
#      x y z
#    x 1.633090 0.000000 0.000000 
#    y 0.000000 1.588370 0.000000 
#    z 0.000000 0.000000 1.605920 
# 
# From -- ./inp_files/21854.got.cif
#   From: 2010.03.12/outbox.cif.g09.slc.cpg/sg51_11_cif.got.tgz:21854.got - 2010.04.16 13:43:02.
