data_PCOD8207587
_publ_section_title
;
Structure prediction by ZEFSAII (Michael W. Deem and Ramdas Pophale) SiO2 
 PCOD8207587
Probable space group: P M M A
;
_chemical_formula_sum "Si O2"
_cell_formula_units_Z 64
_cell_length_a 30.011850
_cell_length_b 13.671432
_cell_length_c 9.906843
_cell_angle_alpha 90.000000
_cell_angle_beta 90.000000
_cell_angle_gamma 90.000000
_cell_volume 4064.826885
_symmetry_space_group_name_H-M "P M M A"
_symmetry_group_IT_number 51
_symmetry_cell_setting 'orthorhombic'
loop_
_space_group_symop_operation_xyz
x,y,z
1/2-x,-y,z
1/2+x,-y,-z
-x,y,-z
-x,-y,-z
1/2+x,y,-z
1/2-x,y,z
x,-y,z
loop_
_atom_site_type_symbol
_atom_site_label
_atom_site_fract_x
_atom_site_fract_y
_atom_site_fract_z
Si Si1 0.611059 0.703669 0.797204
Si Si2 0.028550 0.716329 0.630031
Si Si3 0.965475 0.110734 0.190156
Si Si4 0.796766 0.609360 0.478676
Si Si5 0.701169 0.390008 0.799616
Si Si6 0.391396 0.616819 0.496478
Si Si7 0.523656 0.614032 0.866389
Si Si8 0.066174 0.889285 0.102954
O O1 0.660905 0.679157 0.850539
O O2 0.603759 0.677719 0.640780
O O3 0.575719 0.639433 0.881706
O O4 0.601643 0.818164 0.824764
O O5 0.049666 0.815200 0.692374
O O6 0.068380 0.642106 0.595419
O O7 0.000000 0.745112 0.500000
O O8 0.996296 0.664069 0.734907
O O9 0.017279 0.131298 0.160875
O O10 0.958812 0.000000 0.241578
O O11 0.935433 0.128586 0.057832
O O12 0.750000 0.664412 0.434369
O O13 0.792711 0.500000 0.422681
O O14 0.799518 0.608323 0.639353
O O15 0.844679 0.651293 0.430246
O O16 0.750000 0.351989 0.850084
O O17 0.693177 0.500000 0.854088
O O18 0.390886 0.500000 0.465603
O O19 0.515950 0.500000 0.851474
O O20 0.500000 0.655840 0.000000
O O21 0.081233 0.000000 0.134473
#
# Coordination Sequence:
#
# PCOD8207587 Si02
#       8
#     8   8   8   8   8   8   8   8
#     4  11  17  28  47  66  91 122 158 193 232 280
#     4  12  21  30  44  66  96 127 152 191 232 285
#     4   9  18  33  49  64  86 117 156 199 239 274
#     4   7  11  22  39  58  82 114 153 190 220 260
#     4   8  14  24  40  64  92 121 153 190 231 276
#     4  10  19  28  41  65  97 130 155 183 233 281
#     4  11  22  32  43  63  93 130 166 192 218 268
#     4   9  17  31  50  67  84 114 158 203 240 276
#
# _framework density 15.744828
#
# number of rings (size 3 to 8) (size 9 to 14) (size 15 to 20)
#    0.000    2.375    2.500    4.500    0.000    0.750 
#    0.000    0.625    0.000    0.375    0.000    3.500 
#    0.000   11.500    0.000    0.000    0.000    0.000 
#
# Total GULP energy -792899.801104 kJ/mol
# GULP energy per Si atom -12389.059392 kJ/mol
# Density = 1.570899 g / cm^3
# Si number density = 15.744828 Si / 1000 Ang^3
#
#
#
# Elastic Constant Matrix: (Units=GPa)
#
#
# Indices 1 2 3 4 5 6 
#
# 1 116.0480 43.1307 25.0969 0.0000 0.0000 0.0000
# 2 43.1307 89.3381 32.4454 0.0000 0.0000 0.0000
# 3 25.0969 32.4454 53.0403 0.0000 0.0000 0.0000
# 4 0.0000 0.0000 0.0000 22.2739 0.0000 0.0000
# 5 0.0000 0.0000 0.0000 0.0000 10.9707 0.0000
# 6 0.0000 0.0000 0.0000 0.0000 0.0000 11.8771
#
#
#
# Elastic Compliance Matrix: (Units=1/GPa)
#
#
# Indices 1 2 3 4 5 6 
#
# 1 0.010745 -0.004295 -0.002457 0.000000 0.000000 0.000000
# 2 -0.004295 0.016107 -0.007821 0.000000 0.000000 0.000000
# 3 -0.002457 -0.007821 0.024800 0.000000 0.000000 0.000000
# 4 0.000000 0.000000 0.000000 0.044896 0.000000 0.000000
# 5 0.000000 0.000000 0.000000 0.000000 0.091152 0.000000
# 6 0.000000 0.000000 0.000000 0.000000 0.000000 0.084196
#
#
# Mechanical properties :
#
#
# Convention : Reuss Voigt Hill
#
# Bulk Modulus (GPa) = 44.43057 51.08584 47.75820
# Shear Modulus (GPa) = 16.20522 19.54125 17.87323
#
# Velocity S-wave (km/s) = 3.21166 3.52678 3.37290
# Velocity P-wave (km/s) = 6.48332 7.00719 6.75034
#
# Compressibility (1/GPa) = 0.02250703
#
# Stress axis : x y z
#
# Youngs Moduli (GPa) = 93.06864 62.08346 40.32258
#
# Poissons Ratio (x) = 0.26666 0.09906
# Poissons Ratio (y) = 0.39975 0.31535
# Poissons Ratio (z) = 0.22864 0.48554
#
# Static dielectric constant tensor:
#      x y z
#    x 3.410040 0.000000 0.000000 
#    y 0.000000 2.966290 0.000000 
#    z 0.000000 0.000000 2.765940 
# 
# 
# High freq. dielectric constant tensor:
#      x y z
#    x 1.601430 0.000000 0.000000 
#    y 0.000000 1.587690 0.000000 
#    z 0.000000 0.000000 1.571830 
# 
# From -- ./inp_files/13254.got.cif
#   From: 2010.03.12/outbox.cif.g09.slc.cpg/sg51_7_cif.got.tgz:13254.got - 2010.04.16 13:43:02.
