data_PCOD8207531
_publ_section_title
;
Structure prediction by ZEFSAII (Michael W. Deem and Ramdas Pophale) SiO2 
 PCOD8207531
Probable space group: P M M A
;
_chemical_formula_sum "Si O2"
_cell_formula_units_Z 64
_cell_length_a 9.159760
_cell_length_b 18.412825
_cell_length_c 26.340345
_cell_angle_alpha 90.000000
_cell_angle_beta 90.000000
_cell_angle_gamma 90.000000
_cell_volume 4442.485092
_symmetry_space_group_name_H-M "P M M A"
_symmetry_group_IT_number 51
_symmetry_cell_setting 'orthorhombic'
loop_
_space_group_symop_operation_xyz
x,y,z
1/2-x,-y,z
1/2+x,-y,-z
-x,y,-z
-x,-y,-z
1/2+x,y,-z
1/2-x,y,z
x,-y,z
loop_
_atom_site_type_symbol
_atom_site_label
_atom_site_fract_x
_atom_site_fract_y
_atom_site_fract_z
Si Si1 0.421780 0.838292 0.549963
Si Si2 0.577122 0.342618 0.757106
Si Si3 0.921691 0.918488 0.347716
Si Si4 0.912977 0.714905 0.597421
Si Si5 0.089262 0.798916 0.297218
Si Si6 0.923736 0.419490 0.655467
Si Si7 0.921739 0.415744 0.150217
Si Si8 0.914850 0.413781 0.951247
O O1 0.500000 0.870215 0.500000
O O2 0.250000 0.837193 0.541231
O O3 0.468189 0.889293 0.596860
O O4 0.477709 0.756027 0.559513
O O5 0.750000 0.353188 0.766210
O O6 0.539375 0.257658 0.746408
O O7 0.520877 0.391425 0.710040
O O8 0.486606 0.366526 0.805593
O O9 0.750000 0.916812 0.342174
O O10 0.983864 0.868251 0.302550
O O11 0.983086 0.000000 0.341774
O O12 0.750000 0.713344 0.573260
O O13 0.906163 0.754796 0.650913
O O14 0.973502 0.633643 0.609347
O O15 0.250000 0.829079 0.284489
O O16 0.750000 0.419187 0.656747
O O17 0.986997 0.500000 0.645371
O O18 0.750000 0.402475 0.145118
O O19 0.957157 0.500000 0.161406
O O20 0.998109 0.389293 0.098646
O O21 0.750000 0.382430 0.949779
O O22 0.909713 0.500000 0.954865
O O23 0.000000 0.381825 0.000000
#
# Coordination Sequence:
#
# PCOD8207531 Si02
#       8
#     8   8   8   8   8   8   8   8
#     4  10  19  30  44  60  78  99 122 149 181 218
#     4   9  16  26  40  57  78 103 131 161 194 234
#     4   9  18  31  45  62  83 104 125 149 179 218
#     4   8  14  26  42  58  76  97 122 150 180 220
#     4   8  15  27  42  60  79 101 129 156 183 221
#     4   8  13  22  39  60  77  95 121 153 189 228
#     4  10  19  27  35  52  78 105 136 174 211 244
#     4   9  16  26  39  52  68  95 132 173 215 254
#
# _framework density 14.406351000000001
#
# number of rings (size 3 to 8) (size 9 to 14) (size 15 to 20)
#    0.000    3.125    0.000    3.000    0.000    4.250 
#    0.000    1.875    0.000    1.500    0.000    0.000 
#    0.000    0.000    0.000    0.000    0.000    0.625 
#
# Total GULP energy -793226.786785 kJ/mol
# GULP energy per Si atom -12394.168544 kJ/mol
# Density = 1.437356 g / cm^3
# Si number density = 14.406351 Si / 1000 Ang^3
#
#
#
# Elastic Constant Matrix: (Units=GPa)
#
#
# Indices 1 2 3 4 5 6 
#
# 1 63.6730 32.3135 34.5216 0.0000 0.0000 0.0000
# 2 32.3135 91.7880 33.3057 0.0000 0.0000 0.0000
# 3 34.5216 33.3057 58.3491 0.0000 0.0000 0.0000
# 4 0.0000 0.0000 0.0000 11.5040 0.0000 0.0000
# 5 0.0000 0.0000 0.0000 0.0000 24.4877 0.0000
# 6 0.0000 0.0000 0.0000 0.0000 0.0000 17.7198
#
#
#
# Elastic Compliance Matrix: (Units=1/GPa)
#
#
# Indices 1 2 3 4 5 6 
#
# 1 0.024352 -0.004219 -0.011999 0.000000 0.000000 0.000000
# 2 -0.004219 0.014472 -0.005764 0.000000 0.000000 0.000000
# 3 -0.011999 -0.005764 0.027528 0.000000 0.000000 0.000000
# 4 0.000000 0.000000 0.000000 0.086927 0.000000 0.000000
# 5 0.000000 0.000000 0.000000 0.000000 0.040837 0.000000
# 6 0.000000 0.000000 0.000000 0.000000 0.000000 0.056434
#
#
# Mechanical properties :
#
#
# Convention : Reuss Voigt Hill
#
# Bulk Modulus (GPa) = 44.67063 46.01019 45.34041
# Shear Modulus (GPa) = 16.55760 18.32024 17.43892
#
# Velocity S-wave (km/s) = 3.39385 3.56993 3.48300
# Velocity P-wave (km/s) = 6.81414 6.99995 6.90767
#
# Compressibility (1/GPa) = 0.02238607
#
# Stress axis : x y z
#
# Youngs Moduli (GPa) = 41.06435 69.10126 36.32699
#
# Poissons Ratio (x) = 0.29154 0.43590
# Poissons Ratio (y) = 0.17325 0.20940
# Poissons Ratio (z) = 0.49275 0.39832
#
# Static dielectric constant tensor:
#      x y z
#    x 2.795890 0.000000 0.000000 
#    y 0.000000 2.906050 0.000000 
#    z 0.000000 0.000000 2.689500 
# 
# 
# High freq. dielectric constant tensor:
#      x y z
#    x 1.547750 0.000000 0.000000 
#    y 0.000000 1.522860 0.000000 
#    z 0.000000 0.000000 1.525040 
# 
# From -- ./inp_files/36432.got.cif
#   From: 2010.03.12/outbox.cif.g09.slc.cpg/sg51_19_cif.got.tgz:36432.got - 2010.04.16 13:43:02.
