data_PCOD8207700
_publ_section_title
;
Structure prediction by ZEFSAII (Michael W. Deem and Ramdas Pophale) SiO2 
 PCOD8207700
Probable space group: P M M A
;
_chemical_formula_sum "Si O2"
_cell_formula_units_Z 56
_cell_length_a 8.953175
_cell_length_b 18.160733
_cell_length_c 21.497334
_cell_angle_alpha 90.000000
_cell_angle_beta 90.000000
_cell_angle_gamma 90.000000
_cell_volume 3495.385263
_symmetry_space_group_name_H-M "P M M A"
_symmetry_group_IT_number 51
_symmetry_cell_setting 'orthorhombic'
loop_
_space_group_symop_operation_xyz
x,y,z
1/2-x,-y,z
1/2+x,-y,-z
-x,y,-z
-x,-y,-z
1/2+x,y,-z
1/2-x,y,z
x,-y,z
loop_
_atom_site_type_symbol
_atom_site_label
_atom_site_fract_x
_atom_site_fract_y
_atom_site_fract_z
Si Si1 0.921488 0.414308 0.798256
Si Si2 0.572147 0.655988 0.318358
Si Si3 0.582228 0.702179 0.127506
Si Si4 0.914780 0.202458 0.251406
Si Si5 0.074308 0.082197 0.183887
Si Si6 0.073068 0.171621 0.062921
Si Si7 0.924339 0.414903 0.565158
O O1 0.750000 0.388545 0.792048
O O2 0.933945 0.500000 0.812546
O O3 0.004053 0.397245 0.733761
O O4 0.997293 0.373525 0.856848
O O5 0.750000 0.645291 0.318070
O O6 0.529195 0.741841 0.305355
O O7 0.503643 0.635947 0.384399
O O8 0.750000 0.685482 0.103579
O O9 0.587610 0.749924 0.189359
O O10 0.491646 0.746702 0.075067
O O11 0.750000 0.172757 0.267119
O O12 0.019010 0.131350 0.242118
O O13 0.250000 0.079764 0.188138
O O14 0.023766 0.116724 0.118163
O O15 0.006802 0.000000 0.188958
O O16 0.250000 0.176031 0.055977
O O17 0.000000 0.140040 0.000000
O O18 0.750000 0.395867 0.561626
O O19 0.950178 0.500000 0.582922
O O20 0.000000 0.395824 0.500000
#
# Coordination Sequence:
#
# PCOD8207700 Si02
#       7
#     8   8   8   8   8   8   8
#     4  10  19  29  43  65  90 114 143 181 225 270
#     4  10  19  30  45  65  90 119 154 192 225 262
#     4   9  17  30  46  63  84 110 143 181 221 264
#     4   8  16  29  44  64  87 113 145 180 219 261
#     4   9  18  31  46  66  92 119 145 176 216 260
#     4  10  19  31  47  65  87 115 147 180 213 256
#     4  10  20  32  45  63  90 125 162 196 231 269
#
# _framework density 16.021122999999999
#
# number of rings (size 3 to 8) (size 9 to 14) (size 15 to 20)
#    0.000    2.571    0.000    3.429    0.000    8.857 
#    0.000    0.000    0.000    0.429    0.000    0.000 
#    0.000    0.571    0.000    1.857    0.000    2.714 
#
# Total GULP energy -694286.386761 kJ/mol
# GULP energy per Si atom -12397.971192 kJ/mol
# Density = 1.598466 g / cm^3
# Si number density = 16.021123 Si / 1000 Ang^3
#
#
#
# Elastic Constant Matrix: (Units=GPa)
#
#
# Indices 1 2 3 4 5 6 
#
# 1 91.7201 50.8748 35.3453 0.0000 0.0000 0.0000
# 2 50.8748 104.1633 48.1523 0.0000 0.0000 0.0000
# 3 35.3453 48.1523 62.3555 0.0000 0.0000 0.0000
# 4 0.0000 0.0000 0.0000 18.2589 0.0000 0.0000
# 5 0.0000 0.0000 0.0000 0.0000 28.1152 0.0000
# 6 0.0000 0.0000 0.0000 0.0000 0.0000 23.2445
#
#
#
# Elastic Compliance Matrix: (Units=1/GPa)
#
#
# Indices 1 2 3 4 5 6 
#
# 1 0.015777 -0.005554 -0.004654 0.000000 0.000000 0.000000
# 2 -0.005554 0.016886 -0.009891 0.000000 0.000000 0.000000
# 3 -0.004654 -0.009891 0.026313 0.000000 0.000000 0.000000
# 4 0.000000 0.000000 0.000000 0.054768 0.000000 0.000000
# 5 0.000000 0.000000 0.000000 0.000000 0.035568 0.000000
# 6 0.000000 0.000000 0.000000 0.000000 0.000000 0.043021
#
#
# Mechanical properties :
#
#
# Convention : Reuss Voigt Hill
#
# Bulk Modulus (GPa) = 53.25565 58.55376 55.90471
# Shear Modulus (GPa) = 20.93895 22.18148 21.56021
#
# Velocity S-wave (km/s) = 3.61911 3.72494 3.67241
# Velocity P-wave (km/s) = 7.12580 7.42479 7.27683
#
# Compressibility (1/GPa) = 0.01877735
#
# Stress axis : x y z
#
# Youngs Moduli (GPa) = 63.38351 59.22230 38.00405
#
# Poissons Ratio (x) = 0.32894 0.17686
# Poissons Ratio (y) = 0.35206 0.37590
# Poissons Ratio (z) = 0.29497 0.58577
#
# Static dielectric constant tensor:
#      x y z
#    x 3.204070 0.000000 0.000000 
#    y 0.000000 3.137150 0.000000 
#    z 0.000000 0.000000 2.897760 
# 
# 
# High freq. dielectric constant tensor:
#      x y z
#    x 1.631040 0.000000 0.000000 
#    y 0.000000 1.601060 0.000000 
#    z 0.000000 0.000000 1.585030 
# 
# From -- ./inp_files/32220.got.cif
#   From: 2010.03.12/outbox.cif.g09.slc.cpg/sg51_17_cif.got.tgz:32220.got - 2010.04.16 13:43:02.
