data_PCOD8207053
_publ_section_title
;
Structure prediction by ZEFSAII (Michael W. Deem and Ramdas Pophale) SiO2 
 PCOD8207053
Probable space group: P M M A
;
_chemical_formula_sum "Si O2"
_cell_formula_units_Z 48
_cell_length_a 26.091474
_cell_length_b 8.922616
_cell_length_c 11.994031
_cell_angle_alpha 90.000000
_cell_angle_beta 90.000000
_cell_angle_gamma 90.000000
_cell_volume 2792.260832
_symmetry_space_group_name_H-M "P M M A"
_symmetry_group_IT_number 51
_symmetry_cell_setting 'orthorhombic'
loop_
_space_group_symop_operation_xyz
x,y,z
1/2-x,-y,z
1/2+x,-y,-z
-x,y,-z
-x,-y,-z
1/2+x,y,-z
1/2-x,y,z
x,-y,z
loop_
_atom_site_type_symbol
_atom_site_label
_atom_site_fract_x
_atom_site_fract_y
_atom_site_fract_z
Si Si1 0.807815 0.679633 0.658216
Si Si2 0.555850 0.320908 0.040183
Si Si3 0.884706 0.669205 0.834032
Si Si4 0.029925 0.666771 0.350548
Si Si5 0.567508 0.174814 0.276798
Si Si6 0.115171 0.673493 0.527933
O O1 0.750000 0.741176 0.655612
O O2 0.810203 0.500000 0.661720
O O3 0.836554 0.745468 0.769041
O O4 0.837664 0.734094 0.547429
O O5 0.556184 0.500000 0.045472
O O6 0.571199 0.256867 0.159065
O O7 0.500000 0.264331 0.000000
O O8 0.598494 0.257944 0.951928
O O9 0.868462 0.500000 0.859034
O O10 0.933956 0.674886 0.755818
O O11 0.005027 0.500000 0.355904
O O12 0.061687 0.697937 0.462613
O O13 0.986152 0.789955 0.337033
O O14 0.613141 0.233193 0.357334
O O15 0.573661 0.000000 0.257286
O O16 0.123639 0.500000 0.556614
#
# Coordination Sequence:
#
# PCOD8207053 Si02
#       6
#     8   8   8   8   8   8
#     4   8  14  27  51  80 100 111 139 199 259 291
#     4  10  18  31  50  66  90 131 171 196 224 282
#     4   8  14  26  46  71  94 120 154 192 236 284
#     4   9  16  30  48  66  91 126 164 194 226 280
#     4  12  23  30  41  65 100 133 163 198 236 272
#     4   9  18  31  49  70  94 125 159 192 235 292
#
# _framework density 17.190370000000001
#
# number of rings (size 3 to 8) (size 9 to 14) (size 15 to 20)
#    0.000    2.667    1.667    4.000    0.000    3.000 
#    0.000    0.000    0.000    1.500    0.000    4.667 
#    0.000    0.000    0.000    0.000    0.000    0.000 
#
# Total GULP energy -594825.255630 kJ/mol
# GULP energy per Si atom -12392.192826 kJ/mol
# Density = 1.715124 g / cm^3
# Si number density = 17.190370 Si / 1000 Ang^3
#
#
#
# Elastic Constant Matrix: (Units=GPa)
#
#
# Indices 1 2 3 4 5 6 
#
# 1 94.9584 15.9486 59.4682 0.0000 0.0000 0.0000
# 2 15.9486 29.0442 27.5281 0.0000 0.0000 0.0000
# 3 59.4682 27.5281 143.6164 0.0000 0.0000 0.0000
# 4 0.0000 0.0000 0.0000 6.6242 0.0000 0.0000
# 5 0.0000 0.0000 0.0000 0.0000 8.9965 0.0000
# 6 0.0000 0.0000 0.0000 0.0000 0.0000 2.4566
#
#
#
# Elastic Compliance Matrix: (Units=1/GPa)
#
#
# Indices 1 2 3 4 5 6 
#
# 1 0.014396 -0.002756 -0.005433 0.000000 0.000000 0.000000
# 2 -0.002756 0.042602 -0.007025 0.000000 0.000000 0.000000
# 3 -0.005433 -0.007025 0.010559 0.000000 0.000000 0.000000
# 4 0.000000 0.000000 0.000000 0.150961 0.000000 0.000000
# 5 0.000000 0.000000 0.000000 0.000000 0.111155 0.000000
# 6 0.000000 0.000000 0.000000 0.000000 0.000000 0.407068
#
#
# Mechanical properties :
#
#
# Convention : Reuss Voigt Hill
#
# Bulk Modulus (GPa) = 26.93240 52.61210 39.77225
# Shear Modulus (GPa) = 6.41401 14.59373 10.50387
#
# Velocity S-wave (km/s) = 1.93372 2.91683 2.47459
# Velocity P-wave (km/s) = 4.54828 6.48197 5.59923
#
# Compressibility (1/GPa) = 0.03713000
#
# Stress axis : x y z
#
# Youngs Moduli (GPa) = 69.46305 23.47335 94.70512
#
# Poissons Ratio (x) = 0.06469 0.51452
# Poissons Ratio (y) = 0.19143 0.66527
# Poissons Ratio (z) = 0.37738 0.16489
#
# Static dielectric constant tensor:
#      x y z
#    x 3.171370 0.000000 0.000000 
#    y 0.000000 2.757440 0.000000 
#    z 0.000000 0.000000 3.446260 
# 
# 
# High freq. dielectric constant tensor:
#      x y z
#    x 1.632980 0.000000 0.000000 
#    y 0.000000 1.614840 0.000000 
#    z 0.000000 0.000000 1.677100 
# 
# From -- ./inp_files/18997.got.cif
#   From: 2010.03.12/outbox.cif.g09.slc.cpg/sg51_10_cif.got.tgz:18997.got - 2010.04.16 13:43:02.
