data_PCOD8207334
_publ_section_title
;
Structure prediction by ZEFSAII (Michael W. Deem and Ramdas Pophale) SiO2 
 PCOD8207334
Probable space group: P M M A
;
_chemical_formula_sum "Si O2"
_cell_formula_units_Z 56
_cell_length_a 20.424497
_cell_length_b 8.812120
_cell_length_c 15.109255
_cell_angle_alpha 90.000000
_cell_angle_beta 90.000000
_cell_angle_gamma 90.000000
_cell_volume 2719.410833
_symmetry_space_group_name_H-M "P M M A"
_symmetry_group_IT_number 51
_symmetry_cell_setting 'orthorhombic'
loop_
_space_group_symop_operation_xyz
x,y,z
1/2-x,-y,z
1/2+x,-y,-z
-x,y,-z
-x,-y,-z
1/2+x,y,-z
1/2-x,y,z
x,-y,z
loop_
_atom_site_type_symbol
_atom_site_label
_atom_site_fract_x
_atom_site_fract_y
_atom_site_fract_z
Si Si1 0.250000 0.823631 0.589480
Si Si2 0.544409 0.173483 0.317905
Si Si3 0.883188 0.179661 0.489275
Si Si4 0.250000 0.336943 0.763925
Si Si5 0.394290 0.174637 0.313847
Si Si6 0.925674 0.823555 0.992007
Si Si7 0.174002 0.320373 0.149869
Si Si8 0.386329 0.669388 0.837790
O O1 0.315254 0.751807 0.547623
O O2 0.250000 0.798426 0.694125
O O3 0.250000 0.000000 0.570071
O O4 0.558084 0.221998 0.420560
O O5 0.469866 0.187939 0.286714
O O6 0.584428 0.286022 0.256581
O O7 0.568850 0.000000 0.305540
O O8 0.891398 0.247387 0.587606
O O9 0.881541 0.000000 0.499705
O O10 0.250000 0.500000 0.712900
O O11 0.190798 0.328026 0.831002
O O12 0.347956 0.266612 0.247346
O O13 0.370978 0.000000 0.311736
O O14 0.878171 0.742766 0.921271
O O15 0.925812 0.000000 0.966897
O O16 0.899902 0.796399 0.089910
O O17 0.000000 0.759925 0.000000
O O18 0.250000 0.268276 0.132222
O O19 0.169862 0.500000 0.145883
O O20 0.411371 0.500000 0.864226
#
# Coordination Sequence:
#
# PCOD8207334 Si02
#       8
#     4   8   8   4   8   8   8   8
#     4  10  18  32  56  83 112 153 202 247 294 350
#     4  10  19  35  58  88 123 158 199 248 299 356
#     4   9  18  32  55  87 119 154 201 252 300 351
#     4  10  22  38  54  81 120 157 192 235 290 350
#     4  10  21  37  61  88 118 158 204 253 302 353
#     4  11  25  45  69  97 124 153 196 249 305 366
#     4  11  26  46  65  89 124 164 207 255 306 363
#     4  11  23  38  60  88 121 158 193 236 295 358
#
# _framework density 20.592696
#
# number of rings (size 3 to 8) (size 9 to 14) (size 15 to 20)
#    0.000    1.714    1.429    2.571    2.000    8.571 
#    0.000    1.429    0.000    1.714    0.000    0.000 
#    0.000    0.000    0.000    0.000    0.000    0.000 
#
# Total GULP energy -694058.969071 kJ/mol
# GULP energy per Si atom -12393.910162 kJ/mol
# Density = 2.054583 g / cm^3
# Si number density = 20.592696 Si / 1000 Ang^3
#
#
#
# Elastic Constant Matrix: (Units=GPa)
#
#
# Indices 1 2 3 4 5 6 
#
# 1 129.9982 42.1311 51.7260 0.0000 0.0000 0.0000
# 2 42.1311 52.3796 30.3317 0.0000 0.0000 0.0000
# 3 51.7260 30.3317 126.1755 0.0000 0.0000 0.0000
# 4 0.0000 0.0000 0.0000 16.4575 0.0000 0.0000
# 5 0.0000 0.0000 0.0000 0.0000 28.2429 0.0000
# 6 0.0000 0.0000 0.0000 0.0000 0.0000 22.6308
#
#
#
# Elastic Compliance Matrix: (Units=1/GPa)
#
#
# Indices 1 2 3 4 5 6 
#
# 1 0.011207 -0.007381 -0.002820 0.000000 0.000000 0.000000
# 2 -0.007381 0.027040 -0.003474 0.000000 0.000000 0.000000
# 3 -0.002820 -0.003474 0.009917 0.000000 0.000000 0.000000
# 4 0.000000 0.000000 0.000000 0.060762 0.000000 0.000000
# 5 0.000000 0.000000 0.000000 0.000000 0.035407 0.000000
# 6 0.000000 0.000000 0.000000 0.000000 0.000000 0.044188
#
#
# Mechanical properties :
#
#
# Convention : Reuss Voigt Hill
#
# Bulk Modulus (GPa) = 48.04696 61.88120 54.96408
# Shear Modulus (GPa) = 22.44078 25.75721 24.09899
#
# Velocity S-wave (km/s) = 3.30471 3.54049 3.42463
# Velocity P-wave (km/s) = 6.15988 6.84315 6.51049
#
# Compressibility (1/GPa) = 0.02081297
#
# Stress axis : x y z
#
# Youngs Moduli (GPa) = 89.23380 36.98200 100.84021
#
# Poissons Ratio (x) = 0.27296 0.28435
# Poissons Ratio (y) = 0.65863 0.35036
# Poissons Ratio (z) = 0.25162 0.12849
#
# Static dielectric constant tensor:
#      x y z
#    x 4.088440 0.000000 0.000000 
#    y 0.000000 3.535160 0.000000 
#    z 0.000000 0.000000 3.808440 
# 
# 
# High freq. dielectric constant tensor:
#      x y z
#    x 1.819780 0.000000 0.000000 
#    y 0.000000 1.778880 0.000000 
#    z 0.000000 0.000000 1.811620 
# 
# From -- ./inp_files/25798.got.cif
#   From: 2010.03.12/outbox.cif.g09.slc.cpg/sg51_13_cif.got.tgz:25798.got - 2010.04.16 13:43:02.
