data_PCOD8207326
_publ_section_title
;
Structure prediction by ZEFSAII (Michael W. Deem and Ramdas Pophale) SiO2 
 PCOD8207326
Probable space group: P M M A
;
_chemical_formula_sum "Si O2"
_cell_formula_units_Z 40
_cell_length_a 8.907912
_cell_length_b 11.941417
_cell_length_c 20.503300
_cell_angle_alpha 90.000000
_cell_angle_beta 90.000000
_cell_angle_gamma 90.000000
_cell_volume 2180.999413
_symmetry_space_group_name_H-M "P M M A"
_symmetry_group_IT_number 51
_symmetry_cell_setting 'orthorhombic'
loop_
_space_group_symop_operation_xyz
x,y,z
1/2-x,-y,z
1/2+x,-y,-z
-x,y,-z
-x,-y,-z
1/2+x,y,-z
1/2-x,y,z
x,-y,z
loop_
_atom_site_type_symbol
_atom_site_label
_atom_site_fract_x
_atom_site_fract_y
_atom_site_fract_z
Si Si1 0.926484 0.372113 0.931841
Si Si2 0.928086 0.233517 0.432578
Si Si3 0.427935 0.239823 0.815807
Si Si4 0.071519 0.000000 0.623415
Si Si5 0.927397 0.000000 0.230434
Si Si6 0.071609 0.625429 0.689679
O O1 0.750000 0.355776 0.937975
O O2 0.968487 0.500000 0.913410
O O3 0.990233 0.289258 0.878048
O O4 0.000000 0.337933 0.000000
O O5 0.750000 0.237588 0.438758
O O6 0.985531 0.108933 0.415173
O O7 0.986751 0.316596 0.376295
O O8 0.000000 0.273643 0.500000
O O9 0.250000 0.252331 0.824634
O O10 0.485544 0.305580 0.751999
O O11 0.478214 0.110424 0.808759
O O12 0.003533 0.000000 0.696600
O O13 0.250000 0.000000 0.628184
O O14 0.750000 0.000000 0.238404
O O15 0.250000 0.624431 0.689555
O O16 0.005992 0.500000 0.693278
#
# Coordination Sequence:
#
# PCOD8207326 Si02
#       6
#     8   8   8   4   4   8
#     4  10  21  37  57  82 112 143 174 210 253 301
#     4  10  19  31  48  69  96 129 168 213 260 310
#     4  10  18  32  56  82 106 134 174 219 261 308
#     4   9  15  29  50  71  95 127 168 214 258 302
#     4   9  16  29  53  81 104 133 173 216 261 310
#     4   9  17  29  48  73  98 129 171 214 256 309
#
# _framework density 18.340216999999999
#
# number of rings (size 3 to 8) (size 9 to 14) (size 15 to 20)
#    0.000    2.400    2.000    1.500    0.000    2.400 
#    0.000    2.000    0.000    2.400    0.000    0.000 
#    0.000    0.000    0.000    0.000    0.000    0.000 
#
# Total GULP energy -496007.196028 kJ/mol
# GULP energy per Si atom -12400.179901 kJ/mol
# Density = 1.829847 g / cm^3
# Si number density = 18.340217 Si / 1000 Ang^3
#
#
#
# Elastic Constant Matrix: (Units=GPa)
#
#
# Indices 1 2 3 4 5 6 
#
# 1 32.9298 28.3477 38.9836 0.0000 0.0000 0.0000
# 2 28.3477 158.3638 89.1458 0.0000 0.0000 0.0000
# 3 38.9836 89.1458 168.6280 0.0000 0.0000 0.0000
# 4 0.0000 0.0000 0.0000 33.5678 0.0000 0.0000
# 5 0.0000 0.0000 0.0000 0.0000 30.7492 0.0000
# 6 0.0000 0.0000 0.0000 0.0000 0.0000 15.3363
#
#
#
# Elastic Compliance Matrix: (Units=1/GPa)
#
#
# Indices 1 2 3 4 5 6 
#
# 1 0.042773 -0.002976 -0.008315 0.000000 0.000000 0.000000
# 2 -0.002976 0.009197 -0.004174 0.000000 0.000000 0.000000
# 3 -0.008315 -0.004174 0.010059 0.000000 0.000000 0.000000
# 4 0.000000 0.000000 0.000000 0.029790 0.000000 0.000000
# 5 0.000000 0.000000 0.000000 0.000000 0.032521 0.000000
# 6 0.000000 0.000000 0.000000 0.000000 0.000000 0.065205
#
#
# Mechanical properties :
#
#
# Convention : Reuss Voigt Hill
#
# Bulk Modulus (GPa) = 32.15519 74.76399 53.45959
# Shear Modulus (GPa) = 21.65985 29.49363 25.57674
#
# Velocity S-wave (km/s) = 3.44030 4.01451 3.73845
# Velocity P-wave (km/s) = 5.77508 7.89569 6.91714
#
# Compressibility (1/GPa) = 0.03109918
#
# Stress axis : x y z
#
# Youngs Moduli (GPa) = 23.37916 108.73247 99.41214
#
# Poissons Ratio (x) = 0.32357 0.82663
# Poissons Ratio (y) = 0.06957 0.41495
# Poissons Ratio (z) = 0.19440 0.45385
#
# Static dielectric constant tensor:
#      x y z
#    x 2.893150 0.000000 0.000000 
#    y 0.000000 3.654440 0.000000 
#    z 0.000000 0.000000 3.405410 
# 
# 
# High freq. dielectric constant tensor:
#      x y z
#    x 1.664780 0.000000 0.000000 
#    y 0.000000 1.718780 0.000000 
#    z 0.000000 0.000000 1.718670 
# 
# From -- ./inp_files/31434.got.cif
#   From: 2010.03.12/outbox.cif.g09.slc.cpg/sg51_16_cif.got.tgz:31434.got - 2010.04.16 13:43:02.
