data_PCOD8207713
_publ_section_title
;
Structure prediction by ZEFSAII (Michael W. Deem and Ramdas Pophale) SiO2 
 PCOD8207713
Probable space group: P M M A
;
_chemical_formula_sum "Si O2"
_cell_formula_units_Z 48
_cell_length_a 25.524561
_cell_length_b 9.359130
_cell_length_c 11.831840
_cell_angle_alpha 90.000000
_cell_angle_beta 90.000000
_cell_angle_gamma 90.000000
_cell_volume 2826.480862
_symmetry_space_group_name_H-M "P M M A"
_symmetry_group_IT_number 51
_symmetry_cell_setting 'orthorhombic'
loop_
_space_group_symop_operation_xyz
x,y,z
1/2-x,-y,z
1/2+x,-y,-z
-x,y,-z
-x,-y,-z
1/2+x,y,-z
1/2-x,y,z
x,-y,z
loop_
_atom_site_type_symbol
_atom_site_label
_atom_site_fract_x
_atom_site_fract_y
_atom_site_fract_z
Si Si1 0.122686 0.661022 0.168864
Si Si2 0.396659 0.836952 0.502914
Si Si3 0.439363 0.835212 0.986877
Si Si4 0.466417 0.659335 0.353823
Si Si5 0.060664 0.161010 0.732574
Si Si6 0.190330 0.166864 0.329490
O O1 0.139471 0.500000 0.134957
O O2 0.080405 0.657884 0.266307
O O3 0.172508 0.746690 0.218128
O O4 0.099184 0.739407 0.060363
O O5 0.447064 0.744430 0.464569
O O6 0.392806 0.818223 0.639442
O O7 0.343151 0.788668 0.441108
O O8 0.408903 0.000000 0.469815
O O9 0.418812 0.811395 0.858926
O O10 0.434214 0.000000 0.025086
O O11 0.500000 0.786277 0.000000
O O12 0.482130 0.500000 0.390941
O O13 0.514319 0.731420 0.291495
O O14 0.038047 0.000000 0.724852
O O15 0.250000 0.206964 0.357356
O O16 0.183753 0.000000 0.302134
#
# Coordination Sequence:
#
# PCOD8207713 Si02
#       6
#     8   8   8   8   8   8
#     4  10  20  32  48  72 100 129 162 203 246 287
#     4   9  18  31  47  68  94 122 156 197 243 293
#     4  10  19  31  48  68  96 136 175 205 235 282
#     4  10  19  29  43  66  97 129 161 197 235 282
#     4  10  19  30  45  66  95 132 166 196 235 282
#     4   9  18  34  56  76  93 118 155 201 250 296
#
# _framework density 16.982247999999998
#
# number of rings (size 3 to 8) (size 9 to 14) (size 15 to 20)
#    0.000    2.333    1.667    1.500    0.000    5.333 
#    0.000    0.000    0.000    1.000    0.000    4.667 
#    0.000    0.000    0.000    0.000    0.000    0.000 
#
# Total GULP energy -595038.058252 kJ/mol
# GULP energy per Si atom -12396.626214 kJ/mol
# Density = 1.694360 g / cm^3
# Si number density = 16.982248 Si / 1000 Ang^3
#
#
#
# Elastic Constant Matrix: (Units=GPa)
#
#
# Indices 1 2 3 4 5 6 
#
# 1 65.2211 35.8046 27.4020 0.0000 0.0000 0.0000
# 2 35.8046 84.2092 41.2121 0.0000 0.0000 0.0000
# 3 27.4020 41.2121 103.7408 0.0000 0.0000 0.0000
# 4 0.0000 0.0000 0.0000 14.0515 0.0000 0.0000
# 5 0.0000 0.0000 0.0000 0.0000 13.0256 0.0000
# 6 0.0000 0.0000 0.0000 0.0000 0.0000 8.3286
#
#
#
# Elastic Compliance Matrix: (Units=1/GPa)
#
#
# Indices 1 2 3 4 5 6 
#
# 1 0.020479 -0.007523 -0.002421 0.000000 0.000000 0.000000
# 2 -0.007523 0.017505 -0.004967 0.000000 0.000000 0.000000
# 3 -0.002421 -0.004967 0.012252 0.000000 0.000000 0.000000
# 4 0.000000 0.000000 0.000000 0.071167 0.000000 0.000000
# 5 0.000000 0.000000 0.000000 0.000000 0.076772 0.000000
# 6 0.000000 0.000000 0.000000 0.000000 0.000000 0.120068
#
#
# Mechanical properties :
#
#
# Convention : Reuss Voigt Hill
#
# Bulk Modulus (GPa) = 48.98370 51.33426 50.15898
# Shear Modulus (GPa) = 14.08973 16.99798 15.54385
#
# Velocity S-wave (km/s) = 2.88353 3.16717 3.02867
# Velocity P-wave (km/s) = 6.32400 6.60821 6.46767
#
# Compressibility (1/GPa) = 0.02041495
#
# Stress axis : x y z
#
# Youngs Moduli (GPa) = 48.82959 57.12810 81.61946
#
# Poissons Ratio (x) = 0.42976 0.19759
# Poissons Ratio (y) = 0.36733 0.40539
# Poissons Ratio (z) = 0.11821 0.28374
#
# Static dielectric constant tensor:
#      x y z
#    x 2.938730 0.000000 0.000000 
#    y 0.000000 3.411210 0.000000 
#    z 0.000000 0.000000 3.319870 
# 
# 
# High freq. dielectric constant tensor:
#      x y z
#    x 1.615380 0.000000 0.000000 
#    y 0.000000 1.660010 0.000000 
#    z 0.000000 0.000000 1.658980 
# 
# From -- ./inp_files/18544.got.cif
#   From: 2010.03.12/outbox.cif.g09.slc.cpg/sg51_10_cif.got.tgz:18544.got - 2010.04.16 13:43:02.
