data_PCOD8207580
_publ_section_title
;
Structure prediction by ZEFSAII (Michael W. Deem and Ramdas Pophale) SiO2 
 PCOD8207580
Probable space group: P M M A
;
_chemical_formula_sum "Si O2"
_cell_formula_units_Z 64
_cell_length_a 14.757705
_cell_length_b 14.786536
_cell_length_c 18.673171
_cell_angle_alpha 90.000000
_cell_angle_beta 90.000000
_cell_angle_gamma 90.000000
_cell_volume 4074.772289
_symmetry_space_group_name_H-M "P M M A"
_symmetry_group_IT_number 51
_symmetry_cell_setting 'orthorhombic'
loop_
_space_group_symop_operation_xyz
x,y,z
1/2-x,-y,z
1/2+x,-y,-z
-x,y,-z
-x,-y,-z
1/2+x,y,-z
1/2-x,y,z
x,-y,z
loop_
_atom_site_type_symbol
_atom_site_label
_atom_site_fract_x
_atom_site_fract_y
_atom_site_fract_z
Si Si1 0.145950 0.365822 0.014576
Si Si2 0.850179 0.830187 0.925375
Si Si3 0.854807 0.900316 0.070910
Si Si4 0.015896 0.598416 0.885207
Si Si5 0.648168 0.106988 0.436881
Si Si6 0.849722 0.892811 0.594582
Si Si7 0.015842 0.892308 0.685940
Si Si8 0.985349 0.792137 0.167718
O O1 0.250000 0.403654 0.017918
O O2 0.100495 0.387870 0.938577
O O3 0.146382 0.259547 0.026853
O O4 0.081359 0.408269 0.075247
O O5 0.750000 0.847021 0.893098
O O6 0.917558 0.829819 0.858415
O O7 0.876516 0.904220 0.985407
O O8 0.750000 0.875739 0.082812
O O9 0.911158 0.824115 0.111176
O O10 0.877259 0.000000 0.101930
O O11 0.028795 0.500000 0.846774
O O12 0.015079 0.682327 0.829156
O O13 0.750000 0.138518 0.419840
O O14 0.619084 0.143179 0.515893
O O15 0.584471 0.144241 0.374382
O O16 0.640000 0.000000 0.436502
O O17 0.750000 0.854718 0.613460
O O18 0.916858 0.863752 0.657617
O O19 0.846835 0.000000 0.589008
O O20 0.037258 0.834840 0.756046
O O21 0.024394 0.000000 0.700879
#
# Coordination Sequence:
#
# PCOD8207580 Si02
#       8
#     8   8   8   8   8   8   8   8
#     4   9  16  30  50  68  84 101 131 184 238 277
#     4   9  18  32  47  62  82 110 147 187 224 263
#     4  10  20  33  48  62  79 112 155 190 219 254
#     4  10  20  31  45  66  86 108 141 180 228 279
#     4   8  14  26  44  64  86 113 142 171 205 245
#     4   8  14  26  44  64  87 114 142 173 206 243
#     4  10  19  28  41  63  89 118 147 171 204 252
#     4  11  21  32  44  62  90 118 143 182 225 262
#
# _framework density 15.706398
#
# number of rings (size 3 to 8) (size 9 to 14) (size 15 to 20)
#    0.000    2.625    1.250    2.625    0.000    5.000 
#    0.000    1.250    0.000    0.000    0.000    0.000 
#    0.000    2.000    0.000    2.750    0.000    0.250 
#
# Total GULP energy -792957.862863 kJ/mol
# GULP energy per Si atom -12389.966607 kJ/mol
# Density = 1.567065 g / cm^3
# Si number density = 15.706398 Si / 1000 Ang^3
#
#
#
# Elastic Constant Matrix: (Units=GPa)
#
#
# Indices 1 2 3 4 5 6 
#
# 1 53.6090 9.6304 -1.5821 0.0000 0.0000 0.0000
# 2 9.6304 56.1618 12.4978 0.0000 0.0000 0.0000
# 3 -1.5821 12.4978 30.6593 0.0000 0.0000 0.0000
# 4 0.0000 0.0000 0.0000 6.5688 0.0000 0.0000
# 5 0.0000 0.0000 0.0000 0.0000 -6.9480 0.0000
# 6 0.0000 0.0000 0.0000 0.0000 0.0000 7.4155
#
#
#
# Elastic Compliance Matrix: (Units=1/GPa)
#
#
# Indices 1 2 3 4 5 6 
#
# 1 0.019433 -0.003910 0.002597 0.000000 0.000000 0.000000
# 2 -0.003910 0.020369 -0.008505 0.000000 0.000000 0.000000
# 3 0.002597 -0.008505 0.036217 0.000000 0.000000 0.000000
# 4 0.000000 0.000000 0.000000 0.152235 0.000000 0.000000
# 5 0.000000 0.000000 0.000000 0.000000 -0.143925 0.000000
# 6 0.000000 0.000000 0.000000 0.000000 0.000000 0.134852
#
#
# Mechanical properties :
#
#
# Convention : Reuss Voigt Hill
#
# Bulk Modulus (GPa) = 17.73606 20.16916 18.95261
# Shear Modulus (GPa) = 19.40908 9.39952 14.40430
#
# Velocity S-wave (km/s) = 3.51913 2.44898 3.03165
# Velocity P-wave (km/s) = 5.27533 4.56792 4.93432
#
# Compressibility (1/GPa) = 0.05638232
#
# Stress axis : x y z
#
# Youngs Moduli (GPa) = 51.45989 49.09476 27.61103
#
# Poissons Ratio (x) = 0.19196 -0.07170
# Poissons Ratio (y) = 0.20121 0.23483
# Poissons Ratio (z) = -0.13362 0.41754
#
# Static dielectric constant tensor:
#      x y z
#    x 3.361020 0.000000 0.000000 
#    y 0.000000 2.817810 0.000000 
#    z 0.000000 0.000000 2.799650 
# 
# 
# High freq. dielectric constant tensor:
#      x y z
#    x 1.620970 0.000000 0.000000 
#    y 0.000000 1.564740 0.000000 
#    z 0.000000 0.000000 1.568370 
# 
# From -- ./inp_files/29982.got.cif
#   From: 2010.03.12/outbox.cif.g09.slc.cpg/sg51_15_cif.got.tgz:29982.got - 2010.04.16 13:43:02.
