data_PCOD8207146
_publ_section_title
;
Structure prediction by ZEFSAII (Michael W. Deem and Ramdas Pophale) SiO2 
 PCOD8207146
Probable space group: P M M A
;
_chemical_formula_sum "Si O2"
_cell_formula_units_Z 48
_cell_length_a 16.647204
_cell_length_b 18.907514
_cell_length_c 7.834562
_cell_angle_alpha 90.000000
_cell_angle_beta 90.000000
_cell_angle_gamma 90.000000
_cell_volume 2465.985133
_symmetry_space_group_name_H-M "P M M A"
_symmetry_group_IT_number 51
_symmetry_cell_setting 'orthorhombic'
loop_
_space_group_symop_operation_xyz
x,y,z
1/2-x,-y,z
1/2+x,-y,-z
-x,y,-z
-x,-y,-z
1/2+x,y,-z
1/2-x,y,z
x,-y,z
loop_
_atom_site_type_symbol
_atom_site_label
_atom_site_fract_x
_atom_site_fract_y
_atom_site_fract_z
Si Si1 0.341667 0.326169 0.785447
Si Si2 0.925348 0.698884 0.887082
Si Si3 0.015866 0.420495 0.697893
Si Si4 0.844120 0.175021 0.716682
Si Si5 0.844256 0.824542 0.333797
Si Si6 0.154837 0.921123 0.968651
O O1 0.250000 0.342204 0.736896
O O2 0.394311 0.392282 0.726946
O O3 0.375622 0.255485 0.691964
O O4 0.349730 0.315370 0.989171
O O5 0.949958 0.626370 0.794957
O O6 0.898154 0.756012 0.748205
O O7 0.000000 0.727437 0.000000
O O8 0.009812 0.500000 0.770286
O O9 0.000000 0.418720 0.500000
O O10 0.750000 0.194379 0.731924
O O11 0.864427 0.148257 0.524833
O O12 0.868865 0.114943 0.851890
O O13 0.750000 0.822427 0.299571
O O14 0.882064 0.877080 0.191358
O O15 0.250000 0.925328 0.951767
O O16 0.117865 0.000000 0.965505
#
# Coordination Sequence:
#
# PCOD8207146 Si02
#       6
#     8   8   8   8   8   8
#     4  10  19  34  57  82 109 143 188 236 278 325
#     4  10  20  33  55  80 105 141 181 225 276 331
#     4  10  22  39  56  79 113 148 184 228 280 339
#     4  10  18  31  53  78 106 140 184 229 269 322
#     4   9  17  29  49  77 106 138 177 223 269 317
#     4   9  17  29  47  75 110 141 173 222 280 329
#
# _framework density 19.464836999999999
#
# number of rings (size 3 to 8) (size 9 to 14) (size 15 to 20)
#    0.000    2.333    1.667    1.500    0.000    4.000 
#    0.000    4.167    0.000    4.000    0.000    1.167 
#    0.000    0.000    0.000    0.000    0.000    0.000 
#
# Total GULP energy -595088.038098 kJ/mol
# GULP energy per Si atom -12397.667460 kJ/mol
# Density = 1.942053 g / cm^3
# Si number density = 19.464837 Si / 1000 Ang^3
#
#
#
# Elastic Constant Matrix: (Units=GPa)
#
#
# Indices 1 2 3 4 5 6 
#
# 1 39.0717 33.9014 22.4731 0.0000 0.0000 0.0000
# 2 33.9014 145.9952 70.4103 0.0000 0.0000 0.0000
# 3 22.4731 70.4103 142.7228 0.0000 0.0000 0.0000
# 4 0.0000 0.0000 0.0000 28.3325 0.0000 0.0000
# 5 0.0000 0.0000 0.0000 0.0000 20.6010 0.0000
# 6 0.0000 0.0000 0.0000 0.0000 0.0000 24.8634
#
#
#
# Elastic Compliance Matrix: (Units=1/GPa)
#
#
# Indices 1 2 3 4 5 6 
#
# 1 0.032410 -0.006646 -0.001825 0.000000 0.000000 0.000000
# 2 -0.006646 0.010351 -0.004060 0.000000 0.000000 0.000000
# 3 -0.001825 -0.004060 0.009297 0.000000 0.000000 0.000000
# 4 0.000000 0.000000 0.000000 0.035295 0.000000 0.000000
# 5 0.000000 0.000000 0.000000 0.000000 0.048541 0.000000
# 6 0.000000 0.000000 0.000000 0.000000 0.000000 0.040220
#
#
# Mechanical properties :
#
#
# Convention : Reuss Voigt Hill
#
# Bulk Modulus (GPa) = 37.04167 64.59546 50.81856
# Shear Modulus (GPa) = 23.78984 28.15970 25.97477
#
# Velocity S-wave (km/s) = 3.49978 3.80767 3.65697
# Velocity P-wave (km/s) = 5.95001 7.25182 6.63293
#
# Compressibility (1/GPa) = 0.02699663
#
# Stress axis : x y z
#
# Youngs Moduli (GPa) = 30.85472 96.61075 107.56380
#
# Poissons Ratio (x) = 0.64207 0.19626
# Poissons Ratio (y) = 0.20506 0.43670
# Poissons Ratio (z) = 0.05630 0.39224
#
# Static dielectric constant tensor:
#      x y z
#    x 3.224680 0.000000 0.000000 
#    y 0.000000 3.699740 0.000000 
#    z 0.000000 0.000000 3.712620 
# 
# 
# High freq. dielectric constant tensor:
#      x y z
#    x 1.727180 0.000000 0.000000 
#    y 0.000000 1.748720 0.000000 
#    z 0.000000 0.000000 1.771080 
# 
# From -- ./inp_files/9818.got.cif
#   From: 2010.03.12/outbox.cif.g09.slc.cpg/sg51_5_cif.got.tgz:9818.got - 2010.04.16 13:43:02.
