data_PCOD8207293
_publ_section_title
;
Structure prediction by ZEFSAII (Michael W. Deem and Ramdas Pophale) SiO2 
 PCOD8207293
Probable space group: P M M A
;
_chemical_formula_sum "Si O2"
_cell_formula_units_Z 64
_cell_length_a 19.288740
_cell_length_b 8.996855
_cell_length_c 20.555943
_cell_angle_alpha 90.000000
_cell_angle_beta 90.000000
_cell_angle_gamma 90.000000
_cell_volume 3567.237173
_symmetry_space_group_name_H-M "P M M A"
_symmetry_group_IT_number 51
_symmetry_cell_setting 'orthorhombic'
loop_
_space_group_symop_operation_xyz
x,y,z
1/2-x,-y,z
1/2+x,-y,-z
-x,y,-z
-x,-y,-z
1/2+x,y,-z
1/2-x,y,z
x,-y,z
loop_
_atom_site_type_symbol
_atom_site_label
_atom_site_fract_x
_atom_site_fract_y
_atom_site_fract_z
Si Si1 0.463054 0.825661 0.063754
Si Si2 0.825575 0.323379 0.493961
Si Si3 0.539239 0.824871 0.683406
Si Si4 0.170995 0.674784 0.864284
Si Si5 0.672844 0.172038 0.000392
Si Si6 0.541997 0.176653 0.189250
Si Si7 0.962251 0.331141 0.431482
Si Si8 0.328467 0.325702 0.359195
O O1 0.495420 0.759061 0.129621
O O2 0.476847 0.000000 0.065902
O O3 0.500000 0.757175 0.000000
O O4 0.380857 0.789410 0.057643
O O5 0.750000 0.267781 0.469475
O O6 0.827266 0.500000 0.498018
O O7 0.884100 0.269218 0.443425
O O8 0.839203 0.265340 0.567201
O O9 0.495461 0.769396 0.745254
O O10 0.499479 0.775131 0.618921
O O11 0.616477 0.756588 0.686943
O O12 0.547119 0.000000 0.683458
O O13 0.250000 0.715907 0.844613
O O14 0.158982 0.500000 0.862709
O O15 0.154423 0.732352 0.936496
O O16 0.118667 0.752148 0.813611
O O17 0.750000 0.207858 0.974473
O O18 0.665339 0.000000 0.021161
O O19 0.549674 0.000000 0.187408
O O20 0.962205 0.500000 0.404515
O O21 0.000000 0.325647 0.500000
O O22 0.250000 0.290776 0.335691
O O23 0.343757 0.500000 0.355819
#
# Coordination Sequence:
#
# PCOD8207293 Si02
#       8
#     8   8   8   8   8   8   8   8
#     4   9  15  28  52  76  97 126 172 221 249 286
#     4   8  14  27  50  78 101 125 167 220 261 294
#     4  11  23  35  50  77 113 143 169 212 268 316
#     4  10  20  33  51  77 105 131 166 215 265 312
#     4   9  16  28  50  77 101 130 169 212 260 309
#     4  10  21  37  53  73 104 143 179 211 256 312
#     4  10  18  32  55  78 101 135 179 219 257 305
#     4   9  17  33  57  79 101 134 177 216 250 303
#
# _framework density 17.941054000000001
#
# number of rings (size 3 to 8) (size 9 to 14) (size 15 to 20)
#    0.000    2.500    2.500    1.500    0.000    2.250 
#    0.000    2.500    0.000    4.875    0.000    1.750 
#    0.000    0.000    0.000    0.000    0.000    0.000 
#
# Total GULP energy -793319.330208 kJ/mol
# GULP energy per Si atom -12395.614534 kJ/mol
# Density = 1.790022 g / cm^3
# Si number density = 17.941054 Si / 1000 Ang^3
#
#
#
# Elastic Constant Matrix: (Units=GPa)
#
#
# Indices 1 2 3 4 5 6 
#
# 1 153.0184 38.4634 55.5711 0.0000 0.0000 0.0000
# 2 38.4634 41.0140 26.3829 0.0000 0.0000 0.0000
# 3 55.5711 26.3829 76.4769 0.0000 0.0000 0.0000
# 4 0.0000 0.0000 0.0000 10.1699 0.0000 0.0000
# 5 0.0000 0.0000 0.0000 0.0000 30.2454 0.0000
# 6 0.0000 0.0000 0.0000 0.0000 0.0000 24.2739
#
#
#
# Elastic Compliance Matrix: (Units=1/GPa)
#
#
# Indices 1 2 3 4 5 6 
#
# 1 0.009903 -0.005987 -0.005131 0.000000 0.000000 0.000000
# 2 -0.005987 0.034955 -0.007708 0.000000 0.000000 0.000000
# 3 -0.005131 -0.007708 0.019463 0.000000 0.000000 0.000000
# 4 0.000000 0.000000 0.000000 0.098329 0.000000 0.000000
# 5 0.000000 0.000000 0.000000 0.000000 0.033063 0.000000
# 6 0.000000 0.000000 0.000000 0.000000 0.000000 0.041197
#
#
# Mechanical properties :
#
#
# Convention : Reuss Voigt Hill
#
# Bulk Modulus (GPa) = 37.49609 56.81602 47.15606
# Shear Modulus (GPa) = 17.63961 22.94396 20.29179
#
# Velocity S-wave (km/s) = 3.13900 3.57998 3.36672
# Velocity P-wave (km/s) = 5.83804 6.98751 6.43848
#
# Compressibility (1/GPa) = 0.02666945
#
# Stress axis : x y z
#
# Youngs Moduli (GPa) = 100.97505 28.60806 51.37873
#
# Poissons Ratio (x) = 0.17128 0.26361
# Poissons Ratio (y) = 0.60455 0.39605
# Poissons Ratio (z) = 0.51808 0.22052
#
# Static dielectric constant tensor:
#      x y z
#    x 3.872380 0.000000 0.000000 
#    y 0.000000 3.020020 0.000000 
#    z 0.000000 0.000000 3.175990 
# 
# 
# High freq. dielectric constant tensor:
#      x y z
#    x 1.717910 0.000000 0.000000 
#    y 0.000000 1.663210 0.000000 
#    z 0.000000 0.000000 1.661670 
# 
# From -- ./inp_files/30518.got.cif
#   From: 2010.03.12/outbox.cif.g09.slc.cpg/sg51_16_cif.got.tgz:30518.got - 2010.04.16 13:43:02.
