data_PCOD8207024
_publ_section_title
;
Structure prediction by ZEFSAII (Michael W. Deem and Ramdas Pophale) SiO2 
 PCOD8207024
Probable space group: P M M A
;
_chemical_formula_sum "Si O2"
_cell_formula_units_Z 64
_cell_length_a 18.868284
_cell_length_b 14.355860
_cell_length_c 15.146048
_cell_angle_alpha 90.000000
_cell_angle_beta 90.000000
_cell_angle_gamma 90.000000
_cell_volume 4102.616740
_symmetry_space_group_name_H-M "P M M A"
_symmetry_group_IT_number 51
_symmetry_cell_setting 'orthorhombic'
loop_
_space_group_symop_operation_xyz
x,y,z
1/2-x,-y,z
1/2+x,-y,-z
-x,y,-z
-x,-y,-z
1/2+x,y,-z
1/2-x,y,z
x,-y,z
loop_
_atom_site_type_symbol
_atom_site_label
_atom_site_fract_x
_atom_site_fract_y
_atom_site_fract_z
Si Si1 0.562159 0.609530 0.139524
Si Si2 0.170626 0.388818 0.511258
Si Si3 0.411254 0.610423 0.339643
Si Si4 0.609053 0.898303 0.048954
Si Si5 0.330867 0.290833 0.987344
Si Si6 0.032532 0.101632 0.137479
Si Si7 0.416157 0.293151 0.162602
Si Si8 0.429585 0.390783 0.662182
O O1 0.548597 0.500000 0.129996
O O2 0.486995 0.659448 0.122567
O O3 0.591038 0.634610 0.237468
O O4 0.620577 0.640825 0.069854
O O5 0.250000 0.349543 0.519024
O O6 0.170213 0.500000 0.513451
O O7 0.137751 0.353764 0.419034
O O8 0.125802 0.346006 0.592993
O O9 0.407901 0.500000 0.328339
O O10 0.384958 0.654438 0.247679
O O11 0.491228 0.644762 0.358946
O O12 0.552269 0.885030 0.127956
O O13 0.646656 0.000000 0.058442
O O14 0.665339 0.814501 0.051082
O O15 0.566547 0.893908 0.958486
O O16 0.250000 0.325092 0.981521
O O17 0.355627 0.295317 0.088621
O O18 0.065279 0.186992 0.193013
O O19 0.048689 0.000000 0.181296
O O20 0.427691 0.500000 0.646962
#
# Coordination Sequence:
#
# PCOD8207024 Si02
#       8
#     8   8   8   8   8   8   8   8
#     4  10  20  33  47  61  81 116 159 191 214 249
#     4   9  16  26  42  63  86 110 135 171 221 265
#     4   9  17  28  43  63  85 112 146 177 205 248
#     4   8  14  27  45  63  82 105 138 180 225 265
#     4  11  22  31  41  62  90 119 149 182 219 257
#     4   8  13  24  46  68  81 101 138 184 224 254
#     4  10  18  31  47  62  85 118 151 181 212 256
#     4   8  15  28  45  61  77 103 142 184 221 252
#
# _framework density 15.5998
#
# number of rings (size 3 to 8) (size 9 to 14) (size 15 to 20)
#    0.000    2.875    1.250    2.625    0.000    4.500 
#    0.000    1.250    0.000    0.000    0.000    0.000 
#    0.000    9.000    0.000    1.375    0.000    0.125 
#
# Total GULP energy -793148.644665 kJ/mol
# GULP energy per Si atom -12392.947573 kJ/mol
# Density = 1.556429 g / cm^3
# Si number density = 15.599800 Si / 1000 Ang^3
#
#
#
# Elastic Constant Matrix: (Units=GPa)
#
#
# Indices 1 2 3 4 5 6 
#
# 1 63.2344 13.1860 22.0892 0.0000 0.0000 0.0000
# 2 13.1860 58.8980 15.4546 0.0000 0.0000 0.0000
# 3 22.0892 15.4546 54.2078 0.0000 0.0000 0.0000
# 4 0.0000 0.0000 0.0000 5.5783 0.0000 0.0000
# 5 0.0000 0.0000 0.0000 0.0000 15.4644 0.0000
# 6 0.0000 0.0000 0.0000 0.0000 0.0000 12.9714
#
#
#
# Elastic Compliance Matrix: (Units=1/GPa)
#
#
# Indices 1 2 3 4 5 6 
#
# 1 0.018740 -0.002369 -0.006961 0.000000 0.000000 0.000000
# 2 -0.002369 0.018651 -0.004352 0.000000 0.000000 0.000000
# 3 -0.006961 -0.004352 0.022525 0.000000 0.000000 0.000000
# 4 0.000000 0.000000 0.000000 0.179267 0.000000 0.000000
# 5 0.000000 0.000000 0.000000 0.000000 0.064665 0.000000
# 6 0.000000 0.000000 0.000000 0.000000 0.000000 0.077093
#
#
# Mechanical properties :
#
#
# Convention : Reuss Voigt Hill
#
# Bulk Modulus (GPa) = 30.72037 30.86663 30.79350
# Shear Modulus (GPa) = 11.92880 15.17684 13.55282
#
# Velocity S-wave (km/s) = 2.76828 3.12250 2.95071
# Velocity P-wave (km/s) = 5.47297 5.72970 5.60281
#
# Compressibility (1/GPa) = 0.03255169
#
# Stress axis : x y z
#
# Youngs Moduli (GPa) = 53.36246 53.61699 44.39549
#
# Poissons Ratio (x) = 0.12701 0.30903
# Poissons Ratio (y) = 0.12641 0.19321
# Poissons Ratio (z) = 0.37145 0.23334
#
# Static dielectric constant tensor:
#      x y z
#    x 2.919190 0.000000 0.000000 
#    y 0.000000 3.041390 0.000000 
#    z 0.000000 0.000000 2.911090 
# 
# 
# High freq. dielectric constant tensor:
#      x y z
#    x 1.585790 0.000000 0.000000 
#    y 0.000000 1.573910 0.000000 
#    z 0.000000 0.000000 1.576770 
# 
# From -- ./inp_files/25396.got.cif
#   From: 2010.03.12/outbox.cif.g09.slc.cpg/sg51_13_cif.got.tgz:25396.got - 2010.04.16 13:43:02.
