data_PCOD8207958
_publ_section_title
;
Structure prediction by ZEFSAII (Michael W. Deem and Ramdas Pophale) SiO2 
 PCOD8207958
Probable space group: P M M A
;
_chemical_formula_sum "Si O2"
_cell_formula_units_Z 64
_cell_length_a 15.985406
_cell_length_b 14.606419
_cell_length_c 16.738870
_cell_angle_alpha 90.000000
_cell_angle_beta 90.000000
_cell_angle_gamma 90.000000
_cell_volume 3908.351022
_symmetry_space_group_name_H-M "P M M A"
_symmetry_group_IT_number 51
_symmetry_cell_setting 'orthorhombic'
loop_
_space_group_symop_operation_xyz
x,y,z
1/2-x,-y,z
1/2+x,-y,-z
-x,y,-z
-x,-y,-z
1/2+x,y,-z
1/2-x,y,z
x,-y,z
loop_
_atom_site_type_symbol
_atom_site_label
_atom_site_fract_x
_atom_site_fract_y
_atom_site_fract_z
Si Si1 0.500455 0.390712 0.909700
Si Si2 0.158497 0.393837 0.814338
Si Si3 0.153924 0.099234 0.334395
Si Si4 0.153234 0.289486 0.515527
Si Si5 0.902071 0.098686 0.488341
Si Si6 0.906633 0.289138 0.666403
Si Si7 0.073140 0.605196 0.652735
Si Si8 0.842644 0.393902 0.808328
O O1 0.499887 0.500000 0.907542
O O2 0.417758 0.350298 0.865537
O O3 0.585176 0.354408 0.866808
O O4 0.500000 0.353653 0.000000
O O5 0.250000 0.350034 0.834934
O O6 0.161757 0.500000 0.836421
O O7 0.143745 0.381073 0.719823
O O8 0.250000 0.120772 0.312223
O O9 0.147307 0.092703 0.429280
O O10 0.095640 0.182594 0.304271
O O11 0.126597 0.000000 0.297591
O O12 0.250000 0.310812 0.516901
O O13 0.133869 0.189218 0.555533
O O14 0.120089 0.295873 0.425577
O O15 0.108116 0.367619 0.566484
O O16 0.000000 0.115095 0.500000
O O17 0.887967 0.000000 0.443097
O O18 0.843808 0.345150 0.722370
O O19 0.998041 0.329333 0.678549
O O20 0.042341 0.500000 0.649465
O O21 0.750000 0.378449 0.846226
O O22 0.859732 0.500000 0.792569
#
# Coordination Sequence:
#
# PCOD8207958 Si02
#       8
#     8   8   8   8   8   8   8   8
#     4   9  17  30  47  68  93 120 154 193 232 278
#     4   9  17  31  49  65  85 120 161 196 234 274
#     4   9  17  29  45  65  88 114 146 186 234 286
#     4  11  22  32  44  65  88 118 164 204 238 282
#     4   9  16  28  45  63  84 110 144 190 243 292
#     4  11  19  32  49  65  90 125 160 194 240 284
#     4  11  22  35  47  61  87 124 166 209 241 267
#     4  10  19  30  45  68  98 129 157 187 230 282
#
# _framework density 16.375192999999999
#
# number of rings (size 3 to 8) (size 9 to 14) (size 15 to 20)
#    0.000    2.125    1.250    4.875    0.000    3.500 
#    0.000    2.500    0.000    0.000    0.000    0.000 
#    0.000    0.500    0.000    0.000    0.000    0.875 
#
# Total GULP energy -792996.994447 kJ/mol
# GULP energy per Si atom -12390.578038 kJ/mol
# Density = 1.633792 g / cm^3
# Si number density = 16.375193 Si / 1000 Ang^3
#
#
#
# Elastic Constant Matrix: (Units=GPa)
#
#
# Indices 1 2 3 4 5 6 
#
# 1 114.1137 39.3412 33.4014 0.0000 0.0000 0.0000
# 2 39.3412 68.1370 27.3355 0.0000 0.0000 0.0000
# 3 33.4014 27.3355 72.0712 0.0000 0.0000 0.0000
# 4 0.0000 0.0000 0.0000 3.0562 0.0000 0.0000
# 5 0.0000 0.0000 0.0000 0.0000 15.9749 0.0000
# 6 0.0000 0.0000 0.0000 0.0000 0.0000 19.9679
#
#
#
# Elastic Compliance Matrix: (Units=1/GPa)
#
#
# Indices 1 2 3 4 5 6 
#
# 1 0.011585 -0.005349 -0.003340 0.000000 0.000000 0.000000
# 2 -0.005349 0.019780 -0.005023 0.000000 0.000000 0.000000
# 3 -0.003340 -0.005023 0.017328 0.000000 0.000000 0.000000
# 4 0.000000 0.000000 0.000000 0.327205 0.000000 0.000000
# 5 0.000000 0.000000 0.000000 0.000000 0.062598 0.000000
# 6 0.000000 0.000000 0.000000 0.000000 0.000000 0.050080
#
#
# Mechanical properties :
#
#
# Convention : Reuss Voigt Hill
#
# Bulk Modulus (GPa) = 47.01804 50.49756 48.75780
# Shear Modulus (GPa) = 9.55857 18.08272 13.82064
#
# Velocity S-wave (km/s) = 2.41866 3.32667 2.90832
# Velocity P-wave (km/s) = 6.04774 6.75725 6.41232
#
# Compressibility (1/GPa) = 0.02126843
#
# Stress axis : x y z
#
# Youngs Moduli (GPa) = 86.31885 50.55630 57.70846
#
# Poissons Ratio (x) = 0.27042 0.19276
# Poissons Ratio (y) = 0.46171 0.28989
# Poissons Ratio (z) = 0.28833 0.25396
#
# Static dielectric constant tensor:
#      x y z
#    x 3.343330 0.000000 0.000000 
#    y 0.000000 3.360570 0.000000 
#    z 0.000000 0.000000 2.963510 
# 
# 
# High freq. dielectric constant tensor:
#      x y z
#    x 1.647020 0.000000 0.000000 
#    y 0.000000 1.605420 0.000000 
#    z 0.000000 0.000000 1.585940 
# 
# From -- ./inp_files/29946.got.cif
#   From: 2010.03.12/outbox.cif.g09.slc.cpg/sg51_15_cif.got.tgz:29946.got - 2010.04.16 13:43:02.
