data_PCOD8207952
_publ_section_title
;
Structure prediction by ZEFSAII (Michael W. Deem and Ramdas Pophale) SiO2 
 PCOD8207952
Probable space group: P M M A
;
_chemical_formula_sum "Si O2"
_cell_formula_units_Z 64
_cell_length_a 8.682389
_cell_length_b 24.774674
_cell_length_c 14.872805
_cell_angle_alpha 90.000000
_cell_angle_beta 90.000000
_cell_angle_gamma 90.000000
_cell_volume 3199.190284
_symmetry_space_group_name_H-M "P M M A"
_symmetry_group_IT_number 51
_symmetry_cell_setting 'orthorhombic'
loop_
_space_group_symop_operation_xyz
x,y,z
1/2-x,-y,z
1/2+x,-y,-z
-x,y,-z
-x,-y,-z
1/2+x,y,-z
1/2-x,y,z
x,-y,z
loop_
_atom_site_type_symbol
_atom_site_label
_atom_site_fract_x
_atom_site_fract_y
_atom_site_fract_z
Si Si1 0.924760 0.833833 0.161354
Si Si2 0.570223 0.939875 0.783120
Si Si3 0.568610 0.093862 0.587221
Si Si4 0.428956 0.562873 0.095106
Si Si5 0.568255 0.316450 0.594764
Si Si6 0.426519 0.202995 0.635709
Si Si7 0.430677 0.267197 0.092110
Si Si8 0.932469 0.648179 0.224571
O O1 0.750000 0.831623 0.126735
O O2 0.942752 0.809788 0.259860
O O3 0.980381 0.895966 0.157371
O O4 0.028879 0.796409 0.097532
O O5 0.750000 0.927350 0.792508
O O6 0.520753 0.936706 0.678440
O O7 0.529510 0.000000 0.818111
O O8 0.500000 0.062292 0.500000
O O9 0.750000 0.098715 0.579494
O O10 0.491649 0.152555 0.581903
O O11 0.250000 0.578349 0.094046
O O12 0.456482 0.500000 0.113183
O O13 0.512932 0.594216 0.174885
O O14 0.500000 0.580507 0.000000
O O15 0.500000 0.336855 0.500000
O O16 0.750000 0.324399 0.594852
O O17 0.528737 0.253970 0.609896
O O18 0.495704 0.352756 0.673945
O O19 0.250000 0.214556 0.608750
O O20 0.250000 0.276579 0.093320
O O21 0.505358 0.298584 0.175163
O O22 0.500000 0.291150 0.000000
O O23 0.750000 0.651165 0.226917
#
# Coordination Sequence:
#
# PCOD8207952 Si02
#       8
#     8   8   8   8   8   8   8   8
#     4  10  20  35  56  81 111 143 183 232 286 348
#     4   9  19  35  53  72  97 135 182 229 283 348
#     4  10  19  30  45  67  97 132 176 227 284 343
#     4  10  21  39  64  95 130 169 212 255 302 357
#     4  12  24  38  57  82 116 159 206 252 301 353
#     4  10  19  33  52  74 105 143 187 235 286 344
#     4  12  24  39  61  89 123 159 194 235 292 357
#     4  12  24  40  61  90 128 165 206 252 300 354
#
# _framework density 20.005063
#
# number of rings (size 3 to 8) (size 9 to 14) (size 15 to 20)
#    0.000    1.375    1.250    5.625    0.000    2.750 
#    0.000    0.000    0.000    0.750    0.000    0.000 
#    0.000    0.000    0.000    0.000    0.000    0.000 
#
# Total GULP energy -793757.495201 kJ/mol
# GULP energy per Si atom -12402.460863 kJ/mol
# Density = 1.995953 g / cm^3
# Si number density = 20.005063 Si / 1000 Ang^3
#
#
#
# Elastic Constant Matrix: (Units=GPa)
#
#
# Indices 1 2 3 4 5 6 
#
# 1 152.3174 44.0316 53.1535 0.0000 0.0000 0.0000
# 2 44.0316 87.8854 38.6984 0.0000 0.0000 0.0000
# 3 53.1535 38.6984 96.8714 0.0000 0.0000 0.0000
# 4 0.0000 0.0000 0.0000 15.0571 0.0000 0.0000
# 5 0.0000 0.0000 0.0000 0.0000 33.0125 0.0000
# 6 0.0000 0.0000 0.0000 0.0000 0.0000 29.2779
#
#
#
# Elastic Compliance Matrix: (Units=1/GPa)
#
#
# Indices 1 2 3 4 5 6 
#
# 1 0.008622 -0.002714 -0.003647 0.000000 0.000000 0.000000
# 2 -0.002714 0.014662 -0.004368 0.000000 0.000000 0.000000
# 3 -0.003647 -0.004368 0.014069 0.000000 0.000000 0.000000
# 4 0.000000 0.000000 0.000000 0.066414 0.000000 0.000000
# 5 0.000000 0.000000 0.000000 0.000000 0.030292 0.000000
# 6 0.000000 0.000000 0.000000 0.000000 0.000000 0.034155
#
#
# Mechanical properties :
#
#
# Convention : Reuss Voigt Hill
#
# Bulk Modulus (GPa) = 62.91190 67.64902 65.28046
# Shear Modulus (GPa) = 25.64500 28.88222 27.26361
#
# Velocity S-wave (km/s) = 3.58428 3.80379 3.69567
# Velocity P-wave (km/s) = 6.97465 7.29254 7.13536
#
# Compressibility (1/GPa) = 0.01589524
#
# Stress axis : x y z
#
# Youngs Moduli (GPa) = 115.97588 68.20573 71.07877
#
# Poissons Ratio (x) = 0.18512 0.25922
# Poissons Ratio (y) = 0.31477 0.31046
# Poissons Ratio (z) = 0.42296 0.29791
#
# Static dielectric constant tensor:
#      x y z
#    x 3.703890 0.000000 0.000000 
#    y 0.000000 3.512360 0.000000 
#    z 0.000000 0.000000 3.716160 
# 
# 
# High freq. dielectric constant tensor:
#      x y z
#    x 1.793310 0.000000 0.000000 
#    y 0.000000 1.762570 0.000000 
#    z 0.000000 0.000000 1.775890 
# 
# From -- ./inp_files/22336.got.cif
#   From: 2010.03.12/outbox.cif.g09.slc.cpg/sg51_12_cif.got.tgz:22336.got - 2010.04.16 13:43:02.
