data_PCOD8207151
_publ_section_title
;
Structure prediction by ZEFSAII (Michael W. Deem and Ramdas Pophale) SiO2 
 PCOD8207151
Probable space group: P M M A
;
_chemical_formula_sum "Si O2"
_cell_formula_units_Z 64
_cell_length_a 8.868353
_cell_length_b 15.186492
_cell_length_c 24.765648
_cell_angle_alpha 90.000000
_cell_angle_beta 90.000000
_cell_angle_gamma 90.000000
_cell_volume 3335.416964
_symmetry_space_group_name_H-M "P M M A"
_symmetry_group_IT_number 51
_symmetry_cell_setting 'orthorhombic'
loop_
_space_group_symop_operation_xyz
x,y,z
1/2-x,-y,z
1/2+x,-y,-z
-x,y,-z
-x,-y,-z
1/2+x,y,-z
1/2-x,y,z
x,-y,z
loop_
_atom_site_type_symbol
_atom_site_label
_atom_site_fract_x
_atom_site_fract_y
_atom_site_fract_z
Si Si1 0.424845 0.365871 0.209299
Si Si2 0.422408 0.597070 0.897398
Si Si3 0.924683 0.224915 0.356976
Si Si4 0.424970 0.402443 0.330695
Si Si5 0.572103 0.765354 0.944052
Si Si6 0.927440 0.899826 0.556310
Si Si7 0.075697 0.190810 0.765258
Si Si8 0.923554 0.901623 0.853282
O O1 0.250000 0.377110 0.194729
O O2 0.522714 0.413853 0.164206
O O3 0.464086 0.406818 0.267335
O O4 0.467727 0.263832 0.208868
O O5 0.250000 0.629576 0.898276
O O6 0.437416 0.500000 0.924154
O O7 0.522538 0.666248 0.930054
O O8 0.750000 0.222228 0.372648
O O9 0.955324 0.182117 0.298450
O O10 0.977618 0.326916 0.359815
O O11 0.017364 0.166227 0.398116
O O12 0.250000 0.378622 0.339046
O O13 0.461810 0.500000 0.354746
O O14 0.750000 0.767169 0.950286
O O15 0.516979 0.833428 0.898297
O O16 0.500000 0.796265 0.000000
O O17 0.750000 0.891370 0.550498
O O18 0.000000 0.870652 0.500000
O O19 0.975345 0.000000 0.571025
O O20 0.250000 0.213970 0.775289
O O21 0.024364 0.104778 0.798436
O O22 0.750000 0.882996 0.838522
O O23 0.944336 0.000000 0.876238
#
# Coordination Sequence:
#
# PCOD8207151 Si02
#       8
#     8   8   8   8   8   8   8   8
#     4  10  18  31  53  80 111 148 187 228 276 329
#     4  11  23  37  56  83 113 144 180 225 275 332
#     4  10  21  35  54  84 120 157 195 238 284 336
#     4   9  18  32  51  78 114 155 197 238 280 331
#     4  11  24  42  63  83 107 142 181 230 282 335
#     4  10  21  38  61  87 115 151 195 243 293 343
#     4  10  20  34  54  82 117 153 189 228 276 330
#     4  10  22  40  61  85 112 144 183 227 279 339
#
# _framework density 19.188006000000001
#
# number of rings (size 3 to 8) (size 9 to 14) (size 15 to 20)
#    0.000    1.875    1.250    2.625    0.000    6.250 
#    0.000    2.500    0.000    0.375    0.000    0.000 
#    0.000    0.000    0.000    0.000    0.000    0.000 
#
# Total GULP energy -793603.893494 kJ/mol
# GULP energy per Si atom -12400.060836 kJ/mol
# Density = 1.914433 g / cm^3
# Si number density = 19.188006 Si / 1000 Ang^3
#
#
#
# Elastic Constant Matrix: (Units=GPa)
#
#
# Indices 1 2 3 4 5 6 
#
# 1 72.1029 36.9688 41.0137 0.0000 0.0000 0.0000
# 2 36.9688 105.3877 53.7794 0.0000 0.0000 0.0000
# 3 41.0137 53.7794 93.1797 0.0000 0.0000 0.0000
# 4 0.0000 0.0000 0.0000 2.2196 0.0000 0.0000
# 5 0.0000 0.0000 0.0000 0.0000 33.8757 0.0000
# 6 0.0000 0.0000 0.0000 0.0000 0.0000 25.6715
#
#
#
# Elastic Compliance Matrix: (Units=1/GPa)
#
#
# Indices 1 2 3 4 5 6 
#
# 1 0.019353 -0.003461 -0.006521 0.000000 0.000000 0.000000
# 2 -0.003461 0.014069 -0.006597 0.000000 0.000000 0.000000
# 3 -0.006521 -0.006597 0.017409 0.000000 0.000000 0.000000
# 4 0.000000 0.000000 0.000000 0.450534 0.000000 0.000000
# 5 0.000000 0.000000 0.000000 0.000000 0.029520 0.000000
# 6 0.000000 0.000000 0.000000 0.000000 0.000000 0.038954
#
#
# Mechanical properties :
#
#
# Convention : Reuss Voigt Hill
#
# Bulk Modulus (GPa) = 56.57918 59.35489 57.96703
# Shear Modulus (GPa) = 8.21171 21.61393 14.91282
#
# Velocity S-wave (km/s) = 2.07096 3.35987 2.79085
# Velocity P-wave (km/s) = 5.93879 6.78617 6.37658
#
# Compressibility (1/GPa) = 0.01767435
#
# Stress axis : x y z
#
# Youngs Moduli (GPa) = 51.67222 71.07711 57.44050
#
# Poissons Ratio (x) = 0.24602 0.37454
# Poissons Ratio (y) = 0.17885 0.37892
# Poissons Ratio (z) = 0.33693 0.46887
#
# Static dielectric constant tensor:
#      x y z
#    x 3.520340 0.000000 0.000000 
#    y 0.000000 3.611330 0.000000 
#    z 0.000000 0.000000 3.372850 
# 
# 
# High freq. dielectric constant tensor:
#      x y z
#    x 1.753860 0.000000 0.000000 
#    y 0.000000 1.749160 0.000000 
#    z 0.000000 0.000000 1.725180 
# 
# From -- ./inp_files/34906.got.cif
#   From: 2010.03.12/outbox.cif.g09.slc.cpg/sg51_18_cif.got.tgz:34906.got - 2010.04.16 13:43:02.
