data_PCOD8207706
_publ_section_title
;
Structure prediction by ZEFSAII (Michael W. Deem and Ramdas Pophale) SiO2 
 PCOD8207706
Probable space group: P M M A
;
_chemical_formula_sum "Si O2"
_cell_formula_units_Z 48
_cell_length_a 9.015738
_cell_length_b 13.639653
_cell_length_c 23.748850
_cell_angle_alpha 90.000000
_cell_angle_beta 90.000000
_cell_angle_gamma 90.000000
_cell_volume 2920.432607
_symmetry_space_group_name_H-M "P M M A"
_symmetry_group_IT_number 51
_symmetry_cell_setting 'orthorhombic'
loop_
_space_group_symop_operation_xyz
x,y,z
1/2-x,-y,z
1/2+x,-y,-z
-x,y,-z
-x,-y,-z
1/2+x,y,-z
1/2-x,y,z
x,-y,z
loop_
_atom_site_type_symbol
_atom_site_label
_atom_site_fract_x
_atom_site_fract_y
_atom_site_fract_z
Si Si1 0.924778 0.613033 0.668042
Si Si2 0.077157 0.716758 0.770758
Si Si3 0.422288 0.112915 0.170450
Si Si4 0.421971 0.387855 0.885961
Si Si5 0.422947 0.783439 0.056182
Si Si6 0.417112 0.616584 0.554816
O O1 0.750000 0.626628 0.663527
O O2 0.968211 0.500000 0.679197
O O3 0.987018 0.678968 0.717711
O O4 0.996284 0.651677 0.610221
O O5 0.250000 0.720592 0.755739
O O6 0.043526 0.643624 0.822142
O O7 0.020997 0.825414 0.786110
O O8 0.250000 0.134766 0.182392
O O9 0.462127 0.141989 0.106436
O O10 0.462483 0.000000 0.179518
O O11 0.250000 0.371219 0.899999
O O12 0.470034 0.500000 0.893213
O O13 0.517509 0.324899 0.929518
O O14 0.250000 0.776092 0.044827
O O15 0.500000 0.824343 0.000000
O O16 0.500000 0.659728 0.500000
O O17 0.250000 0.658089 0.556446
O O18 0.415647 0.500000 0.551713
#
# Coordination Sequence:
#
# PCOD8207706 Si02
#       6
#     8   8   8   8   8   8
#     4  10  19  29  43  65  94 129 165 196 228 269
#     4  10  19  31  48  70  94 118 149 190 232 275
#     4   9  19  36  54  70  90 116 145 181 228 279
#     4   9  18  32  48  65  88 119 151 183 221 264
#     4  10  20  33  49  69  91 115 145 181 221 267
#     4   9  16  26  40  59  87 124 164 202 236 269
#
# _framework density 16.435921
#
# number of rings (size 3 to 8) (size 9 to 14) (size 15 to 20)
#    0.000    2.500    0.000    2.500    0.000    6.333 
#    0.000    0.000    0.000    0.000    0.000    0.000 
#    0.000    0.667    0.000    2.500    0.000    3.833 
#
# Total GULP energy -595320.440087 kJ/mol
# GULP energy per Si atom -12402.509168 kJ/mol
# Density = 1.639851 g / cm^3
# Si number density = 16.435921 Si / 1000 Ang^3
#
#
#
# Elastic Constant Matrix: (Units=GPa)
#
#
# Indices 1 2 3 4 5 6 
#
# 1 90.9998 31.4924 55.4626 0.0000 0.0000 0.0000
# 2 31.4924 63.5762 27.8397 0.0000 0.0000 0.0000
# 3 55.4626 27.8397 108.2366 0.0000 0.0000 0.0000
# 4 0.0000 0.0000 0.0000 13.0267 0.0000 0.0000
# 5 0.0000 0.0000 0.0000 0.0000 35.0362 0.0000
# 6 0.0000 0.0000 0.0000 0.0000 0.0000 21.7680
#
#
#
# Elastic Compliance Matrix: (Units=1/GPa)
#
#
# Indices 1 2 3 4 5 6 
#
# 1 0.017446 -0.005327 -0.007570 0.000000 0.000000 0.000000
# 2 -0.005327 0.019352 -0.002248 0.000000 0.000000 0.000000
# 3 -0.007570 -0.002248 0.013696 0.000000 0.000000 0.000000
# 4 0.000000 0.000000 0.000000 0.076765 0.000000 0.000000
# 5 0.000000 0.000000 0.000000 0.000000 0.028542 0.000000
# 6 0.000000 0.000000 0.000000 0.000000 0.000000 0.045939
#
#
# Mechanical properties :
#
#
# Convention : Reuss Voigt Hill
#
# Bulk Modulus (GPa) = 49.49226 54.71133 52.10180
# Shear Modulus (GPa) = 20.94112 23.83405 22.38758
#
# Velocity S-wave (km/s) = 3.57334 3.81217 3.69469
# Velocity P-wave (km/s) = 6.87041 7.26201 7.06893
#
# Compressibility (1/GPa) = 0.02020518
#
# Stress axis : x y z
#
# Youngs Moduli (GPa) = 57.31940 51.67333 73.01422
#
# Poissons Ratio (x) = 0.27528 0.55268
# Poissons Ratio (y) = 0.30535 0.16413
# Poissons Ratio (z) = 0.43388 0.11615
#
# Static dielectric constant tensor:
#      x y z
#    x 3.210150 0.000000 0.000000 
#    y 0.000000 2.840380 0.000000 
#    z 0.000000 0.000000 3.106590 
# 
# 
# High freq. dielectric constant tensor:
#      x y z
#    x 1.646890 0.000000 0.000000 
#    y 0.000000 1.594610 0.000000 
#    z 0.000000 0.000000 1.631490 
# 
# From -- ./inp_files/31567.got.cif
#   From: 2010.03.12/outbox.cif.g09.slc.cpg/sg51_16_cif.got.tgz:31567.got - 2010.04.16 13:43:02.
