data_PCOD8207662
_publ_section_title
;
Structure prediction by ZEFSAII (Michael W. Deem and Ramdas Pophale) SiO2 
 PCOD8207662
Probable space group: P M M A
;
_chemical_formula_sum "Si O2"
_cell_formula_units_Z 56
_cell_length_a 17.454477
_cell_length_b 9.189077
_cell_length_c 20.510616
_cell_angle_alpha 90.000000
_cell_angle_beta 90.000000
_cell_angle_gamma 90.000000
_cell_volume 3289.708635
_symmetry_space_group_name_H-M "P M M A"
_symmetry_group_IT_number 51
_symmetry_cell_setting 'orthorhombic'
loop_
_space_group_symop_operation_xyz
x,y,z
1/2-x,-y,z
1/2+x,-y,-z
-x,y,-z
-x,-y,-z
1/2+x,y,-z
1/2-x,y,z
x,-y,z
loop_
_atom_site_type_symbol
_atom_site_label
_atom_site_fract_x
_atom_site_fract_y
_atom_site_fract_z
Si Si1 0.926573 0.336807 0.954994
Si Si2 0.666647 0.335588 0.360641
Si Si3 0.385106 0.162867 0.526865
Si Si4 0.337710 0.831297 0.941551
Si Si5 0.479063 0.327311 0.715741
Si Si6 0.455574 0.164633 0.397818
Si Si7 0.480376 0.828199 0.852492
O O1 0.902315 0.500000 0.932580
O O2 0.949250 0.235647 0.894299
O O3 0.856674 0.263226 0.994333
O O4 0.000000 0.347326 0.000000
O O5 0.750000 0.321193 0.326923
O O6 0.643551 0.500000 0.375554
O O7 0.672375 0.260223 0.431316
O O8 0.603607 0.273163 0.311050
O O9 0.392516 0.216428 0.451464
O O10 0.465245 0.169336 0.564005
O O11 0.352722 0.000000 0.526245
O O12 0.250000 0.798145 0.919483
O O13 0.396866 0.790906 0.883429
O O14 0.347959 0.000000 0.960328
O O15 0.485692 0.500000 0.725330
O O16 0.543636 0.272395 0.664402
O O17 0.488914 0.247732 0.783496
O O18 0.438559 0.000000 0.373863
O O19 0.491599 0.000000 0.845545
#
# Coordination Sequence:
#
# PCOD8207662 Si02
#       7
#     8   8   8   8   8   8   8
#     4   9  17  30  48  69  92 118 151 191 231 270
#     4   9  18  30  41  57  86 121 151 180 218 263
#     4   8  14  25  42  61  79 103 138 180 219 254
#     4   9  18  32  49  70  95 122 154 190 227 270
#     4  10  19  29  42  62  88 118 152 185 217 260
#     4   8  14  26  42  60  82 105 134 176 222 260
#     4  10  19  31  47  66  92 126 158 189 229 273
#
# _framework density 17.022783
#
# number of rings (size 3 to 8) (size 9 to 14) (size 15 to 20)
#    0.000    3.000    0.000    2.143    0.000    4.571 
#    0.000    2.857    0.000    0.000    0.000    1.000 
#    0.000    3.429    0.000    0.000    0.000    0.000 
#
# Total GULP energy -693903.173913 kJ/mol
# GULP energy per Si atom -12391.128106 kJ/mol
# Density = 1.698404 g / cm^3
# Si number density = 17.022783 Si / 1000 Ang^3
#
#
#
# Elastic Constant Matrix: (Units=GPa)
#
#
# Indices 1 2 3 4 5 6 
#
# 1 11.5029 6.8388 14.9888 0.0000 0.0000 0.0000
# 2 6.8388 79.4318 52.9050 0.0000 0.0000 0.0000
# 3 14.9888 52.9050 119.1717 0.0000 0.0000 0.0000
# 4 0.0000 0.0000 0.0000 29.3943 0.0000 0.0000
# 5 0.0000 0.0000 0.0000 0.0000 15.3384 0.0000
# 6 0.0000 0.0000 0.0000 0.0000 0.0000 17.1262
#
#
#
# Elastic Compliance Matrix: (Units=1/GPa)
#
#
# Indices 1 2 3 4 5 6 
#
# 1 0.103981 -0.000343 -0.012926 0.000000 0.000000 0.000000
# 2 -0.000343 0.017876 -0.007893 0.000000 0.000000 0.000000
# 3 -0.012926 -0.007893 0.013521 0.000000 0.000000 0.000000
# 4 0.000000 0.000000 0.000000 0.034020 0.000000 0.000000
# 5 0.000000 0.000000 0.000000 0.000000 0.065196 0.000000
# 6 0.000000 0.000000 0.000000 0.000000 0.000000 0.058390
#
#
# Mechanical properties :
#
#
# Convention : Reuss Voigt Hill
#
# Bulk Modulus (GPa) = 10.74640 39.95240 25.34940
# Shear Modulus (GPa) = 13.64907 21.39672 17.52290
#
# Velocity S-wave (km/s) = 2.83470 3.54919 3.21187
# Velocity P-wave (km/s) = 4.12804 6.34953 5.35524
#
# Compressibility (1/GPa) = 0.09305440
#
# Stress axis : x y z
#
# Youngs Moduli (GPa) = 9.61712 55.94173 73.96015
#
# Poissons Ratio (x) = 0.01921 0.95599
# Poissons Ratio (y) = 0.00330 0.58373
# Poissons Ratio (z) = 0.12431 0.44152
#
# Static dielectric constant tensor:
#      x y z
#    x 3.065720 0.000000 0.000000 
#    y 0.000000 3.351050 0.000000 
#    z 0.000000 0.000000 3.254360 
# 
# 
# High freq. dielectric constant tensor:
#      x y z
#    x 1.618150 0.000000 0.000000 
#    y 0.000000 1.662510 0.000000 
#    z 0.000000 0.000000 1.645920 
# 
# From -- ./inp_files/33720.got.cif
#   From: 2010.03.12/outbox.cif.g09.slc.cpg/sg51_17_cif.got.tgz:33720.got - 2010.04.16 13:43:02.
