data_PCOD8207090
_publ_section_title
;
Structure prediction by ZEFSAII (Michael W. Deem and Ramdas Pophale) SiO2 
 PCOD8207090
Probable space group: P M M A
;
_chemical_formula_sum "Si O2"
_cell_formula_units_Z 64
_cell_length_a 18.795453
_cell_length_b 9.099321
_cell_length_c 22.059093
_cell_angle_alpha 90.000000
_cell_angle_beta 90.000000
_cell_angle_gamma 90.000000
_cell_volume 3772.675355
_symmetry_space_group_name_H-M "P M M A"
_symmetry_group_IT_number 51
_symmetry_cell_setting 'orthorhombic'
loop_
_space_group_symop_operation_xyz
x,y,z
1/2-x,-y,z
1/2+x,-y,-z
-x,y,-z
-x,-y,-z
1/2+x,y,-z
1/2-x,y,z
x,-y,z
loop_
_atom_site_type_symbol
_atom_site_label
_atom_site_fract_x
_atom_site_fract_y
_atom_site_fract_z
Si Si1 0.168778 0.831888 0.998595
Si Si2 0.401328 0.171539 0.482359
Si Si3 0.452009 0.672793 0.057209
Si Si4 0.670873 0.328611 0.127031
Si Si5 0.460926 0.329214 0.301639
Si Si6 0.973229 0.673620 0.179113
Si Si7 0.966512 0.329215 0.421273
Si Si8 0.329715 0.828696 0.362589
O O1 0.250000 0.816225 0.019082
O O2 0.123356 0.753316 0.050790
O O3 0.145357 0.000000 0.992435
O O4 0.155192 0.756577 0.934348
O O5 0.394938 0.259630 0.547222
O O6 0.469942 0.234731 0.448790
O O7 0.337266 0.202023 0.435179
O O8 0.409520 0.000000 0.496590
O O9 0.438899 0.500000 0.059854
O O10 0.488125 0.731682 0.118689
O O11 0.500000 0.717274 0.000000
O O12 0.750000 0.292188 0.152646
O O13 0.663508 0.500000 0.110801
O O14 0.610760 0.282534 0.176031
O O15 0.442665 0.500000 0.294647
O O16 0.489205 0.258452 0.238696
O O17 0.526638 0.307708 0.348956
O O18 0.387393 0.255052 0.321976
O O19 0.979910 0.500000 0.183392
O O20 0.972523 0.500000 0.438825
O O21 0.250000 0.778984 0.343947
O O22 0.341590 0.000000 0.349997
#
# Coordination Sequence:
#
# PCOD8207090 Si02
#       8
#     8   8   8   8   8   8   8   8
#     4  10  20  32  46  68  98 125 149 186 239 295
#     4   9  15  24  42  65  86 111 144 184 228 266
#     4  10  18  31  51  72  92 120 157 201 245 284
#     4   9  16  29  51  73  91 116 151 190 233 283
#     4   9  18  31  47  67  94 128 160 194 235 282
#     4   9  17  31  49  71  96 120 156 201 238 279
#     4   9  15  24  40  63  90 116 142 177 224 270
#     4   9  18  32  48  67  93 124 161 204 240 272
#
# _framework density 16.964089000000001
#
# number of rings (size 3 to 8) (size 9 to 14) (size 15 to 20)
#    0.000    2.750    1.250    1.875    0.000    2.250 
#    0.000    1.875    0.000    4.500    0.000    1.750 
#    0.000    0.000    0.000    0.000    0.000    0.000 
#
# Total GULP energy -792914.111577 kJ/mol
# GULP energy per Si atom -12389.282993 kJ/mol
# Density = 1.692548 g / cm^3
# Si number density = 16.964089 Si / 1000 Ang^3
#
#
#
# Elastic Constant Matrix: (Units=GPa)
#
#
# Indices 1 2 3 4 5 6 
#
# 1 109.4704 37.9891 68.0678 0.0000 0.0000 0.0000
# 2 37.9891 43.8141 39.3399 0.0000 0.0000 0.0000
# 3 68.0678 39.3399 126.3667 0.0000 0.0000 0.0000
# 4 0.0000 0.0000 0.0000 9.3210 0.0000 0.0000
# 5 0.0000 0.0000 0.0000 0.0000 23.0419 0.0000
# 6 0.0000 0.0000 0.0000 0.0000 0.0000 19.8342
#
#
#
# Elastic Compliance Matrix: (Units=1/GPa)
#
#
# Indices 1 2 3 4 5 6 
#
# 1 0.015658 -0.008332 -0.005840 0.000000 0.000000 0.000000
# 2 -0.008332 0.036113 -0.006754 0.000000 0.000000 0.000000
# 3 -0.005840 -0.006754 0.013162 0.000000 0.000000 0.000000
# 4 0.000000 0.000000 0.000000 0.107285 0.000000 0.000000
# 5 0.000000 0.000000 0.000000 0.000000 0.043399 0.000000
# 6 0.000000 0.000000 0.000000 0.000000 0.000000 0.050418
#
#
# Mechanical properties :
#
#
# Convention : Reuss Voigt Hill
#
# Bulk Modulus (GPa) = 43.32919 63.38277 53.35598
# Shear Modulus (GPa) = 15.84378 19.38971 17.61675
#
# Velocity S-wave (km/s) = 3.05939 3.38447 3.22603
# Velocity P-wave (km/s) = 6.17066 7.26064 6.73773
#
# Compressibility (1/GPa) = 0.02307913
#
# Stress axis : x y z
#
# Youngs Moduli (GPa) = 63.86604 27.69102 75.97645
#
# Poissons Ratio (x) = 0.23073 0.44371
# Poissons Ratio (y) = 0.53216 0.51316
# Poissons Ratio (z) = 0.37299 0.18703
#
# Static dielectric constant tensor:
#      x y z
#    x 3.392790 0.000000 0.000000 
#    y 0.000000 3.105990 0.000000 
#    z 0.000000 0.000000 3.626580 
# 
# 
# High freq. dielectric constant tensor:
#      x y z
#    x 1.639170 0.000000 0.000000 
#    y 0.000000 1.646210 0.000000 
#    z 0.000000 0.000000 1.638930 
# 
# From -- ./inp_files/34088.got.cif
#   From: 2010.03.12/outbox.cif.g09.slc.cpg/sg51_18_cif.got.tgz:34088.got - 2010.04.16 13:43:02.
