data_PCOD8207833
_publ_section_title
;
Structure prediction by ZEFSAII (Michael W. Deem and Ramdas Pophale) SiO2 
 PCOD8207833
Probable space group: P M M A
;
_chemical_formula_sum "Si O2"
_cell_formula_units_Z 48
_cell_length_a 9.018640
_cell_length_b 15.208042
_cell_length_c 25.742359
_cell_angle_alpha 90.000000
_cell_angle_beta 90.000000
_cell_angle_gamma 90.000000
_cell_volume 3530.715282
_symmetry_space_group_name_H-M "P M M A"
_symmetry_group_IT_number 51
_symmetry_cell_setting 'orthorhombic'
loop_
_space_group_symop_operation_xyz
x,y,z
1/2-x,-y,z
1/2+x,-y,-z
-x,y,-z
-x,-y,-z
1/2+x,y,-z
1/2-x,y,z
x,-y,z
loop_
_atom_site_type_symbol
_atom_site_label
_atom_site_fract_x
_atom_site_fract_y
_atom_site_fract_z
Si Si1 0.582659 0.604661 0.244857
Si Si2 0.074606 0.283577 0.943894
Si Si3 0.577988 0.092823 0.054526
Si Si4 0.419901 0.604194 0.141610
Si Si5 0.417522 0.604863 0.346775
Si Si6 0.417438 0.604825 0.551048
O O1 0.750000 0.641441 0.242828
O O2 0.583448 0.500000 0.246294
O O3 0.493949 0.638746 0.194715
O O4 0.502739 0.641614 0.296330
O O5 0.250000 0.299536 0.949257
O O6 0.037655 0.186393 0.918648
O O7 0.006900 0.356526 0.906799
O O8 0.000000 0.293524 0.000000
O O9 0.750000 0.094521 0.042103
O O10 0.538175 0.000000 0.085042
O O11 0.500000 0.090030 0.000000
O O12 0.250000 0.635383 0.140960
O O13 0.432600 0.500000 0.137378
O O14 0.250000 0.640838 0.346146
O O15 0.418026 0.500000 0.346616
O O16 0.498872 0.640984 0.398112
O O17 0.500000 0.641142 0.500000
O O18 0.250000 0.640877 0.551273
O O19 0.418050 0.500000 0.550987
#
# Coordination Sequence:
#
# PCOD8207833 Si02
#       6
#     8   8   8   8   8   8
#     4   9  16  26  39  52  64  80 106 140 175 209
#     4  10  19  30  44  60  77  96 117 142 173 211
#     4   8  14  25  41  60  79  96 113 134 163 201
#     4  10  20  32  43  54  70  93 120 150 182 214
#     4   9  15  22  32  45  60  78 101 130 165 205
#     4   9  15  21  28  39  56  77 100 127 162 204
#
# _framework density 13.594979
#
# number of rings (size 3 to 8) (size 9 to 14) (size 15 to 20)
#    0.000    2.833    0.000    2.500    0.000    8.000 
#    0.000    0.000    0.000    0.000    0.000    0.000 
#    0.000    0.000    0.000    0.000    0.000    0.000 
#
# Total GULP energy -594705.513055 kJ/mol
# GULP energy per Si atom -12389.698189 kJ/mol
# Density = 1.356404 g / cm^3
# Si number density = 13.594979 Si / 1000 Ang^3
#
#
#
# Elastic Constant Matrix: (Units=GPa)
#
#
# Indices 1 2 3 4 5 6 
#
# 1 114.1973 19.7298 58.3466 0.0000 0.0000 0.0000
# 2 19.7298 19.1645 20.8609 0.0000 0.0000 0.0000
# 3 58.3466 20.8609 106.0513 0.0000 0.0000 0.0000
# 4 0.0000 0.0000 0.0000 0.1425 0.0000 0.0000
# 5 0.0000 0.0000 0.0000 0.0000 28.3121 0.0000
# 6 0.0000 0.0000 0.0000 0.0000 0.0000 7.3714
#
#
#
# Elastic Compliance Matrix: (Units=1/GPa)
#
#
# Indices 1 2 3 4 5 6 
#
# 1 0.012891 -0.007064 -0.005703 0.000000 0.000000 0.000000
# 2 -0.007064 0.070267 -0.009936 0.000000 0.000000 0.000000
# 3 -0.005703 -0.009936 0.014521 0.000000 0.000000 0.000000
# 4 0.000000 0.000000 0.000000 7.018179 0.000000 0.000000
# 5 0.000000 0.000000 0.000000 0.000000 0.035321 0.000000
# 6 0.000000 0.000000 0.000000 0.000000 0.000000 0.135659
#
#
# Mechanical properties :
#
#
# Convention : Reuss Voigt Hill
#
# Bulk Modulus (GPa) = 19.12956 48.58752 33.85854
# Shear Modulus (GPa) = 0.68030 16.53026 8.60528
#
# Velocity S-wave (km/s) = 0.70816 3.49077 2.51863
# Velocity P-wave (km/s) = 3.84321 7.21555 5.78076
#
# Compressibility (1/GPa) = 0.05227512
#
# Stress axis : x y z
#
# Youngs Moduli (GPa) = 77.57444 14.23142 68.86420
#
# Poissons Ratio (x) = 0.10052 0.39272
# Poissons Ratio (y) = 0.54795 0.68422
# Poissons Ratio (z) = 0.44239 0.14140
#
# Static dielectric constant tensor:
#      x y z
#    x 2.939850 0.000000 0.000000 
#    y 0.000000 2.541130 0.000000 
#    z 0.000000 0.000000 2.687540 
# 
# 
# High freq. dielectric constant tensor:
#      x y z
#    x 1.541680 0.000000 0.000000 
#    y 0.000000 1.451530 0.000000 
#    z 0.000000 0.000000 1.507540 
# 
# From -- ./inp_files/32181.got.cif
#   From: 2010.03.12/outbox.cif.g09.slc.cpg/sg51_17_cif.got.tgz:32181.got - 2010.04.16 13:43:02.
