data_PCOD8207675
_publ_section_title
;
Structure prediction by ZEFSAII (Michael W. Deem and Ramdas Pophale) SiO2 
 PCOD8207675
Probable space group: P M M A
;
_chemical_formula_sum "Si O2"
_cell_formula_units_Z 64
_cell_length_a 9.346076
_cell_length_b 24.557652
_cell_length_c 14.866973
_cell_angle_alpha 90.000000
_cell_angle_beta 90.000000
_cell_angle_gamma 90.000000
_cell_volume 3412.233181
_symmetry_space_group_name_H-M "P M M A"
_symmetry_group_IT_number 51
_symmetry_cell_setting 'orthorhombic'
loop_
_space_group_symop_operation_xyz
x,y,z
1/2-x,-y,z
1/2+x,-y,-z
-x,y,-z
-x,-y,-z
1/2+x,y,-z
1/2-x,y,z
x,-y,z
loop_
_atom_site_type_symbol
_atom_site_label
_atom_site_fract_x
_atom_site_fract_y
_atom_site_fract_z
Si Si1 0.912063 0.302897 0.871422
Si Si2 0.410981 0.339707 0.330845
Si Si3 0.416638 0.439282 0.720506
Si Si4 0.415734 0.769197 0.415187
Si Si5 0.584924 0.064188 0.411236
Si Si6 0.918054 0.404711 0.082301
Si Si7 0.916236 0.136826 0.720587
Si Si8 0.582835 0.179811 0.912471
O O1 0.750000 0.314694 0.905843
O O2 0.918625 0.311705 0.765547
O O3 0.961360 0.242059 0.894038
O O4 0.026200 0.342601 0.917642
O O5 0.250000 0.357006 0.354624
O O6 0.504032 0.394483 0.339848
O O7 0.467727 0.292914 0.397860
O O8 0.250000 0.427985 0.709324
O O9 0.458035 0.500000 0.687681
O O10 0.460457 0.434309 0.825145
O O11 0.500000 0.793435 0.500000
O O12 0.250000 0.769863 0.439407
O O13 0.446893 0.805976 0.328421
O O14 0.500000 0.083916 0.500000
O O15 0.750000 0.082447 0.420781
O O16 0.514792 0.090391 0.322711
O O17 0.571697 0.000000 0.399126
O O18 0.750000 0.406447 0.064755
O O19 0.000000 0.434988 0.000000
O O20 0.750000 0.120197 0.710350
O O21 0.958214 0.143657 0.825369
O O22 0.750000 0.175212 0.931858
O O23 0.500000 0.157391 0.000000
#
# Coordination Sequence:
#
# PCOD8207675 Si02
#       8
#     8   8   8   8   8   8   8   8
#     4   9  16  30  49  67  94 132 170 208 254 305
#     4   9  17  32  52  72  98 131 165 204 252 309
#     4   9  19  34  49  66  90 121 160 209 261 309
#     4  10  20  34  53  80 112 142 170 208 260 319
#     4  10  21  37  58  86 118 151 188 229 272 320
#     4  10  19  29  42  63  90 121 159 205 256 309
#     4  10  20  36  56  80 115 152 186 225 271 318
#     4  10  20  33  50  74 106 146 186 227 270 315
#
# _framework density 18.756045
#
# number of rings (size 3 to 8) (size 9 to 14) (size 15 to 20)
#    0.000    2.375    1.250    1.500    0.000    5.750 
#    0.000    0.000    0.000    0.750    0.000    0.000 
#    0.000    0.000    0.000    0.000    0.000    0.000 
#
# Total GULP energy -793498.905650 kJ/mol
# GULP energy per Si atom -12398.420401 kJ/mol
# Density = 1.871336 g / cm^3
# Si number density = 18.756045 Si / 1000 Ang^3
#
#
#
# Elastic Constant Matrix: (Units=GPa)
#
#
# Indices 1 2 3 4 5 6 
#
# 1 78.4126 40.5584 43.1926 0.0000 0.0000 0.0000
# 2 40.5584 65.2302 32.7884 0.0000 0.0000 0.0000
# 3 43.1926 32.7884 88.0470 0.0000 0.0000 0.0000
# 4 0.0000 0.0000 0.0000 14.9039 0.0000 0.0000
# 5 0.0000 0.0000 0.0000 0.0000 29.9824 0.0000
# 6 0.0000 0.0000 0.0000 0.0000 0.0000 28.0196
#
#
#
# Elastic Compliance Matrix: (Units=1/GPa)
#
#
# Indices 1 2 3 4 5 6 
#
# 1 0.021774 -0.010051 -0.006939 0.000000 0.000000 0.000000
# 2 -0.010051 0.023500 -0.003821 0.000000 0.000000 0.000000
# 3 -0.006939 -0.003821 0.016184 0.000000 0.000000 0.000000
# 4 0.000000 0.000000 0.000000 0.067097 0.000000 0.000000
# 5 0.000000 0.000000 0.000000 0.000000 0.033353 0.000000
# 6 0.000000 0.000000 0.000000 0.000000 0.000000 0.035689
#
#
# Mechanical properties :
#
#
# Convention : Reuss Voigt Hill
#
# Bulk Modulus (GPa) = 50.40845 51.64096 51.02470
# Shear Modulus (GPa) = 20.33928 22.25786 21.29857
#
# Velocity S-wave (km/s) = 3.29661 3.44859 3.37346
# Velocity P-wave (km/s) = 6.43618 6.59165 6.51438
#
# Compressibility (1/GPa) = 0.01983794
#
# Stress axis : x y z
#
# Youngs Moduli (GPa) = 45.92698 42.55291 61.78841
#
# Poissons Ratio (x) = 0.42768 0.42872
# Poissons Ratio (y) = 0.46159 0.23609
# Poissons Ratio (z) = 0.31867 0.16259
#
# Static dielectric constant tensor:
#      x y z
#    x 3.399230 0.000000 0.000000 
#    y 0.000000 3.318540 0.000000 
#    z 0.000000 0.000000 3.447400 
# 
# 
# High freq. dielectric constant tensor:
#      x y z
#    x 1.723860 0.000000 0.000000 
#    y 0.000000 1.711780 0.000000 
#    z 0.000000 0.000000 1.718170 
# 
# From -- ./inp_files/22218.got.cif
#   From: 2010.03.12/outbox.cif.g09.slc.cpg/sg51_12_cif.got.tgz:22218.got - 2010.04.16 13:43:02.
