data_PCOD8207365
_publ_section_title
;
Structure prediction by ZEFSAII (Michael W. Deem and Ramdas Pophale) SiO2 
 PCOD8207365
Probable space group: P M M A
;
_chemical_formula_sum "Si O2"
_cell_formula_units_Z 64
_cell_length_a 24.474738
_cell_length_b 9.013307
_cell_length_c 14.989996
_cell_angle_alpha 90.000000
_cell_angle_beta 90.000000
_cell_angle_gamma 90.000000
_cell_volume 3306.768044
_symmetry_space_group_name_H-M "P M M A"
_symmetry_group_IT_number 51
_symmetry_cell_setting 'orthorhombic'
loop_
_space_group_symop_operation_xyz
x,y,z
1/2-x,-y,z
1/2+x,-y,-z
-x,y,-z
-x,-y,-z
1/2+x,y,-z
1/2-x,y,z
x,-y,z
loop_
_atom_site_type_symbol
_atom_site_label
_atom_site_fract_x
_atom_site_fract_y
_atom_site_fract_z
Si Si1 0.123010 0.673355 0.781168
Si Si2 0.958286 0.159634 0.424634
Si Si3 0.610000 0.176596 0.738456
Si Si4 0.686882 0.827488 0.062862
Si Si5 0.186037 0.671774 0.119731
Si Si6 0.641559 0.174083 0.541415
Si Si7 0.189127 0.668748 0.609594
Si Si8 0.998035 0.329499 0.263785
O O1 0.137581 0.500000 0.794426
O O2 0.150862 0.771888 0.855863
O O3 0.145761 0.728526 0.684471
O O4 0.057739 0.700720 0.791469
O O5 0.905376 0.222464 0.472892
O O6 0.983775 0.286898 0.364351
O O7 0.000000 0.118203 0.500000
O O8 0.947281 0.000000 0.374259
O O9 0.654979 0.235985 0.805604
O O10 0.628091 0.235653 0.640233
O O11 0.550104 0.234361 0.768409
O O12 0.608109 0.000000 0.740536
O O13 0.750000 0.798391 0.086025
O O14 0.675395 0.000000 0.044858
O O15 0.669187 0.735734 0.975995
O O16 0.250000 0.693990 0.137544
O O17 0.168973 0.500000 0.123868
O O18 0.691287 0.248536 0.487357
O O19 0.651149 0.000000 0.548628
O O20 0.250000 0.685351 0.650763
O O21 0.174405 0.500000 0.588649
O O22 0.015383 0.500000 0.258629
#
# Coordination Sequence:
#
# PCOD8207365 Si02
#       8
#     8   8   8   8   8   8   8   8
#     4  10  21  37  57  83 117 155 191 234 290 345
#     4  10  18  33  53  75 107 147 192 238 286 336
#     4  11  23  40  60  85 118 156 195 240 291 343
#     4  10  21  38  63  93 118 146 189 237 286 344
#     4  10  22  42  67  92 117 147 186 236 291 344
#     4  10  21  35  53  77 109 150 193 236 284 337
#     4  10  21  36  53  77 113 154 195 241 293 345
#     4  11  22  35  55  85 117 152 196 241 288 343
#
# _framework density 19.354244999999999
#
# number of rings (size 3 to 8) (size 9 to 14) (size 15 to 20)
#    0.000    1.750    2.500    1.875    0.000    5.500 
#    0.000    3.125    0.000    3.750    0.000    0.000 
#    0.000    0.000    0.000    0.000    0.000    0.000 
#
# Total GULP energy -793226.962444 kJ/mol
# GULP energy per Si atom -12394.171288 kJ/mol
# Density = 1.931019 g / cm^3
# Si number density = 19.354245 Si / 1000 Ang^3
#
#
#
# Elastic Constant Matrix: (Units=GPa)
#
#
# Indices 1 2 3 4 5 6 
#
# 1 78.7124 41.8109 46.8471 0.0000 0.0000 0.0000
# 2 41.8109 80.3435 48.6892 0.0000 0.0000 0.0000
# 3 46.8471 48.6892 101.3043 0.0000 0.0000 0.0000
# 4 0.0000 0.0000 0.0000 34.4853 0.0000 0.0000
# 5 0.0000 0.0000 0.0000 0.0000 24.8342 0.0000
# 6 0.0000 0.0000 0.0000 0.0000 0.0000 30.9981
#
#
#
# Elastic Compliance Matrix: (Units=1/GPa)
#
#
# Indices 1 2 3 4 5 6 
#
# 1 0.019798 -0.006709 -0.005931 0.000000 0.000000 0.000000
# 2 -0.006709 0.019835 -0.006431 0.000000 0.000000 0.000000
# 3 -0.005931 -0.006431 0.015705 0.000000 0.000000 0.000000
# 4 0.000000 0.000000 0.000000 0.028998 0.000000 0.000000
# 5 0.000000 0.000000 0.000000 0.000000 0.040267 0.000000
# 6 0.000000 0.000000 0.000000 0.000000 0.000000 0.032260
#
#
# Mechanical properties :
#
#
# Convention : Reuss Voigt Hill
#
# Bulk Modulus (GPa) = 58.15053 59.45053 58.80053
# Shear Modulus (GPa) = 24.90840 26.26440 25.58640
#
# Velocity S-wave (km/s) = 3.59133 3.68779 3.63988
# Velocity P-wave (km/s) = 6.87804 6.99406 6.93629
#
# Compressibility (1/GPa) = 0.01719675
#
# Stress axis : x y z
#
# Youngs Moduli (GPa) = 50.51029 50.41632 63.67487
#
# Poissons Ratio (x) = 0.33822 0.37766
# Poissons Ratio (y) = 0.33885 0.40948
# Poissons Ratio (z) = 0.29958 0.32422
#
# Static dielectric constant tensor:
#      x y z
#    x 3.691220 0.000000 0.000000 
#    y 0.000000 3.582430 0.000000 
#    z 0.000000 0.000000 3.367800 
# 
# 
# High freq. dielectric constant tensor:
#      x y z
#    x 1.758290 0.000000 0.000000 
#    y 0.000000 1.757860 0.000000 
#    z 0.000000 0.000000 1.737000 
# 
# From -- ./inp_files/26223.got.cif
#   From: 2010.03.12/outbox.cif.g09.slc.cpg/sg51_14_cif.got.tgz:26223.got - 2010.04.16 13:43:02.
