data_PCOD8207057
_publ_section_title
;
Structure prediction by ZEFSAII (Michael W. Deem and Ramdas Pophale) SiO2 
 PCOD8207057
Probable space group: P M M A
;
_chemical_formula_sum "Si O2"
_cell_formula_units_Z 64
_cell_length_a 8.700217
_cell_length_b 23.477759
_cell_length_c 19.091105
_cell_angle_alpha 90.000000
_cell_angle_beta 90.000000
_cell_angle_gamma 90.000000
_cell_volume 3899.579614
_symmetry_space_group_name_H-M "P M M A"
_symmetry_group_IT_number 51
_symmetry_cell_setting 'orthorhombic'
loop_
_space_group_symop_operation_xyz
x,y,z
1/2-x,-y,z
1/2+x,-y,-z
-x,y,-z
-x,-y,-z
1/2+x,y,-z
1/2-x,y,z
x,-y,z
loop_
_atom_site_type_symbol
_atom_site_label
_atom_site_fract_x
_atom_site_fract_y
_atom_site_fract_z
Si Si1 0.567508 0.279013 0.213160
Si Si2 0.068460 0.248055 0.073018
Si Si3 0.428987 0.566134 0.574267
Si Si4 0.431388 0.936127 0.792754
Si Si5 0.568765 0.168144 0.293277
Si Si6 0.430871 0.117510 0.072460
Si Si7 0.567727 0.766208 0.425270
Si Si8 0.068097 0.337132 0.341509
O O1 0.750000 0.284540 0.213130
O O2 0.502281 0.286437 0.134991
O O3 0.509203 0.217920 0.242035
O O4 0.498044 0.327262 0.263661
O O5 0.250000 0.254972 0.071863
O O6 0.016483 0.182674 0.084982
O O7 0.000000 0.270853 0.000000
O O8 0.500000 0.583861 0.500000
O O9 0.250000 0.581893 0.573599
O O10 0.457130 0.500000 0.589987
O O11 0.516040 0.600169 0.635235
O O12 0.250000 0.929265 0.801964
O O13 0.496080 0.892729 0.733197
O O14 0.507735 0.922558 0.866557
O O15 0.476078 0.000000 0.769493
O O16 0.750000 0.167033 0.289405
O O17 0.517860 0.182514 0.372698
O O18 0.250000 0.112611 0.068509
O O19 0.500000 0.094412 0.000000
O O20 0.500000 0.782517 0.500000
O O21 0.750000 0.759535 0.429504
O O22 0.500008 0.707132 0.397606
O O23 0.250000 0.331802 0.340351
#
# Coordination Sequence:
#
# PCOD8207057 Si02
#       8
#     8   8   8   8   8   8   8   8
#     4  10  18  31  50  69  95 126 158 198 241 286
#     4  10  19  30  46  69  94 125 159 193 236 288
#     4  10  20  34  51  71  99 137 177 210 242 281
#     4  10  19  32  50  68  86 113 151 193 236 284
#     4   8  16  30  47  66  88 114 146 185 233 285
#     4  10  20  32  47  66  90 119 152 189 229 277
#     4  10  19  32  49  70  94 121 153 192 239 287
#     4  11  21  32  48  72 102 131 164 202 239 283
#
# _framework density 16.412026000000001
#
# number of rings (size 3 to 8) (size 9 to 14) (size 15 to 20)
#    0.000    2.125    1.250    4.125    0.000    2.250 
#    0.000    0.625    0.000    0.375    0.000    0.000 
#    0.000    0.500    0.000    1.875    0.000    3.375 
#
# Total GULP energy -793617.002901 kJ/mol
# GULP energy per Si atom -12400.265670 kJ/mol
# Density = 1.637467 g / cm^3
# Si number density = 16.412026 Si / 1000 Ang^3
#
#
#
# Elastic Constant Matrix: (Units=GPa)
#
#
# Indices 1 2 3 4 5 6 
#
# 1 86.4403 33.0443 48.3873 0.0000 0.0000 0.0000
# 2 33.0443 73.5926 55.2425 0.0000 0.0000 0.0000
# 3 48.3873 55.2425 137.3041 0.0000 0.0000 0.0000
# 4 0.0000 0.0000 0.0000 21.7550 0.0000 0.0000
# 5 0.0000 0.0000 0.0000 0.0000 29.3990 0.0000
# 6 0.0000 0.0000 0.0000 0.0000 0.0000 18.4796
#
#
#
# Elastic Compliance Matrix: (Units=1/GPa)
#
#
# Indices 1 2 3 4 5 6 
#
# 1 0.015198 -0.004017 -0.003740 0.000000 0.000000 0.000000
# 2 -0.004017 0.020530 -0.006844 0.000000 0.000000 0.000000
# 3 -0.003740 -0.006844 0.011355 0.000000 0.000000 0.000000
# 4 0.000000 0.000000 0.000000 0.045966 0.000000 0.000000
# 5 0.000000 0.000000 0.000000 0.000000 0.034015 0.000000
# 6 0.000000 0.000000 0.000000 0.000000 0.000000 0.054114
#
#
# Mechanical properties :
#
#
# Convention : Reuss Voigt Hill
#
# Bulk Modulus (GPa) = 55.92699 63.40946 59.66823
# Shear Modulus (GPa) = 23.11194 24.63759 23.87476
#
# Velocity S-wave (km/s) = 3.75671 3.87872 3.81821
# Velocity P-wave (km/s) = 7.27791 7.66676 7.47486
#
# Compressibility (1/GPa) = 0.01788045
#
# Stress axis : x y z
#
# Youngs Moduli (GPa) = 65.79993 48.71020 88.06926
#
# Poissons Ratio (x) = 0.19566 0.32935
# Poissons Ratio (y) = 0.26430 0.60277
# Poissons Ratio (z) = 0.24607 0.33339
#
# Static dielectric constant tensor:
#      x y z
#    x 3.068610 0.000000 0.000000 
#    y 0.000000 3.014030 0.000000 
#    z 0.000000 0.000000 3.122940 
# 
# 
# High freq. dielectric constant tensor:
#      x y z
#    x 1.638070 0.000000 0.000000 
#    y 0.000000 1.598200 0.000000 
#    z 0.000000 0.000000 1.631220 
# 
# From -- ./inp_files/28607.got.cif
#   From: 2010.03.12/outbox.cif.g09.slc.cpg/sg51_15_cif.got.tgz:28607.got - 2010.04.16 13:43:02.
