data_PCOD8207624
_publ_section_title
;
Structure prediction by ZEFSAII (Michael W. Deem and Ramdas Pophale) SiO2 
 PCOD8207624
Probable space group: P M M A
;
_chemical_formula_sum "Si O2"
_cell_formula_units_Z 52
_cell_length_a 9.087368
_cell_length_b 12.524802
_cell_length_c 30.146745
_cell_angle_alpha 90.000000
_cell_angle_beta 90.000000
_cell_angle_gamma 90.000000
_cell_volume 3431.226694
_symmetry_space_group_name_H-M "P M M A"
_symmetry_group_IT_number 51
_symmetry_cell_setting 'orthorhombic'
loop_
_space_group_symop_operation_xyz
x,y,z
1/2-x,-y,z
1/2+x,-y,-z
-x,y,-z
-x,-y,-z
1/2+x,y,-z
1/2-x,y,z
x,-y,z
loop_
_atom_site_type_symbol
_atom_site_label
_atom_site_fract_x
_atom_site_fract_y
_atom_site_fract_z
Si Si1 0.585119 0.127429 0.042878
Si Si2 0.579907 0.619482 0.543876
Si Si3 0.084352 0.873119 0.127361
Si Si4 0.926907 0.000000 0.452096
Si Si5 0.922645 0.816102 0.602835
Si Si6 0.915088 0.126811 0.775124
Si Si7 0.081422 0.873267 0.689353
O O1 0.750000 0.170418 0.039853
O O2 0.515873 0.174731 0.088190
O O3 0.579456 0.000000 0.043428
O O4 0.500000 0.171910 0.000000
O O5 0.500000 0.662865 0.500000
O O6 0.750000 0.619108 0.531778
O O7 0.525175 0.500000 0.556472
O O8 0.547648 0.697153 0.584941
O O9 0.250000 0.833076 0.119271
O O10 0.029867 0.834200 0.176150
O O11 0.079006 0.000000 0.125455
O O12 0.000000 0.000000 0.500000
O O13 0.980400 0.103682 0.426038
O O14 0.750000 0.000000 0.455604
O O15 0.750000 0.847190 0.600529
O O16 0.978342 0.817428 0.653149
O O17 0.750000 0.169887 0.765850
O O18 0.026218 0.168072 0.737345
O O19 0.911557 0.000000 0.774640
O O20 0.250000 0.837925 0.683058
O O21 0.064598 0.000000 0.684546
#
# Coordination Sequence:
#
# PCOD8207624 Si02
#       7
#     8   8   8   4   8   8   8
#     4   9  15  20  26  36  51  72  99 135 180 228
#     4   9  19  35  53  72  90 109 136 168 201 237
#     4   8  13  21  31  42  56  76 105 141 181 224
#     4  12  24  36  48  66  92 116 140 168 197 236
#     4  11  21  33  50  68  88 115 140 166 201 242
#     4   8  14  24  37  50  66  91 121 152 186 232
#     4  10  19  29  41  59  83 108 132 164 197 233
#
# _framework density 15.154930999999999
#
# number of rings (size 3 to 8) (size 9 to 14) (size 15 to 20)
#    0.000    2.615    0.769    3.462    0.000    5.538 
#    0.000    3.077    0.000    0.000    0.000    0.000 
#    0.000    0.000    0.000    0.000    0.000    0.000 
#
# Total GULP energy -644551.090507 kJ/mol
# GULP energy per Si atom -12395.213279 kJ/mol
# Density = 1.512044 g / cm^3
# Si number density = 15.154931 Si / 1000 Ang^3
#
#
#
# Elastic Constant Matrix: (Units=GPa)
#
#
# Indices 1 2 3 4 5 6 
#
# 1 104.2533 22.4801 69.1025 0.0000 0.0000 0.0000
# 2 22.4801 31.2844 25.3947 0.0000 0.0000 0.0000
# 3 69.1025 25.3947 142.5769 0.0000 0.0000 0.0000
# 4 0.0000 0.0000 0.0000 5.5005 0.0000 0.0000
# 5 0.0000 0.0000 0.0000 0.0000 32.4951 0.0000
# 6 0.0000 0.0000 0.0000 0.0000 0.0000 8.0564
#
#
#
# Elastic Compliance Matrix: (Units=1/GPa)
#
#
# Indices 1 2 3 4 5 6 
#
# 1 0.014949 -0.005682 -0.006233 0.000000 0.000000 0.000000
# 2 -0.005682 0.039527 -0.004286 0.000000 0.000000 0.000000
# 3 -0.006233 -0.004286 0.010798 0.000000 0.000000 0.000000
# 4 0.000000 0.000000 0.000000 0.181801 0.000000 0.000000
# 5 0.000000 0.000000 0.000000 0.000000 0.030774 0.000000
# 6 0.000000 0.000000 0.000000 0.000000 0.000000 0.124125
#
#
# Mechanical properties :
#
#
# Convention : Reuss Voigt Hill
#
# Bulk Modulus (GPa) = 30.42195 56.89659 43.65927
# Shear Modulus (GPa) = 11.22753 19.95290 15.59022
#
# Velocity S-wave (km/s) = 2.72481 3.63243 3.21085
# Velocity P-wave (km/s) = 5.47878 7.43085 6.52819
#
# Compressibility (1/GPa) = 0.03287101
#
# Stress axis : x y z
#
# Youngs Moduli (GPa) = 66.89506 25.29904 92.60776
#
# Poissons Ratio (x) = 0.14375 0.57724
# Poissons Ratio (y) = 0.38010 0.39695
# Poissons Ratio (z) = 0.41697 0.10844
#
# Static dielectric constant tensor:
#      x y z
#    x 3.073050 0.000000 0.000000 
#    y 0.000000 2.378250 0.000000 
#    z 0.000000 0.000000 3.276210 
# 
# 
# High freq. dielectric constant tensor:
#      x y z
#    x 1.592330 0.000000 0.000000 
#    y 0.000000 1.497350 0.000000 
#    z 0.000000 0.000000 1.595680 
# 
# From -- ./inp_files/37320.got.cif
#   From: 2010.03.12/outbox.cif.g09.slc.cpg/sg51_19_cif.got.tgz:37320.got - 2010.04.16 13:43:02.
