data_PCOD8207776
_publ_section_title
;
Structure prediction by ZEFSAII (Michael W. Deem and Ramdas Pophale) SiO2 
 PCOD8207776
Probable space group: P M M A
;
_chemical_formula_sum "Si O2"
_cell_formula_units_Z 48
_cell_length_a 14.553138
_cell_length_b 14.152173
_cell_length_c 13.854815
_cell_angle_alpha 90.000000
_cell_angle_beta 90.000000
_cell_angle_gamma 90.000000
_cell_volume 2853.517285
_symmetry_space_group_name_H-M "P M M A"
_symmetry_group_IT_number 51
_symmetry_cell_setting 'orthorhombic'
loop_
_space_group_symop_operation_xyz
x,y,z
1/2-x,-y,z
1/2+x,-y,-z
-x,y,-z
-x,-y,-z
1/2+x,y,-z
1/2-x,y,z
x,-y,z
loop_
_atom_site_type_symbol
_atom_site_label
_atom_site_fract_x
_atom_site_fract_y
_atom_site_fract_z
Si Si1 0.091601 0.604627 0.562061
Si Si2 0.998165 0.153412 0.112750
Si Si3 0.647169 0.000000 0.881554
Si Si4 0.643364 0.109251 0.402410
Si Si5 0.978257 0.746051 0.296093
Si Si6 0.648588 0.000000 0.107407
Si Si7 0.850043 0.239179 0.572565
O O1 0.134104 0.500000 0.577492
O O2 0.158298 0.672014 0.501299
O O3 0.000000 0.597921 0.500000
O O4 0.072412 0.650478 0.668119
O O5 0.088653 0.093819 0.144625
O O6 0.991776 0.247425 0.179877
O O7 0.907501 0.092794 0.136686
O O8 0.000000 0.182816 0.000000
O O9 0.750000 0.000000 0.832636
O O10 0.661377 0.000000 0.994354
O O11 0.750000 0.126912 0.376800
O O12 0.579512 0.162261 0.326184
O O13 0.621566 0.147616 0.509920
O O14 0.617074 0.000000 0.398390
O O15 0.078862 0.746760 0.342425
O O16 0.750000 0.000000 0.157735
O O17 0.750000 0.225773 0.620189
#
# Coordination Sequence:
#
# PCOD8207776 Si02
#       7
#     8   8   4   8   8   4   8
#     4   8  15  30  50  69  88 112 145 186 231 273
#     4   9  18  30  43  64  91 121 158 195 233 270
#     4   8  15  29  44  59  83 118 160 198 230 264
#     4   9  18  31  45  63  89 120 154 189 227 277
#     4  10  19  29  46  68  91 122 152 192 230 274
#     4   8  15  29  46  59  79 114 156 204 240 262
#     4   9  18  31  45  66  93 119 149 182 224 280
#
# _framework density 16.821345000000001
#
# number of rings (size 3 to 8) (size 9 to 14) (size 15 to 20)
#    0.000    3.167    0.000    2.500    2.333    3.000 
#    0.000    0.000    0.000    0.500    0.000    0.000 
#    0.000    0.000    0.000   17.667    0.000    0.000 
#
# Total GULP energy -594699.217497 kJ/mol
# GULP energy per Si atom -12389.567031 kJ/mol
# Density = 1.678306 g / cm^3
# Si number density = 16.821345 Si / 1000 Ang^3
#
#
#
# Elastic Constant Matrix: (Units=GPa)
#
#
# Indices 1 2 3 4 5 6 
#
# 1 78.5135 13.1765 18.5927 0.0000 0.0000 0.0000
# 2 13.1765 92.9825 34.6590 0.0000 0.0000 0.0000
# 3 18.5927 34.6590 84.9388 0.0000 0.0000 0.0000
# 4 0.0000 0.0000 0.0000 18.3571 0.0000 0.0000
# 5 0.0000 0.0000 0.0000 0.0000 82.9695 0.0000
# 6 0.0000 0.0000 0.0000 0.0000 0.0000 8.0293
#
#
#
# Elastic Compliance Matrix: (Units=1/GPa)
#
#
# Indices 1 2 3 4 5 6 
#
# 1 0.013505 -0.000957 -0.002565 0.000000 0.000000 0.000000
# 2 -0.000957 0.012752 -0.004994 0.000000 0.000000 0.000000
# 3 -0.002565 -0.004994 0.014372 0.000000 0.000000 0.000000
# 4 0.000000 0.000000 0.000000 0.054475 0.000000 0.000000
# 5 0.000000 0.000000 0.000000 0.000000 0.012053 0.000000
# 6 0.000000 0.000000 0.000000 0.000000 0.000000 0.124544
#
#
# Mechanical properties :
#
#
# Convention : Reuss Voigt Hill
#
# Bulk Modulus (GPa) = 42.38056 43.25457 42.81756
# Shear Modulus (GPa) = 19.48562 34.53827 27.01195
#
# Velocity S-wave (km/s) = 3.40720 4.53619 4.01161
# Velocity P-wave (km/s) = 6.38184 7.29424 6.85324
#
# Compressibility (1/GPa) = 0.02359573
#
# Stress axis : x y z
#
# Youngs Moduli (GPa) = 74.04737 78.42030 69.57768
#
# Poissons Ratio (x) = 0.07509 0.17850
# Poissons Ratio (y) = 0.07090 0.34745
# Poissons Ratio (z) = 0.18996 0.39161
#
# Static dielectric constant tensor:
#      x y z
#    x 3.571470 0.000000 0.000000 
#    y 0.000000 3.194050 0.000000 
#    z 0.000000 0.000000 2.917110 
# 
# 
# High freq. dielectric constant tensor:
#      x y z
#    x 1.658880 0.000000 0.000000 
#    y 0.000000 1.617430 0.000000 
#    z 0.000000 0.000000 1.622220 
# 
# From -- ./inp_files/24241.got.cif
#   From: 2010.03.12/outbox.cif.g09.slc.cpg/sg51_13_cif.got.tgz:24241.got - 2010.04.16 13:43:02.
