data_PCOD8207092
_publ_section_title
;
Structure prediction by ZEFSAII (Michael W. Deem and Ramdas Pophale) SiO2 
 PCOD8207092
Probable space group: P M M A
;
_chemical_formula_sum "Si O2"
_cell_formula_units_Z 64
_cell_length_a 9.133270
_cell_length_b 14.164209
_cell_length_c 30.930322
_cell_angle_alpha 90.000000
_cell_angle_beta 90.000000
_cell_angle_gamma 90.000000
_cell_volume 4001.317967
_symmetry_space_group_name_H-M "P M M A"
_symmetry_group_IT_number 51
_symmetry_cell_setting 'orthorhombic'
loop_
_space_group_symop_operation_xyz
x,y,z
1/2-x,-y,z
1/2+x,-y,-z
-x,y,-z
-x,-y,-z
1/2+x,y,-z
1/2-x,y,z
x,-y,z
loop_
_atom_site_type_symbol
_atom_site_label
_atom_site_fract_x
_atom_site_fract_y
_atom_site_fract_z
Si Si1 0.576399 0.105493 0.207975
Si Si2 0.424073 0.777289 0.709608
Si Si3 0.421407 0.108496 0.044132
Si Si4 0.083580 0.605556 0.834276
Si Si5 0.919598 0.207541 0.120934
Si Si6 0.420143 0.391840 0.253507
Si Si7 0.077537 0.109045 0.364180
Si Si8 0.410521 0.888301 0.460281
O O1 0.750000 0.102332 0.209503
O O2 0.518362 0.163582 0.249073
O O3 0.524265 0.154739 0.163936
O O4 0.510355 0.000000 0.209812
O O5 0.250000 0.771032 0.707702
O O6 0.491536 0.672605 0.712711
O O7 0.482424 0.825892 0.666638
O O8 0.250000 0.125784 0.038377
O O9 0.481580 0.175303 0.081456
O O10 0.456680 0.000000 0.055989
O O11 0.500000 0.137849 0.000000
O O12 0.250000 0.617865 0.816881
O O13 0.057888 0.500000 0.852790
O O14 0.055723 0.680186 0.872651
O O15 0.976430 0.627217 0.794852
O O16 0.750000 0.183505 0.111313
O O17 0.250000 0.365667 0.255062
O O18 0.448300 0.500000 0.266912
O O19 0.250000 0.129314 0.358894
O O20 0.023877 0.134138 0.412893
O O21 0.043937 0.000000 0.353482
O O22 0.500000 0.842730 0.500000
O O23 0.250000 0.843384 0.463318
O O24 0.400836 0.000000 0.465961
#
# Coordination Sequence:
#
# PCOD8207092 Si02
#       8
#     8   8   8   8   8   8   8   8
#     4   9  17  28  42  64  94 125 156 188 223 265
#     4  11  20  31  46  66  93 127 164 199 234 279
#     4  10  21  36  53  74  98 124 155 191 231 275
#     4   9  17  31  51  74  98 123 155 193 233 279
#     4  10  18  31  51  73  97 126 155 189 233 275
#     4  10  20  33  49  68  91 121 157 199 245 287
#     4   9  18  31  44  62  93 131 164 197 241 287
#     4   8  14  25  41  60  84 116 156 200 242 281
#
# _framework density 15.994730000000001
#
# number of rings (size 3 to 8) (size 9 to 14) (size 15 to 20)
#    0.000    2.500    1.250    2.625    0.000    3.750 
#    0.000    1.250    0.000    2.625    0.000    0.000 
#    0.000    0.500    0.000    1.625    0.000    2.000 
#
# Total GULP energy -793494.457719 kJ/mol
# GULP energy per Si atom -12398.350902 kJ/mol
# Density = 1.595833 g / cm^3
# Si number density = 15.994730 Si / 1000 Ang^3
#
#
#
# Elastic Constant Matrix: (Units=GPa)
#
#
# Indices 1 2 3 4 5 6 
#
# 1 75.2173 45.5818 55.1050 0.0000 0.0000 0.0000
# 2 45.5818 93.2750 55.7914 0.0000 0.0000 0.0000
# 3 55.1050 55.7914 118.7303 0.0000 0.0000 0.0000
# 4 0.0000 0.0000 0.0000 11.1352 0.0000 0.0000
# 5 0.0000 0.0000 0.0000 0.0000 29.4214 0.0000
# 6 0.0000 0.0000 0.0000 0.0000 0.0000 21.5329
#
#
#
# Elastic Compliance Matrix: (Units=1/GPa)
#
#
# Indices 1 2 3 4 5 6 
#
# 1 0.022799 -0.006694 -0.007436 0.000000 0.000000 0.000000
# 2 -0.006694 0.016878 -0.004824 0.000000 0.000000 0.000000
# 3 -0.007436 -0.004824 0.014141 0.000000 0.000000 0.000000
# 4 0.000000 0.000000 0.000000 0.089805 0.000000 0.000000
# 5 0.000000 0.000000 0.000000 0.000000 0.033989 0.000000
# 6 0.000000 0.000000 0.000000 0.000000 0.000000 0.046441
#
#
# Mechanical properties :
#
#
# Convention : Reuss Voigt Hill
#
# Bulk Modulus (GPa) = 62.85614 66.68655 64.77134
# Shear Modulus (GPa) = 18.70819 21.13418 19.92119
#
# Velocity S-wave (km/s) = 3.42372 3.63894 3.53297
# Velocity P-wave (km/s) = 7.41704 7.70968 7.56478
#
# Compressibility (1/GPa) = 0.01590935
#
# Stress axis : x y z
#
# Youngs Moduli (GPa) = 43.86184 59.25044 70.71865
#
# Poissons Ratio (x) = 0.39660 0.52587
# Poissons Ratio (y) = 0.29359 0.34116
# Poissons Ratio (z) = 0.32616 0.28583
#
# Static dielectric constant tensor:
#      x y z
#    x 3.030890 0.000000 0.000000 
#    y 0.000000 3.064660 0.000000 
#    z 0.000000 0.000000 2.982910 
# 
# 
# High freq. dielectric constant tensor:
#      x y z
#    x 1.610330 0.000000 0.000000 
#    y 0.000000 1.598190 0.000000 
#    z 0.000000 0.000000 1.601450 
# 
# From -- ./inp_files/37609.got.cif
#   From: 2010.03.12/outbox.cif.g09.slc.cpg/sg51_19_cif.got.tgz:37609.got - 2010.04.16 13:43:02.
