data_PCOD8207862
_publ_section_title
;
Structure prediction by ZEFSAII (Michael W. Deem and Ramdas Pophale) SiO2 
 PCOD8207862
Probable space group: P M M A
;
_chemical_formula_sum "Si O2"
_cell_formula_units_Z 56
_cell_length_a 8.963567
_cell_length_b 24.524633
_cell_length_c 15.394717
_cell_angle_alpha 90.000000
_cell_angle_beta 90.000000
_cell_angle_gamma 90.000000
_cell_volume 3384.192790
_symmetry_space_group_name_H-M "P M M A"
_symmetry_group_IT_number 51
_symmetry_cell_setting 'orthorhombic'
loop_
_space_group_symop_operation_xyz
x,y,z
1/2-x,-y,z
1/2+x,-y,-z
-x,y,-z
-x,-y,-z
1/2+x,y,-z
1/2-x,y,z
x,-y,z
loop_
_atom_site_type_symbol
_atom_site_label
_atom_site_fract_x
_atom_site_fract_y
_atom_site_fract_z
Si Si1 0.923442 0.557536 0.908309
Si Si2 0.575331 0.937330 0.910709
Si Si3 0.920785 0.126386 0.241524
Si Si4 0.418334 0.743566 0.414290
Si Si5 0.079028 0.744441 0.759779
Si Si6 0.918400 0.873410 0.585300
Si Si7 0.426558 0.675956 0.094325
O O1 0.750000 0.558658 0.927507
O O2 0.964488 0.500000 0.857427
O O3 0.965598 0.615624 0.864320
O O4 0.000000 0.555548 0.000000
O O5 0.750000 0.927362 0.919471
O O6 0.512171 0.899843 0.835720
O O7 0.537047 0.000000 0.889609
O O8 0.500000 0.918742 0.000000
O O9 0.750000 0.107081 0.237996
O O10 0.934498 0.190943 0.233589
O O11 0.991627 0.105364 0.331361
O O12 0.500000 0.720348 0.500000
O O13 0.250000 0.720708 0.411866
O O14 0.504872 0.722749 0.329074
O O15 0.417451 0.808463 0.417188
O O16 0.250000 0.725257 0.760657
O O17 0.993195 0.720565 0.841858
O O18 0.750000 0.896160 0.588673
O O19 0.000000 0.896716 0.500000
O O20 0.250000 0.685312 0.085667
O O21 0.500000 0.683179 0.000000
#
# Coordination Sequence:
#
# PCOD8207862 Si02
#       7
#     8   8   8   8   8   8   8
#     4   8  14  25  41  60  81 108 146 189 228 266
#     4  10  21  37  56  75  93 115 147 189 233 273
#     4  10  20  33  50  71  94 122 154 187 225 269
#     4   9  16  27  44  65  89 118 151 187 226 266
#     4  10  20  32  45  65  94 125 156 188 223 267
#     4   9  16  27  45  69  96 123 151 183 219 264
#     4  10  19  30  44  62  88 123 157 189 228 271
#
# _framework density 16.547519999999999
#
# number of rings (size 3 to 8) (size 9 to 14) (size 15 to 20)
#    0.000    2.571    0.000    2.571    0.000    7.143 
#    0.000    0.000    0.000    0.429    0.000    0.000 
#    0.000    0.571    0.000    1.571    0.000    2.571 
#
# Total GULP energy -694015.317485 kJ/mol
# GULP energy per Si atom -12393.130669 kJ/mol
# Density = 1.650986 g / cm^3
# Si number density = 16.547520 Si / 1000 Ang^3
#
#
#
# Elastic Constant Matrix: (Units=GPa)
#
#
# Indices 1 2 3 4 5 6 
#
# 1 108.0722 25.4948 58.0821 0.0000 0.0000 0.0000
# 2 25.4948 24.6959 30.1780 0.0000 0.0000 0.0000
# 3 58.0821 30.1780 122.2276 0.0000 0.0000 0.0000
# 4 0.0000 0.0000 0.0000 -0.8784 0.0000 0.0000
# 5 0.0000 0.0000 0.0000 0.0000 34.5295 0.0000
# 6 0.0000 0.0000 0.0000 0.0000 0.0000 12.6971
#
#
#
# Elastic Compliance Matrix: (Units=1/GPa)
#
#
# Indices 1 2 3 4 5 6 
#
# 1 0.013651 -0.008829 -0.004307 0.000000 0.000000 0.000000
# 2 -0.008829 0.063699 -0.011532 0.000000 0.000000 0.000000
# 3 -0.004307 -0.011532 0.013075 0.000000 0.000000 0.000000
# 4 0.000000 0.000000 0.000000 -1.138421 0.000000 0.000000
# 5 0.000000 0.000000 0.000000 0.000000 0.028961 0.000000
# 6 0.000000 0.000000 0.000000 0.000000 0.000000 0.078758
#
#
# Mechanical properties :
#
#
# Convention : Reuss Voigt Hill
#
# Bulk Modulus (GPa) = 24.33724 53.61171 38.97448
# Shear Modulus (GPa) = -5.69966 18.68569 6.49302
#
# Velocity S-wave (km/s) = -1.85793 3.36402 1.98302
# Velocity P-wave (km/s) = 3.18385 6.89622 5.37097
#
# Compressibility (1/GPa) = 0.04108929
#
# Stress axis : x y z
#
# Youngs Moduli (GPa) = 73.25703 15.69883 76.48090
#
# Poissons Ratio (x) = 0.13861 0.32938
# Poissons Ratio (y) = 0.64681 0.88195
# Poissons Ratio (z) = 0.31550 0.18103
#
# Static dielectric constant tensor:
#      x y z
#    x 3.421300 0.000000 0.000000 
#    y 0.000000 3.141460 0.000000 
#    z 0.000000 0.000000 7.828160 
# 
# 
# High freq. dielectric constant tensor:
#      x y z
#    x 1.659220 0.000000 0.000000 
#    y 0.000000 1.603540 0.000000 
#    z 0.000000 0.000000 1.624730 
# 
# From -- ./inp_files/21781.got.cif
#   From: 2010.03.12/outbox.cif.g09.slc.cpg/sg51_11_cif.got.tgz:21781.got - 2010.04.16 13:43:02.
