data_PCOD8207938
_publ_section_title
;
Structure prediction by ZEFSAII (Michael W. Deem and Ramdas Pophale) SiO2 
 PCOD8207938
Probable space group: P M M A
;
_chemical_formula_sum "Si O2"
_cell_formula_units_Z 64
_cell_length_a 17.280677
_cell_length_b 9.237124
_cell_length_c 22.602954
_cell_angle_alpha 90.000000
_cell_angle_beta 90.000000
_cell_angle_gamma 90.000000
_cell_volume 3607.968420
_symmetry_space_group_name_H-M "P M M A"
_symmetry_group_IT_number 51
_symmetry_cell_setting 'orthorhombic'
loop_
_space_group_symop_operation_xyz
x,y,z
1/2-x,-y,z
1/2+x,-y,-z
-x,y,-z
-x,-y,-z
1/2+x,y,-z
1/2-x,y,z
x,-y,z
loop_
_atom_site_type_symbol
_atom_site_label
_atom_site_fract_x
_atom_site_fract_y
_atom_site_fract_z
Si Si1 0.664669 0.668653 0.211024
Si Si2 0.412035 0.162406 0.022136
Si Si3 0.627250 0.341105 0.082875
Si Si4 0.976698 0.166123 0.630016
Si Si5 0.544610 0.661731 0.871610
Si Si6 0.485505 0.168557 0.762092
Si Si7 0.662642 0.168132 0.548081
Si Si8 0.572454 0.337146 0.456694
O O1 0.750000 0.694401 0.239168
O O2 0.639723 0.500000 0.215834
O O3 0.670144 0.713749 0.141910
O O4 0.601098 0.766290 0.243688
O O5 0.400284 0.251692 0.083014
O O6 0.382989 0.000000 0.033736
O O7 0.500000 0.162289 0.000000
O O8 0.357780 0.232421 0.971391
O O9 0.657879 0.500000 0.064354
O O10 0.537102 0.351033 0.096867
O O11 0.971275 0.191114 0.699986
O O12 0.894422 0.213256 0.601702
O O13 0.047757 0.259011 0.603952
O O14 0.994864 0.000000 0.614688
O O15 0.577654 0.500000 0.859331
O O16 0.537175 0.748875 0.810313
O O17 0.479012 0.000000 0.779462
O O18 0.750000 0.205615 0.567879
O O19 0.643247 0.255255 0.488207
O O20 0.653259 0.000000 0.532735
O O21 0.500000 0.333457 0.500000
O O22 0.598599 0.500000 0.441731
#
# Coordination Sequence:
#
# PCOD8207938 Si02
#       8
#     8   8   8   8   8   8   8   8
#     4   9  18  32  47  62  84 117 156 196 237 283
#     4   9  15  22  35  57  83 107 133 171 219 267
#     4   8  14  24  38  56  78 105 137 175 223 275
#     4   9  18  32  49  70  97 128 160 193 231 278
#     4   9  16  26  40  58  83 114 146 181 222 270
#     4  10  19  30  45  66  92 121 155 196 237 276
#     4   9  17  31  52  75  98 125 156 190 231 280
#     4   9  17  29  47  71  97 124 153 187 228 271
#
# _framework density 17.738515
#
# number of rings (size 3 to 8) (size 9 to 14) (size 15 to 20)
#    0.000    3.000    0.000    2.250    0.000    7.500 
#    0.000    0.625    0.000    0.750    0.000    0.875 
#    0.000    3.000    0.000    0.000    0.000    0.000 
#
# Total GULP energy -793314.564717 kJ/mol
# GULP energy per Si atom -12395.540074 kJ/mol
# Density = 1.769814 g / cm^3
# Si number density = 17.738515 Si / 1000 Ang^3
#
#
#
# Elastic Constant Matrix: (Units=GPa)
#
#
# Indices 1 2 3 4 5 6 
#
# 1 54.9399 31.2677 29.8505 0.0000 0.0000 0.0000
# 2 31.2677 116.6822 57.2443 0.0000 0.0000 0.0000
# 3 29.8505 57.2443 93.4537 0.0000 0.0000 0.0000
# 4 0.0000 0.0000 0.0000 25.2205 0.0000 0.0000
# 5 0.0000 0.0000 0.0000 0.0000 11.2084 0.0000
# 6 0.0000 0.0000 0.0000 0.0000 0.0000 12.6787
#
#
#
# Elastic Compliance Matrix: (Units=1/GPa)
#
#
# Indices 1 2 3 4 5 6 
#
# 1 0.023073 -0.003670 -0.005122 0.000000 0.000000 0.000000
# 2 -0.003670 0.012836 -0.006690 0.000000 0.000000 0.000000
# 3 -0.005122 -0.006690 0.016435 0.000000 0.000000 0.000000
# 4 0.000000 0.000000 0.000000 0.039650 0.000000 0.000000
# 5 0.000000 0.000000 0.000000 0.000000 0.089219 0.000000
# 6 0.000000 0.000000 0.000000 0.000000 0.000000 0.078873
#
#
# Mechanical properties :
#
#
# Convention : Reuss Voigt Hill
#
# Bulk Modulus (GPa) = 46.77422 55.75562 51.26492
# Shear Modulus (GPa) = 16.76857 19.60240 18.18549
#
# Velocity S-wave (km/s) = 3.07794 3.32787 3.20534
# Velocity P-wave (km/s) = 6.24961 6.80195 6.53162
#
# Compressibility (1/GPa) = 0.02137930
#
# Stress axis : x y z
#
# Youngs Moduli (GPa) = 43.33995 77.90536 60.84750
#
# Poissons Ratio (x) = 0.28594 0.31165
# Poissons Ratio (y) = 0.15907 0.40709
# Poissons Ratio (z) = 0.22198 0.52121
#
# Static dielectric constant tensor:
#      x y z
#    x 3.013300 0.000000 0.000000 
#    y 0.000000 3.499540 0.000000 
#    z 0.000000 0.000000 3.188670 
# 
# 
# High freq. dielectric constant tensor:
#      x y z
#    x 1.640590 0.000000 0.000000 
#    y 0.000000 1.694320 0.000000 
#    z 0.000000 0.000000 1.672770 
# 
# From -- ./inp_files/35899.got.cif
#   From: 2010.03.12/outbox.cif.g09.slc.cpg/sg51_18_cif.got.tgz:35899.got - 2010.04.16 13:43:02.
