data_PCOD8207351
_publ_section_title
;
Structure prediction by ZEFSAII (Michael W. Deem and Ramdas Pophale) SiO2 
 PCOD8207351
Probable space group: P M M A
;
_chemical_formula_sum "Si O2"
_cell_formula_units_Z 40
_cell_length_a 16.292105
_cell_length_b 9.339788
_cell_length_c 13.333688
_cell_angle_alpha 90.000000
_cell_angle_beta 90.000000
_cell_angle_gamma 90.000000
_cell_volume 2028.918058
_symmetry_space_group_name_H-M "P M M A"
_symmetry_group_IT_number 51
_symmetry_cell_setting 'orthorhombic'
loop_
_space_group_symop_operation_xyz
x,y,z
1/2-x,-y,z
1/2+x,-y,-z
-x,y,-z
-x,-y,-z
1/2+x,y,-z
1/2-x,y,z
x,-y,z
loop_
_atom_site_type_symbol
_atom_site_label
_atom_site_fract_x
_atom_site_fract_y
_atom_site_fract_z
Si Si1 0.659225 0.661375 0.874627
Si Si2 0.568812 0.329282 0.424295
Si Si3 0.105294 0.837443 0.936757
Si Si4 0.750000 0.331423 0.408612
Si Si5 0.506283 0.335951 0.210601
Si Si6 0.250000 0.843884 0.783113
O O1 0.750000 0.693038 0.830201
O O2 0.654780 0.500000 0.918375
O O3 0.593131 0.677177 0.784336
O O4 0.641619 0.770107 0.963631
O O5 0.500000 0.266177 0.500000
O O6 0.563995 0.500000 0.425104
O O7 0.662112 0.277724 0.455604
O O8 0.545954 0.272638 0.312637
O O9 0.171310 0.828327 0.850478
O O10 0.028509 0.751086 0.890764
O O11 0.078789 0.000000 0.959991
O O12 0.750000 0.500000 0.412068
O O13 0.750000 0.285306 0.293836
O O14 0.534512 0.500000 0.196755
O O15 0.250000 0.000000 0.729016
#
# Coordination Sequence:
#
# PCOD8207351 Si02
#       6
#     8   8   8   4   8   4
#     4  10  21  35  50  72 105 145 181 211 254 312
#     4   9  18  33  53  81 109 131 166 217 264 311
#     4  11  21  34  53  78 106 138 176 219 264 306
#     4  10  18  32  58  81 100 136 174 209 266 317
#     4  10  20  35  54  76 106 139 175 219 263 309
#     4  10  20  32  50  77 106 134 170 217 262 301
#
# _framework density 19.714941
#
# number of rings (size 3 to 8) (size 9 to 14) (size 15 to 20)
#    0.000    2.000    3.000    1.200    0.000    4.000 
#    1.800    0.000    0.000    2.400    0.000    0.000 
#    0.000    0.000    0.000    0.000    0.000    0.000 
#
# Total GULP energy -495609.359945 kJ/mol
# GULP energy per Si atom -12390.233999 kJ/mol
# Density = 1.967007 g / cm^3
# Si number density = 19.714941 Si / 1000 Ang^3
#
#
#
# Elastic Constant Matrix: (Units=GPa)
#
#
# Indices 1 2 3 4 5 6 
#
# 1 168.8943 26.2894 36.0118 0.0000 0.0000 0.0000
# 2 26.2894 49.8040 14.1660 0.0000 0.0000 0.0000
# 3 36.0118 14.1660 43.5123 0.0000 0.0000 0.0000
# 4 0.0000 0.0000 0.0000 7.3173 0.0000 0.0000
# 5 0.0000 0.0000 0.0000 0.0000 28.8697 0.0000
# 6 0.0000 0.0000 0.0000 0.0000 0.0000 9.4521
#
#
#
# Elastic Compliance Matrix: (Units=1/GPa)
#
#
# Indices 1 2 3 4 5 6 
#
# 1 0.007441 -0.002398 -0.005377 0.000000 0.000000 0.000000
# 2 -0.002398 0.022901 -0.005471 0.000000 0.000000 0.000000
# 3 -0.005377 -0.005471 0.029214 0.000000 0.000000 0.000000
# 4 0.000000 0.000000 0.000000 0.136662 0.000000 0.000000
# 5 0.000000 0.000000 0.000000 0.000000 0.034638 0.000000
# 6 0.000000 0.000000 0.000000 0.000000 0.000000 0.105796
#
#
# Mechanical properties :
#
#
# Convention : Reuss Voigt Hill
#
# Bulk Modulus (GPa) = 30.24602 46.12724 38.18663
# Shear Modulus (GPa) = 13.36309 21.51074 17.43691
#
# Velocity S-wave (km/s) = 2.60631 3.30675 2.97720
# Velocity P-wave (km/s) = 4.94289 6.16663 5.58836
#
# Compressibility (1/GPa) = 0.03306220
#
# Stress axis : x y z
#
# Youngs Moduli (GPa) = 134.39577 43.66684 34.23073
#
# Poissons Ratio (x) = 0.10472 0.18407
# Poissons Ratio (y) = 0.32230 0.18727
# Poissons Ratio (z) = 0.72269 0.23890
#
# Static dielectric constant tensor:
#      x y z
#    x 4.301690 0.000000 0.000000 
#    y 0.000000 3.466950 0.000000 
#    z 0.000000 0.000000 3.306340 
# 
# 
# High freq. dielectric constant tensor:
#      x y z
#    x 1.800270 0.000000 0.000000 
#    y 0.000000 1.737880 0.000000 
#    z 0.000000 0.000000 1.731030 
# 
# From -- ./inp_files/23755.got.cif
#   From: 2010.03.12/outbox.cif.g09.slc.cpg/sg51_12_cif.got.tgz:23755.got - 2010.04.16 13:43:02.
