data_PCOD8207721
_publ_section_title
;
Structure prediction by ZEFSAII (Michael W. Deem and Ramdas Pophale) SiO2 
 PCOD8207721
Probable space group: P M M A
;
_chemical_formula_sum "Si O2"
_cell_formula_units_Z 36
_cell_length_a 8.914063
_cell_length_b 18.222972
_cell_length_c 14.330214
_cell_angle_alpha 90.000000
_cell_angle_beta 90.000000
_cell_angle_gamma 90.000000
_cell_volume 2327.810286
_symmetry_space_group_name_H-M "P M M A"
_symmetry_group_IT_number 51
_symmetry_cell_setting 'orthorhombic'
loop_
_space_group_symop_operation_xyz
x,y,z
1/2-x,-y,z
1/2+x,-y,-z
-x,y,-z
-x,-y,-z
1/2+x,y,-z
1/2-x,y,z
x,-y,z
loop_
_atom_site_type_symbol
_atom_site_label
_atom_site_fract_x
_atom_site_fract_y
_atom_site_fract_z
Si Si1 0.573083 0.500000 0.899551
Si Si2 0.074033 0.221796 0.899425
Si Si3 0.075230 0.583294 0.592111
Si Si4 0.425841 0.079574 0.100775
Si Si5 0.575362 0.631258 0.207487
O O1 0.750000 0.500000 0.911360
O O2 0.524301 0.572394 0.845380
O O3 0.500000 0.500000 0.000000
O O4 0.250000 0.211289 0.913755
O O5 0.036633 0.288885 0.831606
O O6 0.004897 0.148886 0.848712
O O7 0.000000 0.236438 0.000000
O O8 0.250000 0.584227 0.573776
O O9 0.017676 0.500000 0.608271
O O10 0.032707 0.630807 0.683048
O O11 0.000000 0.618173 0.500000
O O12 0.250000 0.095065 0.091158
O O13 0.453688 0.000000 0.150748
O O14 0.500000 0.076391 0.000000
O O15 0.750000 0.610689 0.193208
#
# Coordination Sequence:
#
# PCOD8207721 Si02
#       5
#     4   8   8   8   8
#     4  12  24  34  47  64  85 118 157 190 220 258
#     4  10  19  29  44  63  87 119 151 182 218 257
#     4   9  17  31  50  67  87 111 140 183 228 270
#     4   9  16  26  41  60  84 114 146 180 217 255
#     4  10  20  35  49  64  89 119 149 185 227 264
#
# _framework density 15.465178999999999
#
# number of rings (size 3 to 8) (size 9 to 14) (size 15 to 20)
#    0.000    2.222    1.111    4.333    0.000    5.778 
#    0.000    0.000    0.000    0.000    0.000    0.000 
#    0.000    0.889    0.000    2.000    0.000    4.000 
#
# Total GULP energy -446187.675041 kJ/mol
# GULP energy per Si atom -12394.102084 kJ/mol
# Density = 1.542998 g / cm^3
# Si number density = 15.465179 Si / 1000 Ang^3
#
#
#
# Elastic Constant Matrix: (Units=GPa)
#
#
# Indices 1 2 3 4 5 6 
#
# 1 89.7899 61.3304 44.6269 0.0000 0.0000 0.0000
# 2 61.3304 133.7986 58.9337 0.0000 0.0000 0.0000
# 3 44.6269 58.9337 99.1573 0.0000 0.0000 0.0000
# 4 0.0000 0.0000 0.0000 -6.1468 0.0000 0.0000
# 5 0.0000 0.0000 0.0000 0.0000 21.2899 0.0000
# 6 0.0000 0.0000 0.0000 0.0000 0.0000 24.4519
#
#
#
# Elastic Compliance Matrix: (Units=1/GPa)
#
#
# Indices 1 2 3 4 5 6 
#
# 1 0.017410 -0.006135 -0.004189 0.000000 0.000000 0.000000
# 2 -0.006135 0.012286 -0.004541 0.000000 0.000000 0.000000
# 3 -0.004189 -0.004541 0.014669 0.000000 0.000000 0.000000
# 4 0.000000 0.000000 0.000000 -0.162686 0.000000 0.000000
# 5 0.000000 0.000000 0.000000 0.000000 0.046971 0.000000
# 6 0.000000 0.000000 0.000000 0.000000 0.000000 0.040897
#
#
# Mechanical properties :
#
#
# Convention : Reuss Voigt Hill
#
# Bulk Modulus (GPa) = 68.33064 72.50311 70.41687
# Shear Modulus (GPa) = 1203.15066 18.44265 610.79665
#
# Velocity S-wave (km/s) = 27.92244 3.45705 19.89490
# Velocity P-wave (km/s) = 32.92157 7.93210 23.94523
#
# Compressibility (1/GPa) = 0.01463472
#
# Stress axis : x y z
#
# Youngs Moduli (GPa) = 57.43937 81.39123 68.16939
#
# Poissons Ratio (x) = 0.49934 0.28557
# Poissons Ratio (y) = 0.35240 0.30957
# Poissons Ratio (z) = 0.24062 0.36961
#
# Static dielectric constant tensor:
#      x y z
#    x 3.039040 0.000000 0.000000 
#    y 0.000000 3.458590 0.000000 
#    z 0.000000 0.000000 2.827370 
# 
# 
# High freq. dielectric constant tensor:
#      x y z
#    x 1.605240 0.000000 0.000000 
#    y 0.000000 1.592560 0.000000 
#    z 0.000000 0.000000 1.554000 
# 
# From -- ./inp_files/20773.got.cif
#   From: 2010.03.12/outbox.cif.g09.slc.cpg/sg51_11_cif.got.tgz:20773.got - 2010.04.16 13:43:02.
