data_PCOD8207632
_publ_section_title
;
Structure prediction by ZEFSAII (Michael W. Deem and Ramdas Pophale) SiO2 
 PCOD8207632
Probable space group: P M M A
;
_chemical_formula_sum "Si O2"
_cell_formula_units_Z 64
_cell_length_a 8.921347
_cell_length_b 20.196429
_cell_length_c 20.522773
_cell_angle_alpha 90.000000
_cell_angle_beta 90.000000
_cell_angle_gamma 90.000000
_cell_volume 3697.779925
_symmetry_space_group_name_H-M "P M M A"
_symmetry_group_IT_number 51
_symmetry_cell_setting 'orthorhombic'
loop_
_space_group_symop_operation_xyz
x,y,z
1/2-x,-y,z
1/2+x,-y,-z
-x,y,-z
-x,-y,-z
1/2+x,y,-z
1/2-x,y,z
x,-y,z
loop_
_atom_site_type_symbol
_atom_site_label
_atom_site_fract_x
_atom_site_fract_y
_atom_site_fract_z
Si Si1 0.074531 0.925995 0.299356
Si Si2 0.922113 0.883921 0.563983
Si Si3 0.078818 0.708166 0.252520
Si Si4 0.572990 0.924614 0.931772
Si Si5 0.073799 0.392530 0.565670
Si Si6 0.073968 0.427618 0.301707
Si Si7 0.429680 0.835059 0.186012
Si Si8 0.081192 0.736078 0.400092
O O1 0.250000 0.910137 0.305423
O O2 0.003477 0.915012 0.370991
O O3 0.003541 0.877722 0.245728
O O4 0.044014 0.000000 0.274977
O O5 0.750000 0.904345 0.559424
O O6 0.946458 0.805482 0.565942
O O7 0.000000 0.913485 0.500000
O O8 0.250000 0.699157 0.233016
O O9 0.009253 0.633000 0.256504
O O10 0.010823 0.758852 0.197584
O O11 0.059038 0.743438 0.322359
O O12 0.750000 0.919371 0.938995
O O13 0.512423 0.869935 0.880137
O O14 0.528528 0.000000 0.910957
O O15 0.500000 0.905382 0.000000
O O16 0.250000 0.405000 0.563768
O O17 0.000000 0.422299 0.500000
O O18 0.005546 0.428717 0.628434
O O19 0.038237 0.314374 0.569713
O O20 0.250000 0.414903 0.313933
O O21 0.046411 0.500000 0.268744
O O22 0.250000 0.836853 0.187176
O O23 0.250000 0.709850 0.413971
#
# Coordination Sequence:
#
# PCOD8207632 Si02
#       8
#     8   8   8   8   8   8   8   8
#     4   9  16  26  41  62  85 109 143 187 228 264
#     4  10  19  29  42  59  80 108 141 183 233 278
#     4   8  13  24  44  66  86 107 138 181 221 257
#     4   9  17  28  44  69 100 131 159 185 217 260
#     4  11  21  31  44  62  83 109 142 181 225 274
#     4   9  18  32  48  65  87 114 139 171 222 278
#     4   9  14  24  45  70  91 115 150 190 222 253
#     4   9  16  29  45  61  82 107 138 180 231 278
#
# _framework density 17.307683000000001
#
# number of rings (size 3 to 8) (size 9 to 14) (size 15 to 20)
#    0.000    2.750    1.250    2.625    0.000    3.750 
#    0.000    0.000    0.000    3.750    0.000    0.000 
#    0.000    0.500    0.000    0.375    0.000    0.750 
#
# Total GULP energy -792878.360991 kJ/mol
# GULP energy per Si atom -12388.724390 kJ/mol
# Density = 1.726829 g / cm^3
# Si number density = 17.307683 Si / 1000 Ang^3
#
#
#
# Elastic Constant Matrix: (Units=GPa)
#
#
# Indices 1 2 3 4 5 6 
#
# 1 34.3596 17.4768 16.3460 0.0000 0.0000 0.0000
# 2 17.4768 109.1957 67.5453 0.0000 0.0000 0.0000
# 3 16.3460 67.5453 100.4525 0.0000 0.0000 0.0000
# 4 0.0000 0.0000 0.0000 16.1274 0.0000 0.0000
# 5 0.0000 0.0000 0.0000 0.0000 17.9428 0.0000
# 6 0.0000 0.0000 0.0000 0.0000 0.0000 9.7062
#
#
#
# Elastic Compliance Matrix: (Units=1/GPa)
#
#
# Indices 1 2 3 4 5 6 
#
# 1 0.032216 -0.003276 -0.003040 0.000000 0.000000 0.000000
# 2 -0.003276 0.016013 -0.010234 0.000000 0.000000 0.000000
# 3 -0.003040 -0.010234 0.017331 0.000000 0.000000 0.000000
# 4 0.000000 0.000000 0.000000 0.062006 0.000000 0.000000
# 5 0.000000 0.000000 0.000000 0.000000 0.055733 0.000000
# 6 0.000000 0.000000 0.000000 0.000000 0.000000 0.103027
#
#
# Mechanical properties :
#
#
# Convention : Reuss Voigt Hill
#
# Bulk Modulus (GPa) = 30.80633 49.63822 40.22228
# Shear Modulus (GPa) = 15.14025 18.26458 16.70242
#
# Velocity S-wave (km/s) = 2.96086 3.25204 3.10986
# Velocity P-wave (km/s) = 5.43386 6.54547 6.01540
#
# Compressibility (1/GPa) = 0.03246086
#
# Stress axis : x y z
#
# Youngs Moduli (GPa) = 31.04017 62.45061 57.70004
#
# Poissons Ratio (x) = 0.20459 0.17538
# Poissons Ratio (y) = 0.10169 0.59050
# Poissons Ratio (z) = 0.09435 0.63912
#
# Static dielectric constant tensor:
#      x y z
#    x 2.794070 0.000000 0.000000 
#    y 0.000000 3.457440 0.000000 
#    z 0.000000 0.000000 3.104680 
# 
# 
# High freq. dielectric constant tensor:
#      x y z
#    x 1.620350 0.000000 0.000000 
#    y 0.000000 1.675590 0.000000 
#    z 0.000000 0.000000 1.633180 
# 
# From -- ./inp_files/32659.got.cif
#   From: 2010.03.12/outbox.cif.g09.slc.cpg/sg51_17_cif.got.tgz:32659.got - 2010.04.16 13:43:02.
