data_PCOD8207738
_publ_section_title
;
Structure prediction by ZEFSAII (Michael W. Deem and Ramdas Pophale) SiO2 
 PCOD8207738
Probable space group: P M M A
;
_chemical_formula_sum "Si O2"
_cell_formula_units_Z 56
_cell_length_a 18.986520
_cell_length_b 8.961324
_cell_length_c 17.843794
_cell_angle_alpha 90.000000
_cell_angle_beta 90.000000
_cell_angle_gamma 90.000000
_cell_volume 3036.020863
_symmetry_space_group_name_H-M "P M M A"
_symmetry_group_IT_number 51
_symmetry_cell_setting 'orthorhombic'
loop_
_space_group_symop_operation_xyz
x,y,z
1/2-x,-y,z
1/2+x,-y,-z
-x,y,-z
-x,-y,-z
1/2+x,y,-z
1/2-x,y,z
x,-y,z
loop_
_atom_site_type_symbol
_atom_site_label
_atom_site_fract_x
_atom_site_fract_y
_atom_site_fract_z
Si Si1 0.667762 0.176914 0.346102
Si Si2 0.043773 0.167580 0.307335
Si Si3 0.043809 0.324839 0.572073
Si Si4 0.067769 0.677202 0.955677
Si Si5 0.826129 0.676157 0.924681
Si Si6 0.419383 0.167232 0.798607
Si Si7 0.832053 0.327687 0.758426
O O1 0.750000 0.227483 0.352110
O O2 0.620532 0.247584 0.413619
O O3 0.635195 0.227072 0.265451
O O4 0.660661 0.000000 0.354140
O O5 0.123699 0.220594 0.295457
O O6 0.007478 0.287080 0.360319
O O7 0.999414 0.169037 0.230757
O O8 0.044110 0.000000 0.341600
O O9 0.058044 0.500000 0.566388
O O10 0.000000 0.266147 0.500000
O O11 0.064998 0.500000 0.951735
O O12 0.081278 0.731994 0.871988
O O13 0.129541 0.742342 0.007416
O O14 0.000000 0.738818 0.000000
O O15 0.750000 0.752121 0.930600
O O16 0.819750 0.500000 0.933456
O O17 0.857895 0.709601 0.842721
O O18 0.396824 0.000000 0.820940
O O19 0.750000 0.291245 0.747738
O O20 0.847164 0.500000 0.738868
#
# Coordination Sequence:
#
# PCOD8207738 Si02
#       7
#     8   8   8   8   8   8   8
#     4   9  19  37  59  82 110 143 177 215 261 314
#     4  10  20  34  53  75 101 134 169 206 249 302
#     4  10  21  37  58  84 111 138 170 210 254 301
#     4  10  19  29  44  67  93 125 169 218 262 305
#     4   8  15  28  44  63  90 124 161 203 253 303
#     4   9  19  33  48  70  99 132 170 212 259 307
#     4   9  17  31  52  74  97 129 168 212 260 304
#
# _framework density 18.445194999999998
#
# number of rings (size 3 to 8) (size 9 to 14) (size 15 to 20)
#    0.000    2.714    0.000    3.429    0.000    6.571 
#    0.000    1.429    0.000    1.714    0.000    0.000 
#    0.000    0.000    0.000    0.000    0.000    0.000 
#
# Total GULP energy -693872.971163 kJ/mol
# GULP energy per Si atom -12390.588771 kJ/mol
# Density = 1.840321 g / cm^3
# Si number density = 18.445195 Si / 1000 Ang^3
#
#
#
# Elastic Constant Matrix: (Units=GPa)
#
#
# Indices 1 2 3 4 5 6 
#
# 1 125.1735 35.2849 52.2459 0.0000 0.0000 0.0000
# 2 35.2849 38.1755 21.3769 0.0000 0.0000 0.0000
# 3 52.2459 21.3769 67.4549 0.0000 0.0000 0.0000
# 4 0.0000 0.0000 0.0000 21.5281 0.0000 0.0000
# 5 0.0000 0.0000 0.0000 0.0000 27.4505 0.0000
# 6 0.0000 0.0000 0.0000 0.0000 0.0000 23.9823
#
#
#
# Elastic Compliance Matrix: (Units=1/GPa)
#
#
# Indices 1 2 3 4 5 6 
#
# 1 0.013598 -0.008110 -0.007962 0.000000 0.000000 0.000000
# 2 -0.008110 0.036683 -0.005343 0.000000 0.000000 0.000000
# 3 -0.007962 -0.005343 0.022685 0.000000 0.000000 0.000000
# 4 0.000000 0.000000 0.000000 0.046451 0.000000 0.000000
# 5 0.000000 0.000000 0.000000 0.000000 0.036429 0.000000
# 6 0.000000 0.000000 0.000000 0.000000 0.000000 0.041697
#
#
# Mechanical properties :
#
#
# Convention : Reuss Voigt Hill
#
# Bulk Modulus (GPa) = 33.18425 49.84656 41.51541
# Shear Modulus (GPa) = 19.96638 22.71859 21.34249
#
# Velocity S-wave (km/s) = 3.29366 3.51334 3.40527
# Velocity P-wave (km/s) = 5.70036 6.59855 6.16583
#
# Compressibility (1/GPa) = 0.03013478
#
# Stress axis : x y z
#
# Youngs Moduli (GPa) = 73.53794 27.26052 44.08176
#
# Poissons Ratio (x) = 0.22109 0.35099
# Poissons Ratio (y) = 0.59641 0.23555
# Poissons Ratio (z) = 0.58553 0.14567
#
# Static dielectric constant tensor:
#      x y z
#    x 4.182190 0.000000 0.000000 
#    y 0.000000 3.150050 0.000000 
#    z 0.000000 0.000000 3.312850 
# 
# 
# High freq. dielectric constant tensor:
#      x y z
#    x 1.721480 0.000000 0.000000 
#    y 0.000000 1.694720 0.000000 
#    z 0.000000 0.000000 1.702700 
# 
# From -- ./inp_files/25785.got.cif
#   From: 2010.03.12/outbox.cif.g09.slc.cpg/sg51_13_cif.got.tgz:25785.got - 2010.04.16 13:43:02.
