data_PCOD8207571
_publ_section_title
;
Structure prediction by ZEFSAII (Michael W. Deem and Ramdas Pophale) SiO2 
 PCOD8207571
Probable space group: P M M A
;
_chemical_formula_sum "Si O2"
_cell_formula_units_Z 64
_cell_length_a 13.809045
_cell_length_b 9.188872
_cell_length_c 31.487641
_cell_angle_alpha 90.000000
_cell_angle_beta 90.000000
_cell_angle_gamma 90.000000
_cell_volume 3995.452501
_symmetry_space_group_name_H-M "P M M A"
_symmetry_group_IT_number 51
_symmetry_cell_setting 'orthorhombic'
loop_
_space_group_symop_operation_xyz
x,y,z
1/2-x,-y,z
1/2+x,-y,-z
-x,y,-z
-x,-y,-z
1/2+x,y,-z
1/2-x,y,z
x,-y,z
loop_
_atom_site_type_symbol
_atom_site_label
_atom_site_fract_x
_atom_site_fract_y
_atom_site_fract_z
Si Si1 0.861191 0.671463 0.179884
Si Si2 0.359391 0.166728 0.054615
Si Si3 0.356430 0.672441 0.481078
Si Si4 0.364680 0.336386 0.972427
Si Si5 0.043507 0.168577 0.895542
Si Si6 0.862510 0.829824 0.355913
Si Si7 0.364665 0.660421 0.725582
Si Si8 0.043208 0.672197 0.566384
O O1 0.750000 0.720646 0.172329
O O2 0.870475 0.500000 0.171697
O O3 0.932679 0.756776 0.148974
O O4 0.897035 0.711621 0.227494
O O5 0.250000 0.211652 0.067645
O O6 0.428922 0.189484 0.095176
O O7 0.362494 0.000000 0.038948
O O8 0.401652 0.264555 0.016308
O O9 0.250000 0.737026 0.470499
O O10 0.353853 0.500000 0.482633
O O11 0.432992 0.719603 0.445007
O O12 0.388933 0.725872 0.527708
O O13 0.250000 0.338585 0.973422
O O14 0.406518 0.500000 0.968845
O O15 0.394966 0.241724 0.932489
O O16 0.072279 0.000000 0.893228
O O17 0.750000 0.790011 0.363072
O O18 0.899739 0.773314 0.310175
O O19 0.926524 0.753608 0.391374
O O20 0.880783 0.000000 0.357840
O O21 0.250000 0.649756 0.726129
O O22 0.407400 0.500000 0.715265
O O23 0.052165 0.500000 0.573676
#
# Coordination Sequence:
#
# PCOD8207571 Si02
#       8
#     8   8   8   8   8   8   8   8
#     4   9  18  32  48  67  92 118 141 168 206 253
#     4   9  19  35  49  61  83 114 147 182 215 248
#     4   8  14  25  41  62  87 114 148 188 222 253
#     4  10  20  32  46  65  89 116 144 175 212 251
#     4  11  21  30  45  68  89 114 146 175 209 253
#     4  10  19  28  40  62  91 118 143 176 217 256
#     4   8  15  29  47  64  84 113 145 173 206 253
#     4   9  16  26  43  64  84 113 151 185 218 257
#
# _framework density 16.018211000000001
#
# number of rings (size 3 to 8) (size 9 to 14) (size 15 to 20)
#    0.000    2.750    0.000    3.750    0.000    6.750 
#    0.000    2.500    0.000    1.125    0.000    0.875 
#    0.000    1.000    0.000    0.000    0.000    0.000 
#
# Total GULP energy -793385.907630 kJ/mol
# GULP energy per Si atom -12396.654807 kJ/mol
# Density = 1.598175 g / cm^3
# Si number density = 16.018211 Si / 1000 Ang^3
#
#
#
# Elastic Constant Matrix: (Units=GPa)
#
#
# Indices 1 2 3 4 5 6 
#
# 1 70.7769 36.5073 54.8864 0.0000 0.0000 0.0000
# 2 36.5073 73.6503 61.7064 0.0000 0.0000 0.0000
# 3 54.8864 61.7064 134.5365 0.0000 0.0000 0.0000
# 4 0.0000 0.0000 0.0000 -0.4600 0.0000 0.0000
# 5 0.0000 0.0000 0.0000 0.0000 23.6882 0.0000
# 6 0.0000 0.0000 0.0000 0.0000 0.0000 16.5134
#
#
#
# Elastic Compliance Matrix: (Units=1/GPa)
#
#
# Indices 1 2 3 4 5 6 
#
# 1 0.021953 -0.005486 -0.006440 0.000000 0.000000 0.000000
# 2 -0.005486 0.023423 -0.008505 0.000000 0.000000 0.000000
# 3 -0.006440 -0.008505 0.013961 0.000000 0.000000 0.000000
# 4 0.000000 0.000000 0.000000 -2.173831 0.000000 0.000000
# 5 0.000000 0.000000 0.000000 0.000000 0.042215 0.000000
# 6 0.000000 0.000000 0.000000 0.000000 0.000000 0.060557
#
#
# Mechanical properties :
#
#
# Convention : Reuss Voigt Hill
#
# Bulk Modulus (GPa) = 54.12777 65.01820 59.57298
# Shear Modulus (GPa) = -2.54491 16.33922 6.89716
#
# Velocity S-wave (km/s) = -1.26183 3.19727 2.07730
# Velocity P-wave (km/s) = 5.63399 7.36942 6.55935
#
# Compressibility (1/GPa) = 0.01847481
#
# Stress axis : x y z
#
# Youngs Moduli (GPa) = 45.55273 42.69347 71.62865
#
# Poissons Ratio (x) = 0.23423 0.46126
# Poissons Ratio (y) = 0.24992 0.60919
# Poissons Ratio (z) = 0.29334 0.36310
#
# Static dielectric constant tensor:
#      x y z
#    x 3.102580 0.000000 0.000000 
#    y 0.000000 3.038160 0.000000 
#    z 0.000000 0.000000 3.065040 
# 
# 
# High freq. dielectric constant tensor:
#      x y z
#    x 1.594070 0.000000 0.000000 
#    y 0.000000 1.609880 0.000000 
#    z 0.000000 0.000000 1.606730 
# 
# From -- ./inp_files/37805.got.cif
#   From: 2010.03.12/outbox.cif.g09.slc.cpg/sg51_19_cif.got.tgz:37805.got - 2010.04.16 13:43:02.
