data_PCOD8207901
_publ_section_title
;
Structure prediction by ZEFSAII (Michael W. Deem and Ramdas Pophale) SiO2 
 PCOD8207901
Probable space group: P M M A
;
_chemical_formula_sum "Si O2"
_cell_formula_units_Z 48
_cell_length_a 13.776262
_cell_length_b 9.266557
_cell_length_c 21.350231
_cell_angle_alpha 90.000000
_cell_angle_beta 90.000000
_cell_angle_gamma 90.000000
_cell_volume 2725.538829
_symmetry_space_group_name_H-M "P M M A"
_symmetry_group_IT_number 51
_symmetry_cell_setting 'orthorhombic'
loop_
_space_group_symop_operation_xyz
x,y,z
1/2-x,-y,z
1/2+x,-y,-z
-x,y,-z
-x,-y,-z
1/2+x,y,-z
1/2-x,y,z
x,-y,z
loop_
_atom_site_type_symbol
_atom_site_label
_atom_site_fract_x
_atom_site_fract_y
_atom_site_fract_z
Si Si1 0.546733 0.166856 0.150869
Si Si2 0.364830 0.337903 0.962226
Si Si3 0.859255 0.165623 0.917714
Si Si4 0.639908 0.171678 0.278637
Si Si5 0.452313 0.171706 0.594668
Si Si6 0.356675 0.828282 0.467850
O O1 0.604758 0.254938 0.099554
O O2 0.430630 0.188039 0.141602
O O3 0.577631 0.225023 0.219040
O O4 0.576489 0.000000 0.143495
O O5 0.250000 0.337834 0.964915
O O6 0.406718 0.500000 0.960968
O O7 0.402812 0.259303 0.025119
O O8 0.750000 0.212815 0.898209
O O9 0.859991 0.000000 0.940098
O O10 0.750000 0.230336 0.273651
O O11 0.588810 0.237157 0.340644
O O12 0.640576 0.000000 0.282310
O O13 0.563455 0.224629 0.582879
O O14 0.385748 0.226341 0.537243
O O15 0.449666 0.000000 0.597665
O O16 0.250000 0.766661 0.450362
O O17 0.354889 0.000000 0.468644
#
# Coordination Sequence:
#
# PCOD8207901 Si02
#       6
#     8   8   8   8   8   8
#     4  10  19  30  45  64  85 112 145 176 209 253
#     4  10  20  32  47  68  90 110 136 174 218 258
#     4   9  18  32  47  62  83 111 141 174 214 258
#     4   9  16  25  37  53  74 101 134 170 204 242
#     4   8  13  20  30  46  68  96 131 166 199 237
#     4   8  12  18  29  45  67  96 129 164 201 240
#
# _framework density 17.611196
#
# number of rings (size 3 to 8) (size 9 to 14) (size 15 to 20)
#    0.000    3.000    0.000    3.000    0.000    6.333 
#    0.000    0.833    0.000    5.000    0.000    0.000 
#    0.000    0.000    0.000    3.000    0.000    8.667 
#
# Total GULP energy -594915.595352 kJ/mol
# GULP energy per Si atom -12394.074903 kJ/mol
# Density = 1.757111 g / cm^3
# Si number density = 17.611196 Si / 1000 Ang^3
#
#
#
# Elastic Constant Matrix: (Units=GPa)
#
#
# Indices 1 2 3 4 5 6 
#
# 1 119.2089 19.0106 80.7180 0.0000 0.0000 0.0000
# 2 19.0106 32.0453 25.1648 0.0000 0.0000 0.0000
# 3 80.7180 25.1648 145.7676 0.0000 0.0000 0.0000
# 4 0.0000 0.0000 0.0000 -0.2979 0.0000 0.0000
# 5 0.0000 0.0000 0.0000 0.0000 30.4506 0.0000
# 6 0.0000 0.0000 0.0000 0.0000 0.0000 9.5534
#
#
#
# Elastic Compliance Matrix: (Units=1/GPa)
#
#
# Indices 1 2 3 4 5 6 
#
# 1 0.013590 -0.002490 -0.007096 0.000000 0.000000 0.000000
# 2 -0.002490 0.036556 -0.004932 0.000000 0.000000 0.000000
# 3 -0.007096 -0.004932 0.011641 0.000000 0.000000 0.000000
# 4 0.000000 0.000000 0.000000 -3.356851 0.000000 0.000000
# 5 0.000000 0.000000 0.000000 0.000000 0.032840 0.000000
# 6 0.000000 0.000000 0.000000 0.000000 0.000000 0.104675
#
#
# Mechanical properties :
#
#
# Convention : Reuss Voigt Hill
#
# Bulk Modulus (GPa) = 30.53285 60.75652 45.64468
# Shear Modulus (GPa) = -1.60380 19.41644 8.90632
#
# Velocity S-wave (km/s) = -0.95533 3.32400 2.25126
# Velocity P-wave (km/s) = 4.01970 7.02180 5.72117
#
# Compressibility (1/GPa) = 0.03275161
#
# Stress axis : x y z
#
# Youngs Moduli (GPa) = 73.58172 27.35519 85.90430
#
# Poissons Ratio (x) = 0.06812 0.60955
# Poissons Ratio (y) = 0.18323 0.42368
# Poissons Ratio (z) = 0.52211 0.13492
#
# Static dielectric constant tensor:
#      x y z
#    x 3.645260 0.000000 0.000000 
#    y 0.000000 2.824070 0.000000 
#    z 0.000000 0.000000 3.348780 
# 
# 
# High freq. dielectric constant tensor:
#      x y z
#    x 1.698290 0.000000 0.000000 
#    y 0.000000 1.618780 0.000000 
#    z 0.000000 0.000000 1.667730 
# 
# From -- ./inp_files/33192.got.cif
#   From: 2010.03.12/outbox.cif.g09.slc.cpg/sg51_17_cif.got.tgz:33192.got - 2010.04.16 13:43:02.
