data_PCOD8207473
_publ_section_title
;
Structure prediction by ZEFSAII (Michael W. Deem and Ramdas Pophale) SiO2 
 PCOD8207473
Probable space group: P M M A
;
_chemical_formula_sum "Si O2"
_cell_formula_units_Z 64
_cell_length_a 30.549344
_cell_length_b 9.031312
_cell_length_c 11.979451
_cell_angle_alpha 90.000000
_cell_angle_beta 90.000000
_cell_angle_gamma 90.000000
_cell_volume 3305.138402
_symmetry_space_group_name_H-M "P M M A"
_symmetry_group_IT_number 51
_symmetry_cell_setting 'orthorhombic'
loop_
_space_group_symop_operation_xyz
x,y,z
1/2-x,-y,z
1/2+x,-y,-z
-x,y,-z
-x,-y,-z
1/2+x,y,-z
1/2-x,y,z
x,-y,z
loop_
_atom_site_type_symbol
_atom_site_label
_atom_site_fract_x
_atom_site_fract_y
_atom_site_fract_z
Si Si1 0.700711 0.667798 0.537267
Si Si2 0.320813 0.832208 0.244164
Si Si3 0.422190 0.832901 0.221041
Si Si4 0.045536 0.175489 0.456759
Si Si5 0.872914 0.824652 0.402481
Si Si6 0.949586 0.674061 0.996605
Si Si7 0.701389 0.824211 0.001337
Si Si8 0.879624 0.824405 0.146485
O O1 0.750000 0.675080 0.490734
O O2 0.683454 0.500000 0.542288
O O3 0.700910 0.732674 0.661782
O O4 0.671364 0.759991 0.452421
O O5 0.372539 0.828575 0.261031
O O6 0.307734 0.765834 0.123632
O O7 0.303274 0.000000 0.256259
O O8 0.450596 0.780912 0.326991
O O9 0.429700 0.719352 0.121868
O O10 0.434589 0.000000 0.182663
O O11 0.085482 0.239980 0.530004
O O12 0.000000 0.244222 0.500000
O O13 0.045699 0.000000 0.470778
O O14 0.877049 0.774963 0.274476
O O15 0.869897 0.000000 0.413691
O O16 0.944627 0.500000 0.012830
O O17 0.923295 0.754125 0.095068
O O18 0.000000 0.724695 0.000000
O O19 0.750000 0.772075 0.040151
O O20 0.698331 0.000000 0.000855
O O21 0.664007 0.762595 0.084423
O O22 0.883437 0.000000 0.133000
#
# Coordination Sequence:
#
# PCOD8207473 Si02
#       8
#     8   8   8   8   8   8   8   8
#     4  11  24  39  56  82 118 158 197 236 282 342
#     4  10  18  34  59  86 114 146 187 237 291 337
#     4  10  19  35  62  88 113 146 189 240 289 339
#     4   9  18  33  55  86 116 141 178 234 294 340
#     4  10  21  38  60  85 113 148 192 241 289 340
#     4  11  25  41  57  82 120 159 194 234 284 343
#     4   9  17  31  53  83 115 142 175 229 290 338
#     4  10  21  38  61  87 113 146 193 241 286 338
#
# _framework density 19.363786999999999
#
# number of rings (size 3 to 8) (size 9 to 14) (size 15 to 20)
#    0.000    2.000    2.500    1.125    1.750    4.000 
#    0.000    1.250    0.000    1.125    0.000    0.000 
#    0.000    0.000    0.000    0.000    0.000    0.000 
#
# Total GULP energy -793684.188699 kJ/mol
# GULP energy per Si atom -12401.315448 kJ/mol
# Density = 1.931971 g / cm^3
# Si number density = 19.363787 Si / 1000 Ang^3
#
#
#
# Elastic Constant Matrix: (Units=GPa)
#
#
# Indices 1 2 3 4 5 6 
#
# 1 106.9461 24.6033 45.0915 0.0000 0.0000 0.0000
# 2 24.6033 31.4950 32.2387 0.0000 0.0000 0.0000
# 3 45.0915 32.2387 119.1215 0.0000 0.0000 0.0000
# 4 0.0000 0.0000 0.0000 9.7656 0.0000 0.0000
# 5 0.0000 0.0000 0.0000 0.0000 31.3026 0.0000
# 6 0.0000 0.0000 0.0000 0.0000 0.0000 21.4864
#
#
#
# Elastic Compliance Matrix: (Units=1/GPa)
#
#
# Indices 1 2 3 4 5 6 
#
# 1 0.012030 -0.006551 -0.002781 0.000000 0.000000 0.000000
# 2 -0.006551 0.047485 -0.010371 0.000000 0.000000 0.000000
# 3 -0.002781 -0.010371 0.012254 0.000000 0.000000 0.000000
# 4 0.000000 0.000000 0.000000 0.102400 0.000000 0.000000
# 5 0.000000 0.000000 0.000000 0.000000 0.031946 0.000000
# 6 0.000000 0.000000 0.000000 0.000000 0.000000 0.046541
#
#
# Mechanical properties :
#
#
# Convention : Reuss Voigt Hill
#
# Bulk Modulus (GPa) = 30.89978 51.26995 41.08486
# Shear Modulus (GPa) = 16.50975 22.88620 19.69798
#
# Velocity S-wave (km/s) = 2.92312 3.44162 3.19291
# Velocity P-wave (km/s) = 5.23306 6.50597 5.90392
#
# Compressibility (1/GPa) = 0.03236269
#
# Stress axis : x y z
#
# Youngs Moduli (GPa) = 83.12489 21.05925 81.60413
#
# Poissons Ratio (x) = 0.13796 0.22692
# Poissons Ratio (y) = 0.54457 0.84635
# Poissons Ratio (z) = 0.23115 0.21841
#
# Static dielectric constant tensor:
#      x y z
#    x 3.779210 0.000000 0.000000 
#    y 0.000000 3.182470 0.000000 
#    z 0.000000 0.000000 3.581260 
# 
# 
# High freq. dielectric constant tensor:
#      x y z
#    x 1.767910 0.000000 0.000000 
#    y 0.000000 1.713900 0.000000 
#    z 0.000000 0.000000 1.758960 
# 
# From -- ./inp_files/19510.got.cif
#   From: 2010.03.12/outbox.cif.g09.slc.cpg/sg51_10_cif.got.tgz:19510.got - 2010.04.16 13:43:02.
