data_PCOD8207574
_publ_section_title
;
Structure prediction by ZEFSAII (Michael W. Deem and Ramdas Pophale) SiO2 
 PCOD8207574
Probable space group: P M M A
;
_chemical_formula_sum "Si O2"
_cell_formula_units_Z 48
_cell_length_a 8.992266
_cell_length_b 13.679985
_cell_length_c 23.682850
_cell_angle_alpha 90.000000
_cell_angle_beta 90.000000
_cell_angle_gamma 90.000000
_cell_volume 2913.323626
_symmetry_space_group_name_H-M "P M M A"
_symmetry_group_IT_number 51
_symmetry_cell_setting 'orthorhombic'
loop_
_space_group_symop_operation_xyz
x,y,z
1/2-x,-y,z
1/2+x,-y,-z
-x,y,-z
-x,-y,-z
1/2+x,y,-z
1/2-x,y,z
x,-y,z
loop_
_atom_site_type_symbol
_atom_site_label
_atom_site_fract_x
_atom_site_fract_y
_atom_site_fract_z
Si Si1 0.422288 0.611312 0.388222
Si Si2 0.920889 0.110568 0.658919
Si Si3 0.080229 0.293475 0.270434
Si Si4 0.074258 0.788606 0.557818
Si Si5 0.082599 0.383630 0.055022
Si Si6 0.424403 0.611845 0.832173
O O1 0.250000 0.631125 0.402502
O O2 0.467948 0.500000 0.399901
O O3 0.453315 0.635460 0.322922
O O4 0.521835 0.678582 0.428344
O O5 0.750000 0.125694 0.639637
O O6 0.954573 0.181735 0.711614
O O7 0.025077 0.136488 0.606370
O O8 0.952499 0.000000 0.678542
O O9 0.250000 0.305820 0.250100
O O10 0.971788 0.321124 0.219901
O O11 0.250000 0.790655 0.551550
O O12 0.000000 0.824506 0.500000
O O13 0.250000 0.343243 0.055350
O O14 0.079670 0.500000 0.052870
O O15 0.000987 0.346803 0.111393
O O16 0.000000 0.340619 0.000000
O O17 0.250000 0.619674 0.841209
O O18 0.473469 0.500000 0.820393
#
# Coordination Sequence:
#
# PCOD8207574 Si02
#       6
#     8   8   8   8   8   8
#     4   9  18  33  51  69  92 123 156 189 226 268
#     4   9  19  37  57  73  91 116 146 184 232 282
#     4   9  17  30  48  69  91 116 148 185 226 271
#     4  11  22  35  51  71  95 120 149 185 224 271
#     4   9  16  26  40  58  84 120 160 198 232 265
#     4  10  19  28  40  62  93 128 162 192 222 259
#
# _framework density 16.476026000000001
#
# number of rings (size 3 to 8) (size 9 to 14) (size 15 to 20)
#    0.000    2.500    0.000    4.000    0.000    7.667 
#    0.000    0.000    0.000    0.000    0.000    0.000 
#    0.000    0.667    0.000    1.833    0.000    2.667 
#
# Total GULP energy -595267.387218 kJ/mol
# GULP energy per Si atom -12401.403900 kJ/mol
# Density = 1.643853 g / cm^3
# Si number density = 16.476026 Si / 1000 Ang^3
#
#
#
# Elastic Constant Matrix: (Units=GPa)
#
#
# Indices 1 2 3 4 5 6 
#
# 1 104.5932 28.9022 55.4802 0.0000 0.0000 0.0000
# 2 28.9022 79.0271 27.5314 0.0000 0.0000 0.0000
# 3 55.4802 27.5314 100.2140 0.0000 0.0000 0.0000
# 4 0.0000 0.0000 0.0000 11.3820 0.0000 0.0000
# 5 0.0000 0.0000 0.0000 0.0000 34.3670 0.0000
# 6 0.0000 0.0000 0.0000 0.0000 0.0000 18.8216
#
#
#
# Elastic Compliance Matrix: (Units=1/GPa)
#
#
# Indices 1 2 3 4 5 6 
#
# 1 0.014032 -0.002682 -0.007031 0.000000 0.000000 0.000000
# 2 -0.002682 0.014506 -0.002500 0.000000 0.000000 0.000000
# 3 -0.007031 -0.002500 0.014558 0.000000 0.000000 0.000000
# 4 0.000000 0.000000 0.000000 0.087858 0.000000 0.000000
# 5 0.000000 0.000000 0.000000 0.000000 0.029098 0.000000
# 6 0.000000 0.000000 0.000000 0.000000 0.000000 0.053130
#
#
# Mechanical properties :
#
#
# Convention : Reuss Voigt Hill
#
# Bulk Modulus (GPa) = 53.56686 56.40689 54.98688
# Shear Modulus (GPa) = 20.50590 24.37549 22.44070
#
# Velocity S-wave (km/s) = 3.53170 3.85054 3.69456
# Velocity P-wave (km/s) = 7.01521 7.35384 7.18652
#
# Compressibility (1/GPa) = 0.01866826
#
# Stress axis : x y z
#
# Youngs Moduli (GPa) = 71.26729 68.93765 68.68992
#
# Poissons Ratio (x) = 0.18490 0.48298
# Poissons Ratio (y) = 0.19115 0.17174
# Poissons Ratio (z) = 0.50110 0.17236
#
# Static dielectric constant tensor:
#      x y z
#    x 3.109760 0.000000 0.000000 
#    y 0.000000 2.943530 0.000000 
#    z 0.000000 0.000000 3.046050 
# 
# 
# High freq. dielectric constant tensor:
#      x y z
#    x 1.640570 0.000000 0.000000 
#    y 0.000000 1.599740 0.000000 
#    z 0.000000 0.000000 1.628520 
# 
# From -- ./inp_files/31597.got.cif
#   From: 2010.03.12/outbox.cif.g09.slc.cpg/sg51_16_cif.got.tgz:31597.got - 2010.04.16 13:43:02.
