data_PCOD8207332
_publ_section_title
;
Structure prediction by ZEFSAII (Michael W. Deem and Ramdas Pophale) SiO2 
 PCOD8207332
Probable space group: P M M A
;
_chemical_formula_sum "Si O2"
_cell_formula_units_Z 56
_cell_length_a 21.747597
_cell_length_b 9.314459
_cell_length_c 14.776956
_cell_angle_alpha 90.000000
_cell_angle_beta 90.000000
_cell_angle_gamma 90.000000
_cell_volume 2993.325133
_symmetry_space_group_name_H-M "P M M A"
_symmetry_group_IT_number 51
_symmetry_cell_setting 'orthorhombic'
loop_
_space_group_symop_operation_xyz
x,y,z
1/2-x,-y,z
1/2+x,-y,-z
-x,y,-z
-x,-y,-z
1/2+x,y,-z
1/2-x,y,z
x,-y,z
loop_
_atom_site_type_symbol
_atom_site_label
_atom_site_fract_x
_atom_site_fract_y
_atom_site_fract_z
Si Si1 0.250000 0.662944 0.553305
Si Si2 0.547376 0.167225 0.301157
Si Si3 0.870228 0.164414 0.464104
Si Si4 0.250000 0.338607 0.766989
Si Si5 0.413535 0.164431 0.339219
Si Si6 0.820941 0.836098 0.957858
Si Si7 0.178468 0.332321 0.218776
Si Si8 0.360114 0.834897 0.848189
O O1 0.250000 0.500000 0.516163
O O2 0.309913 0.742714 0.516174
O O3 0.250000 0.666813 0.660294
O O4 0.592075 0.231007 0.379088
O O5 0.478651 0.231360 0.305843
O O6 0.574801 0.196780 0.200928
O O7 0.541171 0.000000 0.323062
O O8 0.912945 0.173618 0.552361
O O9 0.850365 0.000000 0.444082
O O10 0.250000 0.500000 0.804380
O O11 0.189567 0.262718 0.801273
O O12 0.358976 0.259226 0.298904
O O13 0.404766 0.000000 0.306651
O O14 0.750000 0.807729 0.985558
O O15 0.842384 0.733264 0.877317
O O16 0.829936 0.000000 0.926051
O O17 0.863669 0.801122 0.044811
O O18 0.250000 0.299635 0.236294
O O19 0.164245 0.500000 0.216653
O O20 0.340441 0.000000 0.833512
#
# Coordination Sequence:
#
# PCOD8207332 Si02
#       8
#     4   8   8   4   8   8   8   8
#     4  11  23  35  49  78 117 148 181 225 270 316
#     4   9  18  34  57  83 112 143 178 222 268 323
#     4  10  20  35  58  82 109 144 184 225 271 320
#     4  11  21  31  47  76 115 150 179 219 266 316
#     4  10  21  37  58  83 107 139 185 230 273 319
#     4   9  17  31  54  83 109 136 176 225 271 319
#     4  10  22  39  57  78 106 143 182 226 277 325
#     4  10  18  32  56  83 111 144 179 219 270 323
#
# _framework density 18.708293000000001
#
# number of rings (size 3 to 8) (size 9 to 14) (size 15 to 20)
#    0.000    2.143    2.143    1.286    1.000    4.286 
#    0.000    2.143    0.000    6.000    0.000    0.000 
#    0.000    0.000    0.000    0.000    0.000    0.000 
#
# Total GULP energy -694447.176257 kJ/mol
# GULP energy per Si atom -12400.842433 kJ/mol
# Density = 1.866571 g / cm^3
# Si number density = 18.708293 Si / 1000 Ang^3
#
#
#
# Elastic Constant Matrix: (Units=GPa)
#
#
# Indices 1 2 3 4 5 6 
#
# 1 90.8690 38.5221 32.9727 0.0000 0.0000 0.0000
# 2 38.5221 75.3746 30.3171 0.0000 0.0000 0.0000
# 3 32.9727 30.3171 91.5157 0.0000 0.0000 0.0000
# 4 0.0000 0.0000 0.0000 19.5097 0.0000 0.0000
# 5 0.0000 0.0000 0.0000 0.0000 24.9404 0.0000
# 6 0.0000 0.0000 0.0000 0.0000 0.0000 8.6745
#
#
#
# Elastic Compliance Matrix: (Units=1/GPa)
#
#
# Indices 1 2 3 4 5 6 
#
# 1 0.014852 -0.006274 -0.003273 0.000000 0.000000 0.000000
# 2 -0.006274 0.017957 -0.003688 0.000000 0.000000 0.000000
# 3 -0.003273 -0.003688 0.013328 0.000000 0.000000 0.000000
# 4 0.000000 0.000000 0.000000 0.051257 0.000000 0.000000
# 5 0.000000 0.000000 0.000000 0.000000 0.040096 0.000000
# 6 0.000000 0.000000 0.000000 0.000000 0.000000 0.115281
#
#
# Mechanical properties :
#
#
# Convention : Reuss Voigt Hill
#
# Bulk Modulus (GPa) = 50.84629 51.26479 51.05554
# Shear Modulus (GPa) = 17.49496 21.02139 19.25817
#
# Velocity S-wave (km/s) = 3.06133 3.35571 3.21190
# Velocity P-wave (km/s) = 6.30342 6.51737 6.41129
#
# Compressibility (1/GPa) = 0.01966712
#
# Stress axis : x y z
#
# Youngs Moduli (GPa) = 67.32993 55.68800 75.02976
#
# Poissons Ratio (x) = 0.34940 0.24555
# Poissons Ratio (y) = 0.42245 0.27673
# Poissons Ratio (z) = 0.22035 0.20539
#
# Static dielectric constant tensor:
#      x y z
#    x 3.406110 0.000000 0.000000 
#    y 0.000000 3.346400 0.000000 
#    z 0.000000 0.000000 3.434690 
# 
# 
# High freq. dielectric constant tensor:
#      x y z
#    x 1.713750 0.000000 0.000000 
#    y 0.000000 1.705720 0.000000 
#    z 0.000000 0.000000 1.731120 
# 
# From -- ./inp_files/25800.got.cif
#   From: 2010.03.12/outbox.cif.g09.slc.cpg/sg51_13_cif.got.tgz:25800.got - 2010.04.16 13:43:02.
