data_PCOD8207491
_publ_section_title
;
Structure prediction by ZEFSAII (Michael W. Deem and Ramdas Pophale) SiO2 
 PCOD8207491
Probable space group: P M M A
;
_chemical_formula_sum "Si O2"
_cell_formula_units_Z 64
_cell_length_a 15.353400
_cell_length_b 8.930497
_cell_length_c 23.833892
_cell_angle_alpha 90.000000
_cell_angle_beta 90.000000
_cell_angle_gamma 90.000000
_cell_volume 3267.948175
_symmetry_space_group_name_H-M "P M M A"
_symmetry_group_IT_number 51
_symmetry_cell_setting 'orthorhombic'
loop_
_space_group_symop_operation_xyz
x,y,z
1/2-x,-y,z
1/2+x,-y,-z
-x,y,-z
-x,-y,-z
1/2+x,y,-z
1/2-x,y,z
x,-y,z
loop_
_atom_site_type_symbol
_atom_site_label
_atom_site_fract_x
_atom_site_fract_y
_atom_site_fract_z
Si Si1 0.348732 0.171556 0.620088
Si Si2 0.154046 0.822583 0.118367
Si Si3 0.495338 0.323364 0.689432
Si Si4 0.402263 0.825478 0.496708
Si Si5 0.653270 0.673170 0.613763
Si Si6 0.897044 0.828839 0.003085
Si Si7 0.150281 0.672153 0.884514
Si Si8 0.993091 0.177995 0.190000
O O1 0.250000 0.195209 0.640796
O O2 0.409749 0.282950 0.654309
O O3 0.353149 0.210972 0.554380
O O4 0.378976 0.000000 0.629951
O O5 0.250000 0.772824 0.139865
O O6 0.140814 0.764038 0.055083
O O7 0.079877 0.757876 0.159456
O O8 0.144823 0.000000 0.117055
O O9 0.498316 0.500000 0.699634
O O10 0.581113 0.263637 0.656780
O O11 0.491191 0.240515 0.747984
O O12 0.500000 0.760668 0.500000
O O13 0.350663 0.749934 0.446456
O O14 0.404411 0.000000 0.483350
O O15 0.750000 0.700845 0.639027
O O16 0.634407 0.500000 0.603764
O O17 0.867365 0.000000 0.013788
O O18 0.859495 0.726303 0.051881
O O19 0.000000 0.818268 0.000000
O O20 0.250000 0.691302 0.865328
O O21 0.120757 0.500000 0.880675
O O22 0.092006 0.770427 0.843192
O O23 0.993018 0.000000 0.191955
#
# Coordination Sequence:
#
# PCOD8207491 Si02
#       8
#     8   8   8   8   8   8   8   8
#     4  10  21  38  60  87 118 152 190 234 287 345
#     4   9  18  34  58  88 119 149 186 235 286 339
#     4  11  24  41  60  83 114 152 195 242 292 341
#     4  10  19  34  60  90 120 150 187 238 290 341
#     4  10  22  39  59  85 119 158 196 233 282 348
#     4  10  18  34  61  91 120 154 193 234 285 343
#     4  11  24  40  59  87 122 157 194 238 290 347
#     4  11  23  41  63  85 112 150 199 245 291 344
#
# _framework density 19.584154999999999
#
# number of rings (size 3 to 8) (size 9 to 14) (size 15 to 20)
#    0.000    1.750    2.500    1.875    0.000    5.000 
#    0.000    0.000    0.000    1.875    0.000    0.000 
#    0.000    0.000    0.000    0.000    0.000    0.000 
#
# Total GULP energy -793745.812631 kJ/mol
# GULP energy per Si atom -12402.278322 kJ/mol
# Density = 1.953958 g / cm^3
# Si number density = 19.584155 Si / 1000 Ang^3
#
#
#
# Elastic Constant Matrix: (Units=GPa)
#
#
# Indices 1 2 3 4 5 6 
#
# 1 121.7659 34.5291 40.9315 0.0000 0.0000 0.0000
# 2 34.5291 59.8252 35.2574 0.0000 0.0000 0.0000
# 3 40.9315 35.2574 88.3121 0.0000 0.0000 0.0000
# 4 0.0000 0.0000 0.0000 -9.6940 0.0000 0.0000
# 5 0.0000 0.0000 0.0000 0.0000 7.5737 0.0000
# 6 0.0000 0.0000 0.0000 0.0000 0.0000 20.7005
#
#
#
# Elastic Compliance Matrix: (Units=1/GPa)
#
#
# Indices 1 2 3 4 5 6 
#
# 1 0.010464 -0.004160 -0.003189 0.000000 0.000000 0.000000
# 2 -0.004160 0.023512 -0.007459 0.000000 0.000000 0.000000
# 3 -0.003189 -0.007459 0.015779 0.000000 0.000000 0.000000
# 4 0.000000 0.000000 0.000000 -0.103157 0.000000 0.000000
# 5 0.000000 0.000000 0.000000 0.000000 0.132035 0.000000
# 6 0.000000 0.000000 0.000000 0.000000 0.000000 0.048308
#
#
# Mechanical properties :
#
#
# Convention : Reuss Voigt Hill
#
# Bulk Modulus (GPa) = 49.65303 54.59327 52.12315
# Shear Modulus (GPa) = 30.62381 14.32839 22.47610
#
# Velocity S-wave (km/s) = 3.95866 2.70780 3.39140
# Velocity P-wave (km/s) = 6.80466 6.14109 6.48137
#
# Compressibility (1/GPa) = 0.02013976
#
# Stress axis : x y z
#
# Youngs Moduli (GPa) = 95.56410 42.53113 63.37360
#
# Poissons Ratio (x) = 0.17693 0.20211
# Poissons Ratio (y) = 0.39755 0.47269
# Poissons Ratio (z) = 0.30477 0.31723
#
# Static dielectric constant tensor:
#      x y z
#    x 3.796580 0.000000 0.000000 
#    y 0.000000 3.408840 0.000000 
#    z 0.000000 0.000000 3.551570 
# 
# 
# High freq. dielectric constant tensor:
#      x y z
#    x 1.780050 0.000000 0.000000 
#    y 0.000000 1.744930 0.000000 
#    z 0.000000 0.000000 1.760560 
# 
# From -- ./inp_files/35743.got.cif
#   From: 2010.03.12/outbox.cif.g09.slc.cpg/sg51_18_cif.got.tgz:35743.got - 2010.04.16 13:43:02.
