data_PCOD8207739
_publ_section_title
;
Structure prediction by ZEFSAII (Michael W. Deem and Ramdas Pophale) SiO2 
 PCOD8207739
Probable space group: P M M A
;
_chemical_formula_sum "Si O2"
_cell_formula_units_Z 64
_cell_length_a 9.006872
_cell_length_b 18.870704
_cell_length_c 23.643298
_cell_angle_alpha 90.000000
_cell_angle_beta 90.000000
_cell_angle_gamma 90.000000
_cell_volume 4018.557154
_symmetry_space_group_name_H-M "P M M A"
_symmetry_group_IT_number 51
_symmetry_cell_setting 'orthorhombic'
loop_
_space_group_symop_operation_xyz
x,y,z
1/2-x,-y,z
1/2+x,-y,-z
-x,y,-z
-x,-y,-z
1/2+x,y,-z
1/2-x,y,z
x,-y,z
loop_
_atom_site_type_symbol
_atom_site_label
_atom_site_fract_x
_atom_site_fract_y
_atom_site_fract_z
Si Si1 0.922054 0.918323 0.279995
Si Si2 0.574742 0.919117 0.057018
Si Si3 0.422937 0.162843 0.832925
Si Si4 0.576870 0.714232 0.774073
Si Si5 0.577001 0.420126 0.259745
Si Si6 0.426109 0.576891 0.612487
Si Si7 0.573146 0.720108 0.441456
Si Si8 0.576172 0.796902 0.660411
O O1 0.750000 0.905177 0.294843
O O2 0.957031 0.893348 0.216455
O O3 0.023820 0.876004 0.324279
O O4 0.965907 0.000000 0.285123
O O5 0.750000 0.913954 0.050361
O O6 0.518318 0.871290 0.108977
O O7 0.525047 0.000000 0.068398
O O8 0.500000 0.889739 0.000000
O O9 0.250000 0.180416 0.836281
O O10 0.507596 0.236397 0.822512
O O11 0.750000 0.710623 0.784842
O O12 0.510232 0.635356 0.779467
O O13 0.536902 0.745265 0.712413
O O14 0.750000 0.401354 0.257248
O O15 0.547889 0.500000 0.237560
O O16 0.515369 0.412618 0.323716
O O17 0.250000 0.577387 0.614810
O O18 0.481963 0.500000 0.589279
O O19 0.483816 0.640307 0.572900
O O20 0.500000 0.743652 0.500000
O O21 0.750000 0.724473 0.445699
O O22 0.516967 0.773155 0.393667
O O23 0.750000 0.796635 0.646185
#
# Coordination Sequence:
#
# PCOD8207739 Si02
#       8
#     8   8   8   8   8   8   8   8
#     4   9  17  30  50  73  93 116 148 186 227 270
#     4   9  17  29  45  66  94 130 168 202 233 267
#     4   9  17  29  46  67  94 127 162 194 225 267
#     4  10  19  29  44  67  95 121 150 192 236 272
#     4   9  16  28  47  67  88 119 156 187 222 275
#     4   8  15  28  46  66  87 114 148 183 218 261
#     4  11  21  33  50  67  88 116 149 187 225 268
#     4  10  20  33  47  66  92 118 147 181 224 276
#
# _framework density 15.926114999999999
#
# number of rings (size 3 to 8) (size 9 to 14) (size 15 to 20)
#    0.000    2.625    1.250    2.250    0.000    3.750 
#    0.000    0.000    0.000    3.750    0.000    0.000 
#    0.000    0.500    0.000    1.625    0.000    2.000 
#
# Total GULP energy -793553.783539 kJ/mol
# GULP energy per Si atom -12399.277868 kJ/mol
# Density = 1.588987 g / cm^3
# Si number density = 15.926115 Si / 1000 Ang^3
#
#
#
# Elastic Constant Matrix: (Units=GPa)
#
#
# Indices 1 2 3 4 5 6 
#
# 1 56.6514 45.0719 40.2143 0.0000 0.0000 0.0000
# 2 45.0719 108.0870 55.6840 0.0000 0.0000 0.0000
# 3 40.2143 55.6840 97.7336 0.0000 0.0000 0.0000
# 4 0.0000 0.0000 0.0000 25.1391 0.0000 0.0000
# 5 0.0000 0.0000 0.0000 0.0000 22.8760 0.0000
# 6 0.0000 0.0000 0.0000 0.0000 0.0000 21.2805
#
#
#
# Elastic Compliance Matrix: (Units=1/GPa)
#
#
# Indices 1 2 3 4 5 6 
#
# 1 0.029697 -0.008618 -0.007309 0.000000 0.000000 0.000000
# 2 -0.008618 0.015597 -0.005340 0.000000 0.000000 0.000000
# 3 -0.007309 -0.005340 0.016282 0.000000 0.000000 0.000000
# 4 0.000000 0.000000 0.000000 0.039779 0.000000 0.000000
# 5 0.000000 0.000000 0.000000 0.000000 0.043714 0.000000
# 6 0.000000 0.000000 0.000000 0.000000 0.000000 0.046991
#
#
# Mechanical properties :
#
#
# Convention : Reuss Voigt Hill
#
# Bulk Modulus (GPa) = 52.51905 60.49027 56.50466
# Shear Modulus (GPa) = 20.75198 21.95922 21.35560
#
# Velocity S-wave (km/s) = 3.61365 3.71727 3.66583
# Velocity P-wave (km/s) = 7.10349 7.51588 7.31259
#
# Compressibility (1/GPa) = 0.01904071
#
# Stress axis : x y z
#
# Youngs Moduli (GPa) = 33.67377 64.11656 61.41751
#
# Poissons Ratio (x) = 0.55255 0.44891
# Poissons Ratio (y) = 0.29020 0.32798
# Poissons Ratio (z) = 0.24613 0.34240
#
# Static dielectric constant tensor:
#      x y z
#    x 2.876970 0.000000 0.000000 
#    y 0.000000 3.120390 0.000000 
#    z 0.000000 0.000000 2.836380 
# 
# 
# High freq. dielectric constant tensor:
#      x y z
#    x 1.605600 0.000000 0.000000 
#    y 0.000000 1.609900 0.000000 
#    z 0.000000 0.000000 1.579990 
# 
# From -- ./inp_files/35109.got.cif
#   From: 2010.03.12/outbox.cif.g09.slc.cpg/sg51_18_cif.got.tgz:35109.got - 2010.04.16 13:43:02.
