data_PCOD8207933
_publ_section_title
;
Structure prediction by ZEFSAII (Michael W. Deem and Ramdas Pophale) SiO2 
 PCOD8207933
Probable space group: P M M A
;
_chemical_formula_sum "Si O2"
_cell_formula_units_Z 64
_cell_length_a 9.415885
_cell_length_b 23.556126
_cell_length_c 18.881074
_cell_angle_alpha 90.000000
_cell_angle_beta 90.000000
_cell_angle_gamma 90.000000
_cell_volume 4187.855698
_symmetry_space_group_name_H-M "P M M A"
_symmetry_group_IT_number 51
_symmetry_cell_setting 'orthorhombic'
loop_
_space_group_symop_operation_xyz
x,y,z
1/2-x,-y,z
1/2+x,-y,-z
-x,y,-z
-x,-y,-z
1/2+x,y,-z
1/2-x,y,z
x,-y,z
loop_
_atom_site_type_symbol
_atom_site_label
_atom_site_fract_x
_atom_site_fract_y
_atom_site_fract_z
Si Si1 0.082943 0.224651 0.073099
Si Si2 0.413336 0.334054 0.165996
Si Si3 0.084748 0.111612 0.567518
Si Si4 0.084708 0.165341 0.809999
Si Si5 0.414960 0.564403 0.069831
Si Si6 0.586728 0.276384 0.279964
Si Si7 0.418456 0.063344 0.714607
Si Si8 0.413985 0.755768 0.566690
O O1 0.250000 0.212574 0.061843
O O2 0.055707 0.285645 0.108267
O O3 0.014496 0.175925 0.122183
O O4 0.000000 0.223963 0.000000
O O5 0.250000 0.334685 0.187938
O O6 0.461766 0.394207 0.133317
O O7 0.499678 0.323925 0.237832
O O8 0.250000 0.098578 0.555575
O O9 0.023513 0.080568 0.637225
O O10 0.055470 0.178027 0.577459
O O11 0.000000 0.087627 0.500000
O O12 0.250000 0.162442 0.833266
O O13 0.061160 0.214126 0.751989
O O14 0.029884 0.106599 0.775336
O O15 0.250000 0.573064 0.051835
O O16 0.448669 0.500000 0.093406
O O17 0.500000 0.581394 0.000000
O O18 0.750000 0.293597 0.273925
O O19 0.537009 0.276064 0.361698
O O20 0.250000 0.067256 0.710733
O O21 0.471126 0.000000 0.733969
O O22 0.500000 0.730957 0.500000
O O23 0.250000 0.744472 0.551313
#
# Coordination Sequence:
#
# PCOD8207933 Si02
#       8
#     8   8   8   8   8   8   8   8
#     4  10  19  30  45  66  88 109 134 168 209 250
#     4   9  18  29  42  64  91 115 143 177 209 242
#     4   9  16  27  41  59  83 110 140 172 204 243
#     4   9  16  29  46  62  82 107 136 170 209 253
#     4   9  17  29  44  62  88 122 154 180 205 238
#     4   9  16  27  43  61  83 112 144 176 212 252
#     4   9  16  27  45  64  81 106 140 174 207 249
#     4   9  16  26  40  59  83 112 143 173 207 251
#
# _framework density 15.282284000000001
#
# number of rings (size 3 to 8) (size 9 to 14) (size 15 to 20)
#    0.000    2.875    1.250    0.750    0.000    1.750 
#    0.000    0.625    0.000    1.500    0.000    0.000 
#    0.000    0.500    0.000    1.125    0.000    1.750 
#
# Total GULP energy -793495.169789 kJ/mol
# GULP energy per Si atom -12398.362028 kJ/mol
# Density = 1.524750 g / cm^3
# Si number density = 15.282284 Si / 1000 Ang^3
#
#
#
# Elastic Constant Matrix: (Units=GPa)
#
#
# Indices 1 2 3 4 5 6 
#
# 1 57.7770 35.1055 57.5149 0.0000 0.0000 0.0000
# 2 35.1055 79.6401 56.1797 0.0000 0.0000 0.0000
# 3 57.5149 56.1797 123.1485 0.0000 0.0000 0.0000
# 4 0.0000 0.0000 0.0000 24.5761 0.0000 0.0000
# 5 0.0000 0.0000 0.0000 0.0000 30.2857 0.0000
# 6 0.0000 0.0000 0.0000 0.0000 0.0000 15.1748
#
#
#
# Elastic Compliance Matrix: (Units=1/GPa)
#
#
# Indices 1 2 3 4 5 6 
#
# 1 0.033945 -0.005573 -0.013311 0.000000 0.000000 0.000000
# 2 -0.005573 0.019430 -0.006261 0.000000 0.000000 0.000000
# 3 -0.013311 -0.006261 0.017193 0.000000 0.000000 0.000000
# 4 0.000000 0.000000 0.000000 0.040690 0.000000 0.000000
# 5 0.000000 0.000000 0.000000 0.000000 0.033019 0.000000
# 6 0.000000 0.000000 0.000000 0.000000 0.000000 0.065899
#
#
# Mechanical properties :
#
#
# Convention : Reuss Voigt Hill
#
# Bulk Modulus (GPa) = 49.31532 62.01842 55.66687
# Shear Modulus (GPa) = 18.71085 21.45836 20.08461
#
# Velocity S-wave (km/s) = 3.50287 3.75124 3.62918
# Velocity P-wave (km/s) = 6.97852 7.70924 7.35296
#
# Compressibility (1/GPa) = 0.02027767
#
# Stress axis : x y z
#
# Youngs Moduli (GPa) = 29.45947 51.46772 58.16233
#
# Poissons Ratio (x) = 0.28683 0.77421
# Poissons Ratio (y) = 0.16418 0.36415
# Poissons Ratio (z) = 0.39214 0.32223
#
# Static dielectric constant tensor:
#      x y z
#    x 2.870400 0.000000 0.000000 
#    y 0.000000 2.851400 0.000000 
#    z 0.000000 0.000000 2.998980 
# 
# 
# High freq. dielectric constant tensor:
#      x y z
#    x 1.576220 0.000000 0.000000 
#    y 0.000000 1.557380 0.000000 
#    z 0.000000 0.000000 1.582660 
# 
# From -- ./inp_files/32650.got.cif
#   From: 2010.03.12/outbox.cif.g09.slc.cpg/sg51_17_cif.got.tgz:32650.got - 2010.04.16 13:43:02.
