data_PCOD8207492
_publ_section_title
;
Structure prediction by ZEFSAII (Michael W. Deem and Ramdas Pophale) SiO2 
 PCOD8207492
Probable space group: P M M A
;
_chemical_formula_sum "Si O2"
_cell_formula_units_Z 64
_cell_length_a 30.752641
_cell_length_b 8.678934
_cell_length_c 11.884516
_cell_angle_alpha 90.000000
_cell_angle_beta 90.000000
_cell_angle_gamma 90.000000
_cell_volume 3171.979003
_symmetry_space_group_name_H-M "P M M A"
_symmetry_group_IT_number 51
_symmetry_cell_setting 'orthorhombic'
loop_
_space_group_symop_operation_xyz
x,y,z
1/2-x,-y,z
1/2+x,-y,-z
-x,y,-z
-x,-y,-z
1/2+x,y,-z
1/2-x,y,z
x,-y,z
loop_
_atom_site_type_symbol
_atom_site_label
_atom_site_fract_x
_atom_site_fract_y
_atom_site_fract_z
Si Si1 0.622228 0.318418 0.644752
Si Si2 0.297784 0.682537 0.501573
Si Si3 0.298442 0.675118 0.984842
Si Si4 0.876102 0.178842 0.888135
Si Si5 0.580399 0.179122 0.251744
Si Si6 0.549305 0.181860 0.495005
Si Si7 0.048622 0.321273 0.965649
Si Si8 0.829442 0.676377 0.256371
O O1 0.621663 0.500000 0.631744
O O2 0.664242 0.248922 0.578290
O O3 0.625258 0.275170 0.774295
O O4 0.577415 0.254827 0.594532
O O5 0.250000 0.746212 0.465160
O O6 0.297627 0.500000 0.491699
O O7 0.305590 0.732489 0.630681
O O8 0.250000 0.714739 0.028466
O O9 0.311148 0.500000 0.017522
O O10 0.332425 0.789286 0.042006
O O11 0.297577 0.692541 0.849649
O O12 0.918098 0.222734 0.960592
O O13 0.878551 0.000000 0.858150
O O14 0.568699 0.235445 0.376353
O O15 0.630692 0.211515 0.230415
O O16 0.570017 0.000000 0.234031
O O17 0.551972 0.277151 0.164907
O O18 0.500000 0.242906 0.500000
O O19 0.551042 0.000000 0.510750
O O20 0.059710 0.500000 0.983383
O O21 0.000000 0.280047 0.000000
O O22 0.845922 0.500000 0.270036
#
# Coordination Sequence:
#
# PCOD8207492 Si02
#       8
#     8   8   8   8   8   8   8   8
#     4  11  23  40  63  91 121 160 209 258 306 358
#     4   9  18  34  59  91 122 155 199 247 298 356
#     4  10  21  38  63  93 124 162 207 254 304 363
#     4  12  26  43  63  88 124 166 206 254 313 373
#     4  11  22  37  62  93 127 163 201 245 305 370
#     4  10  23  42  62  89 125 165 204 247 305 369
#     4  11  25  44  66  93 123 157 204 259 310 365
#     4  10  18  34  61  91 124 158 198 248 304 358
#
# _framework density 20.176680000000001
#
# number of rings (size 3 to 8) (size 9 to 14) (size 15 to 20)
#    0.000    1.500    2.500    2.625    1.750    4.000 
#    0.000    1.250    0.000    3.750    0.000    0.000 
#    0.000    0.000    0.000    0.000    0.000    0.000 
#
# Total GULP energy -793783.220553 kJ/mol
# GULP energy per Si atom -12402.862821 kJ/mol
# Density = 2.013076 g / cm^3
# Si number density = 20.176680 Si / 1000 Ang^3
#
#
#
# Elastic Constant Matrix: (Units=GPa)
#
#
# Indices 1 2 3 4 5 6 
#
# 1 122.2100 30.5640 31.7788 0.0000 0.0000 0.0000
# 2 30.5640 34.4580 9.6382 0.0000 0.0000 0.0000
# 3 31.7788 9.6382 97.8144 0.0000 0.0000 0.0000
# 4 0.0000 0.0000 0.0000 30.0456 0.0000 0.0000
# 5 0.0000 0.0000 0.0000 0.0000 23.0469 0.0000
# 6 0.0000 0.0000 0.0000 0.0000 0.0000 13.8055
#
#
#
# Elastic Compliance Matrix: (Units=1/GPa)
#
#
# Indices 1 2 3 4 5 6 
#
# 1 0.011182 -0.009155 -0.002731 0.000000 0.000000 0.000000
# 2 -0.009155 0.037338 -0.000705 0.000000 0.000000 0.000000
# 3 -0.002731 -0.000705 0.011180 0.000000 0.000000 0.000000
# 4 0.000000 0.000000 0.000000 0.033283 0.000000 0.000000
# 5 0.000000 0.000000 0.000000 0.000000 0.043390 0.000000
# 6 0.000000 0.000000 0.000000 0.000000 0.000000 0.072435
#
#
# Mechanical properties :
#
#
# Convention : Reuss Voigt Hill
#
# Bulk Modulus (GPa) = 28.96911 44.27159 36.62035
# Shear Modulus (GPa) = 20.36693 25.54635 22.95664
#
# Velocity S-wave (km/s) = 3.18060 3.56214 3.37676
# Velocity P-wave (km/s) = 5.27988 6.23763 5.77863
#
# Compressibility (1/GPa) = 0.03451952
#
# Stress axis : x y z
#
# Youngs Moduli (GPa) = 89.42687 26.78227 89.44429
#
# Poissons Ratio (x) = 0.24519 0.24427
# Poissons Ratio (y) = 0.81868 0.06304
# Poissons Ratio (z) = 0.24422 0.01888
#
# Static dielectric constant tensor:
#      x y z
#    x 3.829260 0.000000 0.000000 
#    y 0.000000 3.440470 0.000000 
#    z 0.000000 0.000000 3.772600 
# 
# 
# High freq. dielectric constant tensor:
#      x y z
#    x 1.797630 0.000000 0.000000 
#    y 0.000000 1.769140 0.000000 
#    z 0.000000 0.000000 1.794940 
# 
# From -- ./inp_files/19544.got.cif
#   From: 2010.03.12/outbox.cif.g09.slc.cpg/sg51_10_cif.got.tgz:19544.got - 2010.04.16 13:43:02.
