data_PCOD8207748
_publ_section_title
;
Structure prediction by ZEFSAII (Michael W. Deem and Ramdas Pophale) SiO2 
 PCOD8207748
Probable space group: P M M A
;
_chemical_formula_sum "Si O2"
_cell_formula_units_Z 56
_cell_length_a 19.725791
_cell_length_b 9.143035
_cell_length_c 16.492488
_cell_angle_alpha 90.000000
_cell_angle_beta 90.000000
_cell_angle_gamma 90.000000
_cell_volume 2974.479543
_symmetry_space_group_name_H-M "P M M A"
_symmetry_group_IT_number 51
_symmetry_cell_setting 'orthorhombic'
loop_
_space_group_symop_operation_xyz
x,y,z
1/2-x,-y,z
1/2+x,-y,-z
-x,y,-z
-x,-y,-z
1/2+x,y,-z
1/2-x,y,z
x,-y,z
loop_
_atom_site_type_symbol
_atom_site_label
_atom_site_fract_x
_atom_site_fract_y
_atom_site_fract_z
Si Si1 0.131609 0.337841 0.799415
Si Si2 0.402571 0.164278 0.944971
Si Si3 0.048636 0.173019 0.424835
Si Si4 0.555478 0.164107 0.883394
Si Si5 0.326846 0.840533 0.651528
Si Si6 0.019932 0.663320 0.263752
Si Si7 0.829410 0.671586 0.503764
O O1 0.163674 0.500000 0.797121
O O2 0.141499 0.274127 0.890047
O O3 0.170899 0.231580 0.739238
O O4 0.054142 0.344124 0.773409
O O5 0.477885 0.163795 0.909965
O O6 0.372846 0.000000 0.939438
O O7 0.401015 0.218517 0.038664
O O8 0.123161 0.246732 0.431306
O O9 0.000000 0.215257 0.500000
O O10 0.015733 0.235350 0.342903
O O11 0.057879 0.000000 0.417774
O O12 0.568671 0.267274 0.805516
O O13 0.577414 0.000000 0.859203
O O14 0.250000 0.869850 0.628636
O O15 0.355663 0.731854 0.583216
O O16 0.364723 0.000000 0.649951
O O17 0.046202 0.500000 0.285102
O O18 0.750000 0.703994 0.521632
O O19 0.843986 0.500000 0.505415
#
# Coordination Sequence:
#
# PCOD8207748 Si02
#       7
#     8   8   8   8   8   8   8
#     4  10  19  29  44  68  97 128 159 194 239 287
#     4   8  14  25  42  63  89 122 156 190 228 275
#     4  11  23  36  52  75 102 134 170 208 251 298
#     4   8  14  26  43  63  89 122 158 192 229 278
#     4  10  20  33  49  68  91 122 160 199 237 282
#     4  10  20  31  45  68  98 129 159 197 244 290
#     4  10  21  37  56  76  99 129 165 206 252 300
#
# _framework density 18.826823999999998
#
# number of rings (size 3 to 8) (size 9 to 14) (size 15 to 20)
#    0.000    2.429    0.000    3.857    0.000    7.429 
#    0.000    2.857    0.000    0.000    0.000    1.000 
#    0.000    1.143    0.000    0.000    0.000    0.000 
#
# Total GULP energy -694075.514898 kJ/mol
# GULP energy per Si atom -12394.205623 kJ/mol
# Density = 1.878397 g / cm^3
# Si number density = 18.826824 Si / 1000 Ang^3
#
#
#
# Elastic Constant Matrix: (Units=GPa)
#
#
# Indices 1 2 3 4 5 6 
#
# 1 27.6954 21.2455 8.3956 0.0000 0.0000 0.0000
# 2 21.2455 133.1792 53.1629 0.0000 0.0000 0.0000
# 3 8.3956 53.1629 107.1473 0.0000 0.0000 0.0000
# 4 0.0000 0.0000 0.0000 35.3288 0.0000 0.0000
# 5 0.0000 0.0000 0.0000 0.0000 20.6817 0.0000
# 6 0.0000 0.0000 0.0000 0.0000 0.0000 17.7624
#
#
#
# Elastic Compliance Matrix: (Units=1/GPa)
#
#
# Indices 1 2 3 4 5 6 
#
# 1 0.041142 -0.006579 0.000041 0.000000 0.000000 0.000000
# 2 -0.006579 0.010415 -0.004652 0.000000 0.000000 0.000000
# 3 0.000041 -0.004652 0.011638 0.000000 0.000000 0.000000
# 4 0.000000 0.000000 0.000000 0.028306 0.000000 0.000000
# 5 0.000000 0.000000 0.000000 0.000000 0.048352 0.000000
# 6 0.000000 0.000000 0.000000 0.000000 0.000000 0.056299
#
#
# Mechanical properties :
#
#
# Convention : Reuss Voigt Hill
#
# Bulk Modulus (GPa) = 24.50167 48.18109 36.34138
# Shear Modulus (GPa) = 21.53896 27.10245 24.32070
#
# Velocity S-wave (km/s) = 3.38606 3.79828 3.59808
# Velocity P-wave (km/s) = 5.32256 6.69949 6.05032
#
# Compressibility (1/GPa) = 0.04081354
#
# Stress axis : x y z
#
# Youngs Moduli (GPa) = 24.30612 96.01204 85.92524
#
# Poissons Ratio (x) = 0.63171 -0.00351
# Poissons Ratio (y) = 0.15992 0.39974
# Poissons Ratio (z) = -0.00099 0.44667
#
# Static dielectric constant tensor:
#      x y z
#    x 3.033860 0.000000 0.000000 
#    y 0.000000 3.808000 0.000000 
#    z 0.000000 0.000000 3.617160 
# 
# 
# High freq. dielectric constant tensor:
#      x y z
#    x 1.676570 0.000000 0.000000 
#    y 0.000000 1.744770 0.000000 
#    z 0.000000 0.000000 1.730290 
# 
# From -- ./inp_files/25697.got.cif
#   From: 2010.03.12/outbox.cif.g09.slc.cpg/sg51_13_cif.got.tgz:25697.got - 2010.04.16 13:43:02.
