data_PCOD8207422
_publ_section_title
;
Structure prediction by ZEFSAII (Michael W. Deem and Ramdas Pophale) SiO2 
 PCOD8207422
Probable space group: P M M A
;
_chemical_formula_sum "Si O2"
_cell_formula_units_Z 64
_cell_length_a 15.422298
_cell_length_b 8.985668
_cell_length_c 24.050306
_cell_angle_alpha 90.000000
_cell_angle_beta 90.000000
_cell_angle_gamma 90.000000
_cell_volume 3332.882979
_symmetry_space_group_name_H-M "P M M A"
_symmetry_group_IT_number 51
_symmetry_cell_setting 'orthorhombic'
loop_
_space_group_symop_operation_xyz
x,y,z
1/2-x,-y,z
1/2+x,-y,-z
-x,y,-z
-x,-y,-z
1/2+x,y,-z
1/2-x,y,z
x,-y,z
loop_
_atom_site_type_symbol
_atom_site_label
_atom_site_fract_x
_atom_site_fract_y
_atom_site_fract_z
Si Si1 0.993556 0.322300 0.312972
Si Si2 0.397603 0.670391 0.503805
Si Si3 0.347134 0.671426 0.111585
Si Si4 0.846929 0.671177 0.108981
Si Si5 0.345446 0.323501 0.383465
Si Si6 0.400967 0.824281 0.000993
Si Si7 0.498266 0.676420 0.811950
Si Si8 0.650690 0.828515 0.385125
O O1 0.991090 0.500000 0.314564
O O2 0.995403 0.258673 0.250256
O O3 0.907920 0.264377 0.342947
O O4 0.079853 0.259162 0.343330
O O5 0.500000 0.683321 0.500000
O O6 0.369403 0.500000 0.514851
O O7 0.358492 0.733101 0.446351
O O8 0.360314 0.771407 0.552367
O O9 0.250000 0.689613 0.135747
O O10 0.367916 0.500000 0.097590
O O11 0.414507 0.732869 0.157440
O O12 0.354147 0.763861 0.055398
O O13 0.750000 0.687704 0.133586
O O14 0.868815 0.500000 0.095201
O O15 0.852078 0.763260 0.052590
O O16 0.914474 0.734890 0.154255
O O17 0.250000 0.272777 0.362292
O O18 0.353397 0.500000 0.383552
O O19 0.393780 0.000000 0.000996
O O20 0.500000 0.769195 0.000000
O O21 0.497630 0.500000 0.808363
O O22 0.750000 0.807486 0.366429
O O23 0.622575 0.000000 0.382984
#
# Coordination Sequence:
#
# PCOD8207422 Si02
#       8
#     8   8   8   8   8   8   8   8
#     4  10  20  37  59  82 108 145 189 230 273 322
#     4  10  18  33  58  85 111 142 183 226 274 332
#     4  10  20  35  57  84 112 144 178 216 271 331
#     4  10  20  35  56  80 106 139 177 220 274 328
#     4   9  17  30  52  83 114 140 172 221 276 324
#     4  11  22  35  54  81 110 143 181 220 268 323
#     4   9  19  35  56  81 109 139 178 228 269 314
#     4  11  24  39  55  80 114 150 186 228 280 331
#
# _framework density 19.202594000000001
#
# number of rings (size 3 to 8) (size 9 to 14) (size 15 to 20)
#    0.000    2.000    2.500    1.500    0.000    5.250 
#    0.000    5.000    0.000    0.375    0.000    0.000 
#    0.000    0.000    0.000    0.000    0.000    0.000 
#
# Total GULP energy -793673.084920 kJ/mol
# GULP energy per Si atom -12401.141952 kJ/mol
# Density = 1.915889 g / cm^3
# Si number density = 19.202594 Si / 1000 Ang^3
#
#
#
# Elastic Constant Matrix: (Units=GPa)
#
#
# Indices 1 2 3 4 5 6 
#
# 1 142.1528 27.8466 69.7223 0.0000 0.0000 0.0000
# 2 27.8466 38.0897 26.7008 0.0000 0.0000 0.0000
# 3 69.7223 26.7008 154.9951 0.0000 0.0000 0.0000
# 4 0.0000 0.0000 0.0000 -3.5672 0.0000 0.0000
# 5 0.0000 0.0000 0.0000 0.0000 12.5637 0.0000
# 6 0.0000 0.0000 0.0000 0.0000 0.0000 18.7336
#
#
#
# Elastic Compliance Matrix: (Units=1/GPa)
#
#
# Indices 1 2 3 4 5 6 
#
# 1 0.009680 -0.004577 -0.003566 0.000000 0.000000 0.000000
# 2 -0.004577 0.032024 -0.003458 0.000000 0.000000 0.000000
# 3 -0.003566 -0.003458 0.008652 0.000000 0.000000 0.000000
# 4 0.000000 0.000000 0.000000 -0.280334 0.000000 0.000000
# 5 0.000000 0.000000 0.000000 0.000000 0.079594 0.000000
# 6 0.000000 0.000000 0.000000 0.000000 0.000000 0.053380
#
#
# Mechanical properties :
#
#
# Convention : Reuss Voigt Hill
#
# Bulk Modulus (GPa) = 36.82712 64.86411 50.84562
# Shear Modulus (GPa) = -77.22035 19.61056 -28.80490
#
# Velocity S-wave (km/s) = -6.34829 3.19916 -3.87725
# Velocity P-wave (km/s) = 5.87491 6.89190 2.54792
#
# Compressibility (1/GPa) = 0.02715390
#
# Stress axis : x y z
#
# Youngs Moduli (GPa) = 103.30145 31.22649 115.58545
#
# Poissons Ratio (x) = 0.14293 0.41218
# Poissons Ratio (y) = 0.47285 0.39966
# Poissons Ratio (z) = 0.36838 0.10797
#
# Static dielectric constant tensor:
#      x y z
#    x 3.756140 0.000000 0.000000 
#    y 0.000000 3.161680 0.000000 
#    z 0.000000 0.000000 3.619700 
# 
# 
# High freq. dielectric constant tensor:
#      x y z
#    x 1.766330 0.000000 0.000000 
#    y 0.000000 1.708940 0.000000 
#    z 0.000000 0.000000 1.743280 
# 
# From -- ./inp_files/35856.got.cif
#   From: 2010.03.12/outbox.cif.g09.slc.cpg/sg51_18_cif.got.tgz:35856.got - 2010.04.16 13:43:02.
