data_PCOD8207807
_publ_section_title
;
Structure prediction by ZEFSAII (Michael W. Deem and Ramdas Pophale) SiO2 
 PCOD8207807
Probable space group: P M M A
;
_chemical_formula_sum "Si O2"
_cell_formula_units_Z 64
_cell_length_a 9.281245
_cell_length_b 22.359825
_cell_length_c 20.278610
_cell_angle_alpha 90.000000
_cell_angle_beta 90.000000
_cell_angle_gamma 90.000000
_cell_volume 4208.359381
_symmetry_space_group_name_H-M "P M M A"
_symmetry_group_IT_number 51
_symmetry_cell_setting 'orthorhombic'
loop_
_space_group_symop_operation_xyz
x,y,z
1/2-x,-y,z
1/2+x,-y,-z
-x,y,-z
-x,-y,-z
1/2+x,y,-z
1/2-x,y,z
x,-y,z
loop_
_atom_site_type_symbol
_atom_site_label
_atom_site_fract_x
_atom_site_fract_y
_atom_site_fract_z
Si Si1 0.910945 0.332805 0.719991
Si Si2 0.589039 0.157552 0.231405
Si Si3 0.412559 0.244735 0.644513
Si Si4 0.583353 0.931577 0.688175
Si Si5 0.078388 0.566878 0.186115
Si Si6 0.409610 0.244991 0.156632
Si Si7 0.580487 0.848215 0.565598
Si Si8 0.920543 0.648692 0.932207
O O1 0.750000 0.340775 0.690276
O O2 0.971671 0.395396 0.749484
O O3 0.902942 0.285890 0.779060
O O4 0.017515 0.308810 0.663118
O O5 0.750000 0.139403 0.210927
O O6 0.589125 0.203116 0.291792
O O7 0.504618 0.097832 0.251997
O O8 0.515123 0.188869 0.168118
O O9 0.250000 0.254741 0.618160
O O10 0.510421 0.214442 0.588364
O O11 0.750000 0.925215 0.706679
O O12 0.550519 0.899427 0.619146
O O13 0.535030 0.000000 0.680774
O O14 0.250000 0.566407 0.185367
O O15 0.014092 0.500000 0.190429
O O16 0.024350 0.598203 0.118965
O O17 0.250000 0.219606 0.142305
O O18 0.463112 0.285590 0.095463
O O19 0.500000 0.870166 0.500000
O O20 0.750000 0.838775 0.552975
O O21 0.750000 0.644353 0.942645
O O22 0.000000 0.636434 0.000000
#
# Coordination Sequence:
#
# PCOD8207807 Si02
#       8
#     8   8   8   8   8   8   8   8
#     4   8  13  23  40  58  74  97 131 168 205 243
#     4   9  16  25  40  61  79  97 126 167 210 243
#     4   9  16  26  40  58  79 101 127 163 208 249
#     4   9  18  31  44  58  80 112 143 166 193 234
#     4   8  14  25  40  57  79 109 143 174 203 240
#     4   8  14  25  39  54  74 101 131 164 205 250
#     4  10  19  30  43  59  81 109 141 172 199 231
#     4   9  17  27  39  56  79 109 143 175 206 240
#
# _framework density 15.207827999999999
#
# number of rings (size 3 to 8) (size 9 to 14) (size 15 to 20)
#    0.000    3.250    0.000    2.625    0.000    4.750 
#    0.000    1.875    0.000    1.125    0.000    0.000 
#    0.000    1.000    0.000    3.000    0.000    4.000 
#
# Total GULP energy -793267.238616 kJ/mol
# GULP energy per Si atom -12394.800603 kJ/mol
# Density = 1.517321 g / cm^3
# Si number density = 15.207828 Si / 1000 Ang^3
#
#
#
# Elastic Constant Matrix: (Units=GPa)
#
#
# Indices 1 2 3 4 5 6 
#
# 1 79.2653 53.7478 26.6136 0.0000 0.0000 0.0000
# 2 53.7478 107.3185 50.9958 0.0000 0.0000 0.0000
# 3 26.6136 50.9958 27.6270 0.0000 0.0000 0.0000
# 4 0.0000 0.0000 0.0000 15.3632 0.0000 0.0000
# 5 0.0000 0.0000 0.0000 0.0000 23.4127 0.0000
# 6 0.0000 0.0000 0.0000 0.0000 0.0000 13.7361
#
#
#
# Elastic Compliance Matrix: (Units=1/GPa)
#
#
# Indices 1 2 3 4 5 6 
#
# 1 0.019228 -0.006740 -0.006081 0.000000 0.000000 0.000000
# 2 -0.006740 0.078195 -0.137844 0.000000 0.000000 0.000000
# 3 -0.006081 -0.137844 0.296497 0.000000 0.000000 0.000000
# 4 0.000000 0.000000 0.000000 0.065091 0.000000 0.000000
# 5 0.000000 0.000000 0.000000 0.000000 0.042712 0.000000
# 6 0.000000 0.000000 0.000000 0.000000 0.000000 0.072801
#
#
# Mechanical properties :
#
#
# Convention : Reuss Voigt Hill
#
# Bulk Modulus (GPa) = 10.80050 52.99169 31.89609
# Shear Modulus (GPa) = 5.51440 16.02596 10.77018
#
# Velocity S-wave (km/s) = 1.90628 3.24975 2.66409
# Velocity P-wave (km/s) = 3.45869 7.00013 5.52107
#
# Compressibility (1/GPa) = 0.09258834
#
# Stress axis : x y z
#
# Youngs Moduli (GPa) = 52.00747 12.78857 3.37272
#
# Poissons Ratio (x) = 0.08620 0.02051
# Poissons Ratio (y) = 0.35054 0.46491
# Poissons Ratio (z) = 0.31627 1.76283
#
# Static dielectric constant tensor:
#      x y z
#    x 2.993360 0.000000 0.000000 
#    y 0.000000 3.010170 0.000000 
#    z 0.000000 0.000000 2.692110 
# 
# 
# High freq. dielectric constant tensor:
#      x y z
#    x 1.580110 0.000000 0.000000 
#    y 0.000000 1.563900 0.000000 
#    z 0.000000 0.000000 1.545360 
# 
# From -- ./inp_files/32545.got.cif
#   From: 2010.03.12/outbox.cif.g09.slc.cpg/sg51_17_cif.got.tgz:32545.got - 2010.04.16 13:43:02.
