data_PCOD8207460
_publ_section_title
;
Structure prediction by ZEFSAII (Michael W. Deem and Ramdas Pophale) SiO2 
 PCOD8207460
Probable space group: P M M A
;
_chemical_formula_sum "Si O2"
_cell_formula_units_Z 48
_cell_length_a 16.009097
_cell_length_b 8.865705
_cell_length_c 18.202255
_cell_angle_alpha 90.000000
_cell_angle_beta 90.000000
_cell_angle_gamma 90.000000
_cell_volume 2583.481206
_symmetry_space_group_name_H-M "P M M A"
_symmetry_group_IT_number 51
_symmetry_cell_setting 'orthorhombic'
loop_
_space_group_symop_operation_xyz
x,y,z
1/2-x,-y,z
1/2+x,-y,-z
-x,y,-z
-x,-y,-z
1/2+x,y,-z
1/2-x,y,z
x,-y,z
loop_
_atom_site_type_symbol
_atom_site_label
_atom_site_fract_x
_atom_site_fract_y
_atom_site_fract_z
Si Si1 0.750000 0.179450 0.950022
Si Si2 0.845274 0.170369 0.330930
Si Si3 0.081106 0.676198 0.802223
Si Si4 0.250000 0.319021 0.210063
Si Si5 0.082225 0.677412 0.280994
Si Si6 0.515601 0.679140 0.418969
Si Si7 0.908820 0.322373 0.028834
O O1 0.750000 0.245365 0.869045
O O2 0.750000 0.000000 0.948505
O O3 0.834280 0.235019 0.989348
O O4 0.750000 0.178509 0.355342
O O5 0.853882 0.235217 0.248638
O O6 0.894853 0.267501 0.390577
O O7 0.879074 0.000000 0.331499
O O8 0.095541 0.500000 0.788873
O O9 0.096590 0.721086 0.885879
O O10 0.987185 0.722685 0.779178
O O11 0.250000 0.500000 0.201139
O O12 0.329504 0.256041 0.255195
O O13 0.091212 0.500000 0.285377
O O14 0.055439 0.737966 0.361816
O O15 0.500000 0.746830 0.500000
O O16 0.516526 0.500000 0.421366
O O17 0.896419 0.500000 0.015133
O O18 0.000000 0.271236 0.000000
#
# Coordination Sequence:
#
# PCOD8207460 Si02
#       7
#     4   8   8   4   8   8   8
#     4  12  26  38  52  80 119 152 183 230 289 346
#     4  10  21  35  52  77 108 144 181 215 261 323
#     4   9  18  33  55  78 103 136 180 228 273 321
#     4  10  18  34  58  76 101 140 189 232 263 316
#     4   8  15  30  54  82 104 133 174 222 272 314
#     4   9  18  35  56  81 112 140 174 221 270 318
#     4  10  21  39  61  83 108 144 192 240 286 335
#
# _framework density 18.579581999999998
#
# number of rings (size 3 to 8) (size 9 to 14) (size 15 to 20)
#    0.000    2.500    0.000    3.250    1.167    5.333 
#    1.500    6.667    0.000    0.000    0.000    0.000 
#    0.000    0.000    0.000    0.000    0.000    0.000 
#
# Total GULP energy -595081.942653 kJ/mol
# GULP energy per Si atom -12397.540472 kJ/mol
# Density = 1.853729 g / cm^3
# Si number density = 18.579582 Si / 1000 Ang^3
#
#
#
# Elastic Constant Matrix: (Units=GPa)
#
#
# Indices 1 2 3 4 5 6 
#
# 1 130.9174 34.1461 74.0772 0.0000 0.0000 0.0000
# 2 34.1461 39.5780 38.2604 0.0000 0.0000 0.0000
# 3 74.0772 38.2604 160.1735 0.0000 0.0000 0.0000
# 4 0.0000 0.0000 0.0000 7.6358 0.0000 0.0000
# 5 0.0000 0.0000 0.0000 0.0000 21.1401 0.0000
# 6 0.0000 0.0000 0.0000 0.0000 0.0000 15.7083
#
#
#
# Elastic Compliance Matrix: (Units=1/GPa)
#
#
# Indices 1 2 3 4 5 6 
#
# 1 0.011394 -0.006158 -0.003798 0.000000 0.000000 0.000000
# 2 -0.006158 0.036181 -0.005795 0.000000 0.000000 0.000000
# 3 -0.003798 -0.005795 0.009384 0.000000 0.000000 0.000000
# 4 0.000000 0.000000 0.000000 0.130962 0.000000 0.000000
# 5 0.000000 0.000000 0.000000 0.000000 0.047304 0.000000
# 6 0.000000 0.000000 0.000000 0.000000 0.000000 0.063661
#
#
# Mechanical properties :
#
#
# Convention : Reuss Voigt Hill
#
# Bulk Modulus (GPa) = 39.28210 69.29293 54.28752
# Shear Modulus (GPa) = 14.75477 21.17584 17.96531
#
# Velocity S-wave (km/s) = 2.82110 3.37966 3.11294
# Velocity P-wave (km/s) = 5.63915 7.25298 6.49637
#
# Compressibility (1/GPa) = 0.02545689
#
# Stress axis : x y z
#
# Youngs Moduli (GPa) = 87.76645 27.63870 106.56345
#
# Poissons Ratio (x) = 0.17020 0.40478
# Poissons Ratio (y) = 0.54048 0.61748
# Poissons Ratio (z) = 0.33338 0.16015
#
# Static dielectric constant tensor:
#      x y z
#    x 3.611430 0.000000 0.000000 
#    y 0.000000 3.190690 0.000000 
#    z 0.000000 0.000000 3.730820 
# 
# 
# High freq. dielectric constant tensor:
#      x y z
#    x 1.725810 0.000000 0.000000 
#    y 0.000000 1.694590 0.000000 
#    z 0.000000 0.000000 1.727300 
# 
# From -- ./inp_files/29588.got.cif
#   From: 2010.03.12/outbox.cif.g09.slc.cpg/sg51_15_cif.got.tgz:29588.got - 2010.04.16 13:43:02.
