data_PCOD8207419
_publ_section_title
;
Structure prediction by ZEFSAII (Michael W. Deem and Ramdas Pophale) SiO2 
 PCOD8207419
Probable space group: P M M A
;
_chemical_formula_sum "Si O2"
_cell_formula_units_Z 56
_cell_length_a 14.850754
_cell_length_b 9.167755
_cell_length_c 22.064589
_cell_angle_alpha 90.000000
_cell_angle_beta 90.000000
_cell_angle_gamma 90.000000
_cell_volume 3004.051301
_symmetry_space_group_name_H-M "P M M A"
_symmetry_group_IT_number 51
_symmetry_cell_setting 'orthorhombic'
loop_
_space_group_symop_operation_xyz
x,y,z
1/2-x,-y,z
1/2+x,-y,-z
-x,y,-z
-x,-y,-z
1/2+x,y,-z
1/2-x,y,z
x,-y,z
loop_
_atom_site_type_symbol
_atom_site_label
_atom_site_fract_x
_atom_site_fract_y
_atom_site_fract_z
Si Si1 0.250000 0.827627 0.891367
Si Si2 0.851656 0.663842 0.386330
Si Si3 0.750000 0.331798 0.982738
Si Si4 0.348509 0.827101 0.363604
Si Si5 0.440134 0.827214 0.840195
Si Si6 0.893826 0.164752 0.503742
Si Si7 0.946862 0.669674 0.939826
Si Si8 0.021043 0.173156 0.704773
O O1 0.250000 0.765650 0.958242
O O2 0.339384 0.773105 0.856546
O O3 0.250000 0.000000 0.896452
O O4 0.750000 0.660375 0.362617
O O5 0.891651 0.500000 0.388846
O O6 0.852579 0.732147 0.453014
O O7 0.905586 0.761636 0.339602
O O8 0.750000 0.500000 0.003331
O O9 0.659913 0.296284 0.944541
O O10 0.250000 0.775405 0.341010
O O11 0.365750 0.767943 0.431374
O O12 0.422797 0.769395 0.316254
O O13 0.355205 0.000000 0.366667
O O14 0.514792 0.758930 0.883698
O O15 0.461613 0.772016 0.772702
O O16 0.448122 0.000000 0.845754
O O17 0.000000 0.163973 0.500000
O O18 0.856394 0.000000 0.495302
O O19 0.964721 0.500000 0.927987
O O20 0.000000 0.720515 0.000000
O O21 0.029246 0.000000 0.700234
#
# Coordination Sequence:
#
# PCOD8207419 Si02
#       8
#     4   8   4   8   8   8   8   8
#     4  10  20  34  54  84 116 144 177 226 283 334
#     4  11  24  38  53  80 115 148 182 227 283 336
#     4  10  20  36  58  86 112 146 189 224 267 326
#     4   9  17  32  56  82 106 136 182 234 276 323
#     4  10  22  37  56  84 115 147 184 228 281 332
#     4  10  18  33  58  84 106 139 185 231 283 336
#     4  10  20  36  59  83 111 147 185 227 272 322
#     4  10  21  39  59  80 109 148 189 229 273 329
#
# _framework density 18.641493000000001
#
# number of rings (size 3 to 8) (size 9 to 14) (size 15 to 20)
#    0.000    2.000    2.857    0.857    1.000    3.429 
#    1.286    0.000    0.000    0.429    0.000    0.000 
#    0.000    0.000    0.000    0.000    0.000    0.000 
#
# Total GULP energy -694413.837600 kJ/mol
# GULP energy per Si atom -12400.247100 kJ/mol
# Density = 1.859906 g / cm^3
# Si number density = 18.641493 Si / 1000 Ang^3
#
#
#
# Elastic Constant Matrix: (Units=GPa)
#
#
# Indices 1 2 3 4 5 6 
#
# 1 141.2329 19.4609 63.0917 0.0000 0.0000 0.0000
# 2 19.4609 23.3427 23.6931 0.0000 0.0000 0.0000
# 3 63.0917 23.6931 126.7859 0.0000 0.0000 0.0000
# 4 0.0000 0.0000 0.0000 -10.5511 0.0000 0.0000
# 5 0.0000 0.0000 0.0000 0.0000 6.0284 0.0000
# 6 0.0000 0.0000 0.0000 0.0000 0.0000 21.7774
#
#
#
# Elastic Compliance Matrix: (Units=1/GPa)
#
#
# Indices 1 2 3 4 5 6 
#
# 1 0.009370 -0.003800 -0.003953 0.000000 0.000000 0.000000
# 2 -0.003800 0.054409 -0.008277 0.000000 0.000000 0.000000
# 3 -0.003953 -0.008277 0.011401 0.000000 0.000000 0.000000
# 4 0.000000 0.000000 0.000000 -0.094777 0.000000 0.000000
# 5 0.000000 0.000000 0.000000 0.000000 0.165880 0.000000
# 6 0.000000 0.000000 0.000000 0.000000 0.000000 0.045919
#
#
# Mechanical properties :
#
#
# Convention : Reuss Voigt Hill
#
# Bulk Modulus (GPa) = 23.19034 55.98365 39.58700
# Shear Modulus (GPa) = 20.95261 15.79202 18.37231
#
# Velocity S-wave (km/s) = 3.35621 2.91373 3.14277
# Velocity P-wave (km/s) = 5.24272 6.43558 5.86953
#
# Compressibility (1/GPa) = 0.04312140
#
# Stress axis : x y z
#
# Youngs Moduli (GPa) = 106.72631 18.37935 87.71224
#
# Poissons Ratio (x) = 0.06984 0.34669
# Poissons Ratio (y) = 0.40553 0.72598
# Poissons Ratio (z) = 0.42184 0.15212
#
# Static dielectric constant tensor:
#      x y z
#    x 3.745540 0.000000 0.000000 
#    y 0.000000 3.232700 0.000000 
#    z 0.000000 0.000000 3.453190 
# 
# 
# High freq. dielectric constant tensor:
#      x y z
#    x 1.740850 0.000000 0.000000 
#    y 0.000000 1.699420 0.000000 
#    z 0.000000 0.000000 1.717470 
# 
# From -- ./inp_files/33507.got.cif
#   From: 2010.03.12/outbox.cif.g09.slc.cpg/sg51_17_cif.got.tgz:33507.got - 2010.04.16 13:43:02.
