data_PCOD8207522
_publ_section_title
;
Structure prediction by ZEFSAII (Michael W. Deem and Ramdas Pophale) SiO2 
 PCOD8207522
Probable space group: P M M A
;
_chemical_formula_sum "Si O2"
_cell_formula_units_Z 48
_cell_length_a 14.675193
_cell_length_b 8.568072
_cell_length_c 19.516255
_cell_angle_alpha 90.000000
_cell_angle_beta 90.000000
_cell_angle_gamma 90.000000
_cell_volume 2453.937023
_symmetry_space_group_name_H-M "P M M A"
_symmetry_group_IT_number 51
_symmetry_cell_setting 'orthorhombic'
loop_
_space_group_symop_operation_xyz
x,y,z
1/2-x,-y,z
1/2+x,-y,-z
-x,y,-z
-x,-y,-z
1/2+x,y,-z
1/2-x,y,z
x,-y,z
loop_
_atom_site_type_symbol
_atom_site_label
_atom_site_fract_x
_atom_site_fract_y
_atom_site_fract_z
Si Si1 0.069502 0.682117 0.185999
Si Si2 0.143667 0.678873 0.437289
Si Si3 0.646914 0.180660 0.419889
Si Si4 0.943322 0.685439 0.064263
Si Si5 0.750000 0.818392 0.871251
Si Si6 0.750000 0.315399 0.021632
Si Si7 0.017269 0.820297 0.326833
O O1 0.089464 0.500000 0.174805
O O2 0.162082 0.775719 0.173566
O O3 0.034430 0.710517 0.262266
O O4 0.991234 0.742274 0.133939
O O5 0.250000 0.711941 0.427068
O O6 0.118481 0.500000 0.422236
O O7 0.114966 0.719199 0.514843
O O8 0.091795 0.790039 0.384988
O O9 0.750000 0.222989 0.398167
O O10 0.582555 0.222009 0.355992
O O11 0.637644 0.000000 0.440472
O O12 0.940800 0.500000 0.060724
O O13 0.840113 0.752298 0.059269
O O14 0.000000 0.752260 0.000000
O O15 0.750000 0.000000 0.887910
O O16 0.750000 0.725161 0.941833
O O17 0.750000 0.500000 0.026629
O O18 0.023205 0.000000 0.304104
#
# Coordination Sequence:
#
# PCOD8207522 Si02
#       7
#     8   8   8   8   4   4   8
#     4  11  23  40  60  84 116 154 192 235 286 342
#     4  10  21  36  57  86 116 147 188 239 290 340
#     4   9  19  38  61  82 110 152 195 234 284 344
#     4   9  17  33  60  89 112 146 192 235 280 333
#     4  12  24  38  58  88 118 149 186 231 290 346
#     4  10  18  36  64  88 114 149 192 237 282 340
#     4  11  23  38  57  83 116 154 192 234 286 346
#
# _framework density 19.560403000000001
#
# number of rings (size 3 to 8) (size 9 to 14) (size 15 to 20)
#    0.000    1.833    1.667    2.750    1.167    4.333 
#    1.500    2.500    0.000    0.000    0.000    0.000 
#    0.000    0.000    0.000    0.000    0.000    0.000 
#
# Total GULP energy -595354.082484 kJ/mol
# GULP energy per Si atom -12403.210052 kJ/mol
# Density = 1.951588 g / cm^3
# Si number density = 19.560403 Si / 1000 Ang^3
#
#
#
# Elastic Constant Matrix: (Units=GPa)
#
#
# Indices 1 2 3 4 5 6 
#
# 1 141.6604 23.1852 67.6267 0.0000 0.0000 0.0000
# 2 23.1852 28.3477 4.7839 0.0000 0.0000 0.0000
# 3 67.6267 4.7839 97.2234 0.0000 0.0000 0.0000
# 4 0.0000 0.0000 0.0000 19.3188 0.0000 0.0000
# 5 0.0000 0.0000 0.0000 0.0000 25.6633 0.0000
# 6 0.0000 0.0000 0.0000 0.0000 0.0000 19.4214
#
#
#
# Elastic Compliance Matrix: (Units=1/GPa)
#
#
# Indices 1 2 3 4 5 6 
#
# 1 0.012408 -0.008765 -0.008199 0.000000 0.000000 0.000000
# 2 -0.008765 0.041763 0.004041 0.000000 0.000000 0.000000
# 3 -0.008199 0.004041 0.015790 0.000000 0.000000 0.000000
# 4 0.000000 0.000000 0.000000 0.051763 0.000000 0.000000
# 5 0.000000 0.000000 0.000000 0.000000 0.038966 0.000000
# 6 0.000000 0.000000 0.000000 0.000000 0.000000 0.051490
#
#
# Mechanical properties :
#
#
# Convention : Reuss Voigt Hill
#
# Bulk Modulus (GPa) = 22.66771 50.93590 36.80180
# Shear Modulus (GPa) = 19.78401 24.32308 22.05355
#
# Velocity S-wave (km/s) = 3.18375 3.53014 3.36141
# Velocity P-wave (km/s) = 5.01286 6.53549 5.82415
#
# Compressibility (1/GPa) = 0.04411562
#
# Stress axis : x y z
#
# Youngs Moduli (GPa) = 80.59379 23.94489 63.33082
#
# Poissons Ratio (x) = 0.20987 0.51928
# Poissons Ratio (y) = 0.70637 -0.25595
# Poissons Ratio (z) = 0.66082 -0.09677
#
# Static dielectric constant tensor:
#      x y z
#    x 3.957780 0.000000 0.000000 
#    y 0.000000 3.356860 0.000000 
#    z 0.000000 0.000000 3.449000 
# 
# 
# High freq. dielectric constant tensor:
#      x y z
#    x 1.776940 0.000000 0.000000 
#    y 0.000000 1.745880 0.000000 
#    z 0.000000 0.000000 1.753470 
# 
# From -- ./inp_files/29655.got.cif
#   From: 2010.03.12/outbox.cif.g09.slc.cpg/sg51_15_cif.got.tgz:29655.got - 2010.04.16 13:43:02.
