data_PCOD8207769
_publ_section_title
;
Structure prediction by ZEFSAII (Michael W. Deem and Ramdas Pophale) SiO2 
 PCOD8207769
Probable space group: P M M A
;
_chemical_formula_sum "Si O2"
_cell_formula_units_Z 64
_cell_length_a 14.268322
_cell_length_b 14.372486
_cell_length_c 17.872288
_cell_angle_alpha 90.000000
_cell_angle_beta 90.000000
_cell_angle_gamma 90.000000
_cell_volume 3665.092587
_symmetry_space_group_name_H-M "P M M A"
_symmetry_group_IT_number 51
_symmetry_cell_setting 'orthorhombic'
loop_
_space_group_symop_operation_xyz
x,y,z
1/2-x,-y,z
1/2+x,-y,-z
-x,y,-z
-x,-y,-z
1/2+x,y,-z
1/2-x,y,z
x,-y,z
loop_
_atom_site_type_symbol
_atom_site_label
_atom_site_fract_x
_atom_site_fract_y
_atom_site_fract_z
Si Si1 0.526640 0.891199 0.171437
Si Si2 0.857255 0.890560 0.311601
Si Si3 0.143823 0.394895 0.519656
Si Si4 0.859802 0.601114 0.800579
Si Si5 0.472822 0.773424 0.579062
Si Si6 0.856933 0.317029 0.641769
Si Si7 0.357746 0.214065 0.123466
Si Si8 0.856561 0.106122 0.026662
O O1 0.590224 0.852371 0.238207
O O2 0.423686 0.846814 0.177170
O O3 0.575229 0.864196 0.093194
O O4 0.515195 0.000000 0.179303
O O5 0.750000 0.861797 0.302840
O O6 0.898661 0.841722 0.384145
O O7 0.869676 0.000000 0.321436
O O8 0.250000 0.373569 0.545479
O O9 0.115110 0.500000 0.540153
O O10 0.074078 0.327491 0.564363
O O11 0.136508 0.384252 0.429915
O O12 0.750000 0.588530 0.802147
O O13 0.906196 0.500000 0.819532
O O14 0.889360 0.630565 0.716926
O O15 0.887750 0.678110 0.863399
O O16 0.500000 0.819519 0.500000
O O17 0.567236 0.765203 0.629070
O O18 0.750000 0.277802 0.650123
O O19 0.250000 0.197639 0.148064
O O20 0.373526 0.180911 0.038569
O O21 0.750000 0.110709 0.055900
O O22 0.878526 0.000000 0.998819
#
# Coordination Sequence:
#
# PCOD8207769 Si02
#       8
#     8   8   8   8   8   8   8   8
#     4  10  19  32  51  73  97 126 160 199 243 290
#     4  10  21  37  55  73  94 125 167 207 237 274
#     4   9  17  29  46  70  98 125 155 195 244 294
#     4   9  17  29  44  62  88 125 164 196 228 271
#     4  10  20  32  50  73  98 125 156 196 244 294
#     4   9  17  29  46  68  95 125 155 192 239 290
#     4  10  19  29  45  72 103 130 157 193 241 294
#     4   9  17  30  49  73  98 124 157 199 247 294
#
# _framework density 17.462040999999999
#
# number of rings (size 3 to 8) (size 9 to 14) (size 15 to 20)
#    0.000    2.500    0.000    2.625    0.000    8.250 
#    0.000    0.000    0.000    2.625    0.000    0.000 
#    0.000    5.000    0.000    0.000    0.000    0.000 
#
# Total GULP energy -793251.950035 kJ/mol
# GULP energy per Si atom -12394.561719 kJ/mol
# Density = 1.742230 g / cm^3
# Si number density = 17.462041 Si / 1000 Ang^3
#
#
#
# Elastic Constant Matrix: (Units=GPa)
#
#
# Indices 1 2 3 4 5 6 
#
# 1 98.8773 45.3059 45.3314 0.0000 0.0000 0.0000
# 2 45.3059 56.8258 55.8526 0.0000 0.0000 0.0000
# 3 45.3314 55.8526 89.9140 0.0000 0.0000 0.0000
# 4 0.0000 0.0000 0.0000 23.5822 0.0000 0.0000
# 5 0.0000 0.0000 0.0000 0.0000 25.4252 0.0000
# 6 0.0000 0.0000 0.0000 0.0000 0.0000 21.9324
#
#
#
# Elastic Compliance Matrix: (Units=1/GPa)
#
#
# Indices 1 2 3 4 5 6 
#
# 1 0.015939 -0.012350 -0.000365 0.000000 0.000000 0.000000
# 2 -0.012350 0.054753 -0.027785 0.000000 0.000000 0.000000
# 3 -0.000365 -0.027785 0.028565 0.000000 0.000000 0.000000
# 4 0.000000 0.000000 0.000000 0.042405 0.000000 0.000000
# 5 0.000000 0.000000 0.000000 0.000000 0.039331 0.000000
# 6 0.000000 0.000000 0.000000 0.000000 0.000000 0.045595
#
#
# Mechanical properties :
#
#
# Convention : Reuss Voigt Hill
#
# Bulk Modulus (GPa) = 54.76887 59.84410 57.30648
# Shear Modulus (GPa) = 15.94012 20.79643 18.36827
#
# Velocity S-wave (km/s) = 3.02461 3.45476 3.24682
# Velocity P-wave (km/s) = 6.60532 7.08937 6.85162
#
# Compressibility (1/GPa) = 0.01825855
#
# Stress axis : x y z
#
# Youngs Moduli (GPa) = 62.73758 18.26377 35.00757
#
# Poissons Ratio (x) = 0.22555 0.01277
# Poissons Ratio (y) = 0.77479 0.97270
# Poissons Ratio (z) = 0.02288 0.50746
#
# Static dielectric constant tensor:
#      x y z
#    x 3.443850 0.000000 0.000000 
#    y 0.000000 3.296890 0.000000 
#    z 0.000000 0.000000 3.189660 
# 
# 
# High freq. dielectric constant tensor:
#      x y z
#    x 1.683170 0.000000 0.000000 
#    y 0.000000 1.650460 0.000000 
#    z 0.000000 0.000000 1.664300 
# 
# From -- ./inp_files/29931.got.cif
#   From: 2010.03.12/outbox.cif.g09.slc.cpg/sg51_15_cif.got.tgz:29931.got - 2010.04.16 13:43:02.
