data_PCOD8207843
_publ_section_title
;
Structure prediction by ZEFSAII (Michael W. Deem and Ramdas Pophale) SiO2 
 PCOD8207843
Probable space group: P M M A
;
_chemical_formula_sum "Si O2"
_cell_formula_units_Z 56
_cell_length_a 9.222950
_cell_length_b 17.376132
_cell_length_c 22.767207
_cell_angle_alpha 90.000000
_cell_angle_beta 90.000000
_cell_angle_gamma 90.000000
_cell_volume 3648.654303
_symmetry_space_group_name_H-M "P M M A"
_symmetry_group_IT_number 51
_symmetry_cell_setting 'orthorhombic'
loop_
_space_group_symop_operation_xyz
x,y,z
1/2-x,-y,z
1/2+x,-y,-z
-x,y,-z
-x,-y,-z
1/2+x,y,-z
1/2-x,y,z
x,-y,z
loop_
_atom_site_type_symbol
_atom_site_label
_atom_site_fract_x
_atom_site_fract_y
_atom_site_fract_z
Si Si1 0.091909 0.409723 0.447259
Si Si2 0.911767 0.584424 0.118722
Si Si3 0.082948 0.909063 0.940380
Si Si4 0.913419 0.810595 0.848559
Si Si5 0.916757 0.301806 0.226638
Si Si6 0.906840 0.309689 0.949954
Si Si7 0.422681 0.588235 0.315765
O O1 0.250000 0.371123 0.450323
O O2 0.106197 0.500000 0.458471
O O3 0.025707 0.395783 0.382624
O O4 0.000000 0.371409 0.500000
O O5 0.750000 0.583884 0.093260
O O6 0.960094 0.500000 0.140165
O O7 0.922479 0.640902 0.172821
O O8 0.015693 0.610282 0.066010
O O9 0.250000 0.879537 0.944032
O O10 0.005230 0.876446 0.881833
O O11 0.078610 0.000000 0.933629
O O12 0.000000 0.883683 0.000000
O O13 0.750000 0.839730 0.831221
O O14 0.895429 0.741032 0.892812
O O15 0.999283 0.777706 0.791217
O O16 0.750000 0.282039 0.243622
O O17 0.996227 0.346165 0.279170
O O18 0.750000 0.328062 0.976158
O O19 0.000000 0.266145 0.000000
O O20 0.250000 0.597944 0.309003
O O21 0.465545 0.500000 0.297836
#
# Coordination Sequence:
#
# PCOD8207843 Si02
#       7
#     8   8   8   8   8   8   8
#     4   8  14  24  37  54  77 105 137 175 218 259
#     4   9  18  31  43  54  70  92 120 158 200 238
#     4  10  20  33  50  72  94 113 134 162 198 242
#     4  10  20  33  48  64  83 107 133 162 199 243
#     4  10  19  30  44  61  80 103 135 172 208 248
#     4  10  20  31  43  58  73  93 121 152 190 235
#     4   9  17  28  41  58  82 111 143 181 222 260
#
# _framework density 15.348125
#
# number of rings (size 3 to 8) (size 9 to 14) (size 15 to 20)
#    0.000    2.571    0.000    3.429    0.000    6.286 
#    0.000    1.429    0.000    0.000    0.000    0.000 
#    0.000    0.000    0.000    0.000    0.000    0.714 
#
# Total GULP energy -693854.017727 kJ/mol
# GULP energy per Si atom -12390.250317 kJ/mol
# Density = 1.531319 g / cm^3
# Si number density = 15.348125 Si / 1000 Ang^3
#
#
#
# Elastic Constant Matrix: (Units=GPa)
#
#
# Indices 1 2 3 4 5 6 
#
# 1 110.6302 26.3463 43.8546 0.0000 0.0000 0.0000
# 2 26.3463 37.3589 17.7246 0.0000 0.0000 0.0000
# 3 43.8546 17.7246 71.4763 0.0000 0.0000 0.0000
# 4 0.0000 0.0000 0.0000 46.1503 0.0000 0.0000
# 5 0.0000 0.0000 0.0000 0.0000 25.4141 0.0000
# 6 0.0000 0.0000 0.0000 0.0000 0.0000 -10.6624
#
#
#
# Elastic Compliance Matrix: (Units=1/GPa)
#
#
# Indices 1 2 3 4 5 6 
#
# 1 0.013078 -0.006138 -0.006502 0.000000 0.000000 0.000000
# 2 -0.006138 0.033217 -0.004471 0.000000 0.000000 0.000000
# 3 -0.006502 -0.004471 0.019089 0.000000 0.000000 0.000000
# 4 0.000000 0.000000 0.000000 0.021668 0.000000 0.000000
# 5 0.000000 0.000000 0.000000 0.000000 0.039348 0.000000
# 6 0.000000 0.000000 0.000000 0.000000 0.000000 -0.093788
#
#
# Mechanical properties :
#
#
# Convention : Reuss Voigt Hill
#
# Bulk Modulus (GPa) = 32.09068 43.92407 38.00737
# Shear Modulus (GPa) = 64.74688 20.94974 42.84831
#
# Velocity S-wave (km/s) = 6.50209 3.69856 5.28944
# Velocity P-wave (km/s) = 8.79337 6.84980 7.88172
#
# Compressibility (1/GPa) = 0.03116169
#
# Stress axis : x y z
#
# Youngs Moduli (GPa) = 76.46161 30.10463 52.38670
#
# Poissons Ratio (x) = 0.18479 0.34063
# Poissons Ratio (y) = 0.46935 0.23422
# Poissons Ratio (z) = 0.49717 0.13460
#
# Static dielectric constant tensor:
#      x y z
#    x 3.442460 0.000000 0.000000 
#    y 0.000000 2.694250 0.000000 
#    z 0.000000 0.000000 2.857200 
# 
# 
# High freq. dielectric constant tensor:
#      x y z
#    x 1.605920 0.000000 0.000000 
#    y 0.000000 1.546670 0.000000 
#    z 0.000000 0.000000 1.562100 
# 
# From -- ./inp_files/32234.got.cif
#   From: 2010.03.12/outbox.cif.g09.slc.cpg/sg51_17_cif.got.tgz:32234.got - 2010.04.16 13:43:02.
