data_PCOD8207506
_publ_section_title
;
Structure prediction by ZEFSAII (Michael W. Deem and Ramdas Pophale) SiO2 
 PCOD8207506
Probable space group: P M M A
;
_chemical_formula_sum "Si O2"
_cell_formula_units_Z 32
_cell_length_a 16.927004
_cell_length_b 11.227402
_cell_length_c 7.630889
_cell_angle_alpha 90.000000
_cell_angle_beta 90.000000
_cell_angle_gamma 90.000000
_cell_volume 1450.222057
_symmetry_space_group_name_H-M "P M M A"
_symmetry_group_IT_number 51
_symmetry_cell_setting 'orthorhombic'
loop_
_space_group_symop_operation_xyz
x,y,z
1/2-x,-y,z
1/2+x,-y,-z
-x,y,-z
-x,-y,-z
1/2+x,y,-z
1/2-x,y,z
x,-y,z
loop_
_atom_site_type_symbol
_atom_site_label
_atom_site_fract_x
_atom_site_fract_y
_atom_site_fract_z
Si Si1 0.406237 0.000000 0.483946
Si Si2 0.659072 0.244684 0.523803
Si Si3 0.096466 0.750214 0.858898
Si Si4 0.156544 0.000000 0.867732
Si Si5 0.566724 0.634695 0.805559
O O1 0.500000 0.000000 0.500000
O O2 0.378936 0.123066 0.395280
O O3 0.356123 0.000000 0.661201
O O4 0.750000 0.244132 0.569817
O O5 0.648399 0.267235 0.316069
O O6 0.618368 0.351199 0.630900
O O7 0.005460 0.728887 0.804253
O O8 0.112615 0.881987 0.939550
O O9 0.118112 0.659401 0.017097
O O10 0.250000 0.000000 0.912795
O O11 0.534362 0.500000 0.809536
#
# Coordination Sequence:
#
# PCOD8207506 Si02
#       5
#     4   8   8   4   8
#     4  10  18  35  62  91 121 157 199 248 304 369
#     4  11  23  39  62  92 126 160 196 249 315 373
#     4  10  21  41  66  89 122 162 199 253 312 356
#     4  10  20  36  62  96 126 152 192 246 311 384
#     4  11  25  42  62  90 120 161 220 260 284 348
#
# _framework density 22.065587000000001
#
# number of rings (size 3 to 8) (size 9 to 14) (size 15 to 20)
#    0.000    1.500    0.000    8.625    0.000    8.500 
#    0.000    0.000    0.000    6.750    0.000    0.000 
#    0.000    0.000    0.000    0.000    0.000    0.000 
#
# Total GULP energy -396532.115704 kJ/mol
# GULP energy per Si atom -12391.628616 kJ/mol
# Density = 2.201536 g / cm^3
# Si number density = 22.065587 Si / 1000 Ang^3
#
#
#
# Elastic Constant Matrix: (Units=GPa)
#
#
# Indices 1 2 3 4 5 6 
#
# 1 131.1338 61.9859 3.6675 0.0000 0.0000 0.0000
# 2 61.9859 128.1408 15.5987 0.0000 0.0000 0.0000
# 3 3.6675 15.5987 57.5930 0.0000 0.0000 0.0000
# 4 0.0000 0.0000 0.0000 29.1157 0.0000 0.0000
# 5 0.0000 0.0000 0.0000 0.0000 27.3061 0.0000
# 6 0.0000 0.0000 0.0000 0.0000 0.0000 17.9138
#
#
#
# Elastic Compliance Matrix: (Units=1/GPa)
#
#
# Indices 1 2 3 4 5 6 
#
# 1 0.009913 -0.004879 0.000690 0.000000 0.000000 0.000000
# 2 -0.004879 0.010472 -0.002525 0.000000 0.000000 0.000000
# 3 0.000690 -0.002525 0.018003 0.000000 0.000000 0.000000
# 4 0.000000 0.000000 0.000000 0.034346 0.000000 0.000000
# 5 0.000000 0.000000 0.000000 0.000000 0.036622 0.000000
# 6 0.000000 0.000000 0.000000 0.000000 0.000000 0.055823
#
#
# Mechanical properties :
#
#
# Convention : Reuss Voigt Hill
#
# Bulk Modulus (GPa) = 40.06587 53.26353 46.66470
# Shear Modulus (GPa) = 26.74845 30.57481 28.66163
#
# Velocity S-wave (km/s) = 3.48548 3.72645 3.60798
# Velocity P-wave (km/s) = 5.86474 6.53501 6.20892
#
# Compressibility (1/GPa) = 0.02495890
#
# Stress axis : x y z
#
# Youngs Moduli (GPa) = 100.87909 95.49658 55.54547
#
# Poissons Ratio (x) = 0.46595 -0.03834
# Poissons Ratio (y) = 0.49221 0.14028
# Poissons Ratio (z) = -0.06963 0.24117
#
# Static dielectric constant tensor:
#      x y z
#    x 3.714620 0.000000 0.000000 
#    y 0.000000 4.501080 0.000000 
#    z 0.000000 0.000000 4.075340 
# 
# 
# High freq. dielectric constant tensor:
#      x y z
#    x 1.853860 0.000000 0.000000 
#    y 0.000000 1.870130 0.000000 
#    z 0.000000 0.000000 1.863470 
# 
# From -- ./inp_files/7615.got.cif
#   From: 2010.03.12/outbox.cif.g09.slc.cpg/sg51_4_cif.got.tgz:7615.got - 2010.04.16 13:43:02.
