data_PCOD8207442
_publ_section_title
;
Structure prediction by ZEFSAII (Michael W. Deem and Ramdas Pophale) SiO2 
 PCOD8207442
Probable space group: P M M A
;
_chemical_formula_sum "Si O2"
_cell_formula_units_Z 64
_cell_length_a 30.734546
_cell_length_b 8.498971
_cell_length_c 11.784480
_cell_angle_alpha 90.000000
_cell_angle_beta 90.000000
_cell_angle_gamma 90.000000
_cell_volume 3078.247768
_symmetry_space_group_name_H-M "P M M A"
_symmetry_group_IT_number 51
_symmetry_cell_setting 'orthorhombic'
loop_
_space_group_symop_operation_xyz
x,y,z
1/2-x,-y,z
1/2+x,-y,-z
-x,y,-z
-x,-y,-z
1/2+x,y,-z
1/2-x,y,z
x,-y,z
loop_
_atom_site_type_symbol
_atom_site_label
_atom_site_fract_x
_atom_site_fract_y
_atom_site_fract_z
Si Si1 0.572896 0.817155 0.498955
Si Si2 0.297986 0.313402 0.256643
Si Si3 0.798988 0.320414 0.264408
Si Si4 0.046109 0.682048 0.727810
Si Si5 0.044327 0.184238 0.253126
Si Si6 0.621404 0.683200 0.888921
Si Si7 0.623898 0.819786 0.131817
Si Si8 0.334587 0.318703 0.495188
O O1 0.544886 0.723538 0.405765
O O2 0.559796 0.756723 0.623475
O O3 0.623617 0.786817 0.479679
O O4 0.562405 0.000000 0.483797
O O5 0.250000 0.244878 0.226190
O O6 0.295846 0.500000 0.253904
O O7 0.333737 0.252256 0.166768
O O8 0.310868 0.255993 0.382492
O O9 0.750000 0.278863 0.227029
O O10 0.810698 0.500000 0.232188
O O11 0.831380 0.206045 0.198934
O O12 0.802043 0.297848 0.399805
O O13 0.056559 0.500000 0.746462
O O14 0.083493 0.782372 0.787504
O O15 0.999554 0.724754 0.781902
O O16 0.081010 0.222111 0.161550
O O17 0.034637 0.000000 0.252697
O O18 0.615120 0.500000 0.861255
O O19 0.623025 0.708585 0.022678
O O20 0.621237 0.000000 0.092952
O O21 0.349362 0.500000 0.480660
#
# Coordination Sequence:
#
# PCOD8207442 Si02
#       8
#     8   8   8   8   8   8   8   8
#     4  11  22  37  61  93 131 167 198 243 308 373
#     4   9  18  34  60  94 127 160 202 252 303 356
#     4  10  21  38  63  95 128 164 208 256 305 365
#     4  12  25  42  66  94 123 159 209 258 307 367
#     4  11  24  42  64  93 130 165 201 248 311 374
#     4  11  23  41  65  92 122 162 214 262 307 363
#     4  12  26  44  64  88 123 165 209 259 319 373
#     4  10  18  33  61  93 126 163 203 248 302 364
#
# _framework density 20.791048
#
# number of rings (size 3 to 8) (size 9 to 14) (size 15 to 20)
#    0.000    1.250    2.500    4.125    0.000    5.750 
#    0.000    3.750    0.000    3.750    0.000    0.000 
#    0.000    0.000    0.000    0.000    0.000    0.000 
#
# Total GULP energy -793955.037304 kJ/mol
# GULP energy per Si atom -12405.547458 kJ/mol
# Density = 2.074373 g / cm^3
# Si number density = 20.791048 Si / 1000 Ang^3
#
#
#
# Elastic Constant Matrix: (Units=GPa)
#
#
# Indices 1 2 3 4 5 6 
#
# 1 131.7687 22.1604 31.3627 0.0000 0.0000 0.0000
# 2 22.1604 58.7663 10.7015 0.0000 0.0000 0.0000
# 3 31.3627 10.7015 101.5209 0.0000 0.0000 0.0000
# 4 0.0000 0.0000 0.0000 28.7392 0.0000 0.0000
# 5 0.0000 0.0000 0.0000 0.0000 9.0733 0.0000
# 6 0.0000 0.0000 0.0000 0.0000 0.0000 16.1312
#
#
#
# Elastic Compliance Matrix: (Units=1/GPa)
#
#
# Indices 1 2 3 4 5 6 
#
# 1 0.008627 -0.002822 -0.002368 0.000000 0.000000 0.000000
# 2 -0.002822 0.018273 -0.001054 0.000000 0.000000 0.000000
# 3 -0.002368 -0.001054 0.010693 0.000000 0.000000 0.000000
# 4 0.000000 0.000000 0.000000 0.034796 0.000000 0.000000
# 5 0.000000 0.000000 0.000000 0.000000 0.110214 0.000000
# 6 0.000000 0.000000 0.000000 0.000000 0.000000 0.061992
#
#
# Mechanical properties :
#
#
# Convention : Reuss Voigt Hill
#
# Bulk Modulus (GPa) = 39.83358 46.72280 43.27819
# Shear Modulus (GPa) = 18.83590 25.97748 22.40669
#
# Velocity S-wave (km/s) = 3.01319 3.53860 3.28641
# Velocity P-wave (km/s) = 5.59520 6.26234 5.93815
#
# Compressibility (1/GPa) = 0.02510445
#
# Stress axis : x y z
#
# Youngs Moduli (GPa) = 115.91227 54.72630 93.52105
#
# Poissons Ratio (x) = 0.15444 0.22143
# Poissons Ratio (y) = 0.32712 0.09860
# Poissons Ratio (z) = 0.27445 0.05770
#
# Static dielectric constant tensor:
#      x y z
#    x 3.902550 0.000000 0.000000 
#    y 0.000000 3.523280 0.000000 
#    z 0.000000 0.000000 3.711680 
# 
# 
# High freq. dielectric constant tensor:
#      x y z
#    x 1.825890 0.000000 0.000000 
#    y 0.000000 1.797120 0.000000 
#    z 0.000000 0.000000 1.811250 
# 
# From -- ./inp_files/19547.got.cif
#   From: 2010.03.12/outbox.cif.g09.slc.cpg/sg51_10_cif.got.tgz:19547.got - 2010.04.16 13:43:02.
