data_PCOD8207777
_publ_section_title
;
Structure prediction by ZEFSAII (Michael W. Deem and Ramdas Pophale) SiO2 
 PCOD8207777
Probable space group: P M M A
;
_chemical_formula_sum "Si O2"
_cell_formula_units_Z 60
_cell_length_a 8.835399
_cell_length_b 20.882633
_cell_length_c 18.765608
_cell_angle_alpha 90.000000
_cell_angle_beta 90.000000
_cell_angle_gamma 90.000000
_cell_volume 3462.374677
_symmetry_space_group_name_H-M "P M M A"
_symmetry_group_IT_number 51
_symmetry_cell_setting 'orthorhombic'
loop_
_space_group_symop_operation_xyz
x,y,z
1/2-x,-y,z
1/2+x,-y,-z
-x,y,-z
-x,-y,-z
1/2+x,y,-z
1/2-x,y,z
x,-y,z
loop_
_atom_site_type_symbol
_atom_site_label
_atom_site_fract_x
_atom_site_fract_y
_atom_site_fract_z
Si Si1 0.571051 0.747385 0.426198
Si Si2 0.924988 0.186439 0.698268
Si Si3 0.570264 0.500000 0.421702
Si Si4 0.072535 0.717171 0.927663
Si Si5 0.071652 0.624366 0.356578
Si Si6 0.076276 0.927181 0.202698
Si Si7 0.076356 0.308976 0.212361
Si Si8 0.572706 0.136838 0.071696
O O1 0.500000 0.770729 0.500000
O O2 0.750000 0.737462 0.431947
O O3 0.532426 0.802786 0.369429
O O4 0.491233 0.681317 0.404878
O O5 0.750000 0.194614 0.674973
O O6 0.961082 0.116275 0.728723
O O7 0.965136 0.238608 0.758447
O O8 0.750000 0.500000 0.428775
O O9 0.500000 0.500000 0.500000
O O10 0.516164 0.439198 0.377206
O O11 0.250000 0.711544 0.935501
O O12 0.016553 0.790296 0.916437
O O13 0.020447 0.676710 0.858553
O O14 0.000000 0.688824 0.000000
O O15 0.250000 0.617012 0.371469
O O16 0.039553 0.638703 0.273266
O O17 0.250000 0.917167 0.179741
O O18 0.973126 0.907869 0.136791
O O19 0.041708 0.000000 0.224676
O O20 0.250000 0.312460 0.189632
O O21 0.750000 0.134613 0.062432
O O22 0.500000 0.108355 0.000000
#
# Coordination Sequence:
#
# PCOD8207777 Si02
#       8
#     8   8   4   8   8   8   8   8
#     4  11  21  34  54  79 105 132 166 207 251 300
#     4   9  18  33  51  72  99 128 161 205 256 308
#     4  12  24  38  56  80 113 152 185 216 248 292
#     4  10  19  29  46  71 100 132 168 210 259 307
#     4  10  21  37  55  79 110 145 178 211 250 297
#     4  10  20  34  52  71  94 128 167 207 255 312
#     4   9  17  31  52  74 100 133 168 211 257 301
#     4  10  20  32  47  68  95 130 168 210 255 305
#
# _framework density 17.329146000000001
#
# number of rings (size 3 to 8) (size 9 to 14) (size 15 to 20)
#    0.000    2.000    1.333    4.200    0.000    4.800 
#    0.000    0.000    0.000    0.400    0.000    0.467 
#    0.000    0.000    0.000    0.000    0.000    0.000 
#
# Total GULP energy -744125.962628 kJ/mol
# GULP energy per Si atom -12402.099377 kJ/mol
# Density = 1.728970 g / cm^3
# Si number density = 17.329146 Si / 1000 Ang^3
#
#
#
# Elastic Constant Matrix: (Units=GPa)
#
#
# Indices 1 2 3 4 5 6 
#
# 1 98.5808 34.7072 60.3096 0.0000 0.0000 0.0000
# 2 34.7072 74.7390 47.7938 0.0000 0.0000 0.0000
# 3 60.3096 47.7938 129.6313 0.0000 0.0000 0.0000
# 4 0.0000 0.0000 0.0000 21.9660 0.0000 0.0000
# 5 0.0000 0.0000 0.0000 0.0000 35.4812 0.0000
# 6 0.0000 0.0000 0.0000 0.0000 0.0000 22.6797
#
#
#
# Elastic Compliance Matrix: (Units=1/GPa)
#
#
# Indices 1 2 3 4 5 6 
#
# 1 0.014749 -0.003221 -0.005675 0.000000 0.000000 0.000000
# 2 -0.003221 0.018211 -0.005216 0.000000 0.000000 0.000000
# 3 -0.005675 -0.005216 0.012277 0.000000 0.000000 0.000000
# 4 0.000000 0.000000 0.000000 0.045525 0.000000 0.000000
# 5 0.000000 0.000000 0.000000 0.000000 0.028184 0.000000
# 6 0.000000 0.000000 0.000000 0.000000 0.000000 0.044092
#
#
# Mechanical properties :
#
#
# Convention : Reuss Voigt Hill
#
# Bulk Modulus (GPa) = 58.76984 65.39694 62.08339
# Shear Modulus (GPa) = 25.38941 26.70143 26.04542
#
# Velocity S-wave (km/s) = 3.83185 3.92961 3.88104
# Velocity P-wave (km/s) = 7.31881 7.64259 7.48245
#
# Compressibility (1/GPa) = 0.01701553
#
# Stress axis : x y z
#
# Youngs Moduli (GPa) = 67.79923 54.91230 81.45118
#
# Poissons Ratio (x) = 0.17685 0.46221
# Poissons Ratio (y) = 0.21835 0.42484
# Poissons Ratio (z) = 0.38474 0.28641
#
# Static dielectric constant tensor:
#      x y z
#    x 3.235500 0.000000 0.000000 
#    y 0.000000 3.061570 0.000000 
#    z 0.000000 0.000000 3.298580 
# 
# 
# High freq. dielectric constant tensor:
#      x y z
#    x 1.677870 0.000000 0.000000 
#    y 0.000000 1.634160 0.000000 
#    z 0.000000 0.000000 1.673260 
# 
# From -- ./inp_files/28331.got.cif
#   From: 2010.03.12/outbox.cif.g09.slc.cpg/sg51_15_cif.got.tgz:28331.got - 2010.04.16 13:43:02.
