data_PCOD8207471
_publ_section_title
;
Structure prediction by ZEFSAII (Michael W. Deem and Ramdas Pophale) SiO2 
 PCOD8207471
Probable space group: P M M A
;
_chemical_formula_sum "Si O2"
_cell_formula_units_Z 48
_cell_length_a 19.118352
_cell_length_b 8.617076
_cell_length_c 15.171933
_cell_angle_alpha 90.000000
_cell_angle_beta 90.000000
_cell_angle_gamma 90.000000
_cell_volume 2499.489363
_symmetry_space_group_name_H-M "P M M A"
_symmetry_group_IT_number 51
_symmetry_cell_setting 'orthorhombic'
loop_
_space_group_symop_operation_xyz
x,y,z
1/2-x,-y,z
1/2+x,-y,-z
-x,y,-z
-x,-y,-z
1/2+x,y,-z
1/2-x,y,z
x,-y,z
loop_
_atom_site_type_symbol
_atom_site_label
_atom_site_fract_x
_atom_site_fract_y
_atom_site_fract_z
Si Si1 0.330926 0.682487 0.633299
Si Si2 0.076157 0.318298 0.963025
Si Si3 0.424401 0.315659 0.472953
Si Si4 0.425027 0.683748 0.277851
Si Si5 0.671512 0.684632 0.876615
Si Si6 0.071739 0.180546 0.776036
O O1 0.250000 0.725533 0.626789
O O2 0.343211 0.500000 0.647076
O O3 0.366794 0.741194 0.542776
O O4 0.363091 0.772658 0.715556
O O5 0.082207 0.500000 0.941438
O O6 0.091829 0.221963 0.875662
O O7 0.133208 0.263147 0.034172
O O8 0.000000 0.277430 0.000000
O O9 0.500000 0.247807 0.500000
O O10 0.427831 0.500000 0.471108
O O11 0.405155 0.253455 0.375237
O O12 0.420633 0.500000 0.275006
O O13 0.370456 0.754064 0.207246
O O14 0.503701 0.726887 0.253901
O O15 0.750000 0.752455 0.875989
O O16 0.672502 0.500000 0.871102
O O17 0.056288 0.000000 0.767324
#
# Coordination Sequence:
#
# PCOD8207471 Si02
#       6
#     8   8   8   8   8   8
#     4  10  21  38  59  84 114 149 190 235 286 338
#     4  10  19  35  59  83 108 144 189 233 283 341
#     4   9  16  29  56  86 110 136 178 233 277 321
#     4  10  18  34  59  84 113 148 186 228 281 341
#     4   9  18  32  54  85 113 137 176 232 286 337
#     4  12  24  36  55  83 115 149 192 236 279 334
#
# _framework density 19.203923
#
# number of rings (size 3 to 8) (size 9 to 14) (size 15 to 20)
#    0.000    2.000    3.333    1.500    0.000    2.000 
#    0.000    6.667    0.000    1.500    0.000    0.000 
#    0.000    0.000    0.000    0.000    0.000    0.000 
#
# Total GULP energy -595241.677676 kJ/mol
# GULP energy per Si atom -12400.868285 kJ/mol
# Density = 1.916021 g / cm^3
# Si number density = 19.203923 Si / 1000 Ang^3
#
#
#
# Elastic Constant Matrix: (Units=GPa)
#
#
# Indices 1 2 3 4 5 6 
#
# 1 137.3945 4.1384 73.2130 0.0000 0.0000 0.0000
# 2 4.1384 9.9345 17.9242 0.0000 0.0000 0.0000
# 3 73.2130 17.9242 177.8624 0.0000 0.0000 0.0000
# 4 0.0000 0.0000 0.0000 0.0752 0.0000 0.0000
# 5 0.0000 0.0000 0.0000 0.0000 37.4338 0.0000
# 6 0.0000 0.0000 0.0000 0.0000 0.0000 5.1800
#
#
#
# Elastic Compliance Matrix: (Units=1/GPa)
#
#
# Indices 1 2 3 4 5 6 
#
# 1 0.009437 0.003761 -0.004264 0.000000 0.000000 0.000000
# 2 0.003761 0.124528 -0.014098 0.000000 0.000000 0.000000
# 3 -0.004264 -0.014098 0.008798 0.000000 0.000000 0.000000
# 4 0.000000 0.000000 0.000000 13.305566 0.000000 0.000000
# 5 0.000000 0.000000 0.000000 0.000000 0.026714 0.000000
# 6 0.000000 0.000000 0.000000 0.000000 0.000000 0.193051
#
#
# Mechanical properties :
#
#
# Convention : Reuss Voigt Hill
#
# Bulk Modulus (GPa) = 8.80565 57.30473 33.05519
# Shear Modulus (GPa) = 0.36403 23.86551 12.11477
#
# Velocity S-wave (km/s) = 0.43586 3.52908 2.51440
# Velocity P-wave (km/s) = 2.20195 6.81988 5.06751
#
# Compressibility (1/GPa) = 0.11356342
#
# Stress axis : x y z
#
# Youngs Moduli (GPa) = 105.96674 8.03031 113.66195
#
# Poissons Ratio (x) = -0.03020 0.48460
# Poissons Ratio (y) = -0.39858 1.60237
# Poissons Ratio (z) = 0.45179 0.11321
#
# Static dielectric constant tensor:
#      x y z
#    x 3.587430 0.000000 0.000000 
#    y 0.000000 2.994850 0.000000 
#    z 0.000000 0.000000 3.947820 
# 
# 
# High freq. dielectric constant tensor:
#      x y z
#    x 1.746150 0.000000 0.000000 
#    y 0.000000 1.697010 0.000000 
#    z 0.000000 0.000000 1.767980 
# 
# From -- ./inp_files/24757.got.cif
#   From: 2010.03.12/outbox.cif.g09.slc.cpg/sg51_13_cif.got.tgz:24757.got - 2010.04.16 13:43:02.
