data_PCOD8207880
_publ_section_title
;
Structure prediction by ZEFSAII (Michael W. Deem and Ramdas Pophale) SiO2 
 PCOD8207880
Probable space group: P M M A
;
_chemical_formula_sum "Si O2"
_cell_formula_units_Z 36
_cell_length_a 8.781881
_cell_length_b 18.479316
_cell_length_c 14.276183
_cell_angle_alpha 90.000000
_cell_angle_beta 90.000000
_cell_angle_gamma 90.000000
_cell_volume 2316.784005
_symmetry_space_group_name_H-M "P M M A"
_symmetry_group_IT_number 51
_symmetry_cell_setting 'orthorhombic'
loop_
_space_group_symop_operation_xyz
x,y,z
1/2-x,-y,z
1/2+x,-y,-z
-x,y,-z
-x,-y,-z
1/2+x,y,-z
1/2-x,y,z
x,-y,z
loop_
_atom_site_type_symbol
_atom_site_label
_atom_site_fract_x
_atom_site_fract_y
_atom_site_fract_z
Si Si1 0.430602 0.861665 0.218406
Si Si2 0.070678 0.083404 0.597579
Si Si3 0.929744 0.000000 0.898266
Si Si4 0.427785 0.576292 0.899432
Si Si5 0.930574 0.733649 0.103158
O O1 0.250000 0.859117 0.224430
O O2 0.498360 0.867625 0.321926
O O3 0.493286 0.788857 0.173806
O O4 0.487520 0.929386 0.156700
O O5 0.250000 0.094991 0.594689
O O6 0.000000 0.109985 0.500000
O O7 0.026401 0.000000 0.616192
O O8 0.750000 0.000000 0.908209
O O9 0.000000 0.000000 0.000000
O O10 0.250000 0.577241 0.915633
O O11 0.473766 0.500000 0.845606
O O12 0.472382 0.653610 0.853481
O O13 0.500000 0.573862 0.000000
O O14 0.750000 0.746968 0.097513
O O15 0.000000 0.744125 0.000000
#
# Coordination Sequence:
#
# PCOD8207880 Si02
#       5
#     8   8   4   8   8
#     4  11  21  34  48  65  90 121 156 192 230 271
#     4  10  20  34  53  73  91 114 145 187 234 279
#     4  10  22  34  45  60  83 118 157 192 222 260
#     4   8  14  25  41  60  84 115 150 187 225 267
#     4  10  19  30  44  65  92 123 158 192 230 272
#
# _framework density 15.538779999999999
#
# number of rings (size 3 to 8) (size 9 to 14) (size 15 to 20)
#    0.000    2.222    1.111    2.667    0.000    5.333 
#    0.000    0.000    0.000    0.000    0.000    0.000 
#    0.000    0.889    0.000    2.444    0.000    4.000 
#
# Total GULP energy -446055.752270 kJ/mol
# GULP energy per Si atom -12390.437563 kJ/mol
# Density = 1.550341 g / cm^3
# Si number density = 15.538780 Si / 1000 Ang^3
#
#
#
# Elastic Constant Matrix: (Units=GPa)
#
#
# Indices 1 2 3 4 5 6 
#
# 1 54.7071 40.2951 36.6459 0.0000 0.0000 0.0000
# 2 40.2951 145.0530 63.6896 0.0000 0.0000 0.0000
# 3 36.6459 63.6896 103.3249 0.0000 0.0000 0.0000
# 4 0.0000 0.0000 0.0000 6.6073 0.0000 0.0000
# 5 0.0000 0.0000 0.0000 0.0000 26.7959 0.0000
# 6 0.0000 0.0000 0.0000 0.0000 0.0000 17.6677
#
#
#
# Elastic Compliance Matrix: (Units=1/GPa)
#
#
# Indices 1 2 3 4 5 6 
#
# 1 0.025809 -0.004320 -0.006491 0.000000 0.000000 0.000000
# 2 -0.004320 0.010175 -0.004740 0.000000 0.000000 0.000000
# 3 -0.006491 -0.004740 0.014902 0.000000 0.000000 0.000000
# 4 0.000000 0.000000 0.000000 0.151348 0.000000 0.000000
# 5 0.000000 0.000000 0.000000 0.000000 0.037319 0.000000
# 6 0.000000 0.000000 0.000000 0.000000 0.000000 0.056600
#
#
# Mechanical properties :
#
#
# Convention : Reuss Voigt Hill
#
# Bulk Modulus (GPa) = 50.54316 64.92736 57.73526
# Shear Modulus (GPa) = 14.97678 21.04447 18.01063
#
# Velocity S-wave (km/s) = 3.10793 3.68410 3.40821
# Velocity P-wave (km/s) = 6.74364 7.74413 7.26114
#
# Compressibility (1/GPa) = 0.01978507
#
# Stress axis : x y z
#
# Youngs Moduli (GPa) = 38.74651 98.27798 67.10471
#
# Poissons Ratio (x) = 0.42452 0.43557
# Poissons Ratio (y) = 0.16737 0.31808
# Poissons Ratio (z) = 0.25150 0.46584
#
# Static dielectric constant tensor:
#      x y z
#    x 3.082680 0.000000 0.000000 
#    y 0.000000 3.589310 0.000000 
#    z 0.000000 0.000000 2.719550 
# 
# 
# High freq. dielectric constant tensor:
#      x y z
#    x 1.610870 0.000000 0.000000 
#    y 0.000000 1.602380 0.000000 
#    z 0.000000 0.000000 1.557230 
# 
# From -- ./inp_files/14008.got.cif
#   From: 2010.03.12/outbox.cif.g09.slc.cpg/sg51_8_cif.got.tgz:14008.got - 2010.04.16 13:43:02.
