data_PCOD8207741
_publ_section_title
;
Structure prediction by ZEFSAII (Michael W. Deem and Ramdas Pophale) SiO2 
 PCOD8207741
Probable space group: P M M A
;
_chemical_formula_sum "Si O2"
_cell_formula_units_Z 56
_cell_length_a 17.994521
_cell_length_b 9.217324
_cell_length_c 20.727217
_cell_angle_alpha 90.000000
_cell_angle_beta 90.000000
_cell_angle_gamma 90.000000
_cell_volume 3437.843785
_symmetry_space_group_name_H-M "P M M A"
_symmetry_group_IT_number 51
_symmetry_cell_setting 'orthorhombic'
loop_
_space_group_symop_operation_xyz
x,y,z
1/2-x,-y,z
1/2+x,-y,-z
-x,y,-z
-x,-y,-z
1/2+x,y,-z
1/2-x,y,z
x,-y,z
loop_
_atom_site_type_symbol
_atom_site_label
_atom_site_fract_x
_atom_site_fract_y
_atom_site_fract_z
Si Si1 0.663797 0.167527 0.489743
Si Si2 0.449363 0.340231 0.437216
Si Si3 0.963256 0.336276 0.930158
Si Si4 0.406451 0.671756 0.629259
Si Si5 0.594111 0.832235 0.119413
Si Si6 0.164020 0.167989 0.744921
Si Si7 0.834555 0.169216 0.984900
O O1 0.750000 0.188036 0.505943
O O2 0.617672 0.227651 0.551416
O O3 0.644564 0.253528 0.424831
O O4 0.643072 0.000000 0.479125
O O5 0.500000 0.348233 0.500000
O O6 0.415644 0.500000 0.422887
O O7 0.505699 0.291332 0.380260
O O8 0.950224 0.500000 0.906907
O O9 0.017593 0.258194 0.879356
O O10 0.884190 0.255548 0.933170
O O11 0.000000 0.328264 0.000000
O O12 0.392700 0.500000 0.625015
O O13 0.384543 0.731469 0.698772
O O14 0.641917 0.794458 0.182138
O O15 0.644327 0.789369 0.058150
O O16 0.571609 0.000000 0.116824
O O17 0.250000 0.205981 0.735179
O O18 0.148505 0.000000 0.728772
O O19 0.750000 0.215538 0.973052
O O20 0.847291 0.000000 0.972737
#
# Coordination Sequence:
#
# PCOD8207741 Si02
#       7
#     8   8   8   8   8   8   8
#     4  10  19  29  44  68  93 115 143 181 223 264
#     4   8  16  30  45  62  85 114 148 182 216 258
#     4   9  17  28  42  62  88 116 146 181 221 264
#     4  10  20  32  45  63  89 121 154 183 214 258
#     4   9  17  30  46  63  87 119 152 184 217 256
#     4  10  20  32  46  66  91 119 152 186 217 252
#     4   9  16  27  45  67  89 115 147 182 221 264
#
# _framework density 16.289280000000002
#
# number of rings (size 3 to 8) (size 9 to 14) (size 15 to 20)
#    0.000    2.714    0.000    3.000    0.000   10.571 
#    0.000    0.000    0.000    2.571    0.000    1.000 
#    0.000    5.714    0.000    0.000    0.000    0.000 
#
# Total GULP energy -694312.438818 kJ/mol
# GULP energy per Si atom -12398.436407 kJ/mol
# Density = 1.625220 g / cm^3
# Si number density = 16.289280 Si / 1000 Ang^3
#
#
#
# Elastic Constant Matrix: (Units=GPa)
#
#
# Indices 1 2 3 4 5 6 
#
# 1 92.9253 52.7123 20.5412 0.0000 0.0000 0.0000
# 2 52.7123 86.1708 23.6766 0.0000 0.0000 0.0000
# 3 20.5412 23.6766 32.8880 0.0000 0.0000 0.0000
# 4 0.0000 0.0000 0.0000 19.7284 0.0000 0.0000
# 5 0.0000 0.0000 0.0000 0.0000 27.4170 0.0000
# 6 0.0000 0.0000 0.0000 0.0000 0.0000 21.1157
#
#
#
# Elastic Compliance Matrix: (Units=1/GPa)
#
#
# Indices 1 2 3 4 5 6 
#
# 1 0.016866 -0.009253 -0.003873 0.000000 0.000000 0.000000
# 2 -0.009253 0.019543 -0.008290 0.000000 0.000000 0.000000
# 3 -0.003873 -0.008290 0.038793 0.000000 0.000000 0.000000
# 4 0.000000 0.000000 0.000000 0.050688 0.000000 0.000000
# 5 0.000000 0.000000 0.000000 0.000000 0.036474 0.000000
# 6 0.000000 0.000000 0.000000 0.000000 0.000000 0.047358
#
#
# Mechanical properties :
#
#
# Convention : Reuss Voigt Hill
#
# Bulk Modulus (GPa) = 30.89233 45.09381 37.99307
# Shear Modulus (GPa) = 18.98649 21.32250 20.15450
#
# Velocity S-wave (km/s) = 3.41777 3.62192 3.52132
# Velocity P-wave (km/s) = 5.88055 6.72565 6.31724
#
# Compressibility (1/GPa) = 0.03237049
#
# Stress axis : x y z
#
# Youngs Moduli (GPa) = 59.28923 51.16881 25.77779
#
# Poissons Ratio (x) = 0.47349 0.09983
# Poissons Ratio (y) = 0.54863 0.21370
# Poissons Ratio (z) = 0.22961 0.42419
#
# Static dielectric constant tensor:
#      x y z
#    x 3.215590 0.000000 0.000000 
#    y 0.000000 3.184000 0.000000 
#    z 0.000000 0.000000 2.868320 
# 
# 
# High freq. dielectric constant tensor:
#      x y z
#    x 1.625260 0.000000 0.000000 
#    y 0.000000 1.633380 0.000000 
#    z 0.000000 0.000000 1.586160 
# 
# From -- ./inp_files/33658.got.cif
#   From: 2010.03.12/outbox.cif.g09.slc.cpg/sg51_17_cif.got.tgz:33658.got - 2010.04.16 13:43:02.
