data_PCOD8207125
_publ_section_title
;
Structure prediction by ZEFSAII (Michael W. Deem and Ramdas Pophale) SiO2 
 PCOD8207125
Probable space group: P M M A
;
_chemical_formula_sum "Si O2"
_cell_formula_units_Z 60
_cell_length_a 8.870393
_cell_length_b 20.811554
_cell_length_c 18.844526
_cell_angle_alpha 90.000000
_cell_angle_beta 90.000000
_cell_angle_gamma 90.000000
_cell_volume 3478.825059
_symmetry_space_group_name_H-M "P M M A"
_symmetry_group_IT_number 51
_symmetry_cell_setting 'orthorhombic'
loop_
_space_group_symop_operation_xyz
x,y,z
1/2-x,-y,z
1/2+x,-y,-z
-x,y,-z
-x,-y,-z
1/2+x,y,-z
1/2-x,y,z
x,-y,z
loop_
_atom_site_type_symbol
_atom_site_label
_atom_site_fract_x
_atom_site_fract_y
_atom_site_fract_z
Si Si1 0.574001 0.367602 0.928351
Si Si2 0.075289 0.249944 0.425181
Si Si3 0.928791 0.780009 0.926203
Si Si4 0.570268 0.000000 0.421975
Si Si5 0.923443 0.572860 0.203151
Si Si6 0.575864 0.687509 0.300274
Si Si7 0.428020 0.879871 0.344704
Si Si8 0.572713 0.185084 0.215650
O O1 0.750000 0.373108 0.937914
O O2 0.524894 0.294165 0.914017
O O3 0.522941 0.413416 0.865293
O O4 0.500000 0.393887 0.000000
O O5 0.250000 0.258414 0.436089
O O6 0.033403 0.180407 0.394432
O O7 0.000000 0.260310 0.500000
O O8 0.019288 0.304750 0.371646
O O9 0.750000 0.790001 0.927694
O O10 0.001084 0.821212 0.862485
O O11 0.000000 0.804828 0.000000
O O12 0.500000 0.000000 0.500000
O O13 0.515930 0.061329 0.378608
O O14 0.750000 0.000000 0.428882
O O15 0.750000 0.586119 0.182947
O O16 0.949888 0.500000 0.228540
O O17 0.972802 0.619600 0.266855
O O18 0.750000 0.689452 0.321522
O O19 0.537656 0.743650 0.244429
O O20 0.250000 0.893810 0.340683
O O21 0.491967 0.867221 0.265935
O O22 0.750000 0.170506 0.212537
#
# Coordination Sequence:
#
# PCOD8207125 Si02
#       8
#     8   8   8   4   8   8   8   8
#     4  10  20  32  48  68  95 129 168 210 255 306
#     4  10  20  33  53  78 103 130 163 204 249 298
#     4  10  19  30  47  72 101 134 170 214 264 313
#     4  12  24  38  56  80 113 152 187 216 252 298
#     4  10  20  34  51  70  94 127 166 207 255 312
#     4   9  18  32  50  71  97 127 160 203 254 305
#     4  10  21  36  54  79 110 144 178 213 251 297
#     4  10  18  31  52  76 103 135 172 215 260 308
#
# _framework density 17.247202000000001
#
# number of rings (size 3 to 8) (size 9 to 14) (size 15 to 20)
#    0.000    2.000    1.333    3.000    0.000    5.333 
#    0.000    0.000    0.000    0.400    0.000    0.467 
#    0.000    0.000    0.000    0.000    0.000    0.000 
#
# Total GULP energy -744200.030646 kJ/mol
# GULP energy per Si atom -12403.333844 kJ/mol
# Density = 1.720795 g / cm^3
# Si number density = 17.247202 Si / 1000 Ang^3
#
#
#
# Elastic Constant Matrix: (Units=GPa)
#
#
# Indices 1 2 3 4 5 6 
#
# 1 81.0847 45.2575 62.3371 0.0000 0.0000 0.0000
# 2 45.2575 84.9641 61.8795 0.0000 0.0000 0.0000
# 3 62.3371 61.8795 150.4464 0.0000 0.0000 0.0000
# 4 0.0000 0.0000 0.0000 22.2595 0.0000 0.0000
# 5 0.0000 0.0000 0.0000 0.0000 35.9712 0.0000
# 6 0.0000 0.0000 0.0000 0.0000 0.0000 22.0314
#
#
#
# Elastic Compliance Matrix: (Units=1/GPa)
#
#
# Indices 1 2 3 4 5 6 
#
# 1 0.020497 -0.006757 -0.005714 0.000000 0.000000 0.000000
# 2 -0.006757 0.019030 -0.005028 0.000000 0.000000 0.000000
# 3 -0.005714 -0.005028 0.011082 0.000000 0.000000 0.000000
# 4 0.000000 0.000000 0.000000 0.044925 0.000000 0.000000
# 5 0.000000 0.000000 0.000000 0.000000 0.027800 0.000000
# 6 0.000000 0.000000 0.000000 0.000000 0.000000 0.045390
#
#
# Mechanical properties :
#
#
# Convention : Reuss Voigt Hill
#
# Bulk Modulus (GPa) = 64.04810 72.82706 68.43758
# Shear Modulus (GPa) = 23.93215 25.85384 24.89299
#
# Velocity S-wave (km/s) = 3.72909 3.87591 3.80321
# Velocity P-wave (km/s) = 7.46709 7.89604 7.68456
#
# Compressibility (1/GPa) = 0.01561327
#
# Stress axis : x y z
#
# Youngs Moduli (GPa) = 48.78856 52.54751 90.23398
#
# Poissons Ratio (x) = 0.35504 0.51557
# Poissons Ratio (y) = 0.32964 0.45368
# Poissons Ratio (z) = 0.27876 0.26420
#
# Static dielectric constant tensor:
#      x y z
#    x 3.292090 0.000000 0.000000 
#    y 0.000000 3.045840 0.000000 
#    z 0.000000 0.000000 3.268110 
# 
# 
# High freq. dielectric constant tensor:
#      x y z
#    x 1.679580 0.000000 0.000000 
#    y 0.000000 1.633290 0.000000 
#    z 0.000000 0.000000 1.669410 
# 
# From -- ./inp_files/28347.got.cif
#   From: 2010.03.12/outbox.cif.g09.slc.cpg/sg51_15_cif.got.tgz:28347.got - 2010.04.16 13:43:02.
