data_PCOD8207542
_publ_section_title
;
Structure prediction by ZEFSAII (Michael W. Deem and Ramdas Pophale) SiO2 
 PCOD8207542
Probable space group: P M M A
;
_chemical_formula_sum "Si O2"
_cell_formula_units_Z 64
_cell_length_a 9.092240
_cell_length_b 18.547435
_cell_length_c 26.371993
_cell_angle_alpha 90.000000
_cell_angle_beta 90.000000
_cell_angle_gamma 90.000000
_cell_volume 4447.313046
_symmetry_space_group_name_H-M "P M M A"
_symmetry_group_IT_number 51
_symmetry_cell_setting 'orthorhombic'
loop_
_space_group_symop_operation_xyz
x,y,z
1/2-x,-y,z
1/2+x,-y,-z
-x,y,-z
-x,-y,-z
1/2+x,y,-z
1/2-x,y,z
x,-y,z
loop_
_atom_site_type_symbol
_atom_site_label
_atom_site_fract_x
_atom_site_fract_y
_atom_site_fract_z
Si Si1 0.418522 0.419713 0.163130
Si Si2 0.576300 0.081150 0.845042
Si Si3 0.077476 0.654458 0.744438
Si Si4 0.416049 0.719434 0.113063
Si Si5 0.084267 0.414423 0.548949
Si Si6 0.577058 0.416294 0.650917
Si Si7 0.417137 0.152855 0.050141
Si Si8 0.919246 0.794404 0.199936
O O1 0.250000 0.418962 0.182436
O O2 0.466636 0.500000 0.146671
O O3 0.519248 0.392872 0.208856
O O4 0.435411 0.367563 0.113395
O O5 0.750000 0.084485 0.840546
O O6 0.524391 0.110546 0.900150
O O7 0.510362 0.130744 0.799709
O O8 0.517397 0.000000 0.838196
O O9 0.250000 0.638206 0.738249
O O10 0.049070 0.740373 0.752966
O O11 0.991177 0.632699 0.694425
O O12 0.250000 0.739093 0.132618
O O13 0.437476 0.760146 0.059192
O O14 0.538018 0.749937 0.150334
O O15 0.250000 0.383150 0.550827
O O16 0.089518 0.500000 0.545211
O O17 0.000000 0.382547 0.500000
O O18 0.995985 0.390360 0.598684
O O19 0.750000 0.402720 0.647264
O O20 0.541833 0.500000 0.662207
O O21 0.250000 0.131701 0.040357
O O22 0.500000 0.127731 0.000000
O O23 0.750000 0.815801 0.197351
#
# Coordination Sequence:
#
# PCOD8207542 Si02
#       8
#     8   8   8   8   8   8   8   8
#     4   9  16  26  41  58  73  93 124 159 193 231
#     4   9  18  32  47  62  81 103 125 149 179 218
#     4  10  19  28  38  55  80 105 127 156 197 239
#     4   8  15  28  42  55  74  99 124 151 185 225
#     4   9  16  26  39  53  71  98 133 173 215 254
#     4  10  19  28  38  54  76 103 138 177 211 242
#     4   9  17  28  42  59  78 100 124 150 181 218
#     4   9  17  28  42  60  79 100 127 155 183 221
#
# _framework density 14.390712000000001
#
# number of rings (size 3 to 8) (size 9 to 14) (size 15 to 20)
#    0.000    2.875    0.000    2.625    0.000    8.000 
#    0.000    0.000    0.000    0.375    0.000    0.000 
#    0.000    0.000    0.000    0.000    0.000    1.375 
#
# Total GULP energy -792958.629331 kJ/mol
# GULP energy per Si atom -12389.978583 kJ/mol
# Density = 1.435796 g / cm^3
# Si number density = 14.390712 Si / 1000 Ang^3
#
#
#
# Elastic Constant Matrix: (Units=GPa)
#
#
# Indices 1 2 3 4 5 6 
#
# 1 68.5260 33.4030 33.9405 0.0000 0.0000 0.0000
# 2 33.4030 97.2369 30.8118 0.0000 0.0000 0.0000
# 3 33.9405 30.8118 50.7603 0.0000 0.0000 0.0000
# 4 0.0000 0.0000 0.0000 11.7066 0.0000 0.0000
# 5 0.0000 0.0000 0.0000 0.0000 22.2803 0.0000
# 6 0.0000 0.0000 0.0000 0.0000 0.0000 17.1519
#
#
#
# Elastic Compliance Matrix: (Units=1/GPa)
#
#
# Indices 1 2 3 4 5 6 
#
# 1 0.022860 -0.003726 -0.013023 0.000000 0.000000 0.000000
# 2 -0.003726 0.013341 -0.005606 0.000000 0.000000 0.000000
# 3 -0.013023 -0.005606 0.031811 0.000000 0.000000 0.000000
# 4 0.000000 0.000000 0.000000 0.085422 0.000000 0.000000
# 5 0.000000 0.000000 0.000000 0.000000 0.044883 0.000000
# 6 0.000000 0.000000 0.000000 0.000000 0.000000 0.058302
#
#
# Mechanical properties :
#
#
# Convention : Reuss Voigt Hill
#
# Bulk Modulus (GPa) = 42.91785 45.87042 44.39413
# Shear Modulus (GPa) = 16.17616 18.11896 17.14756
#
# Velocity S-wave (km/s) = 3.35635 3.55219 3.45566
# Velocity P-wave (km/s) = 6.70136 6.98343 6.84385
#
# Compressibility (1/GPa) = 0.02330033
#
# Stress axis : x y z
#
# Youngs Moduli (GPa) = 43.74545 74.95865 31.43529
#
# Poissons Ratio (x) = 0.27930 0.40938
# Poissons Ratio (y) = 0.16300 0.17624
# Poissons Ratio (z) = 0.56970 0.42025
#
# Static dielectric constant tensor:
#      x y z
#    x 2.908470 0.000000 0.000000 
#    y 0.000000 2.930080 0.000000 
#    z 0.000000 0.000000 2.655080 
# 
# 
# High freq. dielectric constant tensor:
#      x y z
#    x 1.561530 0.000000 0.000000 
#    y 0.000000 1.527710 0.000000 
#    z 0.000000 0.000000 1.514700 
# 
# From -- ./inp_files/36405.got.cif
#   From: 2010.03.12/outbox.cif.g09.slc.cpg/sg51_19_cif.got.tgz:36405.got - 2010.04.16 13:43:02.
