data_PCOD8207758
_publ_section_title
;
Structure prediction by ZEFSAII (Michael W. Deem and Ramdas Pophale) SiO2 
 PCOD8207758
Probable space group: P M M A
;
_chemical_formula_sum "Si O2"
_cell_formula_units_Z 64
_cell_length_a 8.931643
_cell_length_b 18.847838
_cell_length_c 23.531613
_cell_angle_alpha 90.000000
_cell_angle_beta 90.000000
_cell_angle_gamma 90.000000
_cell_volume 3961.362569
_symmetry_space_group_name_H-M "P M M A"
_symmetry_group_IT_number 51
_symmetry_cell_setting 'orthorhombic'
loop_
_space_group_symop_operation_xyz
x,y,z
1/2-x,-y,z
1/2+x,-y,-z
-x,y,-z
-x,-y,-z
1/2+x,y,-z
1/2-x,y,z
x,-y,z
loop_
_atom_site_type_symbol
_atom_site_label
_atom_site_fract_x
_atom_site_fract_y
_atom_site_fract_z
Si Si1 0.074612 0.784219 0.059990
Si Si2 0.920988 0.420193 0.232760
Si Si3 0.924954 0.079545 0.246657
Si Si4 0.575791 0.286658 0.162446
Si Si5 0.574317 0.418815 0.441276
Si Si6 0.423470 0.351292 0.336114
Si Si7 0.924208 0.214640 0.732174
Si Si8 0.921118 0.078957 0.871982
O O1 0.250000 0.771969 0.054315
O O2 0.035282 0.864125 0.080085
O O3 0.010131 0.726901 0.104020
O O4 0.000000 0.769946 0.000000
O O5 0.750000 0.410803 0.253921
O O6 0.952584 0.500000 0.211841
O O7 0.953293 0.368466 0.179825
O O8 0.027685 0.403135 0.285499
O O9 0.750000 0.094029 0.252698
O O10 0.014767 0.136637 0.285355
O O11 0.970836 0.089567 0.181265
O O12 0.966230 0.000000 0.267415
O O13 0.750000 0.269800 0.154418
O O14 0.512369 0.236021 0.211265
O O15 0.500000 0.394842 0.500000
O O16 0.750000 0.409501 0.447575
O O17 0.530759 0.500000 0.426451
O O18 0.516259 0.367104 0.392413
O O19 0.250000 0.364777 0.348595
O O20 0.455757 0.269731 0.318688
O O21 0.750000 0.211973 0.747128
O O22 0.750000 0.090692 0.851455
O O23 0.941987 0.000000 0.897916
#
# Coordination Sequence:
#
# PCOD8207758 Si02
#       8
#     8   8   8   8   8   8   8   8
#     4  11  22  34  49  67  89 117 151 189 228 278
#     4   9  18  32  50  72  96 122 151 187 235 285
#     4  10  19  29  45  69  94 122 156 192 231 278
#     4  10  19  32  50  69  91 117 148 188 231 279
#     4  10  20  33  49  69  97 135 174 207 240 278
#     4  10  20  31  46  71 101 130 164 201 235 273
#     4  10  19  31  47  68  95 127 158 192 234 280
#     4   9  18  32  48  65  88 119 150 182 223 271
#
# _framework density 16.156058000000002
#
# number of rings (size 3 to 8) (size 9 to 14) (size 15 to 20)
#    0.000    2.125    1.250    2.625    0.000    6.000 
#    0.000    0.000    0.000    0.375    0.000    0.000 
#    0.000    0.500    0.000    1.625    0.000    2.375 
#
# Total GULP energy -793660.041826 kJ/mol
# GULP energy per Si atom -12400.938154 kJ/mol
# Density = 1.611929 g / cm^3
# Si number density = 16.156058 Si / 1000 Ang^3
#
#
#
# Elastic Constant Matrix: (Units=GPa)
#
#
# Indices 1 2 3 4 5 6 
#
# 1 81.2980 48.1006 43.8244 0.0000 0.0000 0.0000
# 2 48.1006 114.9143 51.1417 0.0000 0.0000 0.0000
# 3 43.8244 51.1417 90.0344 0.0000 0.0000 0.0000
# 4 0.0000 0.0000 0.0000 19.0169 0.0000 0.0000
# 5 0.0000 0.0000 0.0000 0.0000 28.0697 0.0000
# 6 0.0000 0.0000 0.0000 0.0000 0.0000 24.8458
#
#
#
# Elastic Compliance Matrix: (Units=1/GPa)
#
#
# Indices 1 2 3 4 5 6 
#
# 1 0.018624 -0.005034 -0.006206 0.000000 0.000000 0.000000
# 2 -0.005034 0.013007 -0.004938 0.000000 0.000000 0.000000
# 3 -0.006206 -0.004938 0.016933 0.000000 0.000000 0.000000
# 4 0.000000 0.000000 0.000000 0.052585 0.000000 0.000000
# 5 0.000000 0.000000 0.000000 0.000000 0.035626 0.000000
# 6 0.000000 0.000000 0.000000 0.000000 0.000000 0.040248
#
#
# Mechanical properties :
#
#
# Convention : Reuss Voigt Hill
#
# Bulk Modulus (GPa) = 61.69813 63.59778 62.64795
# Shear Modulus (GPa) = 23.27964 23.93182 23.60573
#
# Velocity S-wave (km/s) = 3.80007 3.85293 3.82659
# Velocity P-wave (km/s) = 7.58457 7.69698 7.64099
#
# Compressibility (1/GPa) = 0.01620795
#
# Stress axis : x y z
#
# Youngs Moduli (GPa) = 53.69398 76.88324 59.05781
#
# Poissons Ratio (x) = 0.38701 0.36652
# Poissons Ratio (y) = 0.27028 0.29163
# Poissons Ratio (z) = 0.33323 0.37965
#
# Static dielectric constant tensor:
#      x y z
#    x 3.183630 0.000000 0.000000 
#    y 0.000000 3.316640 0.000000 
#    z 0.000000 0.000000 2.768710 
# 
# 
# High freq. dielectric constant tensor:
#      x y z
#    x 1.638090 0.000000 0.000000 
#    y 0.000000 1.623550 0.000000 
#    z 0.000000 0.000000 1.581550 
# 
# From -- ./inp_files/32584.got.cif
#   From: 2010.03.12/outbox.cif.g09.slc.cpg/sg51_17_cif.got.tgz:32584.got - 2010.04.16 13:43:02.
