data_PCOD8207076
_publ_section_title
;
Structure prediction by ZEFSAII (Michael W. Deem and Ramdas Pophale) SiO2 
 PCOD8207076
Probable space group: P M M A
;
_chemical_formula_sum "Si O2"
_cell_formula_units_Z 48
_cell_length_a 8.809098
_cell_length_b 20.612957
_cell_length_c 14.554188
_cell_angle_alpha 90.000000
_cell_angle_beta 90.000000
_cell_angle_gamma 90.000000
_cell_volume 2642.772137
_symmetry_space_group_name_H-M "P M M A"
_symmetry_group_IT_number 51
_symmetry_cell_setting 'orthorhombic'
loop_
_space_group_symop_operation_xyz
x,y,z
1/2-x,-y,z
1/2+x,-y,-z
-x,y,-z
-x,-y,-z
1/2+x,y,-z
1/2-x,y,z
x,-y,z
loop_
_atom_site_type_symbol
_atom_site_label
_atom_site_fract_x
_atom_site_fract_y
_atom_site_fract_z
Si Si1 0.570930 0.685730 0.099960
Si Si2 0.075481 0.426423 0.212401
Si Si3 0.429464 0.072591 0.903270
Si Si4 0.929813 0.763900 0.407732
Si Si5 0.570107 0.808658 0.213581
Si Si6 0.072549 0.623725 0.409216
O O1 0.750000 0.689652 0.089710
O O2 0.530314 0.620024 0.153125
O O3 0.505508 0.747422 0.156338
O O4 0.500000 0.685574 0.000000
O O5 0.250000 0.407985 0.192721
O O6 0.040566 0.500000 0.182588
O O7 0.040944 0.420657 0.320963
O O8 0.250000 0.076748 0.913350
O O9 0.490927 0.123680 0.828155
O O10 0.480599 0.000000 0.874019
O O11 0.500000 0.092571 0.000000
O O12 0.750000 0.761630 0.416937
O O13 0.982794 0.805672 0.319566
O O14 0.000000 0.795653 0.500000
O O15 0.991290 0.691983 0.393015
O O16 0.750000 0.805798 0.208270
O O17 0.250000 0.635376 0.425881
O O18 0.000000 0.590107 0.500000
#
# Coordination Sequence:
#
# PCOD8207076 Si02
#       6
#     8   8   8   8   8   8
#     4  11  22  37  55  76 101 130 168 213 258 303
#     4  10  22  39  55  73 100 133 170 211 254 304
#     4   9  17  31  51  76 106 139 171 204 247 298
#     4  10  18  31  50  74 103 132 166 207 251 298
#     4   9  18  32  52  77 105 134 167 208 250 297
#     4  10  19  32  52  76 102 130 164 205 254 305
#
# _framework density 18.162745999999999
#
# number of rings (size 3 to 8) (size 9 to 14) (size 15 to 20)
#    0.000    2.167    1.667    3.000    0.000    1.667 
#    0.000    2.500    0.000    0.500    0.000    0.000 
#    0.000    0.000    0.000    0.000    0.000    0.667 
#
# Total GULP energy -595128.262942 kJ/mol
# GULP energy per Si atom -12398.505478 kJ/mol
# Density = 1.812141 g / cm^3
# Si number density = 18.162746 Si / 1000 Ang^3
#
#
#
# Elastic Constant Matrix: (Units=GPa)
#
#
# Indices 1 2 3 4 5 6 
#
# 1 61.3343 25.4527 41.1378 0.0000 0.0000 0.0000
# 2 25.4527 103.8954 67.8983 0.0000 0.0000 0.0000
# 3 41.1378 67.8983 143.3154 0.0000 0.0000 0.0000
# 4 0.0000 0.0000 0.0000 31.2618 0.0000 0.0000
# 5 0.0000 0.0000 0.0000 0.0000 30.4294 0.0000
# 6 0.0000 0.0000 0.0000 0.0000 0.0000 17.9973
#
#
#
# Elastic Compliance Matrix: (Units=1/GPa)
#
#
# Indices 1 2 3 4 5 6 
#
# 1 0.020396 -0.001696 -0.005051 0.000000 0.000000 0.000000
# 2 -0.001696 0.014083 -0.006185 0.000000 0.000000 0.000000
# 3 -0.005051 -0.006185 0.011358 0.000000 0.000000 0.000000
# 4 0.000000 0.000000 0.000000 0.031988 0.000000 0.000000
# 5 0.000000 0.000000 0.000000 0.000000 0.032863 0.000000
# 6 0.000000 0.000000 0.000000 0.000000 0.000000 0.055564
#
#
# Mechanical properties :
#
#
# Convention : Reuss Voigt Hill
#
# Bulk Modulus (GPa) = 50.06934 64.16920 57.11927
# Shear Modulus (GPa) = 25.15445 27.54146 26.34796
#
# Velocity S-wave (km/s) = 3.72553 3.89829 3.81288
# Velocity P-wave (km/s) = 6.79212 7.46117 7.13449
#
# Compressibility (1/GPa) = 0.01997230
#
# Stress axis : x y z
#
# Youngs Moduli (GPa) = 49.03029 71.00937 88.04469
#
# Poissons Ratio (x) = 0.12040 0.44472
# Poissons Ratio (y) = 0.08313 0.54458
# Poissons Ratio (z) = 0.24766 0.43921
#
# Static dielectric constant tensor:
#      x y z
#    x 3.254190 0.000000 0.000000 
#    y 0.000000 3.393730 0.000000 
#    z 0.000000 0.000000 3.634150 
# 
# 
# High freq. dielectric constant tensor:
#      x y z
#    x 1.695100 0.000000 0.000000 
#    y 0.000000 1.686330 0.000000 
#    z 0.000000 0.000000 1.713700 
# 
# From -- ./inp_files/21126.got.cif
#   From: 2010.03.12/outbox.cif.g09.slc.cpg/sg51_11_cif.got.tgz:21126.got - 2010.04.16 13:43:02.
