data_PCOD8207879
_publ_section_title
;
Structure prediction by ZEFSAII (Michael W. Deem and Ramdas Pophale) SiO2 
 PCOD8207879
Probable space group: P M M A
;
_chemical_formula_sum "Si O2"
_cell_formula_units_Z 36
_cell_length_a 8.837500
_cell_length_b 12.655924
_cell_length_c 19.614685
_cell_angle_alpha 90.000000
_cell_angle_beta 90.000000
_cell_angle_gamma 90.000000
_cell_volume 2193.838345
_symmetry_space_group_name_H-M "P M M A"
_symmetry_group_IT_number 51
_symmetry_cell_setting 'orthorhombic'
loop_
_space_group_symop_operation_xyz
x,y,z
1/2-x,-y,z
1/2+x,-y,-z
-x,y,-z
-x,-y,-z
1/2+x,y,-z
1/2-x,y,z
x,-y,z
loop_
_atom_site_type_symbol
_atom_site_label
_atom_site_fract_x
_atom_site_fract_y
_atom_site_fract_z
Si Si1 0.920404 0.625710 0.432321
Si Si2 0.070572 0.500000 0.074377
Si Si3 0.074740 0.375567 0.293986
Si Si4 0.427527 0.313052 0.841340
Si Si5 0.073337 0.117902 0.930355
O O1 0.750000 0.670020 0.428076
O O2 0.918872 0.500000 0.435430
O O3 0.000000 0.671697 0.500000
O O4 0.014242 0.664249 0.366828
O O5 0.250000 0.500000 0.068253
O O6 0.019450 0.602961 0.114829
O O7 0.000000 0.500000 0.000000
O O8 0.250000 0.345891 0.287747
O O9 0.048357 0.500000 0.284716
O O10 0.979865 0.315036 0.236702
O O11 0.250000 0.338817 0.846533
O O12 0.467761 0.196694 0.869094
O O13 0.250000 0.116230 0.943703
O O14 0.013750 0.000000 0.911860
O O15 0.000000 0.160038 0.000000
#
# Coordination Sequence:
#
# PCOD8207879 Si02
#       5
#     8   4   8   8   8
#     4   9  16  26  41  61  87 121 160 197 230 272
#     4  12  24  36  48  66  93 124 157 194 232 280
#     4  10  19  30  44  64  93 127 159 194 233 277
#     4  11  21  33  50  70  94 124 157 194 236 285
#     4   9  19  35  53  72  92 117 152 196 243 287
#
# _framework density 16.409596000000001
#
# number of rings (size 3 to 8) (size 9 to 14) (size 15 to 20)
#    0.000    2.000    1.111    3.667    0.000    7.111 
#    0.000    0.000    0.000    0.000    0.000    0.000 
#    0.000    0.889    0.000    2.444    0.000    3.556 
#
# Total GULP energy -446455.283217 kJ/mol
# GULP energy per Si atom -12401.535645 kJ/mol
# Density = 1.637225 g / cm^3
# Si number density = 16.409596 Si / 1000 Ang^3
#
#
#
# Elastic Constant Matrix: (Units=GPa)
#
#
# Indices 1 2 3 4 5 6 
#
# 1 98.8461 34.4941 52.5167 0.0000 0.0000 0.0000
# 2 34.4941 58.2534 44.5309 0.0000 0.0000 0.0000
# 3 52.5167 44.5309 143.5409 0.0000 0.0000 0.0000
# 4 0.0000 0.0000 0.0000 11.0262 0.0000 0.0000
# 5 0.0000 0.0000 0.0000 0.0000 35.8272 0.0000
# 6 0.0000 0.0000 0.0000 0.0000 0.0000 9.6891
#
#
#
# Elastic Compliance Matrix: (Units=1/GPa)
#
#
# Indices 1 2 3 4 5 6 
#
# 1 0.013855 -0.005675 -0.003308 0.000000 0.000000 0.000000
# 2 -0.005675 0.024827 -0.005626 0.000000 0.000000 0.000000
# 3 -0.003308 -0.005626 0.009922 0.000000 0.000000 0.000000
# 4 0.000000 0.000000 0.000000 0.090693 0.000000 0.000000
# 5 0.000000 0.000000 0.000000 0.000000 0.027912 0.000000
# 6 0.000000 0.000000 0.000000 0.000000 0.000000 0.103209
#
#
# Mechanical properties :
#
#
# Convention : Reuss Voigt Hill
#
# Bulk Modulus (GPa) = 51.58355 62.63595 57.10975
# Shear Modulus (GPa) = 16.33455 22.58173 19.45814
#
# Velocity S-wave (km/s) = 3.15846 3.71365 3.44725
# Velocity P-wave (km/s) = 6.69361 7.52605 7.12200
#
# Compressibility (1/GPa) = 0.01938602
#
# Stress axis : x y z
#
# Youngs Moduli (GPa) = 72.17672 40.27804 100.78117
#
# Poissons Ratio (x) = 0.22857 0.33343
# Poissons Ratio (y) = 0.40959 0.56700
# Poissons Ratio (z) = 0.23880 0.22660
#
# Static dielectric constant tensor:
#      x y z
#    x 3.256490 0.000000 0.000000 
#    y 0.000000 3.132010 0.000000 
#    z 0.000000 0.000000 3.318770 
# 
# 
# High freq. dielectric constant tensor:
#      x y z
#    x 1.649060 0.000000 0.000000 
#    y 0.000000 1.579520 0.000000 
#    z 0.000000 0.000000 1.640440 
# 
# From -- ./inp_files/26999.got.cif
#   From: 2010.03.12/outbox.cif.g09.slc.cpg/sg51_14_cif.got.tgz:26999.got - 2010.04.16 13:43:02.
