data_PCOD8207565
_publ_section_title
;
Structure prediction by ZEFSAII (Michael W. Deem and Ramdas Pophale) SiO2 
 PCOD8207565
Probable space group: P M M A
;
_chemical_formula_sum "Si O2"
_cell_formula_units_Z 64
_cell_length_a 9.483671
_cell_length_b 15.163941
_cell_length_c 29.890538
_cell_angle_alpha 90.000000
_cell_angle_beta 90.000000
_cell_angle_gamma 90.000000
_cell_volume 4298.553114
_symmetry_space_group_name_H-M "P M M A"
_symmetry_group_IT_number 51
_symmetry_cell_setting 'orthorhombic'
loop_
_space_group_symop_operation_xyz
x,y,z
1/2-x,-y,z
1/2+x,-y,-z
-x,y,-z
-x,-y,-z
1/2+x,y,-z
1/2-x,y,z
x,-y,z
loop_
_atom_site_type_symbol
_atom_site_label
_atom_site_fract_x
_atom_site_fract_y
_atom_site_fract_z
Si Si1 0.091296 0.902341 0.696918
Si Si2 0.589847 0.604901 0.041615
Si Si3 0.916164 0.737221 0.697486
Si Si4 0.905362 0.604632 0.460656
Si Si5 0.585756 0.397074 0.360640
Si Si6 0.091735 0.096443 0.803200
Si Si7 0.588122 0.742719 0.800906
Si Si8 0.587472 0.601441 0.873512
O O1 0.250000 0.879473 0.680665
O O2 0.086312 0.903120 0.750023
O O3 0.983042 0.828569 0.678839
O O4 0.047588 0.000000 0.679128
O O5 0.750000 0.641933 0.040403
O O6 0.592266 0.500000 0.039159
O O7 0.512406 0.635958 0.086792
O O8 0.500000 0.642936 0.000000
O O9 0.750000 0.738851 0.688204
O O10 0.952663 0.724094 0.749663
O O11 0.986268 0.655171 0.672882
O O12 0.750000 0.644401 0.467227
O O13 0.899645 0.500000 0.465286
O O14 0.961042 0.628805 0.411161
O O15 0.000000 0.646594 0.500000
O O16 0.750000 0.373537 0.352941
O O17 0.560193 0.500000 0.351825
O O18 0.250000 0.113753 0.820154
O O19 0.994351 0.174237 0.822047
O O20 0.039741 0.000000 0.820330
O O21 0.750000 0.768714 0.804871
O O22 0.550888 0.655780 0.828999
O O23 0.750000 0.614192 0.888325
O O24 0.556019 0.500000 0.861970
#
# Coordination Sequence:
#
# PCOD8207565 Si02
#       8
#     8   8   8   8   8   8   8   8
#     4   8  14  26  43  59  76 102 134 167 207 252
#     4   9  16  26  41  60  79  99 127 164 205 245
#     4  10  19  28  40  60  84 110 141 176 209 240
#     4   8  14  25  41  59  77  98 127 165 208 248
#     4   9  18  31  43  56  79 112 145 173 202 240
#     4   8  14  25  41  59  77  99 129 166 207 246
#     4   9  18  29  40  57  81 110 141 171 204 238
#     4   9  17  29  42  55  77 110 142 170 200 234
#
# _framework density 14.888731
#
# number of rings (size 3 to 8) (size 9 to 14) (size 15 to 20)
#    0.000    3.250    0.000    2.250    0.000    4.250 
#    0.000    5.000    0.000    1.500    0.000    0.000 
#    0.000    1.000    0.000    3.250    0.000    4.375 
#
# Total GULP energy -793203.236352 kJ/mol
# GULP energy per Si atom -12393.800568 kJ/mol
# Density = 1.485484 g / cm^3
# Si number density = 14.888731 Si / 1000 Ang^3
#
#
#
# Elastic Constant Matrix: (Units=GPa)
#
#
# Indices 1 2 3 4 5 6 
#
# 1 92.8974 53.2777 51.7077 0.0000 0.0000 0.0000
# 2 53.2777 77.5188 42.9634 0.0000 0.0000 0.0000
# 3 51.7077 42.9634 70.0216 0.0000 0.0000 0.0000
# 4 0.0000 0.0000 0.0000 0.8991 0.0000 0.0000
# 5 0.0000 0.0000 0.0000 0.0000 24.0176 0.0000
# 6 0.0000 0.0000 0.0000 0.0000 0.0000 24.3257
#
#
#
# Elastic Compliance Matrix: (Units=1/GPa)
#
#
# Indices 1 2 3 4 5 6 
#
# 1 0.021913 -0.009231 -0.010518 0.000000 0.000000 0.000000
# 2 -0.009231 0.023436 -0.007563 0.000000 0.000000 0.000000
# 3 -0.010518 -0.007563 0.026689 0.000000 0.000000 0.000000
# 4 0.000000 0.000000 0.000000 1.112254 0.000000 0.000000
# 5 0.000000 0.000000 0.000000 0.000000 0.041636 0.000000
# 6 0.000000 0.000000 0.000000 0.000000 0.000000 0.041109
#
#
# Mechanical properties :
#
#
# Convention : Reuss Voigt Hill
#
# Bulk Modulus (GPa) = 57.42520 59.59280 58.50900
# Shear Modulus (GPa) = 3.76658 16.01440 9.89049
#
# Velocity S-wave (km/s) = 1.59227 3.28320 2.58019
# Velocity P-wave (km/s) = 6.48334 7.38139 6.94689
#
# Compressibility (1/GPa) = 0.01741396
#
# Stress axis : x y z
#
# Youngs Moduli (GPa) = 45.63485 42.66874 37.46920
#
# Poissons Ratio (x) = 0.39389 0.39409
# Poissons Ratio (y) = 0.42127 0.28338
# Poissons Ratio (z) = 0.47997 0.32270
#
# Static dielectric constant tensor:
#      x y z
#    x 3.066150 0.000000 0.000000 
#    y 0.000000 2.847160 0.000000 
#    z 0.000000 0.000000 2.726040 
# 
# 
# High freq. dielectric constant tensor:
#      x y z
#    x 1.577130 0.000000 0.000000 
#    y 0.000000 1.543300 0.000000 
#    z 0.000000 0.000000 1.539900 
# 
# From -- ./inp_files/36427.got.cif
#   From: 2010.03.12/outbox.cif.g09.slc.cpg/sg51_19_cif.got.tgz:36427.got - 2010.04.16 13:43:02.
