data_PCOD8207119
_publ_section_title
;
Structure prediction by ZEFSAII (Michael W. Deem and Ramdas Pophale) SiO2 
 PCOD8207119
Probable space group: P M M A
;
_chemical_formula_sum "Si O2"
_cell_formula_units_Z 52
_cell_length_a 8.743850
_cell_length_b 23.468278
_cell_length_c 14.409248
_cell_angle_alpha 90.000000
_cell_angle_beta 90.000000
_cell_angle_gamma 90.000000
_cell_volume 2956.822396
_symmetry_space_group_name_H-M "P M M A"
_symmetry_group_IT_number 51
_symmetry_cell_setting 'orthorhombic'
loop_
_space_group_symop_operation_xyz
x,y,z
1/2-x,-y,z
1/2+x,-y,-z
-x,y,-z
-x,-y,-z
1/2+x,y,-z
1/2-x,y,z
x,-y,z
loop_
_atom_site_type_symbol
_atom_site_label
_atom_site_fract_x
_atom_site_fract_y
_atom_site_fract_z
Si Si1 0.068258 0.562820 0.786308
Si Si2 0.073152 0.734954 0.408754
Si Si3 0.568812 0.329943 0.100435
Si Si4 0.930785 0.123555 0.102478
Si Si5 0.926414 0.000000 0.098343
Si Si6 0.430925 0.387896 0.594414
Si Si7 0.926766 0.226436 0.791509
O O1 0.250000 0.564777 0.787289
O O2 0.008467 0.500000 0.816046
O O3 0.005568 0.610324 0.857806
O O4 0.010362 0.575602 0.682072
O O5 0.250000 0.721377 0.427616
O O6 0.051734 0.775218 0.319625
O O7 0.000000 0.765143 0.500000
O O8 0.985952 0.676271 0.390601
O O9 0.750000 0.330158 0.093222
O O10 0.519404 0.279001 0.166891
O O11 0.500000 0.319846 0.000000
O O12 0.750000 0.134967 0.096967
O O13 0.969240 0.060461 0.146597
O O14 0.008409 0.167401 0.171591
O O15 0.000000 0.130847 0.000000
O O16 0.750000 0.000000 0.077439
O O17 0.000000 0.000000 0.000000
O O18 0.500000 0.414450 0.500000
O O19 0.250000 0.388826 0.587216
O O20 0.750000 0.233175 0.819542
#
# Coordination Sequence:
#
# PCOD8207119 Si02
#       7
#     8   8   8   8   4   8   8
#     4   9  19  35  53  72  96 128 165 204 250 306
#     4  10  20  33  52  75 102 130 162 203 249 301
#     4  11  22  37  55  73  97 130 167 209 257 303
#     4  10  19  32  51  76 108 143 178 212 249 293
#     4   8  16  30  48  72 103 140 177 212 247 288
#     4  10  18  31  52  75  99 127 159 196 247 305
#     4  11  22  35  52  77 106 134 168 209 251 298
#
# _framework density 17.586447
#
# number of rings (size 3 to 8) (size 9 to 14) (size 15 to 20)
#    0.000    2.000    1.538    3.692    0.000    3.077 
#    0.000    0.000    0.000    6.462    0.000    0.538 
#    0.000    0.000    0.000    0.000    0.000    0.000 
#
# Total GULP energy -644523.616604 kJ/mol
# GULP energy per Si atom -12394.684935 kJ/mol
# Density = 1.754642 g / cm^3
# Si number density = 17.586447 Si / 1000 Ang^3
#
#
#
# Elastic Constant Matrix: (Units=GPa)
#
#
# Indices 1 2 3 4 5 6 
#
# 1 70.4185 29.1084 35.0024 0.0000 0.0000 0.0000
# 2 29.1084 117.2237 47.8287 0.0000 0.0000 0.0000
# 3 35.0024 47.8287 97.7458 0.0000 0.0000 0.0000
# 4 0.0000 0.0000 0.0000 20.8889 0.0000 0.0000
# 5 0.0000 0.0000 0.0000 0.0000 25.7646 0.0000
# 6 0.0000 0.0000 0.0000 0.0000 0.0000 11.7037
#
#
#
# Elastic Compliance Matrix: (Units=1/GPa)
#
#
# Indices 1 2 3 4 5 6 
#
# 1 0.017745 -0.002266 -0.005246 0.000000 0.000000 0.000000
# 2 -0.002266 0.010948 -0.004546 0.000000 0.000000 0.000000
# 3 -0.005246 -0.004546 0.014333 0.000000 0.000000 0.000000
# 4 0.000000 0.000000 0.000000 0.047872 0.000000 0.000000
# 5 0.000000 0.000000 0.000000 0.000000 0.038813 0.000000
# 6 0.000000 0.000000 0.000000 0.000000 0.000000 0.085443
#
#
# Mechanical properties :
#
#
# Convention : Reuss Voigt Hill
#
# Bulk Modulus (GPa) = 52.87712 56.58522 54.73117
# Shear Modulus (GPa) = 20.36052 23.23466 21.79759
#
# Velocity S-wave (km/s) = 3.40625 3.63873 3.52441
# Velocity P-wave (km/s) = 6.75295 7.06393 6.91019
#
# Compressibility (1/GPa) = 0.01891177
#
# Stress axis : x y z
#
# Youngs Moduli (GPa) = 56.35423 91.34043 69.76772
#
# Poissons Ratio (x) = 0.20698 0.36597
# Poissons Ratio (y) = 0.12770 0.31714
# Poissons Ratio (z) = 0.29561 0.41520
#
# Static dielectric constant tensor:
#      x y z
#    x 3.292080 0.000000 0.000000 
#    y 0.000000 3.395010 0.000000 
#    z 0.000000 0.000000 3.275180 
# 
# 
# High freq. dielectric constant tensor:
#      x y z
#    x 1.684010 0.000000 0.000000 
#    y 0.000000 1.669480 0.000000 
#    z 0.000000 0.000000 1.671740 
# 
# From -- ./inp_files/22105.got.cif
#   From: 2010.03.12/outbox.cif.g09.slc.cpg/sg51_12_cif.got.tgz:22105.got - 2010.04.16 13:43:02.
