data_PCOD8207405
_publ_section_title
;
Structure prediction by ZEFSAII (Michael W. Deem and Ramdas Pophale) SiO2 
 PCOD8207405
Probable space group: P M M A
;
_chemical_formula_sum "Si O2"
_cell_formula_units_Z 64
_cell_length_a 14.415628
_cell_length_b 8.896900
_cell_length_c 25.268505
_cell_angle_alpha 90.000000
_cell_angle_beta 90.000000
_cell_angle_gamma 90.000000
_cell_volume 3240.796967
_symmetry_space_group_name_H-M "P M M A"
_symmetry_group_IT_number 51
_symmetry_cell_setting 'orthorhombic'
loop_
_space_group_symop_operation_xyz
x,y,z
1/2-x,-y,z
1/2+x,-y,-z
-x,y,-z
-x,-y,-z
1/2+x,y,-z
1/2-x,y,z
x,-y,z
loop_
_atom_site_type_symbol
_atom_site_label
_atom_site_fract_x
_atom_site_fract_y
_atom_site_fract_z
Si Si1 0.356339 0.672537 0.523893
Si Si2 0.607228 0.169891 0.987281
Si Si3 0.144963 0.176987 0.414178
Si Si4 0.961524 0.823889 0.177558
Si Si5 0.029644 0.677618 0.625699
Si Si6 0.144557 0.321650 0.726214
Si Si7 0.852124 0.178027 0.870427
Si Si8 0.147386 0.331305 0.910541
O O1 0.250000 0.692365 0.541380
O O2 0.378081 0.500000 0.509271
O O3 0.381264 0.771665 0.473240
O O4 0.418922 0.728753 0.572241
O O5 0.626563 0.239994 0.929257
O O6 0.646654 0.000000 0.991282
O O7 0.500000 0.172201 0.000000
O O8 0.657581 0.276408 0.029248
O O9 0.250000 0.229224 0.400111
O O10 0.073111 0.250305 0.372778
O O11 0.135856 0.000000 0.410578
O O12 0.911761 0.731210 0.223007
O O13 0.914678 0.786472 0.121574
O O14 0.069517 0.772012 0.172089
O O15 0.951736 0.000000 0.189418
O O16 0.019333 0.500000 0.628848
O O17 0.090272 0.738697 0.674655
O O18 0.250000 0.257879 0.726302
O O19 0.147679 0.500000 0.726275
O O20 0.750000 0.233323 0.851459
O O21 0.856500 0.000000 0.874393
O O22 0.250000 0.333694 0.885192
O O23 0.104926 0.500000 0.908229
#
# Coordination Sequence:
#
# PCOD8207405 Si02
#       8
#     8   8   8   8   8   8   8   8
#     4   9  17  31  53  81 112 147 187 227 271 330
#     4  10  18  33  56  82 109 140 179 222 267 320
#     4  10  21  35  51  77 115 154 188 226 273 320
#     4  11  22  38  59  82 107 139 185 230 269 320
#     4  10  20  35  57  82 108 143 186 230 276 330
#     4  10  22  41  62  84 111 140 173 221 282 336
#     4   9  18  34  56  80 108 142 178 219 268 320
#     4  11  23  36  52  78 112 147 180 218 270 325
#
# _framework density 19.74823
#
# number of rings (size 3 to 8) (size 9 to 14) (size 15 to 20)
#    0.000    2.000    1.250    2.625    0.000    8.250 
#    0.000    0.625    0.000    6.750    0.000    0.000 
#    0.000    0.000    0.000    0.000    0.000    0.000 
#
# Total GULP energy -793534.578422 kJ/mol
# GULP energy per Si atom -12398.977788 kJ/mol
# Density = 1.970328 g / cm^3
# Si number density = 19.748230 Si / 1000 Ang^3
#
#
#
# Elastic Constant Matrix: (Units=GPa)
#
#
# Indices 1 2 3 4 5 6 
#
# 1 153.9491 23.7497 68.7476 0.0000 0.0000 0.0000
# 2 23.7497 29.2384 16.6278 0.0000 0.0000 0.0000
# 3 68.7476 16.6278 91.5587 0.0000 0.0000 0.0000
# 4 0.0000 0.0000 0.0000 4.7159 0.0000 0.0000
# 5 0.0000 0.0000 0.0000 0.0000 33.6263 0.0000
# 6 0.0000 0.0000 0.0000 0.0000 0.0000 25.0056
#
#
#
# Elastic Compliance Matrix: (Units=1/GPa)
#
#
# Indices 1 2 3 4 5 6 
#
# 1 0.010257 -0.004407 -0.006902 0.000000 0.000000 0.000000
# 2 -0.004407 0.040034 -0.003961 0.000000 0.000000 0.000000
# 3 -0.006902 -0.003961 0.016823 0.000000 0.000000 0.000000
# 4 0.000000 0.000000 0.000000 0.212050 0.000000 0.000000
# 5 0.000000 0.000000 0.000000 0.000000 0.029739 0.000000
# 6 0.000000 0.000000 0.000000 0.000000 0.000000 0.039991
#
#
# Mechanical properties :
#
#
# Convention : Reuss Voigt Hill
#
# Bulk Modulus (GPa) = 27.34110 54.77739 41.05924
# Shear Modulus (GPa) = 12.76727 23.71098 18.23913
#
# Velocity S-wave (km/s) = 2.54540 3.46882 3.04235
# Velocity P-wave (km/s) = 4.74485 6.62131 5.76001
#
# Compressibility (1/GPa) = 0.03657498
#
# Stress axis : x y z
#
# Youngs Moduli (GPa) = 97.48974 24.97868 59.44070
#
# Poissons Ratio (x) = 0.11008 0.41023
# Poissons Ratio (y) = 0.42964 0.23547
# Poissons Ratio (z) = 0.67283 0.09895
#
# Static dielectric constant tensor:
#      x y z
#    x 3.966330 0.000000 0.000000 
#    y 0.000000 3.350290 0.000000 
#    z 0.000000 0.000000 3.486410 
# 
# 
# High freq. dielectric constant tensor:
#      x y z
#    x 1.788770 0.000000 0.000000 
#    y 0.000000 1.746390 0.000000 
#    z 0.000000 0.000000 1.750380 
# 
# From -- ./inp_files/35873.got.cif
#   From: 2010.03.12/outbox.cif.g09.slc.cpg/sg51_18_cif.got.tgz:35873.got - 2010.04.16 13:43:02.
