data_PCOD8207437
_publ_section_title
;
Structure prediction by ZEFSAII (Michael W. Deem and Ramdas Pophale) SiO2 
 PCOD8207437
Probable space group: P M M A
;
_chemical_formula_sum "Si O2"
_cell_formula_units_Z 56
_cell_length_a 15.238158
_cell_length_b 9.125498
_cell_length_c 21.355022
_cell_angle_alpha 90.000000
_cell_angle_beta 90.000000
_cell_angle_gamma 90.000000
_cell_volume 2969.539249
_symmetry_space_group_name_H-M "P M M A"
_symmetry_group_IT_number 51
_symmetry_cell_setting 'orthorhombic'
loop_
_space_group_symop_operation_xyz
x,y,z
1/2-x,-y,z
1/2+x,-y,-z
-x,y,-z
-x,-y,-z
1/2+x,y,-z
1/2-x,y,z
x,-y,z
loop_
_atom_site_type_symbol
_atom_site_label
_atom_site_fract_x
_atom_site_fract_y
_atom_site_fract_z
Si Si1 0.649626 0.330181 0.424282
Si Si2 0.850750 0.669274 0.568655
Si Si3 0.997196 0.827281 0.646168
Si Si4 0.846188 0.173823 0.132383
Si Si5 0.896295 0.166751 0.996585
Si Si6 0.850394 0.667451 0.872867
Si Si7 0.010115 0.826333 0.210167
O O1 0.750000 0.292682 0.407079
O O2 0.629673 0.500000 0.411895
O O3 0.631083 0.292098 0.496501
O O4 0.587308 0.233815 0.381412
O O5 0.750000 0.702957 0.585944
O O6 0.872921 0.500000 0.581334
O O7 0.912032 0.768473 0.611000
O O8 0.991034 0.778016 0.717954
O O9 0.999284 0.000000 0.638910
O O10 0.750000 0.224205 0.156652
O O11 0.921169 0.236124 0.178202
O O12 0.853837 0.000000 0.131448
O O13 0.859139 0.230869 0.061654
O O14 0.859728 0.267029 0.941849
O O15 0.864725 0.000000 0.984859
O O16 0.000000 0.173791 0.000000
O O17 0.750000 0.678649 0.851083
O O18 0.882619 0.500000 0.874415
O O19 0.906147 0.756128 0.822496
O O20 0.017350 0.000000 0.202114
#
# Coordination Sequence:
#
# PCOD8207437 Si02
#       7
#     8   8   8   8   8   8   8
#     4   9  19  37  60  84 111 147 189 227 268 328
#     4   9  19  37  60  83 109 146 189 230 273 328
#     4  11  23  35  54  84 116 148 183 230 289 334
#     4   9  17  32  56  81 103 135 181 224 262 316
#     4  10  18  33  60  86 108 138 178 223 274 331
#     4  11  24  39  56  81 112 145 182 229 284 330
#     4  10  22  40  56  76 109 149 189 227 267 323
#
# _framework density 18.858146000000001
#
# number of rings (size 3 to 8) (size 9 to 14) (size 15 to 20)
#    0.000    2.143    1.429    2.571    0.000    7.143 
#    0.000    5.714    0.000    0.429    0.000    0.000 
#    0.000    0.000    0.000    0.000    0.000    0.000 
#
# Total GULP energy -694477.388534 kJ/mol
# GULP energy per Si atom -12401.381938 kJ/mol
# Density = 1.881522 g / cm^3
# Si number density = 18.858146 Si / 1000 Ang^3
#
#
#
# Elastic Constant Matrix: (Units=GPa)
#
#
# Indices 1 2 3 4 5 6 
#
# 1 119.6768 38.0748 69.6994 0.0000 0.0000 0.0000
# 2 38.0748 50.7577 51.8653 0.0000 0.0000 0.0000
# 3 69.6994 51.8653 133.3798 0.0000 0.0000 0.0000
# 4 0.0000 0.0000 0.0000 -34.7894 0.0000 0.0000
# 5 0.0000 0.0000 0.0000 0.0000 2.9018 0.0000
# 6 0.0000 0.0000 0.0000 0.0000 0.0000 27.2104
#
#
#
# Elastic Compliance Matrix: (Units=1/GPa)
#
#
# Indices 1 2 3 4 5 6 
#
# 1 0.012607 -0.004522 -0.004830 0.000000 0.000000 0.000000
# 2 -0.004522 0.034313 -0.010980 0.000000 0.000000 0.000000
# 3 -0.004830 -0.010980 0.014291 0.000000 0.000000 0.000000
# 4 0.000000 0.000000 0.000000 -0.028744 0.000000 0.000000
# 5 0.000000 0.000000 0.000000 0.000000 0.344616 0.000000
# 6 0.000000 0.000000 0.000000 0.000000 0.000000 0.036751
#
#
# Mechanical properties :
#
#
# Convention : Reuss Voigt Hill
#
# Bulk Modulus (GPa) = 48.66638 69.23257 58.94947
# Shear Modulus (GPa) = 10.83787 8.67621 9.75704
#
# Velocity S-wave (km/s) = 2.39990 2.14727 2.27709
# Velocity P-wave (km/s) = 5.79154 6.55284 6.18392
#
# Compressibility (1/GPa) = 0.02054807
#
# Stress axis : x y z
#
# Youngs Moduli (GPa) = 79.31913 29.14372 69.97559
#
# Poissons Ratio (x) = 0.13179 0.33796
# Poissons Ratio (y) = 0.35868 0.76831
# Poissons Ratio (z) = 0.38309 0.31999
#
# Static dielectric constant tensor:
#      x y z
#    x 3.708520 0.000000 0.000000 
#    y 0.000000 3.264650 0.000000 
#    z 0.000000 0.000000 3.522870 
# 
# 
# High freq. dielectric constant tensor:
#      x y z
#    x 1.750160 0.000000 0.000000 
#    y 0.000000 1.711940 0.000000 
#    z 0.000000 0.000000 1.731900 
# 
# From -- ./inp_files/33453.got.cif
#   From: 2010.03.12/outbox.cif.g09.slc.cpg/sg51_17_cif.got.tgz:33453.got - 2010.04.16 13:43:02.
