data_PCOD8207060
_publ_section_title
;
Structure prediction by ZEFSAII (Michael W. Deem and Ramdas Pophale) SiO2 
 PCOD8207060
Probable space group: P M M A
;
_chemical_formula_sum "Si O2"
_cell_formula_units_Z 40
_cell_length_a 24.855249
_cell_length_b 8.719115
_cell_length_c 10.441700
_cell_angle_alpha 90.000000
_cell_angle_beta 90.000000
_cell_angle_gamma 90.000000
_cell_volume 2262.881101
_symmetry_space_group_name_H-M "P M M A"
_symmetry_group_IT_number 51
_symmetry_cell_setting 'orthorhombic'
loop_
_space_group_symop_operation_xyz
x,y,z
1/2-x,-y,z
1/2+x,-y,-z
-x,y,-z
-x,-y,-z
1/2+x,y,-z
1/2-x,y,z
x,-y,z
loop_
_atom_site_type_symbol
_atom_site_label
_atom_site_fract_x
_atom_site_fract_y
_atom_site_fract_z
Si Si1 0.250000 0.168510 0.215574
Si Si2 0.462442 0.819004 0.618690
Si Si3 0.750000 0.829285 0.479650
Si Si4 0.360029 0.680639 0.511889
Si Si5 0.364326 0.183506 0.235084
Si Si6 0.024456 0.182036 0.130373
O O1 0.250000 0.160364 0.368177
O O2 0.307044 0.248869 0.177279
O O3 0.250000 0.000000 0.153430
O O4 0.500000 0.772785 0.500000
O O5 0.405964 0.730947 0.611167
O O6 0.490587 0.759671 0.748384
O O7 0.451634 0.000000 0.620636
O O8 0.696826 0.740441 0.433185
O O9 0.750000 0.000000 0.420030
O O10 0.357150 0.500000 0.497932
O O11 0.375375 0.752630 0.375571
O O12 0.413203 0.234670 0.143443
O O13 0.360572 0.000000 0.248607
O O14 0.021976 0.000000 0.126069
O O15 0.000000 0.253040 0.000000
#
# Coordination Sequence:
#
# PCOD8207060 Si02
#       6
#     4   8   4   8   8   8
#     4   7  12  21  41  66  87 114 148 192 238 290
#     4  10  18  31  50  70  95 133 171 203 247 297
#     4   9  17  31  49  70  99 132 164 200 250 300
#     4  11  20  29  46  74 104 129 163 207 252 296
#     4   9  15  28  46  67  94 126 164 202 252 301
#     4   9  17  29  48  71  95 126 170 218 251 288
#
# _framework density 17.676580000000001
#
# number of rings (size 3 to 8) (size 9 to 14) (size 15 to 20)
#    0.000    2.600    2.000    3.300    0.000    0.400 
#    0.000    0.000    0.000    3.600    0.000    5.600 
#    0.000    3.200    0.000    0.000    0.000    0.000 
#
# Total GULP energy -495688.394957 kJ/mol
# GULP energy per Si atom -12392.209874 kJ/mol
# Density = 1.763635 g / cm^3
# Si number density = 17.676580 Si / 1000 Ang^3
#
#
#
# Elastic Constant Matrix: (Units=GPa)
#
#
# Indices 1 2 3 4 5 6 
#
# 1 200.1916 33.8161 67.8868 0.0000 0.0000 0.0000
# 2 33.8161 47.8126 12.1729 0.0000 0.0000 0.0000
# 3 67.8868 12.1729 90.5836 0.0000 0.0000 0.0000
# 4 0.0000 0.0000 0.0000 4.8724 0.0000 0.0000
# 5 0.0000 0.0000 0.0000 0.0000 20.0432 0.0000
# 6 0.0000 0.0000 0.0000 0.0000 0.0000 13.3475
#
#
#
# Elastic Compliance Matrix: (Units=1/GPa)
#
#
# Indices 1 2 3 4 5 6 
#
# 1 0.007347 -0.003929 -0.004978 0.000000 0.000000 0.000000
# 2 -0.003929 0.023757 -0.000248 0.000000 0.000000 0.000000
# 3 -0.004978 -0.000248 0.014804 0.000000 0.000000 0.000000
# 4 0.000000 0.000000 0.000000 0.205236 0.000000 0.000000
# 5 0.000000 0.000000 0.000000 0.000000 0.049892 0.000000
# 6 0.000000 0.000000 0.000000 0.000000 0.000000 0.074921
#
#
# Mechanical properties :
#
#
# Convention : Reuss Voigt Hill
#
# Bulk Modulus (GPa) = 36.23534 62.92660 49.58097
# Shear Modulus (GPa) = 12.39263 22.63343 17.51303
#
# Velocity S-wave (km/s) = 2.65066 3.58218 3.15103
# Velocity P-wave (km/s) = 5.46915 7.26536 6.43028
#
# Compressibility (1/GPa) = 0.02759737
#
# Stress axis : x y z
#
# Youngs Moduli (GPa) = 136.10991 42.09312 67.55078
#
# Poissons Ratio (x) = 0.16538 0.33628
# Poissons Ratio (y) = 0.53475 0.01676
# Poissons Ratio (z) = 0.67758 0.01044
#
# Static dielectric constant tensor:
#      x y z
#    x 3.893160 0.000000 0.000000 
#    y 0.000000 2.929280 0.000000 
#    z 0.000000 0.000000 3.009520 
# 
# 
# High freq. dielectric constant tensor:
#      x y z
#    x 1.713460 0.000000 0.000000 
#    y 0.000000 1.648220 0.000000 
#    z 0.000000 0.000000 1.628140 
# 
# From -- ./inp_files/12194.got.cif
#   From: 2010.03.12/outbox.cif.g09.slc.cpg/sg51_7_cif.got.tgz:12194.got - 2010.04.16 13:43:02.
