data_PCOD8207284
_publ_section_title
;
Structure prediction by ZEFSAII (Michael W. Deem and Ramdas Pophale) SiO2 
 PCOD8207284
Probable space group: P M M A
;
_chemical_formula_sum "Si O2"
_cell_formula_units_Z 64
_cell_length_a 14.471952
_cell_length_b 9.037244
_cell_length_c 25.048336
_cell_angle_alpha 90.000000
_cell_angle_beta 90.000000
_cell_angle_gamma 90.000000
_cell_volume 3275.985734
_symmetry_space_group_name_H-M "P M M A"
_symmetry_group_IT_number 51
_symmetry_cell_setting 'orthorhombic'
loop_
_space_group_symop_operation_xyz
x,y,z
1/2-x,-y,z
1/2+x,-y,-z
-x,y,-z
-x,-y,-z
1/2+x,y,-z
1/2-x,y,z
x,-y,z
loop_
_atom_site_type_symbol
_atom_site_label
_atom_site_fract_x
_atom_site_fract_y
_atom_site_fract_z
Si Si1 0.966829 0.325402 0.119593
Si Si2 0.353605 0.827109 0.092903
Si Si3 0.480680 0.676624 0.680151
Si Si4 0.602742 0.333654 0.521527
Si Si5 0.643846 0.173244 0.630713
Si Si6 0.150995 0.327207 0.589774
Si Si7 0.645096 0.324204 0.222185
Si Si8 0.355406 0.830144 0.969074
O O1 0.975386 0.500000 0.120062
O O2 0.900759 0.268728 0.167164
O O3 0.923181 0.273669 0.064029
O O4 0.069970 0.260210 0.127107
O O5 0.250000 0.777780 0.110272
O O6 0.366253 0.000000 0.103430
O O7 0.368462 0.790135 0.030796
O O8 0.489882 0.500000 0.681186
O O9 0.582354 0.748531 0.676926
O O10 0.428369 0.738648 0.627384
O O11 0.421483 0.733691 0.730560
O O12 0.500000 0.337316 0.500000
O O13 0.635751 0.500000 0.536932
O O14 0.617629 0.230726 0.572136
O O15 0.656831 0.264181 0.470604
O O16 0.750000 0.210398 0.643771
O O17 0.624489 0.000000 0.632252
O O18 0.250000 0.299175 0.617954
O O19 0.129379 0.500000 0.584069
O O20 0.750000 0.260491 0.227144
O O21 0.649945 0.500000 0.224106
O O22 0.250000 0.801190 0.951533
O O23 0.383006 0.000000 0.958532
#
# Coordination Sequence:
#
# PCOD8207284 Si02
#       8
#     8   8   8   8   8   8   8   8
#     4  11  21  32  51  82 116 146 176 219 278 336
#     4   9  19  36  55  75 104 146 193 233 268 312
#     4  10  19  36  60  80  99 132 181 226 263 306
#     4  10  18  32  54  82 110 137 175 219 256 302
#     4  11  24  39  54  76 110 148 179 213 266 323
#     4   9  16  27  49  80 106 128 163 213 260 300
#     4   9  19  36  58  84 112 139 170 215 271 327
#     4   9  18  33  53  77 107 146 190 230 267 317
#
# _framework density 19.536104000000002
#
# number of rings (size 3 to 8) (size 9 to 14) (size 15 to 20)
#    0.000    2.250    1.250    3.000    0.000    6.250 
#    0.000    3.125    0.000    6.750    0.000    0.000 
#    0.000    0.000    0.000    0.000    0.000    0.000 
#
# Total GULP energy -793261.061083 kJ/mol
# GULP energy per Si atom -12394.704079 kJ/mol
# Density = 1.949164 g / cm^3
# Si number density = 19.536104 Si / 1000 Ang^3
#
#
#
# Elastic Constant Matrix: (Units=GPa)
#
#
# Indices 1 2 3 4 5 6 
#
# 1 154.6589 46.2098 59.4514 0.0000 0.0000 0.0000
# 2 46.2098 48.5178 29.9961 0.0000 0.0000 0.0000
# 3 59.4514 29.9961 73.7893 0.0000 0.0000 0.0000
# 4 0.0000 0.0000 0.0000 7.9551 0.0000 0.0000
# 5 0.0000 0.0000 0.0000 0.0000 33.0106 0.0000
# 6 0.0000 0.0000 0.0000 0.0000 0.0000 20.9062
#
#
#
# Elastic Compliance Matrix: (Units=1/GPa)
#
#
# Indices 1 2 3 4 5 6 
#
# 1 0.010708 -0.006498 -0.005986 0.000000 0.000000 0.000000
# 2 -0.006498 0.031473 -0.007559 0.000000 0.000000 0.000000
# 3 -0.005986 -0.007559 0.021448 0.000000 0.000000 0.000000
# 4 0.000000 0.000000 0.000000 0.125706 0.000000 0.000000
# 5 0.000000 0.000000 0.000000 0.000000 0.030293 0.000000
# 6 0.000000 0.000000 0.000000 0.000000 0.000000 0.047833
#
#
# Mechanical properties :
#
#
# Convention : Reuss Voigt Hill
#
# Bulk Modulus (GPa) = 42.47463 60.92006 51.69735
# Shear Modulus (GPa) = 15.85314 21.79495 18.82405
#
# Velocity S-wave (km/s) = 2.85174 3.34372 3.10748
# Velocity P-wave (km/s) = 5.71244 6.79399 6.27656
#
# Compressibility (1/GPa) = 0.02354347
#
# Stress axis : x y z
#
# Youngs Moduli (GPa) = 93.38377 31.77313 46.62478
#
# Poissons Ratio (x) = 0.20647 0.27911
# Poissons Ratio (y) = 0.60682 0.35242
# Poissons Ratio (z) = 0.55901 0.24016
#
# Static dielectric constant tensor:
#      x y z
#    x 3.739530 0.000000 0.000000 
#    y 0.000000 3.180670 0.000000 
#    z 0.000000 0.000000 3.637080 
# 
# 
# High freq. dielectric constant tensor:
#      x y z
#    x 1.783290 0.000000 0.000000 
#    y 0.000000 1.719180 0.000000 
#    z 0.000000 0.000000 1.745010 
# 
# From -- ./inp_files/35730.got.cif
#   From: 2010.03.12/outbox.cif.g09.slc.cpg/sg51_18_cif.got.tgz:35730.got - 2010.04.16 13:43:02.
