data_PCOD8207942
_publ_section_title
;
Structure prediction by ZEFSAII (Michael W. Deem and Ramdas Pophale) SiO2 
 PCOD8207942
Probable space group: P M M A
;
_chemical_formula_sum "Si O2"
_cell_formula_units_Z 64
_cell_length_a 18.813589
_cell_length_b 13.500881
_cell_length_c 15.167639
_cell_angle_alpha 90.000000
_cell_angle_beta 90.000000
_cell_angle_gamma 90.000000
_cell_volume 3852.580704
_symmetry_space_group_name_H-M "P M M A"
_symmetry_group_IT_number 51
_symmetry_cell_setting 'orthorhombic'
loop_
_space_group_symop_operation_xyz
x,y,z
1/2-x,-y,z
1/2+x,-y,-z
-x,y,-z
-x,-y,-z
1/2+x,y,-z
1/2-x,y,z
x,-y,z
loop_
_atom_site_type_symbol
_atom_site_label
_atom_site_fract_x
_atom_site_fract_y
_atom_site_fract_z
Si Si1 0.909303 0.205099 0.774041
Si Si2 0.166070 0.392245 0.964143
Si Si3 0.666500 0.806853 0.119682
Si Si4 0.428059 0.117085 0.540618
Si Si5 0.671345 0.882550 0.610091
Si Si6 0.328950 0.885739 0.067400
Si Si7 0.441337 0.882786 0.740455
Si Si8 0.832680 0.385978 0.834014
O O1 0.875276 0.148241 0.692731
O O2 0.883304 0.164624 0.867264
O O3 0.884977 0.320340 0.772121
O O4 0.993412 0.186420 0.770431
O O5 0.250000 0.400195 0.959616
O O6 0.133219 0.500000 0.937690
O O7 0.140215 0.306478 0.897417
O O8 0.145706 0.364933 0.064427
O O9 0.750000 0.811655 0.141439
O O10 0.625964 0.856530 0.200241
O O11 0.647259 0.869873 0.033061
O O12 0.500000 0.163193 0.500000
O O13 0.362897 0.157139 0.481206
O O14 0.418984 0.148448 0.641796
O O15 0.431518 0.000000 0.532582
O O16 0.750000 0.836588 0.617762
O O17 0.674812 0.000000 0.609716
O O18 0.250000 0.839298 0.081059
O O19 0.327476 0.000000 0.090171
O O20 0.460383 0.000000 0.747021
O O21 0.750000 0.358715 0.817058
O O22 0.846455 0.500000 0.809669
#
# Coordination Sequence:
#
# PCOD8207942 Si02
#       8
#     8   8   8   8   8   8   8   8
#     4  12  20  31  49  74 107 135 167 206 254 312
#     4   8  14  29  53  74  93 126 173 221 264 299
#     4  10  20  35  51  71  99 136 182 222 255 299
#     4   9  17  34  52  67  95 133 167 205 255 303
#     4  10  19  30  50  79 103 127 166 212 253 303
#     4  10  19  30  45  66  99 140 173 204 243 290
#     4  11  23  35  51  73 102 143 177 208 257 312
#     4   9  17  31  52  76 102 134 172 213 257 304
#
# _framework density 16.612241000000001
#
# number of rings (size 3 to 8) (size 9 to 14) (size 15 to 20)
#    0.000    2.125    2.500    3.375    0.000    2.750 
#    0.000    3.125    0.000    1.500    0.000    2.625 
#    0.000    2.000    0.000    0.000    0.000    0.000 
#
# Total GULP energy -793297.977117 kJ/mol
# GULP energy per Si atom -12395.280892 kJ/mol
# Density = 1.657443 g / cm^3
# Si number density = 16.612241 Si / 1000 Ang^3
#
#
#
# Elastic Constant Matrix: (Units=GPa)
#
#
# Indices 1 2 3 4 5 6 
#
# 1 77.6456 24.2606 45.7147 0.0000 0.0000 0.0000
# 2 24.2606 63.6722 17.0294 0.0000 0.0000 0.0000
# 3 45.7147 17.0294 87.0672 0.0000 0.0000 0.0000
# 4 0.0000 0.0000 0.0000 6.8324 0.0000 0.0000
# 5 0.0000 0.0000 0.0000 0.0000 32.2843 0.0000
# 6 0.0000 0.0000 0.0000 0.0000 0.0000 20.9096
#
#
#
# Elastic Compliance Matrix: (Units=1/GPa)
#
#
# Indices 1 2 3 4 5 6 
#
# 1 0.020099 -0.005103 -0.009555 0.000000 0.000000 0.000000
# 2 -0.005103 0.017868 -0.000816 0.000000 0.000000 0.000000
# 3 -0.009555 -0.000816 0.016662 0.000000 0.000000 0.000000
# 4 0.000000 0.000000 0.000000 0.146362 0.000000 0.000000
# 5 0.000000 0.000000 0.000000 0.000000 0.030975 0.000000
# 6 0.000000 0.000000 0.000000 0.000000 0.000000 0.047825
#
#
# Mechanical properties :
#
#
# Convention : Reuss Voigt Hill
#
# Bulk Modulus (GPa) = 42.22598 44.71048 43.46823
# Shear Modulus (GPa) = 15.69214 21.43059 18.56137
#
# Velocity S-wave (km/s) = 3.07679 3.59562 3.34628
# Velocity P-wave (km/s) = 6.17219 6.64910 6.41508
#
# Compressibility (1/GPa) = 0.02368210
#
# Stress axis : x y z
#
# Youngs Moduli (GPa) = 49.75382 55.96655 60.01771
#
# Poissons Ratio (x) = 0.28558 0.57347
# Poissons Ratio (y) = 0.25388 0.04895
# Poissons Ratio (z) = 0.47540 0.04565
#
# Static dielectric constant tensor:
#      x y z
#    x 3.089330 0.000000 0.000000 
#    y 0.000000 3.473340 0.000000 
#    z 0.000000 0.000000 3.100350 
# 
# 
# High freq. dielectric constant tensor:
#      x y z
#    x 1.625420 0.000000 0.000000 
#    y 0.000000 1.622600 0.000000 
#    z 0.000000 0.000000 1.629600 
# 
# From -- ./inp_files/25346.got.cif
#   From: 2010.03.12/outbox.cif.g09.slc.cpg/sg51_13_cif.got.tgz:25346.got - 2010.04.16 13:43:02.
