data_PCOD8207539
_publ_section_title
;
Structure prediction by ZEFSAII (Michael W. Deem and Ramdas Pophale) SiO2 
 PCOD8207539
Probable space group: P M M A
;
_chemical_formula_sum "Si O2"
_cell_formula_units_Z 64
_cell_length_a 24.932977
_cell_length_b 9.035715
_cell_length_c 18.726127
_cell_angle_alpha 90.000000
_cell_angle_beta 90.000000
_cell_angle_gamma 90.000000
_cell_volume 4218.758110
_symmetry_space_group_name_H-M "P M M A"
_symmetry_group_IT_number 51
_symmetry_cell_setting 'orthorhombic'
loop_
_space_group_symop_operation_xyz
x,y,z
1/2-x,-y,z
1/2+x,-y,-z
-x,y,-z
-x,-y,-z
1/2+x,y,-z
1/2-x,y,z
x,-y,z
loop_
_atom_site_type_symbol
_atom_site_label
_atom_site_fract_x
_atom_site_fract_y
_atom_site_fract_z
Si Si1 0.930267 0.328666 0.967627
Si Si2 0.508787 0.325927 0.387617
Si Si3 0.501592 0.170613 0.241310
Si Si4 0.689024 0.174354 0.564355
Si Si5 0.689350 0.332240 0.708669
Si Si6 0.399318 0.329799 0.182099
Si Si7 0.964896 0.171964 0.090834
Si Si8 0.913170 0.674253 0.512975
O O1 0.933340 0.500000 0.989336
O O2 0.888394 0.301891 0.902632
O O3 0.986095 0.274433 0.933590
O O4 0.916377 0.232468 0.039590
O O5 0.509019 0.500000 0.377523
O O6 0.521202 0.254074 0.311539
O O7 0.556203 0.277534 0.440986
O O8 0.450733 0.278081 0.419727
O O9 0.444035 0.224882 0.215328
O O10 0.544306 0.195057 0.175925
O O11 0.496690 0.000000 0.261369
O O12 0.750000 0.225836 0.544282
O O13 0.674560 0.223782 0.644295
O O14 0.644648 0.246235 0.512638
O O15 0.684174 0.000000 0.558540
O O16 0.750000 0.311008 0.733256
O O17 0.677942 0.500000 0.682550
O O18 0.655387 0.290932 0.778006
O O19 0.417192 0.500000 0.194390
O O20 0.976397 0.000000 0.074747
O O21 0.903330 0.500000 0.514569
#
# Coordination Sequence:
#
# PCOD8207539 Si02
#       8
#     8   8   8   8   8   8   8   8
#     4   9  15  23  36  53  72  97 129 160 191 225
#     4   9  18  31  45  61  83 109 137 171 207 244
#     4  10  19  27  38  58  81 106 135 163 196 240
#     4  10  20  31  43  62  86 109 136 173 210 240
#     4   9  17  29  43  57  76 105 137 166 198 236
#     4   9  17  27  39  56  78 104 135 169 200 233
#     4   9  16  25  35  50  75 102 127 156 187 222
#     4   9  18  32  47  62  81 108 140 170 204 248
#
# _framework density 15.170341000000001
#
# number of rings (size 3 to 8) (size 9 to 14) (size 15 to 20)
#    0.000    2.750    0.000    3.750    0.000    7.250 
#    0.000    1.250    0.000    0.000    0.000    0.000 
#    0.000    1.000    0.000    9.000    0.000    4.250 
#
# Total GULP energy -792978.903011 kJ/mol
# GULP energy per Si atom -12390.295360 kJ/mol
# Density = 1.513581 g / cm^3
# Si number density = 15.170341 Si / 1000 Ang^3
#
#
#
# Elastic Constant Matrix: (Units=GPa)
#
#
# Indices 1 2 3 4 5 6 
#
# 1 70.3607 28.7052 42.6330 0.0000 0.0000 0.0000
# 2 28.7052 52.5223 41.8261 0.0000 0.0000 0.0000
# 3 42.6330 41.8261 116.0940 0.0000 0.0000 0.0000
# 4 0.0000 0.0000 0.0000 21.1955 0.0000 0.0000
# 5 0.0000 0.0000 0.0000 0.0000 20.8928 0.0000
# 6 0.0000 0.0000 0.0000 0.0000 0.0000 14.6378
#
#
#
# Elastic Compliance Matrix: (Units=1/GPa)
#
#
# Indices 1 2 3 4 5 6 
#
# 1 0.020020 -0.007134 -0.004782 0.000000 0.000000 0.000000
# 2 -0.007134 0.029242 -0.007915 0.000000 0.000000 0.000000
# 3 -0.004782 -0.007915 0.013222 0.000000 0.000000 0.000000
# 4 0.000000 0.000000 0.000000 0.047180 0.000000 0.000000
# 5 0.000000 0.000000 0.000000 0.000000 0.047863 0.000000
# 6 0.000000 0.000000 0.000000 0.000000 0.000000 0.068316
#
#
# Mechanical properties :
#
#
# Convention : Reuss Voigt Hill
#
# Bulk Modulus (GPa) = 43.81838 51.70062 47.75950
# Shear Modulus (GPa) = 18.30749 19.73275 19.02012
#
# Velocity S-wave (km/s) = 3.47766 3.61050 3.54470
# Velocity P-wave (km/s) = 6.71360 7.17879 6.95009
#
# Compressibility (1/GPa) = 0.02282147
#
# Stress axis : x y z
#
# Youngs Moduli (GPa) = 49.94942 34.19764 75.63419
#
# Poissons Ratio (x) = 0.24395 0.36168
# Poissons Ratio (y) = 0.35632 0.59868
# Poissons Ratio (z) = 0.23885 0.27069
#
# Static dielectric constant tensor:
#      x y z
#    x 2.768810 0.000000 0.000000 
#    y 0.000000 2.955870 0.000000 
#    z 0.000000 0.000000 3.346730 
# 
# 
# High freq. dielectric constant tensor:
#      x y z
#    x 1.533800 0.000000 0.000000 
#    y 0.000000 1.589160 0.000000 
#    z 0.000000 0.000000 1.583100 
# 
# From -- ./inp_files/30964.got.cif
#   From: 2010.03.12/outbox.cif.g09.slc.cpg/sg51_16_cif.got.tgz:30964.got - 2010.04.16 13:43:02.
