data_PCOD8207826
_publ_section_title
;
Structure prediction by ZEFSAII (Michael W. Deem and Ramdas Pophale) SiO2 
 PCOD8207826
Probable space group: P M M A
;
_chemical_formula_sum "Si O2"
_cell_formula_units_Z 64
_cell_length_a 8.908389
_cell_length_b 31.824834
_cell_length_c 14.362912
_cell_angle_alpha 90.000000
_cell_angle_beta 90.000000
_cell_angle_gamma 90.000000
_cell_volume 4072.000472
_symmetry_space_group_name_H-M "P M M A"
_symmetry_group_IT_number 51
_symmetry_cell_setting 'orthorhombic'
loop_
_space_group_symop_operation_xyz
x,y,z
1/2-x,-y,z
1/2+x,-y,-z
-x,y,-z
-x,-y,-z
1/2+x,y,-z
1/2-x,y,z
x,-y,z
loop_
_atom_site_type_symbol
_atom_site_label
_atom_site_fract_x
_atom_site_fract_y
_atom_site_fract_z
Si Si1 0.575417 0.633221 0.901302
Si Si2 0.572026 0.797202 0.219899
Si Si3 0.426837 0.544444 0.100581
Si Si4 0.426351 0.877348 0.900507
Si Si5 0.426936 0.175008 0.404214
Si Si6 0.922619 0.047175 0.225532
Si Si7 0.425202 0.922134 0.405472
Si Si8 0.072097 0.275374 0.101704
O O1 0.750000 0.632411 0.921019
O O2 0.528660 0.589105 0.847727
O O3 0.536530 0.678083 0.853698
O O4 0.500000 0.633057 0.000000
O O5 0.750000 0.793576 0.227835
O O6 0.522813 0.838508 0.163159
O O7 0.500749 0.798448 0.321929
O O8 0.505728 0.756741 0.170357
O O9 0.250000 0.543773 0.086605
O O10 0.475257 0.500000 0.151720
O O11 0.500000 0.544921 0.000000
O O12 0.250000 0.877917 0.915690
O O13 0.483089 0.920360 0.851988
O O14 0.500000 0.872403 0.000000
O O15 0.500000 0.191045 0.500000
O O16 0.250000 0.182872 0.407103
O O17 0.467598 0.126314 0.388135
O O18 0.750000 0.057697 0.248921
O O19 0.015623 0.050689 0.319978
O O20 0.941459 0.000000 0.185920
O O21 0.500000 0.938865 0.500000
O O22 0.250000 0.929088 0.415509
O O23 0.250000 0.266639 0.094685
O O24 0.000000 0.270347 0.000000
#
# Coordination Sequence:
#
# PCOD8207826 Si02
#       8
#     8   8   8   8   8   8   8   8
#     4   8  14  23  34  49  73 105 140 183 228 268
#     4  11  21  34  52  72  94 120 150 186 224 265
#     4   8  12  18  29  45  65  93 133 179 225 268
#     4  10  22  37  53  72  93 118 149 185 223 260
#     4  10  20  34  54  78 100 122 145 176 215 261
#     4  10  21  38  56  73  96 124 152 183 220 262
#     4  10  20  34  55  79 102 125 148 176 212 257
#     4  10  19  30  43  62  89 120 156 193 232 275
#
# _framework density 15.717091
#
# number of rings (size 3 to 8) (size 9 to 14) (size 15 to 20)
#    0.000    2.375    1.250    1.875    0.000    4.750 
#    0.000    0.000    0.000    0.000    0.000    0.000 
#    0.000    0.000    0.000    0.000    0.000    0.625 
#
# Total GULP energy -792897.639659 kJ/mol
# GULP energy per Si atom -12389.025620 kJ/mol
# Density = 1.568132 g / cm^3
# Si number density = 15.717091 Si / 1000 Ang^3
#
#
#
# Elastic Constant Matrix: (Units=GPa)
#
#
# Indices 1 2 3 4 5 6 
#
# 1 48.2848 37.2496 31.2193 0.0000 0.0000 0.0000
# 2 37.2496 140.6881 51.0955 0.0000 0.0000 0.0000
# 3 31.2193 51.0955 86.1444 0.0000 0.0000 0.0000
# 4 0.0000 0.0000 0.0000 2.7496 0.0000 0.0000
# 5 0.0000 0.0000 0.0000 0.0000 24.6651 0.0000
# 6 0.0000 0.0000 0.0000 0.0000 0.0000 25.0663
#
#
#
# Elastic Compliance Matrix: (Units=1/GPa)
#
#
# Indices 1 2 3 4 5 6 
#
# 1 0.029593 -0.005022 -0.007746 0.000000 0.000000 0.000000
# 2 -0.005022 0.009912 -0.004059 0.000000 0.000000 0.000000
# 3 -0.007746 -0.004059 0.016823 0.000000 0.000000 0.000000
# 4 0.000000 0.000000 0.000000 0.363695 0.000000 0.000000
# 5 0.000000 0.000000 0.000000 0.000000 0.040543 0.000000
# 6 0.000000 0.000000 0.000000 0.000000 0.000000 0.039894
#
#
# Mechanical properties :
#
#
# Convention : Reuss Voigt Hill
#
# Bulk Modulus (GPa) = 44.10357 57.13845 50.62101
# Shear Modulus (GPa) = 9.23068 20.86639 15.04853
#
# Velocity S-wave (km/s) = 2.42606 3.64761 3.09765
# Velocity P-wave (km/s) = 5.99746 7.36025 6.71353
#
# Compressibility (1/GPa) = 0.02267390
#
# Stress axis : x y z
#
# Youngs Moduli (GPa) = 33.79182 100.89022 59.44197
#
# Poissons Ratio (x) = 0.50668 0.46043
# Poissons Ratio (y) = 0.16971 0.24128
# Poissons Ratio (z) = 0.26175 0.40951
#
# Static dielectric constant tensor:
#      x y z
#    x 3.078680 0.000000 0.000000 
#    y 0.000000 3.695350 0.000000 
#    z 0.000000 0.000000 2.689740 
# 
# 
# High freq. dielectric constant tensor:
#      x y z
#    x 1.613510 0.000000 0.000000 
#    y 0.000000 1.612790 0.000000 
#    z 0.000000 0.000000 1.556860 
# 
# From -- ./inp_files/22580.got.cif
#   From: 2010.03.12/outbox.cif.g09.slc.cpg/sg51_12_cif.got.tgz:22580.got - 2010.04.16 13:43:02.
