data_PCOD8207039
_publ_section_title
;
Structure prediction by ZEFSAII (Michael W. Deem and Ramdas Pophale) SiO2 
 PCOD8207039
Probable space group: P M M A
;
_chemical_formula_sum "Si O2"
_cell_formula_units_Z 64
_cell_length_a 21.241033
_cell_length_b 9.217615
_cell_length_c 18.928336
_cell_angle_alpha 90.000000
_cell_angle_beta 90.000000
_cell_angle_gamma 90.000000
_cell_volume 3706.010410
_symmetry_space_group_name_H-M "P M M A"
_symmetry_group_IT_number 51
_symmetry_cell_setting 'orthorhombic'
loop_
_space_group_symop_operation_xyz
x,y,z
1/2-x,-y,z
1/2+x,-y,-z
-x,y,-z
-x,-y,-z
1/2+x,y,-z
1/2-x,y,z
x,-y,z
loop_
_atom_site_type_symbol
_atom_site_label
_atom_site_fract_x
_atom_site_fract_y
_atom_site_fract_z
Si Si1 0.012303 0.835058 0.677115
Si Si2 0.441958 0.670456 0.548559
Si Si3 0.118360 0.167195 0.085596
Si Si4 0.821886 0.336009 0.798568
Si Si5 0.933289 0.663512 0.038263
Si Si6 0.485484 0.166933 0.838631
Si Si7 0.131174 0.833928 0.331472
Si Si8 0.820685 0.667046 0.538825
O O1 0.056125 0.740652 0.626094
O O2 0.016929 0.778740 0.757704
O O3 0.941621 0.822713 0.647302
O O4 0.035797 0.000000 0.673603
O O5 0.500000 0.726958 0.500000
O O6 0.447731 0.500000 0.558562
O O7 0.374181 0.715628 0.516545
O O8 0.172477 0.254445 0.126619
O O9 0.055417 0.184941 0.131521
O O10 0.137420 0.000000 0.076460
O O11 0.113209 0.238052 0.008238
O O12 0.750000 0.336947 0.774267
O O13 0.847976 0.500000 0.805421
O O14 0.861986 0.250213 0.741383
O O15 0.906963 0.500000 0.045519
O O16 0.938122 0.734115 0.115934
O O17 0.000000 0.662615 0.000000
O O18 0.464246 0.000000 0.845050
O O19 0.174153 0.763033 0.391256
O O20 0.152241 0.000000 0.320349
O O21 0.750000 0.688772 0.507236
O O22 0.831767 0.500000 0.560606
#
# Coordination Sequence:
#
# PCOD8207039 Si02
#       8
#     8   8   8   8   8   8   8   8
#     4  10  20  33  50  74 103 135 167 206 258 306
#     4  10  20  34  52  75  99 130 171 210 253 310
#     4  10  18  31  49  68  94 130 167 204 246 294
#     4  11  23  35  47  67  98 136 175 214 254 296
#     4   9  17  28  44  70  97 124 158 195 238 287
#     4   9  17  31  47  68  97 128 161 197 246 299
#     4  11  21  34  51  73 100 133 173 211 250 302
#     4  10  21  37  54  73 100 133 169 212 259 304
#
# _framework density 17.269244
#
# number of rings (size 3 to 8) (size 9 to 14) (size 15 to 20)
#    0.000    2.000    2.500    1.875    0.000    6.500 
#    0.000    0.000    0.000    0.000    0.000    0.875 
#    0.000    3.000    0.000    0.000    0.000    0.000 
#
# Total GULP energy -793620.425761 kJ/mol
# GULP energy per Si atom -12400.319153 kJ/mol
# Density = 1.722994 g / cm^3
# Si number density = 17.269244 Si / 1000 Ang^3
#
#
#
# Elastic Constant Matrix: (Units=GPa)
#
#
# Indices 1 2 3 4 5 6 
#
# 1 61.6204 31.6605 35.6919 0.0000 0.0000 0.0000
# 2 31.6605 102.9766 47.4458 0.0000 0.0000 0.0000
# 3 35.6919 47.4458 105.3989 0.0000 0.0000 0.0000
# 4 0.0000 0.0000 0.0000 35.6304 0.0000 0.0000
# 5 0.0000 0.0000 0.0000 0.0000 24.5051 0.0000
# 6 0.0000 0.0000 0.0000 0.0000 0.0000 17.8577
#
#
#
# Elastic Compliance Matrix: (Units=1/GPa)
#
#
# Indices 1 2 3 4 5 6 
#
# 1 0.021480 -0.004104 -0.005427 0.000000 0.000000 0.000000
# 2 -0.004104 0.013036 -0.004479 0.000000 0.000000 0.000000
# 3 -0.005427 -0.004479 0.013341 0.000000 0.000000 0.000000
# 4 0.000000 0.000000 0.000000 0.028066 0.000000 0.000000
# 5 0.000000 0.000000 0.000000 0.000000 0.040808 0.000000
# 6 0.000000 0.000000 0.000000 0.000000 0.000000 0.055998
#
#
# Mechanical properties :
#
#
# Convention : Reuss Voigt Hill
#
# Bulk Modulus (GPa) = 50.40393 55.51024 52.95708
# Shear Modulus (GPa) = 24.11252 25.94515 25.02883
#
# Velocity S-wave (km/s) = 3.74072 3.88027 3.81114
# Velocity P-wave (km/s) = 6.92155 7.23112 7.07803
#
# Compressibility (1/GPa) = 0.01983972
#
# Stress axis : x y z
#
# Youngs Moduli (GPa) = 46.55455 76.70976 74.95436
#
# Poissons Ratio (x) = 0.31481 0.40675
# Poissons Ratio (y) = 0.19105 0.33569
# Poissons Ratio (z) = 0.25263 0.34355
#
# Static dielectric constant tensor:
#      x y z
#    x 2.943810 0.000000 0.000000 
#    y 0.000000 3.320950 0.000000 
#    z 0.000000 0.000000 3.189940 
# 
# 
# High freq. dielectric constant tensor:
#      x y z
#    x 1.626930 0.000000 0.000000 
#    y 0.000000 1.676890 0.000000 
#    z 0.000000 0.000000 1.660690 
# 
# From -- ./inp_files/30934.got.cif
#   From: 2010.03.12/outbox.cif.g09.slc.cpg/sg51_16_cif.got.tgz:30934.got - 2010.04.16 13:43:02.
