data_PCOD8207094
_publ_section_title
;
Structure prediction by ZEFSAII (Michael W. Deem and Ramdas Pophale) SiO2 
 PCOD8207094
Probable space group: P M M A
;
_chemical_formula_sum "Si O2"
_cell_formula_units_Z 64
_cell_length_a 19.852296
_cell_length_b 8.626753
_cell_length_c 20.191604
_cell_angle_alpha 90.000000
_cell_angle_beta 90.000000
_cell_angle_gamma 90.000000
_cell_volume 3458.031346
_symmetry_space_group_name_H-M "P M M A"
_symmetry_group_IT_number 51
_symmetry_cell_setting 'orthorhombic'
loop_
_space_group_symop_operation_xyz
x,y,z
1/2-x,-y,z
1/2+x,-y,-z
-x,y,-z
-x,-y,-z
1/2+x,y,-z
1/2-x,y,z
x,-y,z
loop_
_atom_site_type_symbol
_atom_site_label
_atom_site_fract_x
_atom_site_fract_y
_atom_site_fract_z
Si Si1 0.671579 0.172977 0.657457
Si Si2 0.086636 0.179787 0.463592
Si Si3 0.172976 0.815600 0.983640
Si Si4 0.551829 0.180675 0.272764
Si Si5 0.951375 0.680807 0.408508
Si Si6 0.913976 0.321905 0.760153
Si Si7 0.078003 0.816036 0.103568
Si Si8 0.573564 0.183814 0.127111
O O1 0.750000 0.177397 0.657555
O O2 0.648706 0.218787 0.583745
O O3 0.647981 0.298576 0.710893
O O4 0.644706 0.000000 0.675242
O O5 0.098727 0.277311 0.531129
O O6 0.019772 0.227333 0.423544
O O7 0.081753 0.000000 0.482672
O O8 0.250000 0.749740 0.988215
O O9 0.135745 0.753286 0.917077
O O10 0.176189 0.000000 0.983310
O O11 0.125055 0.758350 0.043387
O O12 0.580492 0.268362 0.337635
O O13 0.472708 0.212897 0.267756
O O14 0.584052 0.241885 0.203114
O O15 0.565764 0.000000 0.282110
O O16 0.967002 0.500000 0.406773
O O17 0.937194 0.500000 0.761173
O O18 0.890825 0.266645 0.832453
O O19 0.999216 0.763651 0.096760
O O20 0.082590 0.000000 0.111569
O O21 0.573773 0.000000 0.126524
#
# Coordination Sequence:
#
# PCOD8207094 Si02
#       8
#     8   8   8   8   8   8   8   8
#     4  10  21  36  53  71  97 135 173 206 243 295
#     4  10  19  32  51  73 100 132 167 204 248 297
#     4   9  16  27  47  75 100 123 161 213 259 299
#     4  10  18  31  51  73  99 130 163 203 254 306
#     4  11  20  30  49  76 105 129 159 207 253 295
#     4  11  21  32  48  72 101 130 164 207 250 293
#     4   9  17  30  49  71  99 133 165 201 249 308
#     4   8  15  27  46  71  98 128 163 205 253 303
#
# _framework density 18.507641
#
# number of rings (size 3 to 8) (size 9 to 14) (size 15 to 20)
#    0.000    2.250    1.250    4.875    0.000    2.750 
#    0.000    1.250    0.000    7.500    0.000    3.500 
#    0.000    0.000    0.000    0.000    0.000    0.000 
#
# Total GULP energy -793200.910102 kJ/mol
# GULP energy per Si atom -12393.764220 kJ/mol
# Density = 1.846552 g / cm^3
# Si number density = 18.507641 Si / 1000 Ang^3
#
#
#
# Elastic Constant Matrix: (Units=GPa)
#
#
# Indices 1 2 3 4 5 6 
#
# 1 59.3264 8.1161 46.6484 0.0000 0.0000 0.0000
# 2 8.1161 38.1287 27.8424 0.0000 0.0000 0.0000
# 3 46.6484 27.8424 150.5485 0.0000 0.0000 0.0000
# 4 0.0000 0.0000 0.0000 8.6041 0.0000 0.0000
# 5 0.0000 0.0000 0.0000 0.0000 20.4244 0.0000
# 6 0.0000 0.0000 0.0000 0.0000 0.0000 4.5738
#
#
#
# Elastic Compliance Matrix: (Units=1/GPa)
#
#
# Indices 1 2 3 4 5 6 
#
# 1 0.022290 0.000345 -0.006970 0.000000 0.000000 0.000000
# 2 0.000345 0.030327 -0.005716 0.000000 0.000000 0.000000
# 3 -0.006970 -0.005716 0.009859 0.000000 0.000000 0.000000
# 4 0.000000 0.000000 0.000000 0.116224 0.000000 0.000000
# 5 0.000000 0.000000 0.000000 0.000000 0.048961 0.000000
# 6 0.000000 0.000000 0.000000 0.000000 0.000000 0.218638
#
#
# Mechanical properties :
#
#
# Convention : Reuss Voigt Hill
#
# Bulk Modulus (GPa) = 26.45890 45.91304 36.18597
# Shear Modulus (GPa) = 10.33958 17.74689 14.04323
#
# Velocity S-wave (km/s) = 2.36617 3.09996 2.75759
# Velocity P-wave (km/s) = 4.66822 6.13796 5.45283
#
# Compressibility (1/GPa) = 0.03779447
#
# Stress axis : x y z
#
# Youngs Moduli (GPa) = 44.86416 32.97374 101.42743
#
# Poissons Ratio (x) = -0.01139 0.70699
# Poissons Ratio (y) = -0.01550 0.57973
# Poissons Ratio (z) = 0.31272 0.18847
#
# Static dielectric constant tensor:
#      x y z
#    x 3.226670 0.000000 0.000000 
#    y 0.000000 3.192460 0.000000 
#    z 0.000000 0.000000 4.390780 
# 
# 
# High freq. dielectric constant tensor:
#      x y z
#    x 1.675620 0.000000 0.000000 
#    y 0.000000 1.693800 0.000000 
#    z 0.000000 0.000000 1.736790 
# 
# From -- ./inp_files/34176.got.cif
#   From: 2010.03.12/outbox.cif.g09.slc.cpg/sg51_18_cif.got.tgz:34176.got - 2010.04.16 13:43:02.
