data_PCOD8207916
_publ_section_title
;
Structure prediction by ZEFSAII (Michael W. Deem and Ramdas Pophale) SiO2 
 PCOD8207916
Probable space group: P M M A
;
_chemical_formula_sum "Si O2"
_cell_formula_units_Z 56
_cell_length_a 9.313894
_cell_length_b 21.062137
_cell_length_c 18.158413
_cell_angle_alpha 90.000000
_cell_angle_beta 90.000000
_cell_angle_gamma 90.000000
_cell_volume 3562.145165
_symmetry_space_group_name_H-M "P M M A"
_symmetry_group_IT_number 51
_symmetry_cell_setting 'orthorhombic'
loop_
_space_group_symop_operation_xyz
x,y,z
1/2-x,-y,z
1/2+x,-y,-z
-x,y,-z
-x,-y,-z
1/2+x,y,-z
1/2-x,y,z
x,-y,z
loop_
_atom_site_type_symbol
_atom_site_label
_atom_site_fract_x
_atom_site_fract_y
_atom_site_fract_z
Si Si1 0.918259 0.828622 0.836686
Si Si2 0.408721 0.244151 0.304330
Si Si3 0.419105 0.703859 0.075289
Si Si4 0.579954 0.308265 0.423809
Si Si5 0.415986 0.570590 0.667388
Si Si6 0.591873 0.628206 0.788302
Si Si7 0.083686 0.925956 0.926291
O O1 0.750000 0.843879 0.846037
O O2 0.953211 0.812596 0.751089
O O3 0.965149 0.770973 0.889770
O O4 0.013530 0.889306 0.857717
O O5 0.250000 0.230978 0.338340
O O6 0.525744 0.252706 0.368942
O O7 0.400125 0.306861 0.256165
O O8 0.250000 0.702923 0.061393
O O9 0.463675 0.646073 0.130007
O O10 0.500000 0.691999 0.000000
O O11 0.500000 0.298748 0.500000
O O12 0.750000 0.302282 0.434550
O O13 0.533248 0.377419 0.392300
O O14 0.250000 0.580302 0.683150
O O15 0.450362 0.500000 0.636611
O O16 0.489878 0.578781 0.746816
O O17 0.750000 0.597382 0.792374
O O18 0.250000 0.907059 0.935646
O O19 0.065400 0.000000 0.909666
O O20 0.000000 0.905944 0.000000
#
# Coordination Sequence:
#
# PCOD8207916 Si02
#       7
#     8   8   8   8   8   8   8
#     4   9  17  29  45  64  86 113 145 181 218 257
#     4   8  15  29  46  63  85 111 139 173 213 255
#     4   9  17  27  40  61  85 106 133 172 216 258
#     4  10  19  30  45  65  90 117 141 168 206 250
#     4   9  18  31  45  62  83 107 138 173 206 245
#     4   8  15  28  43  59  80 105 134 169 209 253
#     4  10  20  31  42  59  87 123 159 192 223 254
#
# _framework density 15.720865
#
# number of rings (size 3 to 8) (size 9 to 14) (size 15 to 20)
#    0.000    3.000    0.000    3.000    0.000    4.857 
#    0.000    2.857    0.000    0.429    0.000    0.000 
#    0.000    0.571    0.000    1.857    0.000    2.714 
#
# Total GULP energy -694133.802992 kJ/mol
# GULP energy per Si atom -12395.246482 kJ/mol
# Density = 1.568508 g / cm^3
# Si number density = 15.720865 Si / 1000 Ang^3
#
#
#
# Elastic Constant Matrix: (Units=GPa)
#
#
# Indices 1 2 3 4 5 6 
#
# 1 74.0779 34.2074 55.6308 0.0000 0.0000 0.0000
# 2 34.2074 48.4085 36.1967 0.0000 0.0000 0.0000
# 3 55.6308 36.1967 110.2621 0.0000 0.0000 0.0000
# 4 0.0000 0.0000 0.0000 18.7717 0.0000 0.0000
# 5 0.0000 0.0000 0.0000 0.0000 30.3153 0.0000
# 6 0.0000 0.0000 0.0000 0.0000 0.0000 22.3139
#
#
#
# Elastic Compliance Matrix: (Units=1/GPa)
#
#
# Indices 1 2 3 4 5 6 
#
# 1 0.025608 -0.011179 -0.009250 0.000000 0.000000 0.000000
# 2 -0.011179 0.032258 -0.004949 0.000000 0.000000 0.000000
# 3 -0.009250 -0.004949 0.015361 0.000000 0.000000 0.000000
# 4 0.000000 0.000000 0.000000 0.053272 0.000000 0.000000
# 5 0.000000 0.000000 0.000000 0.000000 0.032987 0.000000
# 6 0.000000 0.000000 0.000000 0.000000 0.000000 0.044815
#
#
# Mechanical properties :
#
#
# Convention : Reuss Voigt Hill
#
# Bulk Modulus (GPa) = 44.50422 53.86870 49.18646
# Shear Modulus (GPa) = 19.04410 21.39443 20.21927
#
# Velocity S-wave (km/s) = 3.48428 3.69303 3.59017
# Velocity P-wave (km/s) = 6.67513 7.24740 6.96714
#
# Compressibility (1/GPa) = 0.02246978
#
# Stress axis : x y z
#
# Youngs Moduli (GPa) = 39.04974 31.00015 65.09919
#
# Poissons Ratio (x) = 0.34655 0.60219
# Poissons Ratio (y) = 0.43654 0.32220
# Poissons Ratio (z) = 0.36123 0.15343
#
# Static dielectric constant tensor:
#      x y z
#    x 3.124980 0.000000 0.000000 
#    y 0.000000 2.856380 0.000000 
#    z 0.000000 0.000000 3.013600 
# 
# 
# High freq. dielectric constant tensor:
#      x y z
#    x 1.608240 0.000000 0.000000 
#    y 0.000000 1.570710 0.000000 
#    z 0.000000 0.000000 1.591420 
# 
# From -- ./inp_files/28180.got.cif
#   From: 2010.03.12/outbox.cif.g09.slc.cpg/sg51_15_cif.got.tgz:28180.got - 2010.04.16 13:43:02.
