data_PCOD8207584
_publ_section_title
;
Structure prediction by ZEFSAII (Michael W. Deem and Ramdas Pophale) SiO2 
 PCOD8207584
Probable space group: P M M A
;
_chemical_formula_sum "Si O2"
_cell_formula_units_Z 64
_cell_length_a 23.022988
_cell_length_b 9.378968
_cell_length_c 17.442201
_cell_angle_alpha 90.000000
_cell_angle_beta 90.000000
_cell_angle_gamma 90.000000
_cell_volume 3766.327039
_symmetry_space_group_name_H-M "P M M A"
_symmetry_group_IT_number 51
_symmetry_cell_setting 'orthorhombic'
loop_
_space_group_symop_operation_xyz
x,y,z
1/2-x,-y,z
1/2+x,-y,-z
-x,y,-z
-x,-y,-z
1/2+x,y,-z
1/2-x,y,z
x,-y,z
loop_
_atom_site_type_symbol
_atom_site_label
_atom_site_fract_x
_atom_site_fract_y
_atom_site_fract_z
Si Si1 0.485322 0.666237 0.913146
Si Si2 0.432857 0.334603 0.223402
Si Si3 0.983820 0.843321 0.316412
Si Si4 0.623854 0.167133 0.405150
Si Si5 0.183921 0.836602 0.439806
Si Si6 0.185533 0.666561 0.288368
Si Si7 0.602960 0.160105 0.174682
Si Si8 0.818210 0.338492 0.272860
O O1 0.470708 0.500000 0.901880
O O2 0.539357 0.712137 0.857992
O O3 0.428694 0.759212 0.894847
O O4 0.500000 0.702686 0.000000
O O5 0.442773 0.500000 0.236527
O O6 0.463803 0.262226 0.296841
O O7 0.363934 0.295887 0.224973
O O8 0.944662 0.797475 0.390080
O O9 0.939537 0.845873 0.246303
O O10 0.010923 0.000000 0.329797
O O11 0.639719 0.205094 0.492368
O O12 0.664513 0.261856 0.351465
O O13 0.636014 0.000000 0.387359
O O14 0.250000 0.808532 0.467385
O O15 0.168124 0.742107 0.366999
O O16 0.175586 0.000000 0.415536
O O17 0.250000 0.715677 0.259612
O O18 0.185837 0.500000 0.305796
O O19 0.658848 0.251655 0.199038
O O20 0.620833 0.000000 0.149094
O O21 0.750000 0.341510 0.265949
O O22 0.843410 0.500000 0.272299
#
# Coordination Sequence:
#
# PCOD8207584 Si02
#       8
#     8   8   8   8   8   8   8   8
#     4   9  17  30  50  74  97 118 142 179 226 275
#     4   9  17  30  48  68  89 116 148 180 221 272
#     4   8  15  27  43  64  88 115 147 182 221 264
#     4   9  17  29  44  63  89 120 154 192 233 274
#     4   9  17  29  45  64  86 115 153 195 235 272
#     4   9  18  32  48  65  86 113 148 189 227 266
#     4   9  17  29  45  65  91 122 154 186 220 264
#     4  10  19  28  41  64  92 123 159 194 227 266
#
# _framework density 16.992681999999999
#
# number of rings (size 3 to 8) (size 9 to 14) (size 15 to 20)
#    0.000    3.000    0.000    1.875    0.000    5.750 
#    0.000    1.875    0.000    4.500    0.000    3.500 
#    0.000    0.000    0.000    0.000    0.000    0.000 
#
# Total GULP energy -793209.871319 kJ/mol
# GULP energy per Si atom -12393.904239 kJ/mol
# Density = 1.695401 g / cm^3
# Si number density = 16.992682 Si / 1000 Ang^3
#
#
#
# Elastic Constant Matrix: (Units=GPa)
#
#
# Indices 1 2 3 4 5 6 
#
# 1 87.3754 36.8532 41.8290 0.0000 0.0000 0.0000
# 2 36.8532 69.4747 30.8579 0.0000 0.0000 0.0000
# 3 41.8290 30.8579 70.9147 0.0000 0.0000 0.0000
# 4 0.0000 0.0000 0.0000 20.2655 0.0000 0.0000
# 5 0.0000 0.0000 0.0000 0.0000 22.9625 0.0000
# 6 0.0000 0.0000 0.0000 0.0000 0.0000 23.1184
#
#
#
# Elastic Compliance Matrix: (Units=1/GPa)
#
#
# Indices 1 2 3 4 5 6 
#
# 1 0.017701 -0.005890 -0.007877 0.000000 0.000000 0.000000
# 2 -0.005890 0.019802 -0.005142 0.000000 0.000000 0.000000
# 3 -0.007877 -0.005142 0.020986 0.000000 0.000000 0.000000
# 4 0.000000 0.000000 0.000000 0.049345 0.000000 0.000000
# 5 0.000000 0.000000 0.000000 0.000000 0.043549 0.000000
# 6 0.000000 0.000000 0.000000 0.000000 0.000000 0.043256
#
#
# Mechanical properties :
#
#
# Convention : Reuss Voigt Hill
#
# Bulk Modulus (GPa) = 48.38403 49.64943 49.01673
# Shear Modulus (GPa) = 20.89009 21.15094 21.02052
#
# Velocity S-wave (km/s) = 3.51002 3.53187 3.52096
# Velocity P-wave (km/s) = 6.70539 6.77596 6.74077
#
# Compressibility (1/GPa) = 0.02066798
#
# Stress axis : x y z
#
# Youngs Moduli (GPa) = 56.49553 50.49902 47.65175
#
# Poissons Ratio (x) = 0.29746 0.37537
# Poissons Ratio (y) = 0.33279 0.24504
# Poissons Ratio (z) = 0.44504 0.25968
#
# Static dielectric constant tensor:
#      x y z
#    x 3.339870 0.000000 0.000000 
#    y 0.000000 3.362320 0.000000 
#    z 0.000000 0.000000 3.016760 
# 
# 
# High freq. dielectric constant tensor:
#      x y z
#    x 1.649720 0.000000 0.000000 
#    y 0.000000 1.659800 0.000000 
#    z 0.000000 0.000000 1.622230 
# 
# From -- ./inp_files/30828.got.cif
#   From: 2010.03.12/outbox.cif.g09.slc.cpg/sg51_16_cif.got.tgz:30828.got - 2010.04.16 13:43:02.
