data_PCOD8207155
_publ_section_title
;
Structure prediction by ZEFSAII (Michael W. Deem and Ramdas Pophale) SiO2 
 PCOD8207155
Probable space group: P M M A
;
_chemical_formula_sum "Si O2"
_cell_formula_units_Z 64
_cell_length_a 29.305376
_cell_length_b 8.607136
_cell_length_c 12.568513
_cell_angle_alpha 90.000000
_cell_angle_beta 90.000000
_cell_angle_gamma 90.000000
_cell_volume 3170.223361
_symmetry_space_group_name_H-M "P M M A"
_symmetry_group_IT_number 51
_symmetry_cell_setting 'orthorhombic'
loop_
_space_group_symop_operation_xyz
x,y,z
1/2-x,-y,z
1/2+x,-y,-z
-x,y,-z
-x,-y,-z
1/2+x,y,-z
1/2-x,y,z
x,-y,z
loop_
_atom_site_type_symbol
_atom_site_label
_atom_site_fract_x
_atom_site_fract_y
_atom_site_fract_z
Si Si1 0.045532 0.818653 0.726512
Si Si2 0.299097 0.183256 0.648442
Si Si3 0.647120 0.680792 0.780325
Si Si4 0.954151 0.677173 0.722697
Si Si5 0.335611 0.179204 0.434894
Si Si6 0.197828 0.183476 0.021290
Si Si7 0.362635 0.184079 0.827996
Si Si8 0.924823 0.322165 0.490782
O O1 0.083958 0.769605 0.814592
O O2 0.049900 0.722546 0.617530
O O3 0.995457 0.777930 0.773255
O O4 0.049752 0.000000 0.701024
O O5 0.250000 0.229434 0.696461
O O6 0.300580 0.237280 0.525600
O O7 0.337750 0.256306 0.723920
O O8 0.306487 0.000000 0.648391
O O9 0.649812 0.500000 0.807003
O O10 0.594338 0.737463 0.770018
O O11 0.671443 0.713388 0.667736
O O12 0.675005 0.775018 0.867204
O O13 0.960967 0.500000 0.757854
O O14 0.957093 0.692911 0.594457
O O15 0.384322 0.201091 0.491132
O O16 0.328988 0.000000 0.401630
O O17 0.250000 0.250211 0.012070
O O18 0.200632 0.000000 0.010828
O O19 0.163512 0.253513 0.931156
O O20 0.357485 0.000000 0.833150
O O21 0.907009 0.500000 0.483707
#
# Coordination Sequence:
#
# PCOD8207155 Si02
#       8
#     8   8   8   8   8   8   8   8
#     4  11  20  31  52  83 114 147 188 235 284 333
#     4   9  16  28  50  79 111 143 174 220 282 339
#     4  10  22  40  59  80 113 151 187 233 288 339
#     4   9  20  36  52  75 109 152 193 227 275 340
#     4  10  18  31  53  83 114 144 186 233 278 335
#     4  10  21  39  65  89 107 139 190 239 282 334
#     4   9  18  34  54  83 116 142 180 234 286 333
#     4  10  19  32  50  74 112 157 193 226 272 331
#
# _framework density 20.187851999999999
#
# number of rings (size 3 to 8) (size 9 to 14) (size 15 to 20)
#    0.000    2.250    1.250    3.000    0.000    6.750 
#    0.000    3.125    0.000    4.875    0.000    0.000 
#    0.000    0.000    0.000    0.000    0.000    0.000 
#
# Total GULP energy -793074.729963 kJ/mol
# GULP energy per Si atom -12391.792656 kJ/mol
# Density = 2.014190 g / cm^3
# Si number density = 20.187852 Si / 1000 Ang^3
#
#
#
# Elastic Constant Matrix: (Units=GPa)
#
#
# Indices 1 2 3 4 5 6 
#
# 1 99.4901 15.5670 56.1773 0.0000 0.0000 0.0000
# 2 15.5670 27.7728 9.8563 0.0000 0.0000 0.0000
# 3 56.1773 9.8563 84.8687 0.0000 0.0000 0.0000
# 4 0.0000 0.0000 0.0000 11.8782 0.0000 0.0000
# 5 0.0000 0.0000 0.0000 0.0000 23.4971 0.0000
# 6 0.0000 0.0000 0.0000 0.0000 0.0000 15.2450
#
#
#
# Elastic Compliance Matrix: (Units=1/GPa)
#
#
# Indices 1 2 3 4 5 6 
#
# 1 0.016882 -0.005733 -0.010509 0.000000 0.000000 0.000000
# 2 -0.005733 0.039501 -0.000793 0.000000 0.000000 0.000000
# 3 -0.010509 -0.000793 0.018831 0.000000 0.000000 0.000000
# 4 0.000000 0.000000 0.000000 0.084188 0.000000 0.000000
# 5 0.000000 0.000000 0.000000 0.000000 0.042558 0.000000
# 6 0.000000 0.000000 0.000000 0.000000 0.000000 0.065595
#
#
# Mechanical properties :
#
#
# Convention : Reuss Voigt Hill
#
# Bulk Modulus (GPa) = 24.30422 41.70365 33.00393
# Shear Modulus (GPa) = 15.85587 18.82614 17.34101
#
# Velocity S-wave (km/s) = 2.80557 3.05708 2.93402
# Velocity P-wave (km/s) = 4.74975 5.75879 5.27843
#
# Compressibility (1/GPa) = 0.04114513
#
# Stress axis : x y z
#
# Youngs Moduli (GPa) = 59.23363 25.31569 53.10316
#
# Poissons Ratio (x) = 0.14514 0.55807
# Poissons Ratio (y) = 0.33959 0.04209
# Poissons Ratio (z) = 0.62249 0.02006
#
# Static dielectric constant tensor:
#      x y z
#    x 3.831260 0.000000 0.000000 
#    y 0.000000 3.311840 0.000000 
#    z 0.000000 0.000000 3.628810 
# 
# 
# High freq. dielectric constant tensor:
#      x y z
#    x 1.796030 0.000000 0.000000 
#    y 0.000000 1.756070 0.000000 
#    z 0.000000 0.000000 1.770330 
# 
# From -- ./inp_files/19462.got.cif
#   From: 2010.03.12/outbox.cif.g09.slc.cpg/sg51_10_cif.got.tgz:19462.got - 2010.04.16 13:43:02.
