data_PCOD8207548
_publ_section_title
;
Structure prediction by ZEFSAII (Michael W. Deem and Ramdas Pophale) SiO2 
 PCOD8207548
Probable space group: P M M A
;
_chemical_formula_sum "Si O2"
_cell_formula_units_Z 56
_cell_length_a 9.248713
_cell_length_b 13.521770
_cell_length_c 29.162544
_cell_angle_alpha 90.000000
_cell_angle_beta 90.000000
_cell_angle_gamma 90.000000
_cell_volume 3647.037715
_symmetry_space_group_name_H-M "P M M A"
_symmetry_group_IT_number 51
_symmetry_cell_setting 'orthorhombic'
loop_
_space_group_symop_operation_xyz
x,y,z
1/2-x,-y,z
1/2+x,-y,-z
-x,y,-z
-x,-y,-z
1/2+x,y,-z
1/2-x,y,z
x,-y,z
loop_
_atom_site_type_symbol
_atom_site_label
_atom_site_fract_x
_atom_site_fract_y
_atom_site_fract_z
Si Si1 0.581440 0.300126 0.315908
Si Si2 0.912098 0.617384 0.142703
Si Si3 0.414542 0.389303 0.397428
Si Si4 0.080995 0.615782 0.230989
Si Si5 0.413489 0.382740 0.957655
Si Si6 0.918457 0.799131 0.546695
Si Si7 0.585417 0.111116 0.371809
O O1 0.750000 0.322865 0.308967
O O2 0.521390 0.372394 0.355117
O O3 0.498487 0.319644 0.269042
O O4 0.551864 0.186472 0.330363
O O5 0.750000 0.657954 0.152511
O O6 0.906049 0.500000 0.141921
O O7 0.968092 0.654381 0.092570
O O8 0.021642 0.653378 0.181951
O O9 0.250000 0.373784 0.379838
O O10 0.438125 0.500000 0.416336
O O11 0.448331 0.314485 0.438880
O O12 0.250000 0.637798 0.232978
O O13 0.047615 0.500000 0.238984
O O14 0.250000 0.348789 0.964100
O O15 0.428553 0.500000 0.959814
O O16 0.500000 0.333704 0.000000
O O17 0.750000 0.821179 0.539831
O O18 0.000000 0.822501 0.500000
O O19 0.978847 0.871227 0.585781
O O20 0.750000 0.127279 0.388972
O O21 0.561611 0.000000 0.353256
#
# Coordination Sequence:
#
# PCOD8207548 Si02
#       7
#     8   8   8   8   8   8   8
#     4  10  19  30  46  66  84 104 132 165 201 241
#     4   8  14  24  35  48  69  98 134 174 210 242
#     4   9  18  32  47  63  86 114 140 166 195 228
#     4  10  19  28  39  57  82 111 139 168 203 241
#     4   8  13  20  30  44  63  90 126 169 212 247
#     4  10  20  33  49  69  91 113 137 164 195 232
#     4   9  19  36  54  69  85 105 131 164 200 239
#
# _framework density 15.354927999999999
#
# number of rings (size 3 to 8) (size 9 to 14) (size 15 to 20)
#    0.000    2.857    0.000    2.571    0.000    5.429 
#    0.000    2.857    0.000    0.000    0.000    0.000 
#    0.000    0.000    0.000    0.000    0.000    0.714 
#
# Total GULP energy -694175.773902 kJ/mol
# GULP energy per Si atom -12395.995963 kJ/mol
# Density = 1.531998 g / cm^3
# Si number density = 15.354928 Si / 1000 Ang^3
#
#
#
# Elastic Constant Matrix: (Units=GPa)
#
#
# Indices 1 2 3 4 5 6 
#
# 1 92.8777 25.8286 67.9851 0.0000 0.0000 0.0000
# 2 25.8286 56.8171 25.7320 0.0000 0.0000 0.0000
# 3 67.9851 25.7320 122.4977 0.0000 0.0000 0.0000
# 4 0.0000 0.0000 0.0000 9.1726 0.0000 0.0000
# 5 0.0000 0.0000 0.0000 0.0000 31.8229 0.0000
# 6 0.0000 0.0000 0.0000 0.0000 0.0000 14.6707
#
#
#
# Elastic Compliance Matrix: (Units=1/GPa)
#
#
# Indices 1 2 3 4 5 6 
#
# 1 0.019028 -0.004274 -0.009663 0.000000 0.000000 0.000000
# 2 -0.004274 0.020411 -0.001915 0.000000 0.000000 0.000000
# 3 -0.009663 -0.001915 0.013929 0.000000 0.000000 0.000000
# 4 0.000000 0.000000 0.000000 0.109021 0.000000 0.000000
# 5 0.000000 0.000000 0.000000 0.000000 0.031424 0.000000
# 6 0.000000 0.000000 0.000000 0.000000 0.000000 0.068163
#
#
# Mechanical properties :
#
#
# Convention : Reuss Voigt Hill
#
# Bulk Modulus (GPa) = 46.16122 56.80934 51.48528
# Shear Modulus (GPa) = 16.61674 21.30968 18.96321
#
# Velocity S-wave (km/s) = 3.29321 3.72937 3.51806
# Velocity P-wave (km/s) = 6.67746 7.45802 7.07850
#
# Compressibility (1/GPa) = 0.02166321
#
# Stress axis : x y z
#
# Youngs Moduli (GPa) = 52.55290 48.99374 71.79492
#
# Poissons Ratio (x) = 0.20940 0.69374
# Poissons Ratio (y) = 0.22461 0.13752
# Poissons Ratio (z) = 0.50781 0.09385
#
# Static dielectric constant tensor:
#      x y z
#    x 3.089290 0.000000 0.000000 
#    y 0.000000 2.629040 0.000000 
#    z 0.000000 0.000000 3.152310 
# 
# 
# High freq. dielectric constant tensor:
#      x y z
#    x 1.599600 0.000000 0.000000 
#    y 0.000000 1.537200 0.000000 
#    z 0.000000 0.000000 1.586820 
# 
# From -- ./inp_files/37445.got.cif
#   From: 2010.03.12/outbox.cif.g09.slc.cpg/sg51_19_cif.got.tgz:37445.got - 2010.04.16 13:43:02.
