data_PCOD8207978
_publ_section_title
;
Structure prediction by ZEFSAII (Michael W. Deem and Ramdas Pophale) SiO2 
 PCOD8207978
Probable space group: P M M A
;
_chemical_formula_sum "Si O2"
_cell_formula_units_Z 64
_cell_length_a 9.119165
_cell_length_b 14.188041
_cell_length_c 28.944683
_cell_angle_alpha 90.000000
_cell_angle_beta 90.000000
_cell_angle_gamma 90.000000
_cell_volume 3744.952436
_symmetry_space_group_name_H-M "P M M A"
_symmetry_group_IT_number 51
_symmetry_cell_setting 'orthorhombic'
loop_
_space_group_symop_operation_xyz
x,y,z
1/2-x,-y,z
1/2+x,-y,-z
-x,y,-z
-x,-y,-z
1/2+x,y,-z
1/2-x,y,z
x,-y,z
loop_
_atom_site_type_symbol
_atom_site_label
_atom_site_fract_x
_atom_site_fract_y
_atom_site_fract_z
Si Si1 0.583623 0.111128 0.689914
Si Si2 0.420296 0.889613 0.598083
Si Si3 0.085194 0.112147 0.044302
Si Si4 0.078774 0.607404 0.368448
Si Si5 0.575815 0.263980 0.546297
Si Si6 0.920559 0.108138 0.135444
Si Si7 0.419311 0.394749 0.723314
Si Si8 0.580574 0.790891 0.228519
O O1 0.750000 0.146169 0.681913
O O2 0.486964 0.145101 0.646702
O O3 0.520864 0.153387 0.736514
O O4 0.576891 0.000000 0.695160
O O5 0.250000 0.861723 0.596615
O O6 0.508717 0.838793 0.557089
O O7 0.444322 0.000000 0.590851
O O8 0.250000 0.151742 0.043515
O O9 0.007881 0.146146 0.091179
O O10 0.083645 0.000000 0.042193
O O11 0.000000 0.153793 0.000000
O O12 0.250000 0.618197 0.360184
O O13 0.032381 0.500000 0.377983
O O14 0.027723 0.666768 0.412526
O O15 0.002200 0.644498 0.321861
O O16 0.500000 0.303197 0.500000
O O17 0.750000 0.257808 0.539815
O O18 0.750000 0.115112 0.123400
O O19 0.964572 0.176940 0.177330
O O20 0.962652 0.000000 0.147887
O O21 0.250000 0.398526 0.709949
O O22 0.474957 0.500000 0.737514
O O23 0.446380 0.321640 0.765402
O O24 0.750000 0.817398 0.238175
#
# Coordination Sequence:
#
# PCOD8207978 Si02
#       8
#     8   8   8   8   8   8   8   8
#     4  10  20  32  47  69  96 124 154 189 228 271
#     4  10  21  37  55  72  92 121 156 191 225 264
#     4   9  16  26  41  60  84 118 159 199 236 274
#     4   9  19  36  55  74  96 121 149 182 223 272
#     4  11  23  37  54  75  98 122 148 182 224 270
#     4   9  17  28  41  60  89 124 161 198 234 273
#     4   9  18  32  50  72  95 120 153 191 229 271
#     4  10  19  30  46  67  94 128 161 194 233 277
#
# _framework density 17.089669000000001
#
# number of rings (size 3 to 8) (size 9 to 14) (size 15 to 20)
#    0.000    2.375    0.000    2.625    0.000    8.000 
#    0.000    1.250    0.000    0.000    0.000    0.000 
#    0.000    0.500    0.000    0.875    0.000    1.250 
#
# Total GULP energy -793658.226223 kJ/mol
# GULP energy per Si atom -12400.909785 kJ/mol
# Density = 1.705077 g / cm^3
# Si number density = 17.089669 Si / 1000 Ang^3
#
#
#
# Elastic Constant Matrix: (Units=GPa)
#
#
# Indices 1 2 3 4 5 6 
#
# 1 76.3420 36.8250 50.7900 0.0000 0.0000 0.0000
# 2 36.8250 51.7265 59.2832 0.0000 0.0000 0.0000
# 3 50.7900 59.2832 125.6765 0.0000 0.0000 0.0000
# 4 0.0000 0.0000 0.0000 18.2314 0.0000 0.0000
# 5 0.0000 0.0000 0.0000 0.0000 31.9824 0.0000
# 6 0.0000 0.0000 0.0000 0.0000 0.0000 17.7488
#
#
#
# Elastic Compliance Matrix: (Units=1/GPa)
#
#
# Indices 1 2 3 4 5 6 
#
# 1 0.020471 -0.011085 -0.003044 0.000000 0.000000 0.000000
# 2 -0.011085 0.048087 -0.018203 0.000000 0.000000 0.000000
# 3 -0.003044 -0.018203 0.017774 0.000000 0.000000 0.000000
# 4 0.000000 0.000000 0.000000 0.054850 0.000000 0.000000
# 5 0.000000 0.000000 0.000000 0.000000 0.031267 0.000000
# 6 0.000000 0.000000 0.000000 0.000000 0.000000 0.056342
#
#
# Mechanical properties :
#
#
# Convention : Reuss Voigt Hill
#
# Bulk Modulus (GPa) = 46.15319 60.83793 53.49556
# Shear Modulus (GPa) = 16.62906 20.71564 18.67235
#
# Velocity S-wave (km/s) = 3.12275 3.48540 3.30905
# Velocity P-wave (km/s) = 6.32987 7.20236 6.78016
#
# Compressibility (1/GPa) = 0.02166698
#
# Stress axis : x y z
#
# Youngs Moduli (GPa) = 48.84891 20.79579 56.26213
#
# Poissons Ratio (x) = 0.23052 0.17127
# Poissons Ratio (y) = 0.54149 1.02416
# Poissons Ratio (z) = 0.14871 0.37855
#
# Static dielectric constant tensor:
#      x y z
#    x 3.285420 0.000000 0.000000 
#    y 0.000000 3.177880 0.000000 
#    z 0.000000 0.000000 3.165990 
# 
# 
# High freq. dielectric constant tensor:
#      x y z
#    x 1.667550 0.000000 0.000000 
#    y 0.000000 1.637950 0.000000 
#    z 0.000000 0.000000 1.647890 
# 
# From -- ./inp_files/34980.got.cif
#   From: 2010.03.12/outbox.cif.g09.slc.cpg/sg51_18_cif.got.tgz:34980.got - 2010.04.16 13:43:02.
