data_PCOD8207827
_publ_section_title
;
Structure prediction by ZEFSAII (Michael W. Deem and Ramdas Pophale) SiO2 
 PCOD8207827
Probable space group: P M M A
;
_chemical_formula_sum "Si O2"
_cell_formula_units_Z 64
_cell_length_a 28.434254
_cell_length_b 9.276990
_cell_length_c 15.422528
_cell_angle_alpha 90.000000
_cell_angle_beta 90.000000
_cell_angle_gamma 90.000000
_cell_volume 4068.220599
_symmetry_space_group_name_H-M "P M M A"
_symmetry_group_IT_number 51
_symmetry_cell_setting 'orthorhombic'
loop_
_space_group_symop_operation_xyz
x,y,z
1/2-x,-y,z
1/2+x,-y,-z
-x,y,-z
-x,-y,-z
1/2+x,y,-z
1/2-x,y,z
x,-y,z
loop_
_atom_site_type_symbol
_atom_site_label
_atom_site_fract_x
_atom_site_fract_y
_atom_site_fract_z
Si Si1 0.396891 0.667873 0.341165
Si Si2 0.301922 0.333242 0.419944
Si Si3 0.054021 0.832560 0.495700
Si Si4 0.197655 0.166015 0.593027
Si Si5 0.944147 0.837125 0.001112
Si Si6 0.103021 0.166586 0.675946
Si Si7 0.945326 0.667897 0.833322
Si Si8 0.555017 0.668645 0.170136
O O1 0.408359 0.500000 0.350686
O O2 0.340814 0.699718 0.346352
O O3 0.422860 0.746225 0.418410
O O4 0.415767 0.723554 0.249004
O O5 0.250000 0.285860 0.386253
O O6 0.302247 0.500000 0.444765
O O7 0.315950 0.251703 0.507139
O O8 0.078267 0.792035 0.586047
O O9 0.000000 0.786632 0.500000
O O10 0.060105 0.000000 0.474498
O O11 0.250000 0.207955 0.627152
O O12 0.159050 0.196795 0.667275
O O13 0.195394 0.000000 0.565626
O O14 0.925914 0.757851 0.914807
O O15 0.924284 0.000000 0.004223
O O16 0.926157 0.749481 0.084550
O O17 0.000000 0.837161 0.000000
O O18 0.083487 0.271001 0.748894
O O19 0.092860 0.000000 0.700459
O O20 0.936961 0.500000 0.853227
O O21 0.000006 0.699125 0.814793
O O22 0.565276 0.500000 0.159434
#
# Coordination Sequence:
#
# PCOD8207827 Si02
#       8
#     8   8   8   8   8   8   8   8
#     4  10  19  30  45  65  90 121 154 187 223 267
#     4   9  17  29  45  65  88 115 150 192 232 266
#     4  10  20  31  42  60  90 125 157 188 221 259
#     4   9  17  30  47  64  84 114 152 193 234 271
#     4   9  17  30  48  68  89 115 147 185 228 268
#     4  10  19  30  43  63  90 119 151 187 225 267
#     4   9  18  31  45  65  92 120 151 185 222 267
#     4  10  19  30  46  66  90 120 151 184 222 267
#
# _framework density 15.731693999999999
#
# number of rings (size 3 to 8) (size 9 to 14) (size 15 to 20)
#    0.000    2.500    1.250    1.500    0.000    3.750 
#    0.000    0.000    0.000    0.000    0.000    0.875 
#    0.000    3.000    0.000    0.000    0.000    0.000 
#
# Total GULP energy -793516.350794 kJ/mol
# GULP energy per Si atom -12398.692981 kJ/mol
# Density = 1.569589 g / cm^3
# Si number density = 15.731694 Si / 1000 Ang^3
#
#
#
# Elastic Constant Matrix: (Units=GPa)
#
#
# Indices 1 2 3 4 5 6 
#
# 1 82.2398 38.6002 55.9764 0.0000 0.0000 0.0000
# 2 38.6002 70.8242 61.0595 0.0000 0.0000 0.0000
# 3 55.9764 61.0595 122.1905 0.0000 0.0000 0.0000
# 4 0.0000 0.0000 0.0000 22.6384 0.0000 0.0000
# 5 0.0000 0.0000 0.0000 0.0000 6.2229 0.0000
# 6 0.0000 0.0000 0.0000 0.0000 0.0000 2.3064
#
#
#
# Elastic Compliance Matrix: (Units=1/GPa)
#
#
# Indices 1 2 3 4 5 6 
#
# 1 0.018589 -0.004901 -0.006067 0.000000 0.000000 0.000000
# 2 -0.004901 0.026099 -0.010796 0.000000 0.000000 0.000000
# 3 -0.006067 -0.010796 0.016358 0.000000 0.000000 0.000000
# 4 0.000000 0.000000 0.000000 0.044173 0.000000 0.000000
# 5 0.000000 0.000000 0.000000 0.000000 0.160696 0.000000
# 6 0.000000 0.000000 0.000000 0.000000 0.000000 0.433570
#
#
# Mechanical properties :
#
#
# Convention : Reuss Voigt Hill
#
# Bulk Modulus (GPa) = 57.08583 65.16964 61.12774
# Shear Modulus (GPa) = 6.67688 14.20811 10.44250
#
# Velocity S-wave (km/s) = 2.06239 3.00851 2.57920
# Velocity P-wave (km/s) = 6.48361 7.32010 6.91451
#
# Compressibility (1/GPa) = 0.01751748
#
# Stress axis : x y z
#
# Youngs Moduli (GPa) = 53.79449 38.31638 61.13136
#
# Poissons Ratio (x) = 0.18779 0.37087
# Poissons Ratio (y) = 0.26365 0.66000
# Poissons Ratio (z) = 0.32636 0.41368
#
# Static dielectric constant tensor:
#      x y z
#    x 3.198590 0.000000 0.000000 
#    y 0.000000 3.062640 0.000000 
#    z 0.000000 0.000000 2.961630 
# 
# 
# High freq. dielectric constant tensor:
#      x y z
#    x 1.588870 0.000000 0.000000 
#    y 0.000000 1.609960 0.000000 
#    z 0.000000 0.000000 1.589360 
# 
# From -- ./inp_files/26565.got.cif
#   From: 2010.03.12/outbox.cif.g09.slc.cpg/sg51_14_cif.got.tgz:26565.got - 2010.04.16 13:43:02.
