data_PCOD8207233
_publ_section_title
;
Structure prediction by ZEFSAII (Michael W. Deem and Ramdas Pophale) SiO2 
 PCOD8207233
Probable space group: P M M A
;
_chemical_formula_sum "Si O2"
_cell_formula_units_Z 56
_cell_length_a 20.615732
_cell_length_b 8.785160
_cell_length_c 15.300780
_cell_angle_alpha 90.000000
_cell_angle_beta 90.000000
_cell_angle_gamma 90.000000
_cell_volume 2771.162581
_symmetry_space_group_name_H-M "P M M A"
_symmetry_group_IT_number 51
_symmetry_cell_setting 'orthorhombic'
loop_
_space_group_symop_operation_xyz
x,y,z
1/2-x,-y,z
1/2+x,-y,-z
-x,y,-z
-x,-y,-z
1/2+x,y,-z
1/2-x,y,z
x,-y,z
loop_
_atom_site_type_symbol
_atom_site_label
_atom_site_fract_x
_atom_site_fract_y
_atom_site_fract_z
Si Si1 0.250000 0.334421 0.755595
Si Si2 0.598918 0.179310 0.687043
Si Si3 0.616548 0.821335 0.486166
Si Si4 0.963705 0.680265 0.338960
Si Si5 0.114932 0.671330 0.822288
Si Si6 0.750000 0.824599 0.415386
Si Si7 0.825887 0.319525 0.844635
Si Si8 0.425325 0.681149 0.003641
O O1 0.250000 0.500000 0.706413
O O2 0.308557 0.322662 0.821516
O O3 0.250000 0.197016 0.688004
O O4 0.616762 0.218977 0.587679
O O5 0.530593 0.260687 0.701467
O O6 0.653171 0.245092 0.752453
O O7 0.592516 0.000000 0.702441
O O8 0.556156 0.747667 0.433551
O O9 0.684458 0.749704 0.452916
O O10 0.611452 0.000000 0.468873
O O11 0.965229 0.500000 0.349138
O O12 0.912440 0.742930 0.267250
O O13 0.086654 0.500000 0.826465
O O14 0.098086 0.754976 0.912349
O O15 0.750000 0.000000 0.441536
O O16 0.750000 0.274695 0.865260
O O17 0.831351 0.500000 0.835490
O O18 0.877855 0.258773 0.918126
O O19 0.419769 0.500000 0.005897
O O20 0.500000 0.734907 0.000000
#
# Coordination Sequence:
#
# PCOD8207233 Si02
#       8
#     4   8   8   8   8   4   8   8
#     4  10  18  32  52  81 114 144 186 229 278 339
#     4  11  24  40  60  81 111 155 200 239 284 345
#     4  10  22  38  57  81 112 152 197 237 282 343
#     4  11  21  36  59  88 120 149 185 238 294 343
#     4   9  18  30  53  85 115 147 180 224 281 343
#     4  10  20  36  56  77 108 148 190 235 278 331
#     4  10  22  39  60  88 118 149 194 250 297 340
#     4   9  17  32  56  85 117 151 186 230 287 349
#
# _framework density 20.208124999999999
#
# number of rings (size 3 to 8) (size 9 to 14) (size 15 to 20)
#    0.000    2.000    1.429    2.143    2.000    5.429 
#    0.000    0.000    0.000    5.571    0.000    0.000 
#    0.000    0.000    0.000    0.000    0.000    0.000 
#
# Total GULP energy -693862.006921 kJ/mol
# GULP energy per Si atom -12390.392981 kJ/mol
# Density = 2.016213 g / cm^3
# Si number density = 20.208125 Si / 1000 Ang^3
#
#
#
# Elastic Constant Matrix: (Units=GPa)
#
#
# Indices 1 2 3 4 5 6 
#
# 1 146.1923 29.4390 64.1765 0.0000 0.0000 0.0000
# 2 29.4390 38.2523 34.6278 0.0000 0.0000 0.0000
# 3 64.1765 34.6278 146.6982 0.0000 0.0000 0.0000
# 4 0.0000 0.0000 0.0000 13.3568 0.0000 0.0000
# 5 0.0000 0.0000 0.0000 0.0000 27.0878 0.0000
# 6 0.0000 0.0000 0.0000 0.0000 0.0000 21.7415
#
#
#
# Elastic Compliance Matrix: (Units=1/GPa)
#
#
# Indices 1 2 3 4 5 6 
#
# 1 0.008983 -0.004268 -0.002922 0.000000 0.000000 0.000000
# 2 -0.004268 0.035274 -0.006459 0.000000 0.000000 0.000000
# 3 -0.002922 -0.006459 0.009620 0.000000 0.000000 0.000000
# 4 0.000000 0.000000 0.000000 0.074868 0.000000 0.000000
# 5 0.000000 0.000000 0.000000 0.000000 0.036917 0.000000
# 6 0.000000 0.000000 0.000000 0.000000 0.000000 0.045995
#
#
# Mechanical properties :
#
#
# Convention : Reuss Voigt Hill
#
# Bulk Modulus (GPa) = 37.62534 65.29215 51.45874
# Shear Modulus (GPa) = 20.17643 25.96386 23.07014
#
# Velocity S-wave (km/s) = 3.16322 3.58833 3.38246
# Velocity P-wave (km/s) = 5.65691 7.03904 6.38548
#
# Compressibility (1/GPa) = 0.02657784
#
# Stress axis : x y z
#
# Youngs Moduli (GPa) = 111.32750 28.34954 103.95171
#
# Poissons Ratio (x) = 0.12098 0.30377
# Poissons Ratio (y) = 0.47510 0.67147
# Poissons Ratio (z) = 0.32533 0.18312
#
# Static dielectric constant tensor:
#      x y z
#    x 3.969150 0.000000 0.000000 
#    y 0.000000 3.288810 0.000000 
#    z 0.000000 0.000000 3.822370 
# 
# 
# High freq. dielectric constant tensor:
#      x y z
#    x 1.807100 0.000000 0.000000 
#    y 0.000000 1.745640 0.000000 
#    z 0.000000 0.000000 1.798420 
# 
# From -- ./inp_files/25907.got.cif
#   From: 2010.03.12/outbox.cif.g09.slc.cpg/sg51_13_cif.got.tgz:25907.got - 2010.04.16 13:43:02.
