data_PCOD8207088
_publ_section_title
;
Structure prediction by ZEFSAII (Michael W. Deem and Ramdas Pophale) SiO2 
 PCOD8207088
Probable space group: P M M A
;
_chemical_formula_sum "Si O2"
_cell_formula_units_Z 64
_cell_length_a 8.871977
_cell_length_b 14.392043
_cell_length_c 31.163524
_cell_angle_alpha 90.000000
_cell_angle_beta 90.000000
_cell_angle_gamma 90.000000
_cell_volume 3979.141814
_symmetry_space_group_name_H-M "P M M A"
_symmetry_group_IT_number 51
_symmetry_cell_setting 'orthorhombic'
loop_
_space_group_symop_operation_xyz
x,y,z
1/2-x,-y,z
1/2+x,-y,-z
-x,y,-z
-x,-y,-z
1/2+x,y,-z
1/2-x,y,z
x,-y,z
loop_
_atom_site_type_symbol
_atom_site_label
_atom_site_fract_x
_atom_site_fract_y
_atom_site_fract_z
Si Si1 0.572432 0.606944 0.370706
Si Si2 0.080441 0.610547 0.457685
Si Si3 0.571386 0.100765 0.839205
Si Si4 0.570985 0.705060 0.870809
Si Si5 0.571230 0.293771 0.709288
Si Si6 0.572695 0.394181 0.956585
Si Si7 0.424008 0.390289 0.789907
Si Si8 0.571334 0.101163 0.742991
O O1 0.750000 0.618887 0.371333
O O2 0.525762 0.500000 0.363233
O O3 0.508140 0.644685 0.415663
O O4 0.504003 0.667649 0.333150
O O5 0.250000 0.649364 0.455833
O O6 0.079697 0.500000 0.459839
O O7 0.000000 0.651615 0.500000
O O8 0.750000 0.099073 0.837308
O O9 0.519072 0.186785 0.868705
O O10 0.507832 0.116447 0.791123
O O11 0.513461 0.000000 0.856901
O O12 0.750000 0.693354 0.864522
O O13 0.516605 0.667255 0.916701
O O14 0.488907 0.646842 0.834355
O O15 0.750000 0.303074 0.705541
O O16 0.518517 0.349965 0.750649
O O17 0.517192 0.186136 0.713238
O O18 0.750000 0.388007 0.961756
O O19 0.519452 0.500000 0.948739
O O20 0.500000 0.353888 0.000000
O O21 0.250000 0.361057 0.785024
O O22 0.443267 0.500000 0.789367
O O23 0.750000 0.102304 0.745290
O O24 0.515918 0.000000 0.725316
#
# Coordination Sequence:
#
# PCOD8207088 Si02
#       8
#     8   8   8   8   8   8   8   8
#     4  10  20  32  44  61  91 129 162 194 234 277
#     4   9  16  27  44  65  88 117 157 201 240 278
#     4   8  13  24  45  71  93 111 139 182 227 268
#     4  10  18  31  51  72  89 112 150 190 221 257
#     4  11  20  31  48  67  88 120 158 193 226 266
#     4   9  18  31  47  67  90 115 145 182 222 264
#     4  11  23  34  43  61  92 126 153 181 222 269
#     4   8  14  26  45  68  90 112 144 187 230 269
#
# _framework density 16.083870999999998
#
# number of rings (size 3 to 8) (size 9 to 14) (size 15 to 20)
#    0.000    2.500    1.250    3.000    0.000    5.750 
#    0.000    1.250    0.000    3.000    0.000    0.000 
#    0.000    0.500    0.000    1.375    0.000    2.000 
#
# Total GULP energy -793310.460546 kJ/mol
# GULP energy per Si atom -12395.475946 kJ/mol
# Density = 1.604726 g / cm^3
# Si number density = 16.083871 Si / 1000 Ang^3
#
#
#
# Elastic Constant Matrix: (Units=GPa)
#
#
# Indices 1 2 3 4 5 6 
#
# 1 43.0396 27.5620 32.9301 0.0000 0.0000 0.0000
# 2 27.5620 96.7260 62.4734 0.0000 0.0000 0.0000
# 3 32.9301 62.4734 133.1897 0.0000 0.0000 0.0000
# 4 0.0000 0.0000 0.0000 20.3098 0.0000 0.0000
# 5 0.0000 0.0000 0.0000 0.0000 27.7986 0.0000
# 6 0.0000 0.0000 0.0000 0.0000 0.0000 10.1921
#
#
#
# Elastic Compliance Matrix: (Units=1/GPa)
#
#
# Indices 1 2 3 4 5 6 
#
# 1 0.030562 -0.005492 -0.004980 0.000000 0.000000 0.000000
# 2 -0.005492 0.015819 -0.006062 0.000000 0.000000 0.000000
# 3 -0.004980 -0.006062 0.011583 0.000000 0.000000 0.000000
# 4 0.000000 0.000000 0.000000 0.049237 0.000000 0.000000
# 5 0.000000 0.000000 0.000000 0.000000 0.035973 0.000000
# 6 0.000000 0.000000 0.000000 0.000000 0.000000 0.098115
#
#
# Mechanical properties :
#
#
# Convention : Reuss Voigt Hill
#
# Bulk Modulus (GPa) = 40.16860 57.65404 48.91132
# Shear Modulus (GPa) = 17.68939 21.65943 19.67441
#
# Velocity S-wave (km/s) = 3.31995 3.67366 3.50128
# Velocity P-wave (km/s) = 6.30276 7.34289 6.84262
#
# Compressibility (1/GPa) = 0.02489507
#
# Stress axis : x y z
#
# Youngs Moduli (GPa) = 32.72062 63.21603 86.33484
#
# Poissons Ratio (x) = 0.34718 0.42996
# Poissons Ratio (y) = 0.17970 0.52336
# Poissons Ratio (z) = 0.16295 0.38322
#
# Static dielectric constant tensor:
#      x y z
#    x 2.963730 0.000000 0.000000 
#    y 0.000000 3.307080 0.000000 
#    z 0.000000 0.000000 3.155750 
# 
# 
# High freq. dielectric constant tensor:
#      x y z
#    x 1.606650 0.000000 0.000000 
#    y 0.000000 1.602980 0.000000 
#    z 0.000000 0.000000 1.608690 
# 
# From -- ./inp_files/37610.got.cif
#   From: 2010.03.12/outbox.cif.g09.slc.cpg/sg51_19_cif.got.tgz:37610.got - 2010.04.16 13:43:02.
