data_PCOD8207161
_publ_section_title
;
Structure prediction by ZEFSAII (Michael W. Deem and Ramdas Pophale) SiO2 
 PCOD8207161
Probable space group: P M M A
;
_chemical_formula_sum "Si O2"
_cell_formula_units_Z 48
_cell_length_a 31.057455
_cell_length_b 8.604414
_cell_length_c 9.139110
_cell_angle_alpha 90.000000
_cell_angle_beta 90.000000
_cell_angle_gamma 90.000000
_cell_volume 2442.255338
_symmetry_space_group_name_H-M "P M M A"
_symmetry_group_IT_number 51
_symmetry_cell_setting 'orthorhombic'
loop_
_space_group_symop_operation_xyz
x,y,z
1/2-x,-y,z
1/2+x,-y,-z
-x,y,-z
-x,-y,-z
1/2+x,y,-z
1/2-x,y,z
x,-y,z
loop_
_atom_site_type_symbol
_atom_site_label
_atom_site_fract_x
_atom_site_fract_y
_atom_site_fract_z
Si Si1 0.168146 0.815844 0.157940
Si Si2 0.671415 0.182527 0.172997
Si Si3 0.088514 0.181045 0.347901
Si Si4 0.497426 0.328720 0.326666
Si Si5 0.750000 0.815843 0.667709
Si Si6 0.250000 0.318869 0.652182
Si Si7 0.407808 0.317298 0.664993
O O1 0.123448 0.761298 0.230145
O O2 0.207839 0.747351 0.251690
O O3 0.170340 0.000000 0.156058
O O4 0.171015 0.753738 0.992653
O O5 0.707748 0.275093 0.258517
O O6 0.625265 0.215339 0.243327
O O7 0.681628 0.000000 0.180768
O O8 0.041025 0.213281 0.279755
O O9 0.096614 0.278160 0.494183
O O10 0.093328 0.000000 0.384473
O O11 0.500000 0.338354 0.500000
O O12 0.487321 0.500000 0.262788
O O13 0.544584 0.271779 0.273390
O O14 0.750000 0.770693 0.499711
O O15 0.750000 0.000000 0.678321
O O16 0.250000 0.500000 0.618907
O O17 0.398907 0.500000 0.685026
#
# Coordination Sequence:
#
# PCOD8207161 Si02
#       7
#     8   8   8   8   4   4   8
#     4   9  20  36  56  82 110 140 179 227 273 319
#     4  11  22  39  60  81 108 145 183 220 268 321
#     4  10  18  31  54  83 110 141 186 233 275 323
#     4   8  16  31  50  74 108 146 182 225 275 321
#     4  10  19  38  64  84 106 142 183 220 266 324
#     4  12  25  40  58  86 116 140 175 222 268 318
#     4  10  20  35  54  80 112 144 182 228 274 323
#
# _framework density 19.653964999999999
#
# number of rings (size 3 to 8) (size 9 to 14) (size 15 to 20)
#    0.000    2.167    0.000    4.750    0.000    6.333 
#    0.000    7.500    0.000    5.000    0.000    0.000 
#    0.000    0.000    0.000    0.000    0.000    0.000 
#
# Total GULP energy -595151.313976 kJ/mol
# GULP energy per Si atom -12398.985708 kJ/mol
# Density = 1.960923 g / cm^3
# Si number density = 19.653965 Si / 1000 Ang^3
#
#
#
# Elastic Constant Matrix: (Units=GPa)
#
#
# Indices 1 2 3 4 5 6 
#
# 1 155.1114 12.4205 54.0811 0.0000 0.0000 0.0000
# 2 12.4205 29.0647 -2.2745 0.0000 0.0000 0.0000
# 3 54.0811 -2.2745 97.1781 0.0000 0.0000 0.0000
# 4 0.0000 0.0000 0.0000 0.9017 0.0000 0.0000
# 5 0.0000 0.0000 0.0000 0.0000 -18.8905 0.0000
# 6 0.0000 0.0000 0.0000 0.0000 0.0000 30.6185
#
#
#
# Elastic Compliance Matrix: (Units=1/GPa)
#
#
# Indices 1 2 3 4 5 6 
#
# 1 0.008435 -0.003979 -0.004787 0.000000 0.000000 0.000000
# 2 -0.003979 0.036346 0.003065 0.000000 0.000000 0.000000
# 3 -0.004787 0.003065 0.013026 0.000000 0.000000 0.000000
# 4 0.000000 0.000000 0.000000 1.109020 0.000000 0.000000
# 5 0.000000 0.000000 0.000000 0.000000 -0.052937 0.000000
# 6 0.000000 0.000000 0.000000 0.000000 0.000000 0.032660
#
#
# Mechanical properties :
#
#
# Convention : Reuss Voigt Hill
#
# Bulk Modulus (GPa) = 21.54944 45.53426 33.54185
# Shear Modulus (GPa) = 4.26105 17.00110 10.63107
#
# Velocity S-wave (km/s) = 1.47402 2.94432 2.32828
# Velocity P-wave (km/s) = 3.72629 5.89720 4.93265
#
# Compressibility (1/GPa) = 0.04640493
#
# Stress axis : x y z
#
# Youngs Moduli (GPa) = 118.55794 27.51315 76.76806
#
# Poissons Ratio (x) = 0.10948 0.36750
# Poissons Ratio (y) = 0.47175 -0.23530
# Poissons Ratio (z) = 0.56756 -0.08433
#
# Static dielectric constant tensor:
#      x y z
#    x 4.102480 0.000000 0.000000 
#    y 0.000000 3.393780 0.000000 
#    z 0.000000 0.000000 3.465430 
# 
# 
# High freq. dielectric constant tensor:
#      x y z
#    x 1.788570 0.000000 0.000000 
#    y 0.000000 1.750010 0.000000 
#    z 0.000000 0.000000 1.744990 
# 
# From -- ./inp_files/12959.got.cif
#   From: 2010.03.12/outbox.cif.g09.slc.cpg/sg51_7_cif.got.tgz:12959.got - 2010.04.16 13:43:02.
