data_PCOD8207840
_publ_section_title
;
Structure prediction by ZEFSAII (Michael W. Deem and Ramdas Pophale) SiO2 
 PCOD8207840
Probable space group: P M M A
;
_chemical_formula_sum "Si O2"
_cell_formula_units_Z 64
_cell_length_a 8.847478
_cell_length_b 20.229508
_cell_length_c 20.305865
_cell_angle_alpha 90.000000
_cell_angle_beta 90.000000
_cell_angle_gamma 90.000000
_cell_volume 3634.346296
_symmetry_space_group_name_H-M "P M M A"
_symmetry_group_IT_number 51
_symmetry_cell_setting 'orthorhombic'
loop_
_space_group_symop_operation_xyz
x,y,z
1/2-x,-y,z
1/2+x,-y,-z
-x,y,-z
-x,-y,-z
1/2+x,y,-z
1/2-x,y,z
x,-y,z
loop_
_atom_site_type_symbol
_atom_site_label
_atom_site_fract_x
_atom_site_fract_y
_atom_site_fract_z
Si Si1 0.574962 0.926128 0.894646
Si Si2 0.579578 0.253098 0.203558
Si Si3 0.929065 0.206545 0.433663
Si Si4 0.070695 0.071375 0.619832
Si Si5 0.570003 0.314985 0.331839
Si Si6 0.070213 0.206186 0.933992
Si Si7 0.928453 0.424737 0.431218
Si Si8 0.921860 0.896478 0.236318
O O1 0.750000 0.907161 0.902975
O O2 0.475353 0.871187 0.931893
O O3 0.532430 0.926209 0.817970
O O4 0.543137 0.000000 0.923022
O O5 0.750000 0.276075 0.190725
O O6 0.505458 0.305445 0.256328
O O7 0.504546 0.245962 0.130358
O O8 0.573870 0.182669 0.239165
O O9 0.750000 0.208150 0.439818
O O10 0.994165 0.132166 0.422614
O O11 0.985021 0.252693 0.374464
O O12 0.000000 0.235245 0.500000
O O13 0.250000 0.077331 0.620143
O O14 0.015454 0.076487 0.694901
O O15 0.017541 0.000000 0.590987
O O16 0.750000 0.315334 0.327084
O O17 0.512791 0.381460 0.368815
O O18 0.250000 0.209926 0.935839
O O19 0.000000 0.238537 0.000000
O O20 0.750000 0.416907 0.439015
O O21 0.976885 0.500000 0.416596
O O22 0.000000 0.400029 0.500000
O O23 0.750000 0.919964 0.221889
#
# Coordination Sequence:
#
# PCOD8207840 Si02
#       8
#     8   8   8   8   8   8   8   8
#     4  10  20  31  43  62  88 114 141 176 222 275
#     4   8  14  26  46  68  84 106 142 180 217 261
#     4  10  19  30  44  60  81 110 144 183 225 267
#     4   9  16  26  42  60  76 100 139 184 226 273
#     4   9  15  27  47  67  89 116 150 188 218 255
#     4  10  20  33  50  67  87 113 143 179 223 273
#     4   9  17  28  44  68  98 131 160 187 221 259
#     4   9  15  27  46  64  79 100 139 184 227 272
#
# _framework density 17.609770000000001
#
# number of rings (size 3 to 8) (size 9 to 14) (size 15 to 20)
#    0.000    2.750    1.250    2.250    0.000    2.000 
#    0.000    0.625    0.000    4.500    0.000    0.000 
#    0.000    0.500    0.000    0.375    0.000    0.750 
#
# Total GULP energy -792861.586553 kJ/mol
# GULP energy per Si atom -12388.462290 kJ/mol
# Density = 1.756969 g / cm^3
# Si number density = 17.609770 Si / 1000 Ang^3
#
#
#
# Elastic Constant Matrix: (Units=GPa)
#
#
# Indices 1 2 3 4 5 6 
#
# 1 28.0162 12.5263 19.2234 0.0000 0.0000 0.0000
# 2 12.5263 78.3664 54.0962 0.0000 0.0000 0.0000
# 3 19.2234 54.0962 134.7307 0.0000 0.0000 0.0000
# 4 0.0000 0.0000 0.0000 17.7889 0.0000 0.0000
# 5 0.0000 0.0000 0.0000 0.0000 22.0432 0.0000
# 6 0.0000 0.0000 0.0000 0.0000 0.0000 9.4447
#
#
#
# Elastic Compliance Matrix: (Units=1/GPa)
#
#
# Indices 1 2 3 4 5 6 
#
# 1 0.040217 -0.003413 -0.004368 0.000000 0.000000 0.000000
# 2 -0.003413 0.017943 -0.006717 0.000000 0.000000 0.000000
# 3 -0.004368 -0.006717 0.010743 0.000000 0.000000 0.000000
# 4 0.000000 0.000000 0.000000 0.056215 0.000000 0.000000
# 5 0.000000 0.000000 0.000000 0.000000 0.045366 0.000000
# 6 0.000000 0.000000 0.000000 0.000000 0.000000 0.105880
#
#
# Mechanical properties :
#
#
# Convention : Reuss Voigt Hill
#
# Bulk Modulus (GPa) = 25.05917 45.86723 35.46320
# Shear Modulus (GPa) = 15.69063 20.20650 17.94857
#
# Velocity S-wave (km/s) = 2.98823 3.39109 3.19602
# Velocity P-wave (km/s) = 5.11539 6.43706 5.81390
#
# Compressibility (1/GPa) = 0.03990556
#
# Stress axis : x y z
#
# Youngs Moduli (GPa) = 24.86532 55.73136 93.08803
#
# Poissons Ratio (x) = 0.19023 0.40657
# Poissons Ratio (y) = 0.08488 0.62531
# Poissons Ratio (z) = 0.10860 0.37437
#
# Static dielectric constant tensor:
#      x y z
#    x 2.885850 0.000000 0.000000 
#    y 0.000000 3.241630 0.000000 
#    z 0.000000 0.000000 3.524860 
# 
# 
# High freq. dielectric constant tensor:
#      x y z
#    x 1.639150 0.000000 0.000000 
#    y 0.000000 1.646360 0.000000 
#    z 0.000000 0.000000 1.685870 
# 
# From -- ./inp_files/32642.got.cif
#   From: 2010.03.12/outbox.cif.g09.slc.cpg/sg51_17_cif.got.tgz:32642.got - 2010.04.16 13:43:02.
