data_PCOD8207604
_publ_section_title
;
Structure prediction by ZEFSAII (Michael W. Deem and Ramdas Pophale) SiO2 
 PCOD8207604
Probable space group: P M M A
;
_chemical_formula_sum "Si O2"
_cell_formula_units_Z 56
_cell_length_a 9.455622
_cell_length_b 17.904204
_cell_length_c 22.636272
_cell_angle_alpha 90.000000
_cell_angle_beta 90.000000
_cell_angle_gamma 90.000000
_cell_volume 3832.216389
_symmetry_space_group_name_H-M "P M M A"
_symmetry_group_IT_number 51
_symmetry_cell_setting 'orthorhombic'
loop_
_space_group_symop_operation_xyz
x,y,z
1/2-x,-y,z
1/2+x,-y,-z
-x,y,-z
-x,-y,-z
1/2+x,y,-z
1/2-x,y,z
x,-y,z
loop_
_atom_site_type_symbol
_atom_site_label
_atom_site_fract_x
_atom_site_fract_y
_atom_site_fract_z
Si Si1 0.093794 0.797799 0.653813
Si Si2 0.905077 0.683012 0.450531
Si Si3 0.409854 0.588159 0.945555
Si Si4 0.415272 0.913405 0.558732
Si Si5 0.416284 0.413816 0.170390
Si Si6 0.907606 0.582624 0.616188
Si Si7 0.590454 0.693470 0.724365
O O1 0.250000 0.817242 0.678840
O O2 0.105948 0.731996 0.607201
O O3 0.030950 0.868865 0.617308
O O4 0.998932 0.768833 0.708982
O O5 0.750000 0.666089 0.476146
O O6 0.000000 0.724878 0.500000
O O7 0.983515 0.605590 0.434988
O O8 0.250000 0.621612 0.944651
O O9 0.399846 0.500000 0.953119
O O10 0.492292 0.609120 0.886108
O O11 0.500000 0.622276 0.000000
O O12 0.500000 0.888883 0.500000
O O13 0.250000 0.894756 0.547504
O O14 0.440948 0.000000 0.572306
O O15 0.250000 0.405733 0.156148
O O16 0.447893 0.500000 0.189751
O O17 0.465329 0.353888 0.219666
O O18 0.750000 0.585906 0.589512
O O19 0.945790 0.500000 0.638541
O O20 0.919380 0.636822 0.671016
O O21 0.750000 0.720798 0.735457
#
# Coordination Sequence:
#
# PCOD8207604 Si02
#       7
#     8   8   8   8   8   8   8
#     4   9  18  30  42  57  77  98 119 147 183 223
#     4  10  19  29  40  53  68  87 112 142 179 222
#     4   9  16  25  37  54  76 102 132 166 204 241
#     4   9  17  29  45  64  83 101 122 150 186 229
#     4   9  16  26  40  57  77 101 131 168 204 235
#     4   9  17  29  42  53  66  86 114 149 186 222
#     4   9  17  28  42  58  74  96 126 156 188 226
#
# _framework density 14.612954
#
# number of rings (size 3 to 8) (size 9 to 14) (size 15 to 20)
#    0.000    2.857    0.000    1.714    0.000    5.714 
#    0.000    0.000    0.000    2.571    0.000    0.000 
#    0.000    0.000    0.000    0.000    0.000    0.714 
#
# Total GULP energy -693864.841565 kJ/mol
# GULP energy per Si atom -12390.443599 kJ/mol
# Density = 1.457969 g / cm^3
# Si number density = 14.612954 Si / 1000 Ang^3
#
#
#
# Elastic Constant Matrix: (Units=GPa)
#
#
# Indices 1 2 3 4 5 6 
#
# 1 85.8571 26.8377 44.5574 0.0000 0.0000 0.0000
# 2 26.8377 57.3743 27.4995 0.0000 0.0000 0.0000
# 3 44.5574 27.4995 75.3105 0.0000 0.0000 0.0000
# 4 0.0000 0.0000 0.0000 -41.0556 0.0000 0.0000
# 5 0.0000 0.0000 0.0000 0.0000 24.2420 0.0000
# 6 0.0000 0.0000 0.0000 0.0000 0.0000 14.9057
#
#
#
# Elastic Compliance Matrix: (Units=1/GPa)
#
#
# Indices 1 2 3 4 5 6 
#
# 1 0.017502 -0.003908 -0.008928 0.000000 0.000000 0.000000
# 2 -0.003908 0.021999 -0.005721 0.000000 0.000000 0.000000
# 3 -0.008928 -0.005721 0.020650 0.000000 0.000000 0.000000
# 4 0.000000 0.000000 0.000000 -0.024357 0.000000 0.000000
# 5 0.000000 0.000000 0.000000 0.000000 0.041251 0.000000
# 6 0.000000 0.000000 0.000000 0.000000 0.000000 0.067089
#
#
# Mechanical properties :
#
#
# Convention : Reuss Voigt Hill
#
# Bulk Modulus (GPa) = 43.40770 46.25902 44.83336
# Shear Modulus (GPa) = 26.46528 7.59492 17.03010
#
# Velocity S-wave (km/s) = 4.26030 2.28225 3.41752
# Velocity P-wave (km/s) = 7.34640 6.21850 6.80586
#
# Compressibility (1/GPa) = 0.02303739
#
# Stress axis : x y z
#
# Youngs Moduli (GPa) = 57.13544 45.45584 48.42646
#
# Poissons Ratio (x) = 0.17762 0.43237
# Poissons Ratio (y) = 0.22326 0.27705
# Poissons Ratio (z) = 0.51012 0.26006
#
# Static dielectric constant tensor:
#      x y z
#    x 3.200200 0.000000 0.000000 
#    y 0.000000 2.681350 0.000000 
#    z 0.000000 0.000000 2.750470 
# 
# 
# High freq. dielectric constant tensor:
#      x y z
#    x 1.568120 0.000000 0.000000 
#    y 0.000000 1.519250 0.000000 
#    z 0.000000 0.000000 1.534640 
# 
# From -- ./inp_files/32231.got.cif
#   From: 2010.03.12/outbox.cif.g09.slc.cpg/sg51_17_cif.got.tgz:32231.got - 2010.04.16 13:43:02.
