data_PCOD8207262
_publ_section_title
;
Structure prediction by ZEFSAII (Michael W. Deem and Ramdas Pophale) SiO2 
 PCOD8207262
Probable space group: P M M A
;
_chemical_formula_sum "Si O2"
_cell_formula_units_Z 40
_cell_length_a 14.161692
_cell_length_b 12.974835
_cell_length_c 11.772558
_cell_angle_alpha 90.000000
_cell_angle_beta 90.000000
_cell_angle_gamma 90.000000
_cell_volume 2163.155934
_symmetry_space_group_name_H-M "P M M A"
_symmetry_group_IT_number 51
_symmetry_cell_setting 'orthorhombic'
loop_
_space_group_symop_operation_xyz
x,y,z
1/2-x,-y,z
1/2+x,-y,-z
-x,y,-z
-x,-y,-z
1/2+x,y,-z
1/2-x,y,z
x,-y,z
loop_
_atom_site_type_symbol
_atom_site_label
_atom_site_fract_x
_atom_site_fract_y
_atom_site_fract_z
Si Si1 0.145196 0.176120 0.515313
Si Si2 0.585057 0.612487 0.413296
Si Si3 0.985538 0.692517 0.178360
Si Si4 0.512797 0.883722 0.681350
Si Si5 0.858689 0.379655 0.981822
O O1 0.250000 0.128477 0.513081
O O2 0.155431 0.296366 0.550930
O O3 0.098813 0.163476 0.391603
O O4 0.082641 0.115366 0.606826
O O5 0.500000 0.617073 0.500000
O O6 0.635282 0.500000 0.418035
O O7 0.543921 0.628247 0.288012
O O8 0.999585 0.813280 0.207597
O O9 0.083958 0.646422 0.132351
O O10 0.902402 0.684731 0.085758
O O11 0.535581 0.000000 0.719988
O O12 0.750000 0.347586 0.964528
O O13 0.868909 0.500000 0.010205
#
# Coordination Sequence:
#
# PCOD8207262 Si02
#       5
#     8   8   8   8   8
#     4  10  19  34  53  78 111 148 186 222 262 321
#     4  10  18  32  53  81 117 150 174 209 267 331
#     4  10  19  37  57  79 108 144 180 229 265 316
#     4  10  21  37  54  77 106 143 186 228 275 320
#     4  10  21  37  59  83 107 141 182 221 266 321
#
# _framework density 18.491501
#
# number of rings (size 3 to 8) (size 9 to 14) (size 15 to 20)
#    0.000    2.000    4.000    3.600    0.000    6.000 
#    0.000    2.000    0.000    1.200    0.000    0.000 
#    0.000    0.000    0.000    0.000    0.000    0.000 
#
# Total GULP energy -495902.215921 kJ/mol
# GULP energy per Si atom -12397.555398 kJ/mol
# Density = 1.844941 g / cm^3
# Si number density = 18.491501 Si / 1000 Ang^3
#
#
#
# Elastic Constant Matrix: (Units=GPa)
#
#
# Indices 1 2 3 4 5 6 
#
# 1 134.8044 21.6262 30.2435 0.0000 0.0000 0.0000
# 2 21.6262 121.3672 31.5778 0.0000 0.0000 0.0000
# 3 30.2435 31.5778 65.1263 0.0000 0.0000 0.0000
# 4 0.0000 0.0000 0.0000 20.3323 0.0000 0.0000
# 5 0.0000 0.0000 0.0000 0.0000 8.6726 0.0000
# 6 0.0000 0.0000 0.0000 0.0000 0.0000 8.1628
#
#
#
# Elastic Compliance Matrix: (Units=1/GPa)
#
#
# Indices 1 2 3 4 5 6 
#
# 1 0.008312 -0.000546 -0.003596 0.000000 0.000000 0.000000
# 2 -0.000546 0.009465 -0.004336 0.000000 0.000000 0.000000
# 3 -0.003596 -0.004336 0.019127 0.000000 0.000000 0.000000
# 4 0.000000 0.000000 0.000000 0.049183 0.000000 0.000000
# 5 0.000000 0.000000 0.000000 0.000000 0.115306 0.000000
# 6 0.000000 0.000000 0.000000 0.000000 0.000000 0.122506
#
#
# Mechanical properties :
#
#
# Convention : Reuss Voigt Hill
#
# Bulk Modulus (GPa) = 50.12548 54.24367 52.18458
# Shear Modulus (GPa) = 14.38838 23.29026 18.83932
#
# Velocity S-wave (km/s) = 2.79248 3.55281 3.19534
# Velocity P-wave (km/s) = 6.12890 6.79912 6.47269
#
# Compressibility (1/GPa) = 0.01994993
#
# Stress axis : x y z
#
# Youngs Moduli (GPa) = 120.30285 105.65474 52.28273
#
# Poissons Ratio (x) = 0.05765 0.18798
# Poissons Ratio (y) = 0.06565 0.22669
# Poissons Ratio (z) = 0.43255 0.45810
#
# Static dielectric constant tensor:
#      x y z
#    x 3.256660 0.000000 0.000000 
#    y 0.000000 3.650640 0.000000 
#    z 0.000000 0.000000 3.472450 
# 
# 
# High freq. dielectric constant tensor:
#      x y z
#    x 1.707830 0.000000 0.000000 
#    y 0.000000 1.719060 0.000000 
#    z 0.000000 0.000000 1.705410 
# 
# From -- ./inp_files/16298.got.cif
#   From: 2010.03.12/outbox.cif.g09.slc.cpg/sg51_9_cif.got.tgz:16298.got - 2010.04.16 13:43:02.
