data_PCOD8207973
_publ_section_title
;
Structure prediction by ZEFSAII (Michael W. Deem and Ramdas Pophale) SiO2 
 PCOD8207973
Probable space group: P M M A
;
_chemical_formula_sum "Si O2"
_cell_formula_units_Z 52
_cell_length_a 8.820641
_cell_length_b 18.328140
_cell_length_c 18.412288
_cell_angle_alpha 90.000000
_cell_angle_beta 90.000000
_cell_angle_gamma 90.000000
_cell_volume 2976.639905
_symmetry_space_group_name_H-M "P M M A"
_symmetry_group_IT_number 51
_symmetry_cell_setting 'orthorhombic'
loop_
_space_group_symop_operation_xyz
x,y,z
1/2-x,-y,z
1/2+x,-y,-z
-x,y,-z
-x,-y,-z
1/2+x,y,-z
1/2-x,y,z
x,-y,z
loop_
_atom_site_type_symbol
_atom_site_label
_atom_site_fract_x
_atom_site_fract_y
_atom_site_fract_z
Si Si1 0.571011 0.079067 0.849647
Si Si2 0.573972 0.281703 0.212422
Si Si3 0.926533 0.500000 0.578660
Si Si4 0.568441 0.772331 0.922095
Si Si5 0.922747 0.364807 0.349778
Si Si6 0.426625 0.787932 0.577094
Si Si7 0.574130 0.849265 0.707447
O O1 0.750000 0.080283 0.858462
O O2 0.508888 0.146881 0.897243
O O3 0.530135 0.086299 0.763739
O O4 0.506191 0.000000 0.876198
O O5 0.750000 0.256087 0.210723
O O6 0.505760 0.289171 0.131173
O O7 0.561190 0.354579 0.262124
O O8 0.465151 0.223919 0.250040
O O9 0.750000 0.500000 0.565775
O O10 0.000000 0.500000 0.500000
O O11 0.969811 0.429113 0.624560
O O12 0.750000 0.765889 0.922075
O O13 0.500000 0.755363 0.000000
O O14 0.750000 0.384834 0.369828
O O15 0.972175 0.291125 0.391446
O O16 0.500000 0.801153 0.500000
O O17 0.250000 0.795575 0.568147
O O18 0.481915 0.851687 0.632051
O O19 0.750000 0.850451 0.687429
#
# Coordination Sequence:
#
# PCOD8207973 Si02
#       7
#     8   8   4   8   8   8   8
#     4   8  15  28  45  65  90 122 157 189 227 278
#     4   9  17  31  50  69  91 121 157 196 234 274
#     4  12  24  34  48  70 101 136 165 196 230 270
#     4  10  19  30  47  71  99 127 155 193 236 278
#     4   9  19  34  50  68  93 125 158 192 230 275
#     4  10  19  30  46  67  90 117 151 194 239 280
#     4   9  16  27  45  66  88 116 150 191 235 279
#
# _framework density 17.469360999999999
#
# number of rings (size 3 to 8) (size 9 to 14) (size 15 to 20)
#    0.000    2.615    0.000    4.846    0.000    5.231 
#    0.000    0.000    0.000   16.615    0.000    0.538 
#    0.000    0.000    0.000    0.000    0.000    0.000 
#
# Total GULP energy -644297.332448 kJ/mol
# GULP energy per Si atom -12390.333316 kJ/mol
# Density = 1.742960 g / cm^3
# Si number density = 17.469361 Si / 1000 Ang^3
#
#
#
# Elastic Constant Matrix: (Units=GPa)
#
#
# Indices 1 2 3 4 5 6 
#
# 1 57.0587 18.6299 34.1945 0.0000 0.0000 0.0000
# 2 18.6299 35.5986 22.9636 0.0000 0.0000 0.0000
# 3 34.1945 22.9636 136.3473 0.0000 0.0000 0.0000
# 4 0.0000 0.0000 0.0000 20.2835 0.0000 0.0000
# 5 0.0000 0.0000 0.0000 0.0000 32.4129 0.0000
# 6 0.0000 0.0000 0.0000 0.0000 0.0000 15.7944
#
#
#
# Elastic Compliance Matrix: (Units=1/GPa)
#
#
# Indices 1 2 3 4 5 6 
#
# 1 0.023115 -0.009376 -0.004218 0.000000 0.000000 0.000000
# 2 -0.009376 0.035318 -0.003597 0.000000 0.000000 0.000000
# 3 -0.004218 -0.003597 0.008998 0.000000 0.000000 0.000000
# 4 0.000000 0.000000 0.000000 0.049301 0.000000 0.000000
# 5 0.000000 0.000000 0.000000 0.000000 0.030852 0.000000
# 6 0.000000 0.000000 0.000000 0.000000 0.000000 0.063314
#
#
# Mechanical properties :
#
#
# Convention : Reuss Voigt Hill
#
# Bulk Modulus (GPa) = 30.25786 42.28673 36.27230
# Shear Modulus (GPa) = 19.50877 23.91260 21.71068
#
# Velocity S-wave (km/s) = 3.34539 3.70378 3.52914
# Velocity P-wave (km/s) = 5.68158 6.52300 6.11677
#
# Compressibility (1/GPa) = 0.03304926
#
# Stress axis : x y z
#
# Youngs Moduli (GPa) = 43.26228 28.31424 111.13840
#
# Poissons Ratio (x) = 0.26547 0.46877
# Poissons Ratio (y) = 0.40562 0.39975
# Poissons Ratio (z) = 0.18248 0.10184
#
# Static dielectric constant tensor:
#      x y z
#    x 3.256830 0.000000 0.000000 
#    y 0.000000 3.156350 0.000000 
#    z 0.000000 0.000000 3.532210 
# 
# 
# High freq. dielectric constant tensor:
#      x y z
#    x 1.676170 0.000000 0.000000 
#    y 0.000000 1.629310 0.000000 
#    z 0.000000 0.000000 1.681330 
# 
# From -- ./inp_files/27910.got.cif
#   From: 2010.03.12/outbox.cif.g09.slc.cpg/sg51_14_cif.got.tgz:27910.got - 2010.04.16 13:43:02.
