data_PCOD8207874
_publ_section_title
;
Structure prediction by ZEFSAII (Michael W. Deem and Ramdas Pophale) SiO2 
 PCOD8207874
Probable space group: P M M A
;
_chemical_formula_sum "Si O2"
_cell_formula_units_Z 64
_cell_length_a 20.428506
_cell_length_b 9.417729
_cell_length_c 20.521951
_cell_angle_alpha 90.000000
_cell_angle_beta 90.000000
_cell_angle_gamma 90.000000
_cell_volume 3948.220890
_symmetry_space_group_name_H-M "P M M A"
_symmetry_group_IT_number 51
_symmetry_cell_setting 'orthorhombic'
loop_
_space_group_symop_operation_xyz
x,y,z
1/2-x,-y,z
1/2+x,-y,-z
-x,y,-z
-x,-y,-z
1/2+x,y,-z
1/2-x,y,z
x,-y,z
loop_
_atom_site_type_symbol
_atom_site_label
_atom_site_fract_x
_atom_site_fract_y
_atom_site_fract_z
Si Si1 0.009140 0.342464 0.832798
Si Si2 0.048531 0.336740 0.445442
Si Si3 0.677142 0.839443 0.969368
Si Si4 0.970961 0.339725 0.698360
Si Si5 0.145896 0.337128 0.155235
Si Si6 0.946015 0.165542 0.051049
Si Si7 0.678267 0.163284 0.581034
Si Si8 0.849095 0.162729 0.725292
O O1 0.028562 0.500000 0.855889
O O2 0.048271 0.234410 0.877828
O O3 0.026616 0.322557 0.754996
O O4 0.931841 0.317580 0.840871
O O5 0.064633 0.500000 0.461337
O O6 0.008009 0.323440 0.377106
O O7 0.118795 0.258192 0.446174
O O8 0.000000 0.272094 0.500000
O O9 0.750000 0.829654 0.999410
O O10 0.672294 0.732619 0.909952
O O11 0.661636 0.000000 0.945300
O O12 0.625976 0.796249 0.025256
O O13 0.940039 0.500000 0.707776
O O14 0.922259 0.211758 0.711049
O O15 0.167753 0.500000 0.155802
O O16 0.180368 0.258363 0.216464
O O17 0.957580 0.000000 0.061083
O O18 0.000000 0.225739 0.000000
O O19 0.750000 0.202517 0.549944
O O20 0.689751 0.184343 0.658315
O O21 0.660240 0.000000 0.565741
O O22 0.848252 0.000000 0.748529
#
# Coordination Sequence:
#
# PCOD8207874 Si02
#       8
#     8   8   8   8   8   8   8   8
#     4   9  17  28  45  67  90 117 146 184 226 265
#     4   9  17  30  49  72  98 127 157 192 232 276
#     4  10  21  35  47  61  85 115 145 183 233 280
#     4   8  15  28  43  65  95 121 149 185 228 272
#     4  10  19  30  44  64  90 119 152 186 222 263
#     4  10  19  31  48  68  86 109 148 192 228 266
#     4   9  18  31  45  64  92 126 162 196 228 267
#     4   9  16  26  42  62  87 121 158 190 221 259
#
# _framework density 16.209833
#
# number of rings (size 3 to 8) (size 9 to 14) (size 15 to 20)
#    0.000    2.750    1.250    1.500    0.000    4.500 
#    0.000    1.250    0.000    0.000    0.000    0.875 
#    0.000    5.000    0.000    0.000    0.000    0.000 
#
# Total GULP energy -792844.671181 kJ/mol
# GULP energy per Si atom -12388.197987 kJ/mol
# Density = 1.617294 g / cm^3
# Si number density = 16.209833 Si / 1000 Ang^3
#
#
#
# Elastic Constant Matrix: (Units=GPa)
#
#
# Indices 1 2 3 4 5 6 
#
# 1 79.9159 41.4957 51.7919 0.0000 0.0000 0.0000
# 2 41.4957 75.7922 42.3242 0.0000 0.0000 0.0000
# 3 51.7919 42.3242 100.7133 0.0000 0.0000 0.0000
# 4 0.0000 0.0000 0.0000 24.5603 0.0000 0.0000
# 5 0.0000 0.0000 0.0000 0.0000 10.6138 0.0000
# 6 0.0000 0.0000 0.0000 0.0000 0.0000 14.3871
#
#
#
# Elastic Compliance Matrix: (Units=1/GPa)
#
#
# Indices 1 2 3 4 5 6 
#
# 1 0.021473 -0.007304 -0.007973 0.000000 0.000000 0.000000
# 2 -0.007304 0.019724 -0.004533 0.000000 0.000000 0.000000
# 3 -0.007973 -0.004533 0.015934 0.000000 0.000000 0.000000
# 4 0.000000 0.000000 0.000000 0.040716 0.000000 0.000000
# 5 0.000000 0.000000 0.000000 0.000000 0.094217 0.000000
# 6 0.000000 0.000000 0.000000 0.000000 0.000000 0.069507
#
#
# Mechanical properties :
#
#
# Convention : Reuss Voigt Hill
#
# Bulk Modulus (GPa) = 57.10522 58.62721 57.86622
# Shear Modulus (GPa) = 16.28520 17.96621 17.12570
#
# Velocity S-wave (km/s) = 3.17306 3.33280 3.25391
# Velocity P-wave (km/s) = 6.98066 7.14537 7.06350
#
# Compressibility (1/GPa) = 0.01751153
#
# Stress axis : x y z
#
# Youngs Moduli (GPa) = 46.57057 50.69944 62.75804
#
# Poissons Ratio (x) = 0.37030 0.50037
# Poissons Ratio (y) = 0.34015 0.28448
# Poissons Ratio (z) = 0.37131 0.22981
#
# Static dielectric constant tensor:
#      x y z
#    x 2.917240 0.000000 0.000000 
#    y 0.000000 3.121770 0.000000 
#    z 0.000000 0.000000 3.181610 
# 
# 
# High freq. dielectric constant tensor:
#      x y z
#    x 1.585970 0.000000 0.000000 
#    y 0.000000 1.630140 0.000000 
#    z 0.000000 0.000000 1.610390 
# 
# From -- ./inp_files/34078.got.cif
#   From: 2010.03.12/outbox.cif.g09.slc.cpg/sg51_18_cif.got.tgz:34078.got - 2010.04.16 13:43:02.
