data_PCOD8207986
_publ_section_title
;
Structure prediction by ZEFSAII (Michael W. Deem and Ramdas Pophale) SiO2 
 PCOD8207986
Probable space group: P M M A
;
_chemical_formula_sum "Si O2"
_cell_formula_units_Z 64
_cell_length_a 28.407527
_cell_length_b 9.040423
_cell_length_c 15.453230
_cell_angle_alpha 90.000000
_cell_angle_beta 90.000000
_cell_angle_gamma 90.000000
_cell_volume 3968.637650
_symmetry_space_group_name_H-M "P M M A"
_symmetry_group_IT_number 51
_symmetry_cell_setting 'orthorhombic'
loop_
_space_group_symop_operation_xyz
x,y,z
1/2-x,-y,z
1/2+x,-y,-z
-x,y,-z
-x,-y,-z
1/2+x,y,-z
1/2-x,y,z
x,-y,z
loop_
_atom_site_type_symbol
_atom_site_label
_atom_site_fract_x
_atom_site_fract_y
_atom_site_fract_z
Si Si1 0.445148 0.328993 0.485614
Si Si2 0.107374 0.674485 0.658639
Si Si3 0.440373 0.673591 0.167650
Si Si4 0.396186 0.824271 0.329626
Si Si5 0.549609 0.327028 0.175405
Si Si6 0.197040 0.826944 0.607537
Si Si7 0.444136 0.166593 0.995551
Si Si8 0.198898 0.175310 0.412445
O O1 0.500000 0.305941 0.500000
O O2 0.433624 0.500000 0.465231
O O3 0.417685 0.272523 0.570502
O O4 0.430899 0.229819 0.404531
O O5 0.111857 0.500000 0.660653
O O6 0.076111 0.729348 0.739100
O O7 0.159311 0.743702 0.667438
O O8 0.430665 0.500000 0.167881
O O9 0.408756 0.750900 0.239355
O O10 0.494699 0.710193 0.187468
O O11 0.424112 0.738992 0.075504
O O12 0.343038 0.769846 0.350975
O O13 0.400067 0.000000 0.322010
O O14 0.556820 0.500000 0.158446
O O15 0.571984 0.241184 0.094069
O O16 0.250000 0.792863 0.640750
O O17 0.190959 0.765710 0.509829
O O18 0.186419 0.000000 0.612111
O O19 0.424204 0.000000 0.000136
O O20 0.500000 0.167550 0.000000
O O21 0.250000 0.231647 0.377716
O O22 0.199289 0.000000 0.417383
#
# Coordination Sequence:
#
# PCOD8207986 Si02
#       8
#     8   8   8   8   8   8   8   8
#     4  10  20  33  45  60  91 132 164 188 222 273
#     4  10  19  30  46  68  93 122 159 197 229 271
#     4  10  19  32  49  67  95 131 160 187 227 282
#     4  11  20  30  47  70  93 120 158 200 235 272
#     4   9  18  32  48  67  93 129 162 187 228 282
#     4   9  17  31  49  66  88 120 156 194 239 286
#     4   9  17  30  48  71  95 118 153 201 238 265
#     4   8  15  29  47  65  88 119 153 192 239 284
#
# _framework density 16.126441
#
# number of rings (size 3 to 8) (size 9 to 14) (size 15 to 20)
#    0.000    2.500    1.250    2.625    0.000    5.000 
#    0.000    1.250    0.000    1.500    0.000    0.875 
#    0.000    5.000    0.000    0.000    0.000    0.000 
#
# Total GULP energy -793534.592498 kJ/mol
# GULP energy per Si atom -12398.978008 kJ/mol
# Density = 1.608974 g / cm^3
# Si number density = 16.126441 Si / 1000 Ang^3
#
#
#
# Elastic Constant Matrix: (Units=GPa)
#
#
# Indices 1 2 3 4 5 6 
#
# 1 78.4323 25.9441 32.4030 0.0000 0.0000 0.0000
# 2 25.9441 50.5825 31.3875 0.0000 0.0000 0.0000
# 3 32.4030 31.3875 84.3713 0.0000 0.0000 0.0000
# 4 0.0000 0.0000 0.0000 28.8397 0.0000 0.0000
# 5 0.0000 0.0000 0.0000 0.0000 14.3328 0.0000
# 6 0.0000 0.0000 0.0000 0.0000 0.0000 21.2989
#
#
#
# Elastic Compliance Matrix: (Units=1/GPa)
#
#
# Indices 1 2 3 4 5 6 
#
# 1 0.016386 -0.005850 -0.004117 0.000000 0.000000 0.000000
# 2 -0.005850 0.027792 -0.008092 0.000000 0.000000 0.000000
# 3 -0.004117 -0.008092 0.016444 0.000000 0.000000 0.000000
# 4 0.000000 0.000000 0.000000 0.034674 0.000000 0.000000
# 5 0.000000 0.000000 0.000000 0.000000 0.069770 0.000000
# 6 0.000000 0.000000 0.000000 0.000000 0.000000 0.046951
#
#
# Mechanical properties :
#
#
# Convention : Reuss Voigt Hill
#
# Bulk Modulus (GPa) = 40.81060 43.65060 42.23060
# Shear Modulus (GPa) = 19.50827 21.13772 20.32300
#
# Velocity S-wave (km/s) = 3.48186 3.62435 3.55382
# Velocity P-wave (km/s) = 6.44407 6.68140 6.56381
#
# Compressibility (1/GPa) = 0.02450344
#
# Stress axis : x y z
#
# Youngs Moduli (GPa) = 61.02916 35.98216 60.81288
#
# Poissons Ratio (x) = 0.21049 0.25035
# Poissons Ratio (y) = 0.35701 0.49212
# Poissons Ratio (z) = 0.25124 0.29118
#
# Static dielectric constant tensor:
#      x y z
#    x 3.115500 0.000000 0.000000 
#    y 0.000000 2.989430 0.000000 
#    z 0.000000 0.000000 3.073550 
# 
# 
# High freq. dielectric constant tensor:
#      x y z
#    x 1.601450 0.000000 0.000000 
#    y 0.000000 1.615830 0.000000 
#    z 0.000000 0.000000 1.609890 
# 
# From -- ./inp_files/26716.got.cif
#   From: 2010.03.12/outbox.cif.g09.slc.cpg/sg51_14_cif.got.tgz:26716.got - 2010.04.16 13:43:02.
