data_PCOD8207230
_publ_section_title
;
Structure prediction by ZEFSAII (Michael W. Deem and Ramdas Pophale) SiO2 
 PCOD8207230
Probable space group: P M M A
;
_chemical_formula_sum "Si O2"
_cell_formula_units_Z 36
_cell_length_a 8.595239
_cell_length_b 15.004794
_cell_length_c 14.552471
_cell_angle_alpha 90.000000
_cell_angle_beta 90.000000
_cell_angle_gamma 90.000000
_cell_volume 1876.829137
_symmetry_space_group_name_H-M "P M M A"
_symmetry_group_IT_number 51
_symmetry_cell_setting 'orthorhombic'
loop_
_space_group_symop_operation_xyz
x,y,z
1/2-x,-y,z
1/2+x,-y,-z
-x,y,-z
-x,-y,-z
1/2+x,y,-z
1/2-x,y,z
x,-y,z
loop_
_atom_site_type_symbol
_atom_site_label
_atom_site_fract_x
_atom_site_fract_y
_atom_site_fract_z
Si Si1 0.065267 0.000000 0.101885
Si Si2 0.066807 0.182006 0.899283
Si Si3 0.567226 0.252773 0.726799
Si Si4 0.430692 0.603675 0.597675
Si Si5 0.067037 0.102198 0.599269
O O1 0.999041 0.909737 0.146383
O O2 0.250000 0.000000 0.104432
O O3 0.000000 0.000000 0.000000
O O4 0.250000 0.176138 0.907950
O O5 0.013979 0.257334 0.827246
O O6 0.000000 0.202796 0.000000
O O7 0.750000 0.249479 0.740513
O O8 0.519798 0.342979 0.676001
O O9 0.512675 0.165497 0.672780
O O10 0.500000 0.632264 0.500000
O O11 0.250000 0.629016 0.598606
O O12 0.459286 0.500000 0.617002
O O13 0.250000 0.120001 0.598720
O O14 0.000000 0.126623 0.500000
O O15 0.027496 0.000000 0.625011
#
# Coordination Sequence:
#
# PCOD8207230 Si02
#       5
#     4   8   8   8   8
#     4  10  18  32  52  76 105 142 187 234 284 332
#     4  11  22  38  57  80 112 149 193 241 290 339
#     4  12  24  37  57  84 115 151 192 236 285 343
#     4  10  21  39  63  90 119 150 187 234 288 345
#     4  10  21  37  55  77 110 150 192 234 281 336
#
# _framework density 19.181287000000001
#
# number of rings (size 3 to 8) (size 9 to 14) (size 15 to 20)
#    0.000    1.333    0.000    8.333    1.556    2.667 
#    0.000    0.000    0.000    0.667    0.000    0.000 
#    0.000    0.000    0.000    0.000    0.000    0.000 
#
# Total GULP energy -446489.462159 kJ/mol
# GULP energy per Si atom -12402.485060 kJ/mol
# Density = 1.913763 g / cm^3
# Si number density = 19.181287 Si / 1000 Ang^3
#
#
#
# Elastic Constant Matrix: (Units=GPa)
#
#
# Indices 1 2 3 4 5 6 
#
# 1 168.1023 36.0194 54.0780 0.0000 0.0000 0.0000
# 2 36.0194 68.9594 51.7354 0.0000 0.0000 0.0000
# 3 54.0780 51.7354 120.7219 0.0000 0.0000 0.0000
# 4 0.0000 0.0000 0.0000 166.7916 0.0000 0.0000
# 5 0.0000 0.0000 0.0000 0.0000 36.0401 0.0000
# 6 0.0000 0.0000 0.0000 0.0000 0.0000 29.0758
#
#
#
# Elastic Compliance Matrix: (Units=1/GPa)
#
#
# Indices 1 2 3 4 5 6 
#
# 1 0.007125 -0.001956 -0.002353 0.000000 0.000000 0.000000
# 2 -0.001956 0.021910 -0.008513 0.000000 0.000000 0.000000
# 3 -0.002353 -0.008513 0.012986 0.000000 0.000000 0.000000
# 4 0.000000 0.000000 0.000000 0.005996 0.000000 0.000000
# 5 0.000000 0.000000 0.000000 0.000000 0.027747 0.000000
# 6 0.000000 0.000000 0.000000 0.000000 0.000000 0.034393
#
#
# Mechanical properties :
#
#
# Convention : Reuss Voigt Hill
#
# Bulk Modulus (GPa) = 61.06660 71.27214 66.16937
# Shear Modulus (GPa) = 35.39570 60.77821 48.08695
#
# Velocity S-wave (km/s) = 4.30038 5.63516 5.01240
# Velocity P-wave (km/s) = 7.52086 8.92064 8.25049
#
# Compressibility (1/GPa) = 0.01637556
#
# Stress axis : x y z
#
# Youngs Moduli (GPa) = 140.35172 45.64153 77.00529
#
# Poissons Ratio (x) = 0.08927 0.18123
# Poissons Ratio (y) = 0.27452 0.65557
# Poissons Ratio (z) = 0.33031 0.38856
#
# Static dielectric constant tensor:
#      x y z
#    x 3.580810 0.000000 0.000000 
#    y 0.000000 3.702500 0.000000 
#    z 0.000000 0.000000 3.538210 
# 
# 
# High freq. dielectric constant tensor:
#      x y z
#    x 1.768640 0.000000 0.000000 
#    y 0.000000 1.728320 0.000000 
#    z 0.000000 0.000000 1.747530 
# 
# From -- ./inp_files/20330.got.cif
#   From: 2010.03.12/outbox.cif.g09.slc.cpg/sg51_11_cif.got.tgz:20330.got - 2010.04.16 13:43:02.
