data_PCOD8207345
_publ_section_title
;
Structure prediction by ZEFSAII (Michael W. Deem and Ramdas Pophale) SiO2 
 PCOD8207345
Probable space group: P M M A
;
_chemical_formula_sum "Si O2"
_cell_formula_units_Z 48
_cell_length_a 10.293218
_cell_length_b 14.951906
_cell_length_c 17.772839
_cell_angle_alpha 90.000000
_cell_angle_beta 90.000000
_cell_angle_gamma 90.000000
_cell_volume 2735.297292
_symmetry_space_group_name_H-M "P M M A"
_symmetry_group_IT_number 51
_symmetry_cell_setting 'orthorhombic'
loop_
_space_group_symop_operation_xyz
x,y,z
1/2-x,-y,z
1/2+x,-y,-z
-x,y,-z
-x,-y,-z
1/2+x,y,-z
1/2-x,y,z
x,-y,z
loop_
_atom_site_type_symbol
_atom_site_label
_atom_site_fract_x
_atom_site_fract_y
_atom_site_fract_z
Si Si1 0.500000 0.660114 0.000000
Si Si2 0.899905 0.396378 0.565764
Si Si3 0.018018 0.898900 0.239915
Si Si4 0.750000 0.900280 0.158882
Si Si5 0.250000 0.900336 0.126006
Si Si6 0.750000 0.223355 0.016353
Si Si7 0.596515 0.282258 0.708758
Si Si8 0.600934 0.399825 0.846636
O O1 0.622262 0.719110 0.020067
O O2 0.475289 0.601583 0.074420
O O3 0.750000 0.374719 0.542570
O O4 0.912399 0.500000 0.588276
O O5 0.947310 0.337877 0.636241
O O6 0.000000 0.371476 0.500000
O O7 0.120835 0.883704 0.173716
O O8 0.043478 0.819620 0.300020
O O9 0.874322 0.883682 0.210271
O O10 0.034509 0.000000 0.274109
O O11 0.750000 0.838221 0.088075
O O12 0.750000 0.000000 0.126406
O O13 0.250000 0.000000 0.092692
O O14 0.250000 0.831818 0.059409
O O15 0.750000 0.280895 0.713645
O O16 0.542814 0.330996 0.784593
O O17 0.750000 0.374456 0.863896
O O18 0.589923 0.500000 0.813312
#
# Coordination Sequence:
#
# PCOD8207345 Si02
#       8
#     4   8   8   4   4   4   8   8
#     4  12  23  34  49  70  98 136 171 218 270 310
#     4   9  18  34  57  85 115 142 168 205 255 308
#     4  10  20  34  52  74 102 132 169 215 261 306
#     4  10  21  34  46  67 100 135 169 215 272 319
#     4  10  19  32  50  71  94 127 173 223 264 305
#     4  12  21  32  49  68  94 128 172 216 268 322
#     4  10  18  32  57  82 103 134 178 217 252 302
#     4  10  20  35  52  72  98 133 180 224 259 302
#
# _framework density 17.548366000000001
#
# number of rings (size 3 to 8) (size 9 to 14) (size 15 to 20)
#    0.000    1.833    1.667    4.000    0.000    2.000 
#    1.500    3.333    0.000    0.500    0.000    0.000 
#    0.000    0.000    0.000    0.000    0.000    0.000 
#
# Total GULP energy -595071.801841 kJ/mol
# GULP energy per Si atom -12397.329205 kJ/mol
# Density = 1.750843 g / cm^3
# Si number density = 17.548366 Si / 1000 Ang^3
#
#
#
# Elastic Constant Matrix: (Units=GPa)
#
#
# Indices 1 2 3 4 5 6 
#
# 1 77.3816 30.6272 36.3887 0.0000 0.0000 0.0000
# 2 30.6272 113.0905 62.0699 0.0000 0.0000 0.0000
# 3 36.3887 62.0699 100.8114 0.0000 0.0000 0.0000
# 4 0.0000 0.0000 0.0000 35.5189 0.0000 0.0000
# 5 0.0000 0.0000 0.0000 0.0000 22.3590 0.0000
# 6 0.0000 0.0000 0.0000 0.0000 0.0000 3.0137
#
#
#
# Elastic Compliance Matrix: (Units=1/GPa)
#
#
# Indices 1 2 3 4 5 6 
#
# 1 0.015787 -0.001734 -0.004631 0.000000 0.000000 0.000000
# 2 -0.001734 0.013546 -0.007715 0.000000 0.000000 0.000000
# 3 -0.004631 -0.007715 0.016341 0.000000 0.000000 0.000000
# 4 0.000000 0.000000 0.000000 0.028154 0.000000 0.000000
# 5 0.000000 0.000000 0.000000 0.000000 0.044725 0.000000
# 6 0.000000 0.000000 0.000000 0.000000 0.000000 0.331819
#
#
# Mechanical properties :
#
#
# Convention : Reuss Voigt Hill
#
# Bulk Modulus (GPa) = 57.09228 61.05054 59.07141
# Shear Modulus (GPa) = 10.32272 22.99150 16.65711
#
# Velocity S-wave (km/s) = 2.42800 3.62357 3.08427
# Velocity P-wave (km/s) = 6.36122 7.23688 6.81313
#
# Compressibility (1/GPa) = 0.01751550
#
# Stress axis : x y z
#
# Youngs Moduli (GPa) = 63.34377 73.82155 61.19571
#
# Poissons Ratio (x) = 0.12798 0.28339
# Poissons Ratio (y) = 0.10982 0.47210
# Poissons Ratio (z) = 0.29334 0.56951
#
# Static dielectric constant tensor:
#      x y z
#    x 9.809190 0.000000 0.000000 
#    y 0.000000 3.528150 0.000000 
#    z 0.000000 0.000000 3.065690 
# 
# 
# High freq. dielectric constant tensor:
#      x y z
#    x 1.676280 0.000000 0.000000 
#    y 0.000000 1.694100 0.000000 
#    z 0.000000 0.000000 1.646870 
# 
# From -- ./inp_files/27717.got.cif
#   From: 2010.03.12/outbox.cif.g09.slc.cpg/sg51_14_cif.got.tgz:27717.got - 2010.04.16 13:43:02.
