data_PCOD8207759
_publ_section_title
;
Structure prediction by ZEFSAII (Michael W. Deem and Ramdas Pophale) SiO2 
 PCOD8207759
Probable space group: P M M A
;
_chemical_formula_sum "Si O2"
_cell_formula_units_Z 48
_cell_length_a 29.962032
_cell_length_b 9.206802
_cell_length_c 10.320149
_cell_angle_alpha 90.000000
_cell_angle_beta 90.000000
_cell_angle_gamma 90.000000
_cell_volume 2846.859503
_symmetry_space_group_name_H-M "P M M A"
_symmetry_group_IT_number 51
_symmetry_cell_setting 'orthorhombic'
loop_
_space_group_symop_operation_xyz
x,y,z
1/2-x,-y,z
1/2+x,-y,-z
-x,y,-z
-x,-y,-z
1/2+x,y,-z
1/2-x,y,z
x,-y,z
loop_
_atom_site_type_symbol
_atom_site_label
_atom_site_fract_x
_atom_site_fract_y
_atom_site_fract_z
Si Si1 0.799017 0.168490 0.495712
Si Si2 0.884582 0.330292 0.475406
Si Si3 0.531512 0.170048 0.381220
Si Si4 0.023184 0.171088 0.130259
Si Si5 0.106515 0.334898 0.220967
Si Si6 0.702407 0.664649 0.756441
O O1 0.750000 0.192884 0.430211
O O2 0.837739 0.261449 0.425983
O O3 0.795825 0.218521 0.643596
O O4 0.812478 0.000000 0.492031
O O5 0.883665 0.500000 0.447392
O O6 0.923050 0.259068 0.389527
O O7 0.892685 0.294048 0.626702
O O8 0.500000 0.213199 0.500000
O O9 0.507034 0.219863 0.250567
O O10 0.542767 0.000000 0.381663
O O11 0.072648 0.235502 0.142200
O O12 0.029167 0.000000 0.126037
O O13 0.000000 0.229770 0.000000
O O14 0.090944 0.500000 0.202266
O O15 0.156806 0.308599 0.161923
O O16 0.750000 0.677276 0.835115
O O17 0.698224 0.500000 0.697899
#
# Coordination Sequence:
#
# PCOD8207759 Si02
#       6
#     8   8   8   8   8   8
#     4   9  16  25  39  62  93 126 157 190 231 280
#     4  10  19  29  45  69  95 124 157 196 238 279
#     4  10  19  32  50  70  91 121 158 196 237 278
#     4  10  21  35  49  67  93 125 158 195 240 284
#     4   9  17  28  44  67  93 123 155 190 232 276
#     4   8  14  25  40  61  91 123 153 187 231 279
#
# _framework density 16.860683999999999
#
# number of rings (size 3 to 8) (size 9 to 14) (size 15 to 20)
#    0.000    2.667    1.667    2.000    0.000    5.000 
#    0.000    0.000    0.000    0.000    0.000    1.167 
#    0.000    6.667    0.000    0.000    0.000    0.000 
#
# Total GULP energy -594764.467230 kJ/mol
# GULP energy per Si atom -12390.926401 kJ/mol
# Density = 1.682231 g / cm^3
# Si number density = 16.860684 Si / 1000 Ang^3
#
#
#
# Elastic Constant Matrix: (Units=GPa)
#
#
# Indices 1 2 3 4 5 6 
#
# 1 182.4582 63.1401 47.6671 0.0000 0.0000 0.0000
# 2 63.1401 61.3954 21.7472 0.0000 0.0000 0.0000
# 3 47.6671 21.7472 63.5200 0.0000 0.0000 0.0000
# 4 0.0000 0.0000 0.0000 10.0695 0.0000 0.0000
# 5 0.0000 0.0000 0.0000 0.0000 14.0099 0.0000
# 6 0.0000 0.0000 0.0000 0.0000 0.0000 32.6320
#
#
#
# Elastic Compliance Matrix: (Units=1/GPa)
#
#
# Indices 1 2 3 4 5 6 
#
# 1 0.009429 -0.008183 -0.004274 0.000000 0.000000 0.000000
# 2 -0.008183 0.025637 -0.002637 0.000000 0.000000 0.000000
# 3 -0.004274 -0.002637 0.019853 0.000000 0.000000 0.000000
# 4 0.000000 0.000000 0.000000 0.099310 0.000000 0.000000
# 5 0.000000 0.000000 0.000000 0.000000 0.071378 0.000000
# 6 0.000000 0.000000 0.000000 0.000000 0.000000 0.030645
#
#
# Mechanical properties :
#
#
# Convention : Reuss Voigt Hill
#
# Bulk Modulus (GPa) = 40.43356 63.60913 52.02135
# Shear Modulus (GPa) = 16.96730 22.99689 19.98209
#
# Velocity S-wave (km/s) = 3.17570 3.69716 3.44631
# Velocity P-wave (km/s) = 6.12208 7.48555 6.83788
#
# Compressibility (1/GPa) = 0.02473193
#
# Stress axis : x y z
#
# Youngs Moduli (GPa) = 106.05441 39.00551 50.36959
#
# Poissons Ratio (x) = 0.31918 0.21529
# Poissons Ratio (y) = 0.86785 0.13280
# Poissons Ratio (z) = 0.45330 0.10284
#
# Static dielectric constant tensor:
#      x y z
#    x 3.662160 0.000000 0.000000 
#    y 0.000000 3.140380 0.000000 
#    z 0.000000 0.000000 2.669320 
# 
# 
# High freq. dielectric constant tensor:
#      x y z
#    x 1.678620 0.000000 0.000000 
#    y 0.000000 1.655330 0.000000 
#    z 0.000000 0.000000 1.572370 
# 
# From -- ./inp_files/19279.got.cif
#   From: 2010.03.12/outbox.cif.g09.slc.cpg/sg51_10_cif.got.tgz:19279.got - 2010.04.16 13:43:02.
