data_PCOD8207877
_publ_section_title
;
Structure prediction by ZEFSAII (Michael W. Deem and Ramdas Pophale) SiO2 
 PCOD8207877
Probable space group: P M M A
;
_chemical_formula_sum "Si O2"
_cell_formula_units_Z 52
_cell_length_a 9.047212
_cell_length_b 22.980805
_cell_length_c 14.974399
_cell_angle_alpha 90.000000
_cell_angle_beta 90.000000
_cell_angle_gamma 90.000000
_cell_volume 3113.360461
_symmetry_space_group_name_H-M "P M M A"
_symmetry_group_IT_number 51
_symmetry_cell_setting 'orthorhombic'
loop_
_space_group_symop_operation_xyz
x,y,z
1/2-x,-y,z
1/2+x,-y,-z
-x,y,-z
-x,-y,-z
1/2+x,y,-z
1/2-x,y,z
x,-y,z
loop_
_atom_site_type_symbol
_atom_site_label
_atom_site_fract_x
_atom_site_fract_y
_atom_site_fract_z
Si Si1 0.417118 0.269233 0.913264
Si Si2 0.075043 0.812623 0.596149
Si Si3 0.076345 0.729402 0.265969
Si Si4 0.578860 0.938537 0.406538
Si Si5 0.076932 0.500000 0.404982
Si Si6 0.421725 0.405341 0.263683
Si Si7 0.915532 0.592408 0.086243
O O1 0.250000 0.244692 0.909332
O O2 0.507233 0.248549 0.826813
O O3 0.415437 0.338349 0.918070
O O4 0.500000 0.243525 0.000000
O O5 0.250000 0.800989 0.588130
O O6 0.040650 0.876763 0.640968
O O7 0.000000 0.808777 0.500000
O O8 0.001675 0.763537 0.655349
O O9 0.250000 0.742070 0.264530
O O10 0.041367 0.661716 0.283214
O O11 0.500000 0.940014 0.500000
O O12 0.750000 0.937588 0.429177
O O13 0.539626 0.000000 0.354092
O O14 0.250000 0.500000 0.422980
O O15 0.028939 0.557284 0.349533
O O16 0.000000 0.500000 0.500000
O O17 0.250000 0.414338 0.242781
O O18 0.506862 0.428893 0.176821
O O19 0.750000 0.567569 0.085178
O O20 0.000000 0.566946 0.000000
#
# Coordination Sequence:
#
# PCOD8207877 Si02
#       7
#     8   8   8   8   4   8   8
#     4   9  16  27  44  67  93 121 151 183 222 268
#     4  10  19  30  44  64  92 124 156 190 227 268
#     4  10  19  31  47  68  94 122 151 186 229 274
#     4   8  14  25  41  60  83 114 151 187 222 261
#     4  10  22  40  57  70  85 110 149 196 238 274
#     4   9  19  35  52  69  90 116 148 188 231 273
#     4   9  16  27  47  73  98 121 144 173 214 268
#
# _framework density 16.702210999999998
#
# number of rings (size 3 to 8) (size 9 to 14) (size 15 to 20)
#    0.000    2.769    0.000    1.846    0.000    6.154 
#    0.000    1.923    0.000    0.000    0.000    0.000 
#    0.000    0.615    0.000    1.692    0.000    2.769 
#
# Total GULP energy -644333.246326 kJ/mol
# GULP energy per Si atom -12391.023968 kJ/mol
# Density = 1.666420 g / cm^3
# Si number density = 16.702211 Si / 1000 Ang^3
#
#
#
# Elastic Constant Matrix: (Units=GPa)
#
#
# Indices 1 2 3 4 5 6 
#
# 1 102.5163 44.9803 65.2807 0.0000 0.0000 0.0000
# 2 44.9803 79.6059 55.2520 0.0000 0.0000 0.0000
# 3 65.2807 55.2520 129.6769 0.0000 0.0000 0.0000
# 4 0.0000 0.0000 0.0000 -1.8376 0.0000 0.0000
# 5 0.0000 0.0000 0.0000 0.0000 34.4987 0.0000
# 6 0.0000 0.0000 0.0000 0.0000 0.0000 12.8044
#
#
#
# Elastic Compliance Matrix: (Units=1/GPa)
#
#
# Indices 1 2 3 4 5 6 
#
# 1 0.015529 -0.004755 -0.005791 0.000000 0.000000 0.000000
# 2 -0.004755 0.019292 -0.005826 0.000000 0.000000 0.000000
# 3 -0.005791 -0.005826 0.013109 0.000000 0.000000 0.000000
# 4 0.000000 0.000000 0.000000 -0.544180 0.000000 0.000000
# 5 0.000000 0.000000 0.000000 0.000000 0.028987 0.000000
# 6 0.000000 0.000000 0.000000 0.000000 0.000000 0.078098
#
#
# Mechanical properties :
#
#
# Convention : Reuss Voigt Hill
#
# Bulk Modulus (GPa) = 65.85267 71.42500 68.63883
# Shear Modulus (GPa) = -14.23051 18.84551 2.30750
#
# Velocity S-wave (km/s) = -2.92209 3.36270 1.17667
# Velocity P-wave (km/s) = 5.30361 7.61141 6.55980
#
# Compressibility (1/GPa) = 0.01518541
#
# Stress axis : x y z
#
# Youngs Moduli (GPa) = 64.39741 51.83399 76.28080
#
# Poissons Ratio (x) = 0.24645 0.44178
# Poissons Ratio (y) = 0.30618 0.44445
# Poissons Ratio (z) = 0.37295 0.30201
#
# Static dielectric constant tensor:
#      x y z
#    x 3.320310 0.000000 0.000000 
#    y 0.000000 3.373400 0.000000 
#    z 0.000000 0.000000 3.040680 
# 
# 
# High freq. dielectric constant tensor:
#      x y z
#    x 1.658060 0.000000 0.000000 
#    y 0.000000 1.625050 0.000000 
#    z 0.000000 0.000000 1.620510 
# 
# From -- ./inp_files/22038.got.cif
#   From: 2010.03.12/outbox.cif.g09.slc.cpg/sg51_12_cif.got.tgz:22038.got - 2010.04.16 13:43:02.
