data_PCOD8207108
_publ_section_title
;
Structure prediction by ZEFSAII (Michael W. Deem and Ramdas Pophale) SiO2 
 PCOD8207108
Probable space group: P M M A
;
_chemical_formula_sum "Si O2"
_cell_formula_units_Z 52
_cell_length_a 8.805143
_cell_length_b 20.432219
_cell_length_c 14.746040
_cell_angle_alpha 90.000000
_cell_angle_beta 90.000000
_cell_angle_gamma 90.000000
_cell_volume 2652.939561
_symmetry_space_group_name_H-M "P M M A"
_symmetry_group_IT_number 51
_symmetry_cell_setting 'orthorhombic'
loop_
_space_group_symop_operation_xyz
x,y,z
1/2-x,-y,z
1/2+x,-y,-z
-x,y,-z
-x,-y,-z
1/2+x,y,-z
1/2-x,y,z
x,-y,z
loop_
_atom_site_type_symbol
_atom_site_label
_atom_site_fract_x
_atom_site_fract_y
_atom_site_fract_z
Si Si1 0.429747 0.327691 0.594375
Si Si2 0.929149 0.178490 0.406547
Si Si3 0.570958 0.878922 0.906352
Si Si4 0.570425 0.259974 0.093009
Si Si5 0.928645 0.621717 0.217683
Si Si6 0.075373 0.927459 0.736053
Si Si7 0.068028 0.500000 0.898912
O O1 0.500000 0.353385 0.500000
O O2 0.250000 0.331396 0.585247
O O3 0.480819 0.252889 0.614979
O O4 0.487666 0.373639 0.677842
O O5 0.750000 0.173545 0.414490
O O6 0.989625 0.128266 0.330705
O O7 0.000000 0.154282 0.500000
O O8 0.750000 0.874432 0.917562
O O9 0.503650 0.808404 0.880184
O O10 0.524423 0.928143 0.827087
O O11 0.500000 0.904774 0.000000
O O12 0.750000 0.251307 0.081901
O O13 0.526594 0.310382 0.171161
O O14 0.500000 0.287275 0.000000
O O15 0.750000 0.612310 0.219887
O O16 0.995398 0.561835 0.158816
O O17 0.250000 0.912060 0.760769
O O18 0.060170 0.000000 0.692221
O O19 0.250000 0.500000 0.907993
O O20 0.000000 0.500000 0.000000
#
# Coordination Sequence:
#
# PCOD8207108 Si02
#       7
#     8   8   8   8   8   8   4
#     4   9  17  32  52  75 101 132 171 214 258 303
#     4   9  18  33  54  78 105 135 169 212 261 310
#     4  11  22  36  54  76 102 133 171 218 268 316
#     4  10  18  31  51  76 103 132 168 212 261 312
#     4   9  18  32  53  76 104 142 177 210 255 310
#     4  10  21  37  55  75 102 138 176 213 257 311
#     4  10  20  36  55  78 108 144 181 214 253 304
#
# _framework density 19.600897
#
# number of rings (size 3 to 8) (size 9 to 14) (size 15 to 20)
#    0.000    2.308    0.000    4.154    0.000    4.000 
#    0.000    6.538    0.000    0.000    0.000    0.000 
#    0.000    0.000    0.000    0.000    0.000    0.000 
#
# Total GULP energy -644650.136969 kJ/mol
# GULP energy per Si atom -12397.118019 kJ/mol
# Density = 1.955628 g / cm^3
# Si number density = 19.600897 Si / 1000 Ang^3
#
#
#
# Elastic Constant Matrix: (Units=GPa)
#
#
# Indices 1 2 3 4 5 6 
#
# 1 58.4767 23.3400 29.4663 0.0000 0.0000 0.0000
# 2 23.3400 72.5879 66.5808 0.0000 0.0000 0.0000
# 3 29.4663 66.5808 160.6639 0.0000 0.0000 0.0000
# 4 0.0000 0.0000 0.0000 6.5192 0.0000 0.0000
# 5 0.0000 0.0000 0.0000 0.0000 33.6581 0.0000
# 6 0.0000 0.0000 0.0000 0.0000 0.0000 17.8187
#
#
#
# Elastic Compliance Matrix: (Units=1/GPa)
#
#
# Indices 1 2 3 4 5 6 
#
# 1 0.019873 -0.004915 -0.001608 0.000000 0.000000 0.000000
# 2 -0.004915 0.023440 -0.008812 0.000000 0.000000 0.000000
# 3 -0.001608 -0.008812 0.010171 0.000000 0.000000 0.000000
# 4 0.000000 0.000000 0.000000 0.153393 0.000000 0.000000
# 5 0.000000 0.000000 0.000000 0.000000 0.029711 0.000000
# 6 0.000000 0.000000 0.000000 0.000000 0.000000 0.056121
#
#
# Mechanical properties :
#
#
# Convention : Reuss Voigt Hill
#
# Bulk Modulus (GPa) = 43.83447 58.94474 51.38961
# Shear Modulus (GPa) = 15.10653 23.08864 19.09759
#
# Velocity S-wave (km/s) = 2.77917 3.43583 3.12480
# Velocity P-wave (km/s) = 5.71930 6.77331 6.26850
#
# Compressibility (1/GPa) = 0.02281310
#
# Stress axis : x y z
#
# Youngs Moduli (GPa) = 50.31995 42.66249 98.31921
#
# Poissons Ratio (x) = 0.20969 0.15808
# Poissons Ratio (y) = 0.24733 0.86641
# Poissons Ratio (z) = 0.08091 0.37595
#
# Static dielectric constant tensor:
#      x y z
#    x 3.354050 0.000000 0.000000 
#    y 0.000000 3.611980 0.000000 
#    z 0.000000 0.000000 3.748400 
# 
# 
# High freq. dielectric constant tensor:
#      x y z
#    x 1.739970 0.000000 0.000000 
#    y 0.000000 1.754320 0.000000 
#    z 0.000000 0.000000 1.772970 
# 
# From -- ./inp_files/21652.got.cif
#   From: 2010.03.12/outbox.cif.g09.slc.cpg/sg51_11_cif.got.tgz:21652.got - 2010.04.16 13:43:02.
