data_PCOD8207366
_publ_section_title
;
Structure prediction by ZEFSAII (Michael W. Deem and Ramdas Pophale) SiO2 
 PCOD8207366
Probable space group: P M M A
;
_chemical_formula_sum "Si O2"
_cell_formula_units_Z 48
_cell_length_a 16.744637
_cell_length_b 12.148689
_cell_length_c 12.992971
_cell_angle_alpha 90.000000
_cell_angle_beta 90.000000
_cell_angle_gamma 90.000000
_cell_volume 2643.100158
_symmetry_space_group_name_H-M "P M M A"
_symmetry_group_IT_number 51
_symmetry_cell_setting 'orthorhombic'
loop_
_space_group_symop_operation_xyz
x,y,z
1/2-x,-y,z
1/2+x,-y,-z
-x,y,-z
-x,-y,-z
1/2+x,y,-z
1/2-x,y,z
x,-y,z
loop_
_atom_site_type_symbol
_atom_site_label
_atom_site_fract_x
_atom_site_fract_y
_atom_site_fract_z
Si Si1 0.750000 0.629535 0.744549
Si Si2 0.750000 0.630047 0.976467
Si Si3 0.665311 0.000000 0.776839
Si Si4 0.626619 0.216601 0.658327
Si Si5 0.589176 0.123803 0.455250
Si Si6 0.997084 0.000000 0.879503
Si Si7 0.043294 0.791290 0.754158
Si Si8 0.921600 0.630590 0.069407
O O1 0.750000 0.500000 0.740350
O O2 0.827496 0.673337 0.687341
O O3 0.750000 0.674849 0.860784
O O4 0.750000 0.500000 0.979629
O O5 0.834931 0.670754 0.025112
O O6 0.662455 0.106461 0.705602
O O7 0.750000 0.000000 0.836256
O O8 0.596814 0.000000 0.860049
O O9 0.635150 0.202015 0.535341
O O10 0.539265 0.238043 0.700899
O O11 0.500000 0.115667 0.500000
O O12 0.600036 0.176729 0.341737
O O13 0.624328 0.000000 0.450783
O O14 0.038841 0.106614 0.832195
O O15 0.000000 0.000000 0.000000
O O16 0.072933 0.686095 0.818305
O O17 0.922386 0.500000 0.084439
O O18 0.000000 0.665030 0.000000
#
# Coordination Sequence:
#
# PCOD8207366 Si02
#       8
#     4   4   4   8   8   4   8   8
#     4  11  22  35  52  79 112 139 173 234 292 322
#     4   9  20  38  58  79 106 146 194 234 272 328
#     4  10  18  33  53  79 105 137 186 229 269 326
#     4  10  19  32  55  80 105 140 182 226 275 333
#     4   9  16  31  54  78 102 136 181 225 270 334
#     4  10  20  31  51  81 115 147 177 223 285 339
#     4  10  19  33  54  81 110 141 184 227 273 329
#     4  10  20  36  59  82 108 150 196 232 273 334
#
# _framework density 18.160492000000001
#
# number of rings (size 3 to 8) (size 9 to 14) (size 15 to 20)
#    0.000    2.167    2.500    1.500    0.000    3.333 
#    0.000    1.667    0.000    4.000    0.000    0.000 
#    0.000    0.000    0.000    0.000    0.000    0.000 
#
# Total GULP energy -594771.451687 kJ/mol
# GULP energy per Si atom -12391.071910 kJ/mol
# Density = 1.811916 g / cm^3
# Si number density = 18.160492 Si / 1000 Ang^3
#
#
#
# Elastic Constant Matrix: (Units=GPa)
#
#
# Indices 1 2 3 4 5 6 
#
# 1 90.7297 29.0158 48.1084 0.0000 0.0000 0.0000
# 2 29.0158 77.3331 59.2167 0.0000 0.0000 0.0000
# 3 48.1084 59.2167 171.9686 0.0000 0.0000 0.0000
# 4 0.0000 0.0000 0.0000 107.4916 0.0000 0.0000
# 5 0.0000 0.0000 0.0000 0.0000 15.0512 0.0000
# 6 0.0000 0.0000 0.0000 0.0000 0.0000 27.9433
#
#
#
# Elastic Compliance Matrix: (Units=1/GPa)
#
#
# Indices 1 2 3 4 5 6 
#
# 1 0.013414 -0.002933 -0.002743 0.000000 0.000000 0.000000
# 2 -0.002933 0.018203 -0.005448 0.000000 0.000000 0.000000
# 3 -0.002743 -0.005448 0.008458 0.000000 0.000000 0.000000
# 4 0.000000 0.000000 0.000000 0.009303 0.000000 0.000000
# 5 0.000000 0.000000 0.000000 0.000000 0.066440 0.000000
# 6 0.000000 0.000000 0.000000 0.000000 0.000000 0.035787
#
#
# Mechanical properties :
#
#
# Convention : Reuss Voigt Hill
#
# Bulk Modulus (GPa) = 56.08912 68.07924 62.08418
# Shear Modulus (GPa) = 27.80958 43.67658 35.74308
#
# Velocity S-wave (km/s) = 3.91746 4.90943 4.44123
# Velocity P-wave (km/s) = 7.17037 8.34899 7.78203
#
# Compressibility (1/GPa) = 0.01782877
#
# Stress axis : x y z
#
# Youngs Moduli (GPa) = 74.54927 54.93617 118.22915
#
# Poissons Ratio (x) = 0.16112 0.32426
# Poissons Ratio (y) = 0.21864 0.64407
# Poissons Ratio (z) = 0.20446 0.29927
#
# Static dielectric constant tensor:
#      x y z
#    x 3.158520 0.000000 0.000000 
#    y 0.000000 3.194140 0.000000 
#    z 0.000000 0.000000 3.480300 
# 
# 
# High freq. dielectric constant tensor:
#      x y z
#    x 1.690690 0.000000 0.000000 
#    y 0.000000 1.693420 0.000000 
#    z 0.000000 0.000000 1.704410 
# 
# From -- ./inp_files/18198.got.cif
#   From: 2010.03.12/outbox.cif.g09.slc.cpg/sg51_10_cif.got.tgz:18198.got - 2010.04.16 13:43:02.
