data_PCOD8207669
_publ_section_title
;
Structure prediction by ZEFSAII (Michael W. Deem and Ramdas Pophale) SiO2 
 PCOD8207669
Probable space group: P M M A
;
_chemical_formula_sum "Si O2"
_cell_formula_units_Z 64
_cell_length_a 13.974023
_cell_length_b 9.145241
_cell_length_c 31.197346
_cell_angle_alpha 90.000000
_cell_angle_beta 90.000000
_cell_angle_gamma 90.000000
_cell_volume 3986.890042
_symmetry_space_group_name_H-M "P M M A"
_symmetry_group_IT_number 51
_symmetry_cell_setting 'orthorhombic'
loop_
_space_group_symop_operation_xyz
x,y,z
1/2-x,-y,z
1/2+x,-y,-z
-x,y,-z
-x,-y,-z
1/2+x,y,-z
1/2-x,y,z
x,-y,z
loop_
_atom_site_type_symbol
_atom_site_label
_atom_site_fract_x
_atom_site_fract_y
_atom_site_fract_z
Si Si1 0.860968 0.670443 0.186401
Si Si2 0.357641 0.170210 0.068010
Si Si3 0.355779 0.827077 0.480428
Si Si4 0.363266 0.163641 0.970940
Si Si5 0.030003 0.327946 0.898419
Si Si6 0.861011 0.672238 0.354991
Si Si7 0.136380 0.835201 0.729963
Si Si8 0.042437 0.173195 0.566584
O O1 0.750000 0.705883 0.178118
O O2 0.876362 0.500000 0.195770
O O3 0.918187 0.724190 0.144813
O O4 0.902387 0.758897 0.226950
O O5 0.250000 0.229873 0.073559
O O6 0.425013 0.256951 0.100730
O O7 0.361329 0.000000 0.079083
O O8 0.395275 0.197928 0.019612
O O9 0.250000 0.760674 0.470638
O O10 0.390734 0.775619 0.527217
O O11 0.432631 0.780967 0.444216
O O12 0.350694 0.000000 0.481309
O O13 0.250000 0.174556 0.968041
O O14 0.408575 0.279928 0.939223
O O15 0.397307 0.000000 0.958157
O O16 0.019462 0.500000 0.899818
O O17 0.750000 0.711453 0.363492
O O18 0.876703 0.500000 0.352008
O O19 0.898528 0.743667 0.311009
O O20 0.925744 0.737970 0.392214
O O21 0.250000 0.834875 0.731288
O O22 0.095988 0.000000 0.727102
O O23 0.051686 0.000000 0.575016
#
# Coordination Sequence:
#
# PCOD8207669 Si02
#       8
#     8   8   8   8   8   8   8   8
#     4   9  18  32  46  63  93 125 145 167 209 265
#     4   9  19  35  50  63  84 117 155 192 226 258
#     4   8  14  25  41  62  89 119 150 187 229 263
#     4   9  18  32  48  65  88 120 154 185 218 258
#     4  11  21  30  45  70  95 119 147 180 221 267
#     4  10  19  29  42  62  90 121 147 176 220 266
#     4   9  17  29  46  67  88 112 145 181 213 252
#     4   9  16  26  43  65  86 114 154 192 221 256
#
# _framework density 16.052612
#
# number of rings (size 3 to 8) (size 9 to 14) (size 15 to 20)
#    0.000    2.750    0.000    3.750    0.000    6.750 
#    0.000    3.750    0.000    1.125    0.000    0.875 
#    0.000    5.000    0.000    0.000    0.000    0.000 
#
# Total GULP energy -793491.685532 kJ/mol
# GULP energy per Si atom -12398.307586 kJ/mol
# Density = 1.601608 g / cm^3
# Si number density = 16.052612 Si / 1000 Ang^3
#
#
#
# Elastic Constant Matrix: (Units=GPa)
#
#
# Indices 1 2 3 4 5 6 
#
# 1 78.2680 35.3647 60.5559 0.0000 0.0000 0.0000
# 2 35.3647 66.4474 56.9224 0.0000 0.0000 0.0000
# 3 60.5559 56.9224 120.0688 0.0000 0.0000 0.0000
# 4 0.0000 0.0000 0.0000 26.1151 0.0000 0.0000
# 5 0.0000 0.0000 0.0000 0.0000 23.6576 0.0000
# 6 0.0000 0.0000 0.0000 0.0000 0.0000 20.4720
#
#
#
# Elastic Compliance Matrix: (Units=1/GPa)
#
#
# Indices 1 2 3 4 5 6 
#
# 1 0.021457 -0.003619 -0.009106 0.000000 0.000000 0.000000
# 2 -0.003619 0.025952 -0.010478 0.000000 0.000000 0.000000
# 3 -0.009106 -0.010478 0.017888 0.000000 0.000000 0.000000
# 4 0.000000 0.000000 0.000000 0.038292 0.000000 0.000000
# 5 0.000000 0.000000 0.000000 0.000000 0.042270 0.000000
# 6 0.000000 0.000000 0.000000 0.000000 0.000000 0.048847
#
#
# Mechanical properties :
#
#
# Convention : Reuss Voigt Hill
#
# Bulk Modulus (GPa) = 52.93503 63.38559 58.16031
# Shear Modulus (GPa) = 20.20942 21.51170 20.86056
#
# Velocity S-wave (km/s) = 3.55202 3.66467 3.60879
# Velocity P-wave (km/s) = 7.06187 7.58145 7.32626
#
# Compressibility (1/GPa) = 0.01889108
#
# Stress axis : x y z
#
# Youngs Moduli (GPa) = 46.60427 38.53327 55.90213
#
# Poissons Ratio (x) = 0.13947 0.50904
# Poissons Ratio (y) = 0.16868 0.58573
# Poissons Ratio (z) = 0.42438 0.40374
#
# Static dielectric constant tensor:
#      x y z
#    x 3.146030 0.000000 0.000000 
#    y 0.000000 2.934770 0.000000 
#    z 0.000000 0.000000 3.026240 
# 
# 
# High freq. dielectric constant tensor:
#      x y z
#    x 1.598860 0.000000 0.000000 
#    y 0.000000 1.609010 0.000000 
#    z 0.000000 0.000000 1.607270 
# 
# From -- ./inp_files/37791.got.cif
#   From: 2010.03.12/outbox.cif.g09.slc.cpg/sg51_19_cif.got.tgz:37791.got - 2010.04.16 13:43:02.
