data_PCOD8207930
_publ_section_title
;
Structure prediction by ZEFSAII (Michael W. Deem and Ramdas Pophale) SiO2 
 PCOD8207930
Probable space group: P M M A
;
_chemical_formula_sum "Si O2"
_cell_formula_units_Z 64
_cell_length_a 8.938347
_cell_length_b 31.086608
_cell_length_c 14.348254
_cell_angle_alpha 90.000000
_cell_angle_beta 90.000000
_cell_angle_gamma 90.000000
_cell_volume 3986.847314
_symmetry_space_group_name_H-M "P M M A"
_symmetry_group_IT_number 51
_symmetry_cell_setting 'orthorhombic'
loop_
_space_group_symop_operation_xyz
x,y,z
1/2-x,-y,z
1/2+x,-y,-z
-x,y,-z
-x,-y,-z
1/2+x,y,-z
1/2-x,y,z
x,-y,z
loop_
_atom_site_type_symbol
_atom_site_label
_atom_site_fract_x
_atom_site_fract_y
_atom_site_fract_z
Si Si1 0.075753 0.160206 0.592949
Si Si2 0.073433 0.712604 0.220788
Si Si3 0.576376 0.454618 0.098477
Si Si4 0.424656 0.048002 0.904974
Si Si5 0.074108 0.204923 0.098790
Si Si6 0.927367 0.361169 0.101525
Si Si7 0.426756 0.259512 0.594941
Si Si8 0.925729 0.129123 0.209316
O O1 0.250000 0.154918 0.577505
O O2 0.030163 0.209626 0.608570
O O3 0.020640 0.134032 0.683762
O O4 0.000000 0.141148 0.500000
O O5 0.250000 0.706797 0.230387
O O6 0.031333 0.755830 0.165837
O O7 0.003810 0.672181 0.169467
O O8 0.999124 0.713701 0.321943
O O9 0.750000 0.454114 0.077361
O O10 0.534426 0.500000 0.152911
O O11 0.536200 0.408784 0.146220
O O12 0.500000 0.455825 0.000000
O O13 0.250000 0.048058 0.924539
O O14 0.465162 0.080578 0.821627
O O15 0.480526 0.000000 0.877347
O O16 0.500000 0.064091 0.000000
O O17 0.250000 0.200412 0.084504
O O18 0.012748 0.161174 0.142131
O O19 0.000000 0.214260 0.000000
O O20 0.750000 0.352376 0.094245
O O21 0.000000 0.356262 0.000000
O O22 0.500000 0.276940 0.500000
O O23 0.250000 0.266839 0.592645
O O24 0.750000 0.139557 0.200701
#
# Coordination Sequence:
#
# PCOD8207930 Si02
#       8
#     8   8   8   8   8   8   8   8
#     4   9  18  31  49  71  93 119 149 188 230 274
#     4  11  22  34  47  66  93 127 162 195 233 280
#     4   8  14  25  41  61  85 115 154 198 240 280
#     4   9  18  32  50  71  95 122 152 187 228 275
#     4  11  23  34  46  65  92 125 159 192 228 269
#     4  10  19  30  45  65  92 128 165 200 239 283
#     4  10  19  33  52  71  93 120 154 196 237 280
#     4  10  19  33  51  71  94 120 154 191 231 274
#
# _framework density 16.052783999999999
#
# number of rings (size 3 to 8) (size 9 to 14) (size 15 to 20)
#    0.000    2.250    1.250    2.250    0.000    5.500 
#    0.000    0.000    0.000    0.375    0.000    0.000 
#    0.000    0.500    0.000    1.375    0.000    2.250 
#
# Total GULP energy -793248.727086 kJ/mol
# GULP energy per Si atom -12394.511361 kJ/mol
# Density = 1.601625 g / cm^3
# Si number density = 16.052784 Si / 1000 Ang^3
#
#
#
# Elastic Constant Matrix: (Units=GPa)
#
#
# Indices 1 2 3 4 5 6 
#
# 1 55.2165 41.7429 44.4483 0.0000 0.0000 0.0000
# 2 41.7429 108.2133 58.7137 0.0000 0.0000 0.0000
# 3 44.4483 58.7137 119.1422 0.0000 0.0000 0.0000
# 4 0.0000 0.0000 0.0000 2.5817 0.0000 0.0000
# 5 0.0000 0.0000 0.0000 0.0000 28.4720 0.0000
# 6 0.0000 0.0000 0.0000 0.0000 0.0000 15.6453
#
#
#
# Elastic Compliance Matrix: (Units=1/GPa)
#
#
# Indices 1 2 3 4 5 6 
#
# 1 0.029700 -0.007432 -0.007418 0.000000 0.000000 0.000000
# 2 -0.007432 0.014473 -0.004360 0.000000 0.000000 0.000000
# 3 -0.007418 -0.004360 0.013309 0.000000 0.000000 0.000000
# 4 0.000000 0.000000 0.000000 0.387344 0.000000 0.000000
# 5 0.000000 0.000000 0.000000 0.000000 0.035122 0.000000
# 6 0.000000 0.000000 0.000000 0.000000 0.000000 0.063917
#
#
# Mechanical properties :
#
#
# Convention : Reuss Voigt Hill
#
# Bulk Modulus (GPa) = 52.45614 63.59798 58.02706
# Shear Modulus (GPa) = 8.49415 18.51759 13.50587
#
# Velocity S-wave (km/s) = 2.30280 3.40007 2.90374
# Velocity P-wave (km/s) = 6.31021 7.42415 6.88973
#
# Compressibility (1/GPa) = 0.01906354
#
# Stress axis : x y z
#
# Youngs Moduli (GPa) = 33.66984 69.09196 75.13589
#
# Poissons Ratio (x) = 0.51350 0.55733
# Poissons Ratio (y) = 0.25024 0.32758
# Poissons Ratio (z) = 0.24975 0.30123
#
# Static dielectric constant tensor:
#      x y z
#    x 3.102560 0.000000 0.000000 
#    y 0.000000 3.401750 0.000000 
#    z 0.000000 0.000000 2.996720 
# 
# 
# High freq. dielectric constant tensor:
#      x y z
#    x 1.626920 0.000000 0.000000 
#    y 0.000000 1.611990 0.000000 
#    z 0.000000 0.000000 1.595860 
# 
# From -- ./inp_files/22596.got.cif
#   From: 2010.03.12/outbox.cif.g09.slc.cpg/sg51_12_cif.got.tgz:22596.got - 2010.04.16 13:43:02.
