data_PCOD8207798
_publ_section_title
;
Structure prediction by ZEFSAII (Michael W. Deem and Ramdas Pophale) SiO2 
 PCOD8207798
Probable space group: P M M A
;
_chemical_formula_sum "Si O2"
_cell_formula_units_Z 52
_cell_length_a 8.855618
_cell_length_b 18.184914
_cell_length_c 24.700446
_cell_angle_alpha 90.000000
_cell_angle_beta 90.000000
_cell_angle_gamma 90.000000
_cell_volume 3977.726521
_symmetry_space_group_name_H-M "P M M A"
_symmetry_group_IT_number 51
_symmetry_cell_setting 'orthorhombic'
loop_
_space_group_symop_operation_xyz
x,y,z
1/2-x,-y,z
1/2+x,-y,-z
-x,y,-z
-x,-y,-z
1/2+x,y,-z
1/2-x,y,z
x,-y,z
loop_
_atom_site_type_symbol
_atom_site_label
_atom_site_fract_x
_atom_site_fract_y
_atom_site_fract_z
Si Si1 0.074516 0.413560 0.770910
Si Si2 0.580436 0.587390 0.661301
Si Si3 0.573724 0.222924 0.941632
Si Si4 0.071656 0.500000 0.941477
Si Si5 0.072942 0.920345 0.941283
Si Si6 0.920225 0.587715 0.446005
Si Si7 0.073912 0.630927 0.122827
O O1 0.250000 0.394632 0.776741
O O2 0.044354 0.500000 0.779145
O O3 0.018167 0.386540 0.712337
O O4 0.979220 0.368884 0.815115
O O5 0.750000 0.618392 0.666721
O O6 0.582401 0.500000 0.658498
O O7 0.506625 0.619103 0.606501
O O8 0.750000 0.211648 0.950739
O O9 0.504688 0.149744 0.912239
O O10 0.538537 0.289681 0.901701
O O11 0.500000 0.238600 0.000000
O O12 0.250000 0.500000 0.947218
O O13 0.022274 0.572073 0.909843
O O14 0.000000 0.500000 0.000000
O O15 0.250000 0.905784 0.946340
O O16 0.042443 0.000000 0.912427
O O17 0.000000 0.923013 0.000000
O O18 0.750000 0.617548 0.444822
O O19 0.922506 0.500000 0.445709
O O20 0.000000 0.618129 0.500000
O O21 0.250000 0.610682 0.119003
#
# Coordination Sequence:
#
# PCOD8207798 Si02
#       7
#     8   8   8   4   8   8   8
#     4  10  19  30  43  57  70  89 119 152 187 224
#     4   9  16  25  37  51  67  88 112 142 179 216
#     4  10  20  31  44  61  78  98 119 144 179 219
#     4  12  24  36  48  60  72  92 119 150 189 230
#     4   9  16  26  42  62  81 100 118 137 165 205
#     4   9  15  22  32  47  67  88 110 137 171 215
#     4  11  22  34  46  59  75  95 121 153 188 225
#
# _framework density 13.072794999999999
#
# number of rings (size 3 to 8) (size 9 to 14) (size 15 to 20)
#    0.000    2.154    0.769    4.846    0.000    8.923 
#    0.000    0.000    0.000    0.000    0.000    0.000 
#    0.000    0.000    0.000    0.000    0.000    0.000 
#
# Total GULP energy -644629.980601 kJ/mol
# GULP energy per Si atom -12396.730396 kJ/mol
# Density = 1.304304 g / cm^3
# Si number density = 13.072795 Si / 1000 Ang^3
#
#
#
# Elastic Constant Matrix: (Units=GPa)
#
#
# Indices 1 2 3 4 5 6 
#
# 1 101.4455 39.2436 39.7673 0.0000 0.0000 0.0000
# 2 39.2436 65.2109 29.4725 0.0000 0.0000 0.0000
# 3 39.7673 29.4725 89.6597 0.0000 0.0000 0.0000
# 4 0.0000 0.0000 0.0000 -11.2424 0.0000 0.0000
# 5 0.0000 0.0000 0.0000 0.0000 24.7569 0.0000
# 6 0.0000 0.0000 0.0000 0.0000 0.0000 15.5655
#
#
#
# Elastic Compliance Matrix: (Units=1/GPa)
#
#
# Indices 1 2 3 4 5 6 
#
# 1 0.013992 -0.006595 -0.004038 0.000000 0.000000 0.000000
# 2 -0.006595 0.021119 -0.004017 0.000000 0.000000 0.000000
# 3 -0.004038 -0.004017 0.014265 0.000000 0.000000 0.000000
# 4 0.000000 0.000000 0.000000 -0.088949 0.000000 0.000000
# 5 0.000000 0.000000 0.000000 0.000000 0.040393 0.000000
# 6 0.000000 0.000000 0.000000 0.000000 0.000000 0.064244
#
#
# Mechanical properties :
#
#
# Convention : Reuss Voigt Hill
#
# Bulk Modulus (GPa) = 49.81194 52.58698 51.19946
# Shear Modulus (GPa) = 49.47758 15.67153 32.57455
#
# Velocity S-wave (km/s) = 6.15873 3.46611 4.99719
# Velocity P-wave (km/s) = 9.42122 7.50547 8.51738
#
# Compressibility (1/GPa) = 0.02007551
#
# Stress axis : x y z
#
# Youngs Moduli (GPa) = 71.47099 47.34995 70.10321
#
# Poissons Ratio (x) = 0.31228 0.28307
# Poissons Ratio (y) = 0.47136 0.28161
# Poissons Ratio (z) = 0.28859 0.19021
#
# Static dielectric constant tensor:
#      x y z
#    x 2.863790 0.000000 0.000000 
#    y 0.000000 2.613810 0.000000 
#    z 0.000000 0.000000 2.458370 
# 
# 
# High freq. dielectric constant tensor:
#      x y z
#    x 1.522510 0.000000 0.000000 
#    y 0.000000 1.446940 0.000000 
#    z 0.000000 0.000000 1.480300 
# 
# From -- ./inp_files/35055.got.cif
#   From: 2010.03.12/outbox.cif.g09.slc.cpg/sg51_18_cif.got.tgz:35055.got - 2010.04.16 13:43:02.
