data_PCOD8207236
_publ_section_title
;
Structure prediction by ZEFSAII (Michael W. Deem and Ramdas Pophale) SiO2 
 PCOD8207236
Probable space group: P M M A
;
_chemical_formula_sum "Si O2"
_cell_formula_units_Z 64
_cell_length_a 19.592614
_cell_length_b 8.969689
_cell_length_c 20.993017
_cell_angle_alpha 90.000000
_cell_angle_beta 90.000000
_cell_angle_gamma 90.000000
_cell_volume 3689.305550
_symmetry_space_group_name_H-M "P M M A"
_symmetry_group_IT_number 51
_symmetry_cell_setting 'orthorhombic'
loop_
_space_group_symop_operation_xyz
x,y,z
1/2-x,-y,z
1/2+x,-y,-z
-x,y,-z
-x,-y,-z
1/2+x,y,-z
1/2-x,y,z
x,-y,z
loop_
_atom_site_type_symbol
_atom_site_label
_atom_site_fract_x
_atom_site_fract_y
_atom_site_fract_z
Si Si1 0.464252 0.677664 0.677538
Si Si2 0.458120 0.823801 0.437694
Si Si3 0.827200 0.673544 0.519256
Si Si4 0.038707 0.324412 0.818145
Si Si5 0.173103 0.825853 0.014821
Si Si6 0.043534 0.676963 0.061219
Si Si7 0.174129 0.671543 0.881897
Si Si8 0.823382 0.676550 0.374851
O O1 0.470486 0.500000 0.669928
O O2 0.511787 0.754971 0.626350
O O3 0.484663 0.733437 0.748558
O O4 0.386040 0.732260 0.667830
O O5 0.500000 0.767640 0.500000
O O6 0.379963 0.769847 0.439698
O O7 0.461049 0.000000 0.432452
O O8 0.750000 0.701087 0.544152
O O9 0.846547 0.500000 0.525120
O O10 0.834302 0.731085 0.447021
O O11 0.030814 0.500000 0.818748
O O12 0.118289 0.282160 0.829380
O O13 0.992056 0.258615 0.874799
O O14 0.250000 0.787911 0.037988
O O15 0.162485 0.773150 0.942912
O O16 0.158507 0.000000 0.017824
O O17 0.119685 0.742696 0.060315
O O18 0.048274 0.500000 0.062168
O O19 0.000000 0.730909 0.000000
O O20 0.250000 0.694832 0.852926
O O21 0.163279 0.500000 0.903440
O O22 0.750000 0.738148 0.349195
O O23 0.820244 0.500000 0.375340
#
# Coordination Sequence:
#
# PCOD8207236 Si02
#       8
#     8   8   8   8   8   8   8   8
#     4  10  19  32  52  73 101 136 170 211 254 297
#     4  11  22  34  50  74 104 136 172 209 247 298
#     4   9  17  31  53  79 101 124 163 209 250 296
#     4   9  18  31  48  76 103 129 169 212 251 296
#     4  10  20  32  48  74 103 129 167 214 253 295
#     4  10  18  32  53  74 101 133 167 208 251 299
#     4   9  16  29  49  72 102 138 170 201 245 298
#     4   8  14  25  44  72 101 128 160 198 242 291
#
# _framework density 17.347439000000001
#
# number of rings (size 3 to 8) (size 9 to 14) (size 15 to 20)
#    0.000    2.500    2.500    1.500    0.000    2.250 
#    0.000    3.750    0.000    1.125    0.000    1.750 
#    0.000    0.000    0.000    0.000    0.000    0.000 
#
# Total GULP energy -793270.730774 kJ/mol
# GULP energy per Si atom -12394.855168 kJ/mol
# Density = 1.730796 g / cm^3
# Si number density = 17.347439 Si / 1000 Ang^3
#
#
#
# Elastic Constant Matrix: (Units=GPa)
#
#
# Indices 1 2 3 4 5 6 
#
# 1 120.1318 34.7802 71.4725 0.0000 0.0000 0.0000
# 2 34.7802 32.3862 29.6201 0.0000 0.0000 0.0000
# 3 71.4725 29.6201 125.2785 0.0000 0.0000 0.0000
# 4 0.0000 0.0000 0.0000 11.3186 0.0000 0.0000
# 5 0.0000 0.0000 0.0000 0.0000 -6.8807 0.0000
# 6 0.0000 0.0000 0.0000 0.0000 0.0000 16.9456
#
#
#
# Elastic Compliance Matrix: (Units=1/GPa)
#
#
# Indices 1 2 3 4 5 6 
#
# 1 0.014979 -0.010552 -0.006051 0.000000 0.000000 0.000000
# 2 -0.010552 0.046830 -0.005052 0.000000 0.000000 0.000000
# 3 -0.006051 -0.005052 0.012629 0.000000 0.000000 0.000000
# 4 0.000000 0.000000 0.000000 0.088350 0.000000 0.000000
# 5 0.000000 0.000000 0.000000 0.000000 -0.145333 0.000000
# 6 0.000000 0.000000 0.000000 0.000000 0.000000 0.059012
#
#
# Mechanical properties :
#
#
# Convention : Reuss Voigt Hill
#
# Bulk Modulus (GPa) = 32.12574 61.06021 46.59297
# Shear Modulus (GPa) = 38.41608 13.73829 26.07718
#
# Velocity S-wave (km/s) = 4.71096 2.81721 3.88136
# Velocity P-wave (km/s) = 6.93903 6.77178 6.85592
#
# Compressibility (1/GPa) = 0.03112769
#
# Stress axis : x y z
#
# Youngs Moduli (GPa) = 66.75899 21.35370 79.18453
#
# Poissons Ratio (x) = 0.22533 0.47913
# Poissons Ratio (y) = 0.70447 0.40004
# Poissons Ratio (z) = 0.40395 0.10788
#
# Static dielectric constant tensor:
#      x y z
#    x 3.677030 0.000000 0.000000 
#    y 0.000000 2.929210 0.000000 
#    z 0.000000 0.000000 3.201830 
# 
# 
# High freq. dielectric constant tensor:
#      x y z
#    x 1.679150 0.000000 0.000000 
#    y 0.000000 1.639680 0.000000 
#    z 0.000000 0.000000 1.645100 
# 
# From -- ./inp_files/33768.got.cif
#   From: 2010.03.12/outbox.cif.g09.slc.cpg/sg51_17_cif.got.tgz:33768.got - 2010.04.16 13:43:02.
