data_PCOD8207726
_publ_section_title
;
Structure prediction by ZEFSAII (Michael W. Deem and Ramdas Pophale) SiO2 
 PCOD8207726
Probable space group: P M M A
;
_chemical_formula_sum "Si O2"
_cell_formula_units_Z 64
_cell_length_a 9.172421
_cell_length_b 19.637565
_cell_length_c 20.027228
_cell_angle_alpha 90.000000
_cell_angle_beta 90.000000
_cell_angle_gamma 90.000000
_cell_volume 3607.384689
_symmetry_space_group_name_H-M "P M M A"
_symmetry_group_IT_number 51
_symmetry_cell_setting 'orthorhombic'
loop_
_space_group_symop_operation_xyz
x,y,z
1/2-x,-y,z
1/2+x,-y,-z
-x,y,-z
-x,-y,-z
1/2+x,y,-z
1/2-x,y,z
x,-y,z
loop_
_atom_site_type_symbol
_atom_site_label
_atom_site_fract_x
_atom_site_fract_y
_atom_site_fract_z
Si Si1 0.920274 0.390580 0.563358
Si Si2 0.580897 0.575997 0.711417
Si Si3 0.918923 0.705659 0.246861
Si Si4 0.582442 0.890022 0.434794
Si Si5 0.922417 0.827463 0.811102
Si Si6 0.914569 0.263603 0.398194
Si Si7 0.578696 0.077485 0.932210
Si Si8 0.413880 0.075422 0.306855
O O1 0.750000 0.396329 0.550606
O O2 0.966117 0.425050 0.633296
O O3 0.000000 0.426225 0.500000
O O4 0.969273 0.311937 0.565958
O O5 0.750000 0.596942 0.716816
O O6 0.553387 0.500000 0.739988
O O7 0.487920 0.629788 0.754243
O O8 0.750000 0.699201 0.227808
O O9 0.944290 0.739075 0.319105
O O10 0.997227 0.754351 0.192615
O O11 0.500000 0.917268 0.500000
O O12 0.750000 0.910875 0.440780
O O13 0.559895 0.809703 0.428840
O O14 0.517586 0.926268 0.370422
O O15 0.750000 0.815183 0.811474
O O16 0.973359 0.869030 0.876224
O O17 0.972464 0.872096 0.747889
O O18 0.750000 0.290254 0.411488
O O19 0.750000 0.083026 0.943767
O O20 0.536199 0.000000 0.911495
O O21 0.500000 0.099152 0.000000
O O22 0.250000 0.095827 0.328991
O O23 0.414291 0.000000 0.274656
#
# Coordination Sequence:
#
# PCOD8207726 Si02
#       8
#     8   8   8   8   8   8   8   8
#     4  10  19  29  44  65  88 117 154 196 246 305
#     4   9  19  35  51  68  94 129 166 204 252 311
#     4  10  19  32  51  76 102 126 162 210 256 300
#     4  11  22  35  49  66  88 118 157 205 261 316
#     4  10  19  33  55  79 105 138 174 211 252 299
#     4   9  18  32  47  65  89 116 151 199 252 305
#     4   9  18  33  53  80 115 152 186 217 251 296
#     4  10  21  36  53  72  93 122 163 209 257 307
#
# _framework density 17.741384
#
# number of rings (size 3 to 8) (size 9 to 14) (size 15 to 20)
#    0.000    2.250    1.250    1.875    0.000    6.000 
#    0.000    0.000    0.000    2.250    0.000    0.000 
#    0.000    0.500    0.000    1.625    0.000    2.000 
#
# Total GULP energy -793578.096580 kJ/mol
# GULP energy per Si atom -12399.657759 kJ/mol
# Density = 1.770100 g / cm^3
# Si number density = 17.741384 Si / 1000 Ang^3
#
#
#
# Elastic Constant Matrix: (Units=GPa)
#
#
# Indices 1 2 3 4 5 6 
#
# 1 74.0386 45.7611 38.9897 0.0000 0.0000 0.0000
# 2 45.7611 100.2787 45.8983 0.0000 0.0000 0.0000
# 3 38.9897 45.8983 83.3892 0.0000 0.0000 0.0000
# 4 0.0000 0.0000 0.0000 14.6031 0.0000 0.0000
# 5 0.0000 0.0000 0.0000 0.0000 25.4334 0.0000
# 6 0.0000 0.0000 0.0000 0.0000 0.0000 21.5207
#
#
#
# Elastic Compliance Matrix: (Units=1/GPa)
#
#
# Indices 1 2 3 4 5 6 
#
# 1 0.020861 -0.006758 -0.006034 0.000000 0.000000 0.000000
# 2 -0.006758 0.015520 -0.005383 0.000000 0.000000 0.000000
# 3 -0.006034 -0.005383 0.017776 0.000000 0.000000 0.000000
# 4 0.000000 0.000000 0.000000 0.068479 0.000000 0.000000
# 5 0.000000 0.000000 0.000000 0.000000 0.039318 0.000000
# 6 0.000000 0.000000 0.000000 0.000000 0.000000 0.046467
#
#
# Mechanical properties :
#
#
# Convention : Reuss Voigt Hill
#
# Bulk Modulus (GPa) = 56.15609 57.66719 56.91164
# Shear Modulus (GPa) = 19.94374 20.78194 20.36284
#
# Velocity S-wave (km/s) = 3.35645 3.42626 3.39154
# Velocity P-wave (km/s) = 6.83684 6.94458 6.89092
#
# Compressibility (1/GPa) = 0.01780751
#
# Stress axis : x y z
#
# Youngs Moduli (GPa) = 47.93638 64.43436 56.25576
#
# Poissons Ratio (x) = 0.43543 0.33946
# Poissons Ratio (y) = 0.32394 0.30280
# Poissons Ratio (z) = 0.28926 0.34682
#
# Static dielectric constant tensor:
#      x y z
#    x 3.272270 0.000000 0.000000 
#    y 0.000000 3.232440 0.000000 
#    z 0.000000 0.000000 3.009140 
# 
# 
# High freq. dielectric constant tensor:
#      x y z
#    x 1.687970 0.000000 0.000000 
#    y 0.000000 1.683410 0.000000 
#    z 0.000000 0.000000 1.645830 
# 
# From -- ./inp_files/28408.got.cif
#   From: 2010.03.12/outbox.cif.g09.slc.cpg/sg51_15_cif.got.tgz:28408.got - 2010.04.16 13:43:02.
