data_PCOD8207817
_publ_section_title
;
Structure prediction by ZEFSAII (Michael W. Deem and Ramdas Pophale) SiO2 
 PCOD8207817
Probable space group: P M M A
;
_chemical_formula_sum "Si O2"
_cell_formula_units_Z 64
_cell_length_a 26.295049
_cell_length_b 8.931171
_cell_length_c 18.198519
_cell_angle_alpha 90.000000
_cell_angle_beta 90.000000
_cell_angle_gamma 90.000000
_cell_volume 4273.841733
_symmetry_space_group_name_H-M "P M M A"
_symmetry_group_IT_number 51
_symmetry_cell_setting 'orthorhombic'
loop_
_space_group_symop_operation_xyz
x,y,z
1/2-x,-y,z
1/2+x,-y,-z
-x,y,-z
-x,-y,-z
1/2+x,y,-z
1/2-x,y,z
x,-y,z
loop_
_atom_site_type_symbol
_atom_site_label
_atom_site_fract_x
_atom_site_fract_y
_atom_site_fract_z
Si Si1 0.449142 0.831536 0.546960
Si Si2 0.901084 0.325353 0.911251
Si Si3 0.691094 0.174140 0.666593
Si Si4 0.048545 0.665673 0.947617
Si Si5 0.491979 0.176020 0.172247
Si Si6 0.104478 0.323934 0.421052
Si Si7 0.692771 0.672237 0.817095
Si Si8 0.994603 0.323589 0.670671
O O1 0.500000 0.831821 0.500000
O O2 0.405259 0.750175 0.500377
O O3 0.459421 0.741651 0.621855
O O4 0.431631 0.000000 0.565784
O O5 0.915599 0.500000 0.900077
O O6 0.938938 0.227939 0.862188
O O7 0.843821 0.290925 0.885471
O O8 0.905261 0.283355 0.998203
O O9 0.750000 0.208460 0.649846
O O10 0.658071 0.263965 0.607896
O O11 0.676752 0.226836 0.748346
O O12 0.678238 0.000000 0.660147
O O13 0.058801 0.500000 0.914931
O O14 0.039413 0.779327 0.880550
O O15 0.000000 0.662197 0.000000
O O16 0.499533 0.253525 0.249750
O O17 0.491572 0.000000 0.183157
O O18 0.107418 0.500000 0.432503
O O19 0.060067 0.280301 0.363665
O O20 0.750000 0.708432 0.843140
O O21 0.687208 0.500000 0.792167
O O22 0.001298 0.500000 0.675708
#
# Coordination Sequence:
#
# PCOD8207817 Si02
#       8
#     8   8   8   8   8   8   8   8
#     4   9  17  29  44  62  84 108 135 169 206 243
#     4   9  17  29  43  58  79 109 140 168 204 247
#     4  10  20  31  42  59  84 112 142 177 213 244
#     4   8  15  28  42  55  76 106 136 166 202 245
#     4  11  20  27  39  60  83 107 138 173 206 241
#     4  10  19  30  45  62  81 110 144 173 204 244
#     4   9  17  29  44  61  81 106 138 174 207 241
#     4  10  19  30  43  60  84 112 141 170 202 245
#
# _framework density 14.974818000000001
#
# number of rings (size 3 to 8) (size 9 to 14) (size 15 to 20)
#    0.000    2.500    0.000    4.125    0.000    9.500 
#    0.000    0.000    0.000    0.000    0.000    0.000 
#    0.000    1.000    0.000    5.000    0.000    3.375 
#
# Total GULP energy -793488.942132 kJ/mol
# GULP energy per Si atom -12398.264721 kJ/mol
# Density = 1.494073 g / cm^3
# Si number density = 14.974818 Si / 1000 Ang^3
#
#
#
# Elastic Constant Matrix: (Units=GPa)
#
#
# Indices 1 2 3 4 5 6 
#
# 1 66.4506 30.5355 42.6426 0.0000 0.0000 0.0000
# 2 30.5355 79.0947 44.9559 0.0000 0.0000 0.0000
# 3 42.6426 44.9559 91.9122 0.0000 0.0000 0.0000
# 4 0.0000 0.0000 0.0000 14.9989 0.0000 0.0000
# 5 0.0000 0.0000 0.0000 0.0000 27.8793 0.0000
# 6 0.0000 0.0000 0.0000 0.0000 0.0000 18.3099
#
#
#
# Elastic Compliance Matrix: (Units=1/GPa)
#
#
# Indices 1 2 3 4 5 6 
#
# 1 0.022209 -0.003764 -0.008463 0.000000 0.000000 0.000000
# 2 -0.003764 0.018149 -0.007131 0.000000 0.000000 0.000000
# 3 -0.008463 -0.007131 0.018294 0.000000 0.000000 0.000000
# 4 0.000000 0.000000 0.000000 0.066671 0.000000 0.000000
# 5 0.000000 0.000000 0.000000 0.000000 0.035869 0.000000
# 6 0.000000 0.000000 0.000000 0.000000 0.000000 0.054615
#
#
# Mechanical properties :
#
#
# Convention : Reuss Voigt Hill
#
# Bulk Modulus (GPa) = 50.15765 52.63616 51.39691
# Shear Modulus (GPa) = 19.14466 20.19252 19.66859
#
# Velocity S-wave (km/s) = 3.57943 3.67608 3.62808
# Velocity P-wave (km/s) = 7.11691 7.29686 7.20745
#
# Compressibility (1/GPa) = 0.01993714
#
# Stress axis : x y z
#
# Youngs Moduli (GPa) = 45.02632 55.09885 54.66232
#
# Poissons Ratio (x) = 0.20739 0.46260
# Poissons Ratio (y) = 0.16948 0.38979
# Poissons Ratio (z) = 0.38106 0.39290
#
# Static dielectric constant tensor:
#      x y z
#    x 2.839610 0.000000 0.000000 
#    y 0.000000 2.994740 0.000000 
#    z 0.000000 0.000000 2.972010 
# 
# 
# High freq. dielectric constant tensor:
#      x y z
#    x 1.539550 0.000000 0.000000 
#    y 0.000000 1.584570 0.000000 
#    z 0.000000 0.000000 1.561810 
# 
# From -- ./inp_files/30976.got.cif
#   From: 2010.03.12/outbox.cif.g09.slc.cpg/sg51_16_cif.got.tgz:30976.got - 2010.04.16 13:43:02.
