data_PCOD8207109
_publ_section_title
;
Structure prediction by ZEFSAII (Michael W. Deem and Ramdas Pophale) SiO2 
 PCOD8207109
Probable space group: P M M A
;
_chemical_formula_sum "Si O2"
_cell_formula_units_Z 48
_cell_length_a 34.695882
_cell_length_b 7.831587
_cell_length_c 9.307296
_cell_angle_alpha 90.000000
_cell_angle_beta 90.000000
_cell_angle_gamma 90.000000
_cell_volume 2529.014008
_symmetry_space_group_name_H-M "P M M A"
_symmetry_group_IT_number 51
_symmetry_cell_setting 'orthorhombic'
loop_
_space_group_symop_operation_xyz
x,y,z
1/2-x,-y,z
1/2+x,-y,-z
-x,y,-z
-x,-y,-z
1/2+x,y,-z
1/2-x,y,z
x,-y,z
loop_
_atom_site_type_symbol
_atom_site_label
_atom_site_fract_x
_atom_site_fract_y
_atom_site_fract_z
Si Si1 0.250000 0.200835 0.341799
Si Si2 0.830569 0.304970 0.638610
Si Si3 0.542551 0.000000 0.827639
Si Si4 0.250000 0.797903 0.663729
Si Si5 0.096827 0.696594 0.172330
Si Si6 0.832821 0.193682 0.319566
Si Si7 0.595143 0.310938 0.160748
Si Si8 0.456616 0.000000 0.831417
O O1 0.209884 0.271977 0.275920
O O2 0.250000 0.275162 0.503229
O O3 0.250000 0.000000 0.325962
O O4 0.834888 0.500000 0.593523
O O5 0.864411 0.250950 0.746047
O O6 0.833593 0.195330 0.493021
O O7 0.563605 0.173256 0.774497
O O8 0.499344 0.000000 0.762974
O O9 0.540447 0.000000 0.998370
O O10 0.290414 0.740630 0.737580
O O11 0.250000 0.000000 0.651176
O O12 0.084337 0.500000 0.203678
O O13 0.105129 0.725676 0.004535
O O14 0.865393 0.310694 0.250553
O O15 0.840130 0.000000 0.268975
O O16 0.576682 0.500000 0.178313
O O17 0.565523 0.170150 0.222062
#
# Coordination Sequence:
#
# PCOD8207109 Si02
#       8
#     4   8   4   4   8   8   8   4
#     4   9  17  29  46  71  98 132 175 213 248 288
#     4  10  19  32  50  74 103 136 172 211 253 296
#     4   9  18  32  57  74 105 130 166 203 259 299
#     4   7  14  27  44  67  98 129 166 214 244 278
#     4   9  20  34  52  78 105 133 168 208 252 305
#     4  10  18  31  51  76 103 134 174 212 249 298
#     4  10  19  34  53  76 106 135 165 208 256 300
#     4   9  18  34  51  82  99 132 166 207 247 313
#
# _framework density 18.979728000000001
#
# number of rings (size 3 to 8) (size 9 to 14) (size 15 to 20)
#    0.000    2.667    0.833    2.250    2.333    0.667 
#    0.000    5.417    0.000    5.000    0.000    3.500 
#    0.000    0.000    0.000    0.000    0.000    0.000 
#
# Total GULP energy -594837.011155 kJ/mol
# GULP energy per Si atom -12392.437732 kJ/mol
# Density = 1.893653 g / cm^3
# Si number density = 18.979728 Si / 1000 Ang^3
#
#
#
# Elastic Constant Matrix: (Units=GPa)
#
#
# Indices 1 2 3 4 5 6 
#
# 1 178.5644 66.9900 34.3278 0.0000 0.0000 0.0000
# 2 66.9900 101.5125 18.1604 0.0000 0.0000 0.0000
# 3 34.3278 18.1604 29.9247 0.0000 0.0000 0.0000
# 4 0.0000 0.0000 0.0000 17.9410 0.0000 0.0000
# 5 0.0000 0.0000 0.0000 0.0000 15.9237 0.0000
# 6 0.0000 0.0000 0.0000 0.0000 0.0000 24.5844
#
#
#
# Elastic Compliance Matrix: (Units=1/GPa)
#
#
# Indices 1 2 3 4 5 6 
#
# 1 0.008647 -0.004411 -0.007243 0.000000 0.000000 0.000000
# 2 -0.004411 0.013301 -0.003012 0.000000 0.000000 0.000000
# 3 -0.007243 -0.003012 0.043554 0.000000 0.000000 0.000000
# 4 0.000000 0.000000 0.000000 0.055738 0.000000 0.000000
# 5 0.000000 0.000000 0.000000 0.000000 0.062799 0.000000
# 6 0.000000 0.000000 0.000000 0.000000 0.000000 0.040676
#
#
# Mechanical properties :
#
#
# Convention : Reuss Voigt Hill
#
# Bulk Modulus (GPa) = 27.64694 60.99532 44.32113
# Shear Modulus (GPa) = 18.78967 24.39140 21.59053
#
# Velocity S-wave (km/s) = 3.14982 3.58876 3.37643
# Velocity P-wave (km/s) = 5.27510 7.02703 6.21312
#
# Compressibility (1/GPa) = 0.03617036
#
# Stress axis : x y z
#
# Youngs Moduli (GPa) = 115.64188 75.18455 22.96013
#
# Poissons Ratio (x) = 0.33163 0.16630
# Poissons Ratio (y) = 0.51007 0.06915
# Poissons Ratio (z) = 0.83759 0.22645
#
# Static dielectric constant tensor:
#      x y z
#    x 3.798270 0.000000 0.000000 
#    y 0.000000 3.500620 0.000000 
#    z 0.000000 0.000000 2.975300 
# 
# 
# High freq. dielectric constant tensor:
#      x y z
#    x 1.744390 0.000000 0.000000 
#    y 0.000000 1.747820 0.000000 
#    z 0.000000 0.000000 1.679360 
# 
# From -- ./inp_files/12992.got.cif
#   From: 2010.03.12/outbox.cif.g09.slc.cpg/sg51_7_cif.got.tgz:12992.got - 2010.04.16 13:43:02.
