data_PCOD8207062
_publ_section_title
;
Structure prediction by ZEFSAII (Michael W. Deem and Ramdas Pophale) SiO2 
 PCOD8207062
Probable space group: P M M A
;
_chemical_formula_sum "Si O2"
_cell_formula_units_Z 64
_cell_length_a 28.507393
_cell_length_b 9.105329
_cell_length_c 15.374642
_cell_angle_alpha 90.000000
_cell_angle_beta 90.000000
_cell_angle_gamma 90.000000
_cell_volume 3990.783404
_symmetry_space_group_name_H-M "P M M A"
_symmetry_group_IT_number 51
_symmetry_cell_setting 'orthorhombic'
loop_
_space_group_symop_operation_xyz
x,y,z
1/2-x,-y,z
1/2+x,-y,-z
-x,y,-z
-x,-y,-z
1/2+x,y,-z
1/2-x,y,z
x,-y,z
loop_
_atom_site_type_symbol
_atom_site_label
_atom_site_fract_x
_atom_site_fract_y
_atom_site_fract_z
Si Si1 0.804520 0.830158 0.492871
Si Si2 0.194367 0.162239 0.001875
Si Si3 0.696016 0.672214 0.830359
Si Si4 0.647377 0.828148 0.672577
Si Si5 0.640503 0.325976 0.341473
Si Si6 0.447794 0.826856 0.406583
Si Si7 0.948500 0.173801 0.396549
Si Si8 0.804722 0.829109 0.191632
O O1 0.750000 0.794212 0.481791
O O2 0.819409 0.792393 0.590922
O O3 0.833439 0.730706 0.427249
O O4 0.815580 0.000000 0.471651
O O5 0.250000 0.157101 0.998596
O O6 0.177345 0.210268 0.905796
O O7 0.174887 0.000000 0.024310
O O8 0.176763 0.273630 0.076032
O O9 0.750000 0.720514 0.817563
O O10 0.689982 0.500000 0.826567
O O11 0.665232 0.742184 0.755470
O O12 0.594648 0.769403 0.653335
O O13 0.648073 0.000000 0.694213
O O14 0.638428 0.500000 0.343937
O O15 0.587979 0.260728 0.336512
O O16 0.667289 0.274899 0.255924
O O17 0.498465 0.783219 0.366948
O O18 0.441574 0.768825 0.504779
O O19 0.444468 0.000000 0.414391
O O20 0.939774 0.000000 0.387644
O O21 0.750000 0.794008 0.203051
O O22 0.814336 0.000000 0.212688
#
# Coordination Sequence:
#
# PCOD8207062 Si02
#       8
#     8   8   8   8   8   8   8   8
#     4  10  20  33  48  64  88 127 168 200 230 267
#     4   8  15  30  51  71  89 115 156 202 239 270
#     4  10  20  31  44  67 100 133 159 186 228 280
#     4  10  18  31  50  71  91 118 160 201 235 274
#     4  12  23  31  43  68  99 130 158 189 233 284
#     4   8  15  29  53  74  86 111 156 206 246 275
#     4   9  16  32  53  69  88 117 156 201 242 281
#     4   9  18  33  52  71  92 122 161 201 237 275
#
# _framework density 16.036950999999998
#
# number of rings (size 3 to 8) (size 9 to 14) (size 15 to 20)
#    0.000    2.500    1.250    3.750    0.000    4.250 
#    0.000    3.125    0.000    0.000    0.000    0.875 
#    0.000    7.000    0.000    0.000    0.000    0.000 
#
# Total GULP energy -793405.250910 kJ/mol
# GULP energy per Si atom -12396.957045 kJ/mol
# Density = 1.600045 g / cm^3
# Si number density = 16.036951 Si / 1000 Ang^3
#
#
#
# Elastic Constant Matrix: (Units=GPa)
#
#
# Indices 1 2 3 4 5 6 
#
# 1 89.8877 43.2232 39.4512 0.0000 0.0000 0.0000
# 2 43.2232 70.4440 44.4295 0.0000 0.0000 0.0000
# 3 39.4512 44.4295 87.4867 0.0000 0.0000 0.0000
# 4 0.0000 0.0000 0.0000 4.1394 0.0000 0.0000
# 5 0.0000 0.0000 0.0000 0.0000 7.8886 0.0000
# 6 0.0000 0.0000 0.0000 0.0000 0.0000 12.5729
#
#
#
# Elastic Compliance Matrix: (Units=1/GPa)
#
#
# Indices 1 2 3 4 5 6 
#
# 1 0.016429 -0.007956 -0.003368 0.000000 0.000000 0.000000
# 2 -0.007956 0.024738 -0.008975 0.000000 0.000000 0.000000
# 3 -0.003368 -0.008975 0.017507 0.000000 0.000000 0.000000
# 4 0.000000 0.000000 0.000000 0.241580 0.000000 0.000000
# 5 0.000000 0.000000 0.000000 0.000000 0.126765 0.000000
# 6 0.000000 0.000000 0.000000 0.000000 0.000000 0.079536
#
#
# Mechanical properties :
#
#
# Convention : Reuss Voigt Hill
#
# Bulk Modulus (GPa) = 55.32443 55.78071 55.55257
# Shear Modulus (GPa) = 9.03863 12.96781 11.00322
#
# Velocity S-wave (km/s) = 2.37663 2.84671 2.62222
# Velocity P-wave (km/s) = 6.48877 6.75745 6.62447
#
# Compressibility (1/GPa) = 0.01807520
#
# Stress axis : x y z
#
# Youngs Moduli (GPa) = 60.86772 40.42294 57.11969
#
# Poissons Ratio (x) = 0.32162 0.19237
# Poissons Ratio (y) = 0.48429 0.51267
# Poissons Ratio (z) = 0.20500 0.36281
#
# Static dielectric constant tensor:
#      x y z
#    x 3.226360 0.000000 0.000000 
#    y 0.000000 2.902600 0.000000 
#    z 0.000000 0.000000 3.067000 
# 
# 
# High freq. dielectric constant tensor:
#      x y z
#    x 1.602790 0.000000 0.000000 
#    y 0.000000 1.600900 0.000000 
#    z 0.000000 0.000000 1.606150 
# 
# From -- ./inp_files/26686.got.cif
#   From: 2010.03.12/outbox.cif.g09.slc.cpg/sg51_14_cif.got.tgz:26686.got - 2010.04.16 13:43:02.
