data_PCOD8207878
_publ_section_title
;
Structure prediction by ZEFSAII (Michael W. Deem and Ramdas Pophale) SiO2 
 PCOD8207878
Probable space group: P M M A
;
_chemical_formula_sum "Si O2"
_cell_formula_units_Z 52
_cell_length_a 9.075661
_cell_length_b 20.318110
_cell_length_c 14.131692
_cell_angle_alpha 90.000000
_cell_angle_beta 90.000000
_cell_angle_gamma 90.000000
_cell_volume 2605.887941
_symmetry_space_group_name_H-M "P M M A"
_symmetry_group_IT_number 51
_symmetry_cell_setting 'orthorhombic'
loop_
_space_group_symop_operation_xyz
x,y,z
1/2-x,-y,z
1/2+x,-y,-z
-x,y,-z
-x,-y,-z
1/2+x,y,-z
1/2-x,y,z
x,-y,z
loop_
_atom_site_type_symbol
_atom_site_label
_atom_site_fract_x
_atom_site_fract_y
_atom_site_fract_z
Si Si1 0.914031 0.696059 0.356728
Si Si2 0.585677 0.257577 0.143476
Si Si3 0.923121 0.177294 0.590388
Si Si4 0.922493 0.866413 0.797787
Si Si5 0.922732 0.382487 0.910805
Si Si6 0.077846 0.000000 0.100774
Si Si7 0.920876 0.574332 0.703571
O O1 0.750000 0.694304 0.401956
O O2 0.903594 0.717804 0.249549
O O3 0.017700 0.747801 0.409838
O O4 0.985466 0.623270 0.362559
O O5 0.750000 0.254191 0.098941
O O6 0.511759 0.185829 0.139473
O O7 0.482471 0.307750 0.087382
O O8 0.750000 0.178423 0.574266
O O9 0.965452 0.138710 0.686594
O O10 0.000000 0.141509 0.500000
O O11 0.750000 0.851685 0.810131
O O12 0.968664 0.937496 0.836410
O O13 0.750000 0.382153 0.927669
O O14 0.965547 0.419273 0.813975
O O15 0.000000 0.419242 0.000000
O O16 0.250000 0.000000 0.080001
O O17 0.000000 0.000000 0.000000
O O18 0.750000 0.592999 0.692065
O O19 0.953626 0.500000 0.670504
#
# Coordination Sequence:
#
# PCOD8207878 Si02
#       7
#     8   8   8   8   8   4   8
#     4   9  17  30  49  74 101 129 166 210 253 304
#     4   9  17  30  49  71  95 125 164 211 260 308
#     4  10  19  33  56  84 112 142 175 215 265 319
#     4   9  19  36  56  78 109 146 180 217 264 317
#     4  10  19  30  44  64  92 125 165 215 269 322
#     4  10  22  40  59  80 108 146 189 226 263 310
#     4   9  18  32  48  66  92 130 172 212 261 320
#
# _framework density 19.954809999999998
#
# number of rings (size 3 to 8) (size 9 to 14) (size 15 to 20)
#    0.000    2.615    0.000    1.846    0.000    6.769 
#    0.000    1.923    0.000    0.462    0.000    0.000 
#    0.000    0.000    0.000    0.000    0.000    0.000 
#
# Total GULP energy -644644.438179 kJ/mol
# GULP energy per Si atom -12397.008427 kJ/mol
# Density = 1.990939 g / cm^3
# Si number density = 19.954810 Si / 1000 Ang^3
#
#
#
# Elastic Constant Matrix: (Units=GPa)
#
#
# Indices 1 2 3 4 5 6 
#
# 1 85.0189 32.5799 27.3506 0.0000 0.0000 0.0000
# 2 32.5799 109.9163 22.2194 0.0000 0.0000 0.0000
# 3 27.3506 22.2194 70.7897 0.0000 0.0000 0.0000
# 4 0.0000 0.0000 0.0000 16.0478 0.0000 0.0000
# 5 0.0000 0.0000 0.0000 0.0000 31.0656 0.0000
# 6 0.0000 0.0000 0.0000 0.0000 0.0000 24.2527
#
#
#
# Elastic Compliance Matrix: (Units=1/GPa)
#
#
# Indices 1 2 3 4 5 6 
#
# 1 0.014523 -0.003385 -0.004548 0.000000 0.000000 0.000000
# 2 -0.003385 0.010503 -0.001989 0.000000 0.000000 0.000000
# 3 -0.004548 -0.001989 0.016508 0.000000 0.000000 0.000000
# 4 0.000000 0.000000 0.000000 0.062314 0.000000 0.000000
# 5 0.000000 0.000000 0.000000 0.000000 0.032190 0.000000
# 6 0.000000 0.000000 0.000000 0.000000 0.000000 0.041233
#
#
# Mechanical properties :
#
#
# Convention : Reuss Voigt Hill
#
# Bulk Modulus (GPa) = 46.10659 47.78052 46.94355
# Shear Modulus (GPa) = 24.46849 26.51156 25.49003
#
# Velocity S-wave (km/s) = 3.50551 3.64892 3.57793
# Velocity P-wave (km/s) = 6.28812 6.46136 6.37533
#
# Compressibility (1/GPa) = 0.02168888
#
# Stress axis : x y z
#
# Youngs Moduli (GPa) = 68.85849 95.20868 60.57682
#
# Poissons Ratio (x) = 0.32229 0.27553
# Poissons Ratio (y) = 0.23309 0.12048
# Poissons Ratio (z) = 0.31320 0.18936
#
# Static dielectric constant tensor:
#      x y z
#    x 3.749390 0.000000 0.000000 
#    y 0.000000 3.515070 0.000000 
#    z 0.000000 0.000000 3.693940 
# 
# 
# High freq. dielectric constant tensor:
#      x y z
#    x 1.782390 0.000000 0.000000 
#    y 0.000000 1.756690 0.000000 
#    z 0.000000 0.000000 1.772440 
# 
# From -- ./inp_files/21551.got.cif
#   From: 2010.03.12/outbox.cif.g09.slc.cpg/sg51_11_cif.got.tgz:21551.got - 2010.04.16 13:43:02.
