data_PCOD8207315
_publ_section_title
;
Structure prediction by ZEFSAII (Michael W. Deem and Ramdas Pophale) SiO2 
 PCOD8207315
Probable space group: P M M A
;
_chemical_formula_sum "Si O2"
_cell_formula_units_Z 24
_cell_length_a 8.464558
_cell_length_b 15.574076
_cell_length_c 9.093093
_cell_angle_alpha 90.000000
_cell_angle_beta 90.000000
_cell_angle_gamma 90.000000
_cell_volume 1198.721260
_symmetry_space_group_name_H-M "P M M A"
_symmetry_group_IT_number 51
_symmetry_cell_setting 'orthorhombic'
loop_
_space_group_symop_operation_xyz
x,y,z
1/2-x,-y,z
1/2+x,-y,-z
-x,y,-z
-x,-y,-z
1/2+x,y,-z
1/2-x,y,z
x,-y,z
loop_
_atom_site_type_symbol
_atom_site_label
_atom_site_fract_x
_atom_site_fract_y
_atom_site_fract_z
Si Si1 0.437053 0.661946 0.162928
Si Si2 0.562758 0.500000 0.336584
Si Si3 0.436834 0.822813 0.664641
Si Si4 0.937398 0.000000 0.664288
O O1 0.250000 0.661972 0.162987
O O2 0.499478 0.584160 0.258683
O O3 0.499586 0.750063 0.229138
O O4 0.500000 0.650134 0.000000
O O5 0.750000 0.500000 0.334550
O O6 0.500000 0.500000 0.500000
O O7 0.500000 0.808888 0.500000
O O8 0.250000 0.820705 0.659178
O O9 0.495559 0.912859 0.736835
O O10 0.000000 0.000000 0.500000
O O11 0.750000 0.000000 0.669871
#
# Coordination Sequence:
#
# PCOD8207315 Si02
#       4
#     8   4   8   4
#     4  12  25  43  63  89 122 160 199 244 298 358
#     4  12  25  44  67  94 122 156 198 246 295 350
#     4  11  21  37  60  89 121 159 202 250 299 353
#     4  10  18  32  55  86 119 156 199 250 300 350
#
# _framework density 20.021336000000002
#
# number of rings (size 3 to 8) (size 9 to 14) (size 15 to 20)
#    0.000    0.667    0.000   12.500    0.000    0.000 
#    0.000    0.833    0.000    0.000    0.000    0.000 
#    0.000    0.000    0.000    0.000    0.000    0.000 
#
# Total GULP energy -297664.230090 kJ/mol
# GULP energy per Si atom -12402.676254 kJ/mol
# Density = 1.997577 g / cm^3
# Si number density = 20.021336 Si / 1000 Ang^3
#
#
#
# Elastic Constant Matrix: (Units=GPa)
#
#
# Indices 1 2 3 4 5 6 
#
# 1 248.5543 82.7727 63.5360 0.0000 0.0000 0.0000
# 2 82.7727 199.2360 80.6745 0.0000 0.0000 0.0000
# 3 63.5360 80.6745 123.3338 0.0000 0.0000 0.0000
# 4 0.0000 0.0000 0.0000 262.8982 0.0000 0.0000
# 5 0.0000 0.0000 0.0000 0.0000 35.8853 0.0000
# 6 0.0000 0.0000 0.0000 0.0000 0.0000 45.2946
#
#
#
# Elastic Compliance Matrix: (Units=1/GPa)
#
#
# Indices 1 2 3 4 5 6 
#
# 1 0.004897 -0.001378 -0.001621 0.000000 0.000000 0.000000
# 2 -0.001378 0.007215 -0.004010 0.000000 0.000000 0.000000
# 3 -0.001621 -0.004010 0.011566 0.000000 0.000000 0.000000
# 4 0.000000 0.000000 0.000000 0.003804 0.000000 0.000000
# 5 0.000000 0.000000 0.000000 0.000000 0.027867 0.000000
# 6 0.000000 0.000000 0.000000 0.000000 0.000000 0.022078
#
#
# Mechanical properties :
#
#
# Convention : Reuss Voigt Hill
#
# Bulk Modulus (GPa) = 103.51737 113.89895 108.70816
# Shear Modulus (GPa) = 52.81860 91.75836 72.28848
#
# Velocity S-wave (km/s) = 5.14183 6.77715 6.01532
# Velocity P-wave (km/s) = 9.33097 10.87437 10.13210
#
# Compressibility (1/GPa) = 0.00966021
#
# Stress axis : x y z
#
# Youngs Moduli (GPa) = 204.22690 138.59578 86.45928
#
# Poissons Ratio (x) = 0.19096 0.14017
# Poissons Ratio (y) = 0.28138 0.34669
# Poissons Ratio (z) = 0.33110 0.55574
#
# Static dielectric constant tensor:
#      x y z
#    x 3.994170 0.000000 0.000000 
#    y 0.000000 4.324970 0.000000 
#    z 0.000000 0.000000 3.577620 
# 
# 
# High freq. dielectric constant tensor:
#      x y z
#    x 1.812690 0.000000 0.000000 
#    y 0.000000 1.812470 0.000000 
#    z 0.000000 0.000000 1.764140 
# 
# From -- ./inp_files/4585.got.cif
#   From: 2010.03.12/outbox.cif.g09.slc.cpg/sg51_3_cif.got.tgz:4585.got - 2010.04.16 13:43:02.
