data_PCOD8207185
_publ_section_title
;
Structure prediction by ZEFSAII (Michael W. Deem and Ramdas Pophale) SiO2 
 PCOD8207185
Probable space group: P M M A
;
_chemical_formula_sum "Si O2"
_cell_formula_units_Z 64
_cell_length_a 24.942631
_cell_length_b 8.938204
_cell_length_c 16.946192
_cell_angle_alpha 90.000000
_cell_angle_beta 90.000000
_cell_angle_gamma 90.000000
_cell_volume 3778.023430
_symmetry_space_group_name_H-M "P M M A"
_symmetry_group_IT_number 51
_symmetry_cell_setting 'orthorhombic'
loop_
_space_group_symop_operation_xyz
x,y,z
1/2-x,-y,z
1/2+x,-y,-z
-x,y,-z
-x,-y,-z
1/2+x,y,-z
1/2-x,y,z
x,-y,z
loop_
_atom_site_type_symbol
_atom_site_label
_atom_site_fract_x
_atom_site_fract_y
_atom_site_fract_z
Si Si1 0.438108 0.324460 0.660868
Si Si2 0.396264 0.673678 0.179319
Si Si3 0.995847 0.673266 0.092469
Si Si4 0.311709 0.826748 0.077583
Si Si5 0.187438 0.673399 0.915425
Si Si6 0.438429 0.327818 0.348522
Si Si7 0.400347 0.177140 0.816535
Si Si8 0.436287 0.831446 0.503348
O O1 0.427819 0.500000 0.667635
O O2 0.500530 0.282712 0.671160
O O3 0.405982 0.241177 0.728985
O O4 0.415739 0.266686 0.576873
O O5 0.384718 0.500000 0.162397
O O6 0.449299 0.725853 0.133131
O O7 0.346300 0.771995 0.151555
O O8 0.402698 0.704982 0.272101
O O9 0.984290 0.500000 0.112350
O O10 0.947622 0.770026 0.126195
O O11 0.000000 0.702689 0.000000
O O12 0.250000 0.796955 0.099026
O O13 0.322675 0.000000 0.060095
O O14 0.329429 0.733390 0.001186
O O15 0.250000 0.699729 0.899877
O O16 0.171369 0.500000 0.911435
O O17 0.156197 0.764511 0.848980
O O18 0.436751 0.500000 0.373943
O O19 0.413895 0.233920 0.421064
O O20 0.400088 0.000000 0.812908
O O21 0.500000 0.823465 0.500000
O O22 0.415346 0.000000 0.513568
#
# Coordination Sequence:
#
# PCOD8207185 Si02
#       8
#     8   8   8   8   8   8   8   8
#     4  10  18  32  50  69  99 136 171 204 242 295
#     4  10  19  32  50  74 101 134 174 211 247 295
#     4  10  20  34  50  69  98 136 172 205 244 297
#     4  10  21  36  53  75 102 130 165 213 264 305
#     4  10  21  38  58  75  94 128 173 215 254 298
#     4   9  17  30  47  69  98 134 171 205 245 294
#     4  12  23  33  50  76 105 133 164 206 255 301
#     4   9  17  28  44  69  99 130 166 205 248 295
#
# _framework density 16.940073999999999
#
# number of rings (size 3 to 8) (size 9 to 14) (size 15 to 20)
#    0.000    2.000    1.250    3.375    0.000    5.750 
#    0.000    0.000    0.000    0.000    0.000    0.875 
#    0.000    3.000    0.000    0.000    0.000    0.000 
#
# Total GULP energy -793848.354910 kJ/mol
# GULP energy per Si atom -12403.880545 kJ/mol
# Density = 1.690152 g / cm^3
# Si number density = 16.940074 Si / 1000 Ang^3
#
#
#
# Elastic Constant Matrix: (Units=GPa)
#
#
# Indices 1 2 3 4 5 6 
#
# 1 59.0358 40.2335 45.3050 0.0000 0.0000 0.0000
# 2 40.2335 106.4247 59.9598 0.0000 0.0000 0.0000
# 3 45.3050 59.9598 119.2180 0.0000 0.0000 0.0000
# 4 0.0000 0.0000 0.0000 27.1038 0.0000 0.0000
# 5 0.0000 0.0000 0.0000 0.0000 17.4161 0.0000
# 6 0.0000 0.0000 0.0000 0.0000 0.0000 24.2377
#
#
#
# Elastic Compliance Matrix: (Units=1/GPa)
#
#
# Indices 1 2 3 4 5 6 
#
# 1 0.026436 -0.006048 -0.007004 0.000000 0.000000 0.000000
# 2 -0.006048 0.014495 -0.004992 0.000000 0.000000 0.000000
# 3 -0.007004 -0.004992 0.013560 0.000000 0.000000 0.000000
# 4 0.000000 0.000000 0.000000 0.036895 0.000000 0.000000
# 5 0.000000 0.000000 0.000000 0.000000 0.057418 0.000000
# 6 0.000000 0.000000 0.000000 0.000000 0.000000 0.041258
#
#
# Mechanical properties :
#
#
# Convention : Reuss Voigt Hill
#
# Bulk Modulus (GPa) = 54.33842 63.96389 59.15116
# Shear Modulus (GPa) = 21.52529 23.03021 22.27775
#
# Velocity S-wave (km/s) = 3.56852 3.69115 3.63035
# Velocity P-wave (km/s) = 7.00896 7.48379 7.25026
#
# Compressibility (1/GPa) = 0.01840318
#
# Stress axis : x y z
#
# Youngs Moduli (GPa) = 37.82768 68.98889 73.74364
#
# Poissons Ratio (x) = 0.41722 0.51653
# Poissons Ratio (y) = 0.22877 0.36813
# Poissons Ratio (z) = 0.26496 0.34439
#
# Static dielectric constant tensor:
#      x y z
#    x 2.903230 0.000000 0.000000 
#    y 0.000000 3.236200 0.000000 
#    z 0.000000 0.000000 3.271370 
# 
# 
# High freq. dielectric constant tensor:
#      x y z
#    x 1.615300 0.000000 0.000000 
#    y 0.000000 1.662490 0.000000 
#    z 0.000000 0.000000 1.660930 
# 
# From -- ./inp_files/30915.got.cif
#   From: 2010.03.12/outbox.cif.g09.slc.cpg/sg51_16_cif.got.tgz:30915.got - 2010.04.16 13:43:02.
