data_PCOD8207292
_publ_section_title
;
Structure prediction by ZEFSAII (Michael W. Deem and Ramdas Pophale) SiO2 
 PCOD8207292
Probable space group: P M M A
;
_chemical_formula_sum "Si O2"
_cell_formula_units_Z 48
_cell_length_a 20.433124
_cell_length_b 9.546359
_cell_length_c 13.998706
_cell_angle_alpha 90.000000
_cell_angle_beta 90.000000
_cell_angle_gamma 90.000000
_cell_volume 2730.614711
_symmetry_space_group_name_H-M "P M M A"
_symmetry_group_IT_number 51
_symmetry_cell_setting 'orthorhombic'
loop_
_space_group_symop_operation_xyz
x,y,z
1/2-x,-y,z
1/2+x,-y,-z
-x,y,-z
-x,-y,-z
1/2+x,y,-z
1/2-x,y,z
x,-y,z
loop_
_atom_site_type_symbol
_atom_site_label
_atom_site_fract_x
_atom_site_fract_y
_atom_site_fract_z
Si Si1 0.125779 0.333974 0.212259
Si Si2 0.618772 0.159667 0.204824
Si Si3 0.005244 0.665841 0.889561
Si Si4 0.750000 0.332971 0.903061
Si Si5 0.826411 0.661982 0.585680
Si Si6 0.174991 0.162545 0.594665
Si Si7 0.250000 0.156844 0.911127
O O1 0.128712 0.500000 0.207370
O O2 0.186203 0.274439 0.151134
O O3 0.132664 0.285557 0.322187
O O4 0.058599 0.278337 0.166485
O O5 0.567475 0.263336 0.157801
O O6 0.628971 0.199402 0.315761
O O7 0.687545 0.180425 0.154178
O O8 0.593953 0.000000 0.194710
O O9 0.013544 0.500000 0.879926
O O10 0.000000 0.710699 0.000000
O O11 0.750000 0.500000 0.909569
O O12 0.750000 0.273265 0.008505
O O13 0.750000 0.687496 0.607288
O O14 0.840188 0.500000 0.563721
O O15 0.851281 0.749922 0.495352
O O16 0.250000 0.203603 0.618105
O O17 0.170125 0.000000 0.568328
O O18 0.250000 0.000000 0.955063
#
# Coordination Sequence:
#
# PCOD8207292 Si02
#       7
#     8   8   8   4   8   8   4
#     4   9  17  32  53  76 105 137 168 208 260 307
#     4  10  20  36  55  74 101 138 174 209 259 313
#     4  10  21  36  53  76 106 139 175 214 255 303
#     4  10  18  32  55  78 100 132 173 214 255 302
#     4   9  16  29  51  78 103 131 167 207 254 308
#     4   9  17  32  53  76 102 133 167 210 262 306
#     4  10  20  34  51  74 102 130 167 216 261 304
#
# _framework density 17.578458999999999
#
# number of rings (size 3 to 8) (size 9 to 14) (size 15 to 20)
#    0.000    2.500    1.667    1.000    0.000    3.000 
#    0.000    3.333    0.000    5.000    0.000    0.000 
#    0.000    0.000    0.000    0.000    0.000    0.000 
#
# Total GULP energy -595198.927582 kJ/mol
# GULP energy per Si atom -12399.977658 kJ/mol
# Density = 1.753845 g / cm^3
# Si number density = 17.578459 Si / 1000 Ang^3
#
#
#
# Elastic Constant Matrix: (Units=GPa)
#
#
# Indices 1 2 3 4 5 6 
#
# 1 107.9627 37.0594 62.0479 0.0000 0.0000 0.0000
# 2 37.0594 44.5116 54.3129 0.0000 0.0000 0.0000
# 3 62.0479 54.3129 154.2002 0.0000 0.0000 0.0000
# 4 0.0000 0.0000 0.0000 18.6935 0.0000 0.0000
# 5 0.0000 0.0000 0.0000 0.0000 32.3981 0.0000
# 6 0.0000 0.0000 0.0000 0.0000 0.0000 3.5097
#
#
#
# Elastic Compliance Matrix: (Units=1/GPa)
#
#
# Indices 1 2 3 4 5 6 
#
# 1 0.013534 -0.008108 -0.002590 0.000000 0.000000 0.000000
# 2 -0.008108 0.044256 -0.012326 0.000000 0.000000 0.000000
# 3 -0.002590 -0.012326 0.011869 0.000000 0.000000 0.000000
# 4 0.000000 0.000000 0.000000 0.053494 0.000000 0.000000
# 5 0.000000 0.000000 0.000000 0.000000 0.030866 0.000000
# 6 0.000000 0.000000 0.000000 0.000000 0.000000 0.284923
#
#
# Mechanical properties :
#
#
# Convention : Reuss Voigt Hill
#
# Bulk Modulus (GPa) = 42.35161 68.16835 55.25998
# Shear Modulus (GPa) = 10.14486 21.13722 15.64104
#
# Velocity S-wave (km/s) = 2.40494 3.47140 2.98616
# Velocity P-wave (km/s) = 5.64419 7.41155 6.58741
#
# Compressibility (1/GPa) = 0.02361185
#
# Stress axis : x y z
#
# Youngs Moduli (GPa) = 73.88716 22.59585 84.25520
#
# Poissons Ratio (x) = 0.18320 0.21824
# Poissons Ratio (y) = 0.59905 1.03849
# Poissons Ratio (z) = 0.19139 0.27851
#
# Static dielectric constant tensor:
#      x y z
#    x 3.256250 0.000000 0.000000 
#    y 0.000000 3.061770 0.000000 
#    z 0.000000 0.000000 3.429270 
# 
# 
# High freq. dielectric constant tensor:
#      x y z
#    x 1.668480 0.000000 0.000000 
#    y 0.000000 1.657360 0.000000 
#    z 0.000000 0.000000 1.693000 
# 
# From -- ./inp_files/24993.got.cif
#   From: 2010.03.12/outbox.cif.g09.slc.cpg/sg51_13_cif.got.tgz:24993.got - 2010.04.16 13:43:02.
