data_PCOD8207685
_publ_section_title
;
Structure prediction by ZEFSAII (Michael W. Deem and Ramdas Pophale) SiO2 
 PCOD8207685
Probable space group: P M M A
;
_chemical_formula_sum "Si O2"
_cell_formula_units_Z 64
_cell_length_a 9.061222
_cell_length_b 20.021298
_cell_length_c 20.460686
_cell_angle_alpha 90.000000
_cell_angle_beta 90.000000
_cell_angle_gamma 90.000000
_cell_volume 3711.924986
_symmetry_space_group_name_H-M "P M M A"
_symmetry_group_IT_number 51
_symmetry_cell_setting 'orthorhombic'
loop_
_space_group_symop_operation_xyz
x,y,z
1/2-x,-y,z
1/2+x,-y,-z
-x,y,-z
-x,-y,-z
1/2+x,y,-z
1/2-x,y,z
x,-y,z
loop_
_atom_site_type_symbol
_atom_site_label
_atom_site_fract_x
_atom_site_fract_y
_atom_site_fract_z
Si Si1 0.416128 0.924963 0.191844
Si Si2 0.576051 0.386669 0.937241
Si Si3 0.923944 0.714804 0.761339
Si Si4 0.076167 0.571553 0.206408
Si Si5 0.576455 0.923436 0.567121
Si Si6 0.423058 0.840981 0.311399
Si Si7 0.580830 0.739996 0.107666
Si Si8 0.417630 0.111632 0.935388
O O1 0.250000 0.900357 0.175283
O O2 0.488520 0.879015 0.248296
O O3 0.512460 0.923178 0.127153
O O4 0.413875 0.000000 0.219372
O O5 0.750000 0.385378 0.948153
O O6 0.532649 0.423365 0.869965
O O7 0.513612 0.311871 0.934288
O O8 0.500000 0.422591 0.000000
O O9 0.750000 0.714782 0.778329
O O10 0.979751 0.637236 0.753304
O O11 0.955492 0.760884 0.697096
O O12 0.009578 0.748844 0.820868
O O13 0.250000 0.568843 0.213353
O O14 0.010667 0.500000 0.232486
O O15 0.500000 0.902516 0.500000
O O16 0.750000 0.914377 0.557671
O O17 0.511365 0.872541 0.622091
O O18 0.537777 0.000000 0.586279
O O19 0.250000 0.855535 0.312990
O O20 0.750000 0.715785 0.114763
O O21 0.570199 0.808974 0.069767
O O22 0.250000 0.087602 0.940275
O O23 0.500000 0.086457 0.000000
#
# Coordination Sequence:
#
# PCOD8207685 Si02
#       8
#     8   8   8   8   8   8   8   8
#     4  10  20  34  52  70  88 113 147 189 234 279
#     4  10  19  29  43  61  82 110 144 183 230 282
#     4   9  16  28  49  70  89 117 149 187 228 268
#     4   8  15  27  42  62  88 115 143 179 229 283
#     4   9  17  30  48  72 104 137 165 191 222 266
#     4   9  16  29  51  75  96 122 158 192 224 268
#     4  10  19  31  46  65  87 111 143 186 236 283
#     4  11  23  35  48  64  84 113 147 191 242 288
#
# _framework density 17.241727999999998
#
# number of rings (size 3 to 8) (size 9 to 14) (size 15 to 20)
#    0.000    2.500    1.250    2.625    0.000    4.750 
#    0.000    1.250    0.000   10.500    0.000    0.000 
#    0.000    0.500    0.000    0.375    0.000    0.750 
#
# Total GULP energy -793088.320628 kJ/mol
# GULP energy per Si atom -12392.005010 kJ/mol
# Density = 1.720249 g / cm^3
# Si number density = 17.241728 Si / 1000 Ang^3
#
#
#
# Elastic Constant Matrix: (Units=GPa)
#
#
# Indices 1 2 3 4 5 6 
#
# 1 50.3200 21.6974 25.3878 0.0000 0.0000 0.0000
# 2 21.6974 109.7018 56.6043 0.0000 0.0000 0.0000
# 3 25.3878 56.6043 104.5723 0.0000 0.0000 0.0000
# 4 0.0000 0.0000 0.0000 4.7533 0.0000 0.0000
# 5 0.0000 0.0000 0.0000 0.0000 20.3690 0.0000
# 6 0.0000 0.0000 0.0000 0.0000 0.0000 11.8942
#
#
#
# Elastic Compliance Matrix: (Units=1/GPa)
#
#
# Indices 1 2 3 4 5 6 
#
# 1 0.023065 -0.002321 -0.004343 0.000000 0.000000 0.000000
# 2 -0.002321 0.012882 -0.006409 0.000000 0.000000 0.000000
# 3 -0.004343 -0.006409 0.014087 0.000000 0.000000 0.000000
# 4 0.000000 0.000000 0.000000 0.210379 0.000000 0.000000
# 5 0.000000 0.000000 0.000000 0.000000 0.049094 0.000000
# 6 0.000000 0.000000 0.000000 0.000000 0.000000 0.084074
#
#
# Mechanical properties :
#
#
# Convention : Reuss Voigt Hill
#
# Bulk Modulus (GPa) = 41.86535 52.44145 47.15340
# Shear Modulus (GPa) = 11.69073 18.13029 14.91051
#
# Velocity S-wave (km/s) = 2.60676 3.24626 2.94392
# Velocity P-wave (km/s) = 5.77879 6.67326 6.24207
#
# Compressibility (1/GPa) = 0.02388610
#
# Stress axis : x y z
#
# Youngs Moduli (GPa) = 43.35603 77.62913 70.98953
#
# Poissons Ratio (x) = 0.18016 0.30834
# Poissons Ratio (y) = 0.10062 0.45500
# Poissons Ratio (z) = 0.18831 0.49755
#
# Static dielectric constant tensor:
#      x y z
#    x 3.076510 0.000000 0.000000 
#    y 0.000000 3.490770 0.000000 
#    z 0.000000 0.000000 3.031490 
# 
# 
# High freq. dielectric constant tensor:
#      x y z
#    x 1.644450 0.000000 0.000000 
#    y 0.000000 1.669610 0.000000 
#    z 0.000000 0.000000 1.625670 
# 
# From -- ./inp_files/32669.got.cif
#   From: 2010.03.12/outbox.cif.g09.slc.cpg/sg51_17_cif.got.tgz:32669.got - 2010.04.16 13:43:02.
