data_PCOD8207337
_publ_section_title
;
Structure prediction by ZEFSAII (Michael W. Deem and Ramdas Pophale) SiO2 
 PCOD8207337
Probable space group: P M M A
;
_chemical_formula_sum "Si O2"
_cell_formula_units_Z 48
_cell_length_a 14.567391
_cell_length_b 11.710243
_cell_length_c 14.565172
_cell_angle_alpha 90.000000
_cell_angle_beta 90.000000
_cell_angle_gamma 90.000000
_cell_volume 2484.639024
_symmetry_space_group_name_H-M "P M M A"
_symmetry_group_IT_number 51
_symmetry_cell_setting 'orthorhombic'
loop_
_space_group_symop_operation_xyz
x,y,z
1/2-x,-y,z
1/2+x,-y,-z
-x,y,-z
-x,-y,-z
1/2+x,y,-z
1/2-x,y,z
x,-y,z
loop_
_atom_site_type_symbol
_atom_site_label
_atom_site_fract_x
_atom_site_fract_y
_atom_site_fract_z
Si Si1 0.750000 0.861455 0.861337
Si Si2 0.104497 0.251196 0.008578
Si Si3 0.858197 0.500000 0.043256
Si Si4 0.359395 0.500000 0.747122
Si Si5 0.853040 0.877962 0.166675
Si Si6 0.250000 0.867471 0.347188
Si Si7 0.108615 0.869877 0.499757
Si Si8 0.145380 0.266751 0.675642
O O1 0.657894 0.808233 0.906811
O O2 0.750000 0.816117 0.755659
O O3 0.750000 0.000000 0.872627
O O4 0.107803 0.388908 0.013113
O O5 0.152673 0.210325 0.916166
O O6 0.000000 0.208109 0.000000
O O7 0.750000 0.500000 0.045080
O O8 0.896575 0.500000 0.147817
O O9 0.250000 0.500000 0.746905
O O10 0.399786 0.608713 0.690867
O O11 0.750000 0.904868 0.196818
O O12 0.904683 0.821657 0.254394
O O13 0.901123 0.000000 0.142155
O O14 0.157450 0.833619 0.403995
O O15 0.250000 0.000000 0.329845
O O16 0.142992 0.778337 0.572794
O O17 0.000000 0.860195 0.500000
O O18 0.138432 0.000000 0.524996
O O19 0.250000 0.279761 0.707837
#
# Coordination Sequence:
#
# PCOD8207337 Si02
#       8
#     4   8   4   4   8   4   8   8
#     4  11  24  43  62  85 126 177 211 245 310 377
#     4  12  24  38  61  90 120 159 210 258 302 363
#     4  11  19  41  65  81 116 160 202 253 310 368
#     4   9  18  31  56  86 111 146 184 224 302 365
#     4  10  19  32  53  84 117 147 184 237 300 358
#     4   9  20  40  60  79 118 168 202 237 296 367
#     4  10  20  35  59  89 116 150 199 245 292 358
#     4  10  18  32  56  84 113 144 181 237 295 350
#
# _framework density 19.318701999999998
#
# number of rings (size 3 to 8) (size 9 to 14) (size 15 to 20)
#    0.000    1.667    4.167    1.250    0.000    3.333 
#    0.000    2.083    0.000    2.000    0.000    0.000 
#    0.000    0.000    0.000    0.000    0.000    0.000 
#
# Total GULP energy -594706.526307 kJ/mol
# GULP energy per Si atom -12389.719298 kJ/mol
# Density = 1.927473 g / cm^3
# Si number density = 19.318702 Si / 1000 Ang^3
#
#
#
# Elastic Constant Matrix: (Units=GPa)
#
#
# Indices 1 2 3 4 5 6 
#
# 1 88.9699 21.8946 36.2093 0.0000 0.0000 0.0000
# 2 21.8946 138.4240 56.2120 0.0000 0.0000 0.0000
# 3 36.2093 56.2120 144.4411 0.0000 0.0000 0.0000
# 4 0.0000 0.0000 0.0000 21.5413 0.0000 0.0000
# 5 0.0000 0.0000 0.0000 0.0000 4.9608 0.0000
# 6 0.0000 0.0000 0.0000 0.0000 0.0000 16.3288
#
#
#
# Elastic Compliance Matrix: (Units=1/GPa)
#
#
# Indices 1 2 3 4 5 6 
#
# 1 0.012599 -0.000844 -0.002830 0.000000 0.000000 0.000000
# 2 -0.000844 0.008637 -0.003150 0.000000 0.000000 0.000000
# 3 -0.002830 -0.003150 0.008858 0.000000 0.000000 0.000000
# 4 0.000000 0.000000 0.000000 0.046422 0.000000 0.000000
# 5 0.000000 0.000000 0.000000 0.000000 0.201581 0.000000
# 6 0.000000 0.000000 0.000000 0.000000 0.000000 0.061242
#
#
# Mechanical properties :
#
#
# Convention : Reuss Voigt Hill
#
# Bulk Modulus (GPa) = 60.79919 66.71855 63.75887
# Shear Modulus (GPa) = 13.94823 25.73411 19.84117
#
# Velocity S-wave (km/s) = 2.68993 3.65373 3.20823
# Velocity P-wave (km/s) = 6.41776 7.23950 6.84098
#
# Compressibility (1/GPa) = 0.01644759
#
# Stress axis : x y z
#
# Youngs Moduli (GPa) = 79.37034 115.78587 112.88640
#
# Poissons Ratio (x) = 0.09767 0.31949
# Poissons Ratio (y) = 0.06695 0.35555
# Poissons Ratio (z) = 0.22463 0.36468
#
# Static dielectric constant tensor:
#      x y z
#    x 3.495930 0.000000 0.000000 
#    y 0.000000 3.896610 0.000000 
#    z 0.000000 0.000000 3.471690 
# 
# 
# High freq. dielectric constant tensor:
#      x y z
#    x 1.720660 0.000000 0.000000 
#    y 0.000000 1.756490 0.000000 
#    z 0.000000 0.000000 1.742550 
# 
# From -- ./inp_files/24117.got.cif
#   From: 2010.03.12/outbox.cif.g09.slc.cpg/sg51_13_cif.got.tgz:24117.got - 2010.04.16 13:43:02.
