data_PCOD8207111
_publ_section_title
;
Structure prediction by ZEFSAII (Michael W. Deem and Ramdas Pophale) SiO2 
 PCOD8207111
Probable space group: P M M A
;
_chemical_formula_sum "Si O2"
_cell_formula_units_Z 64
_cell_length_a 8.747627
_cell_length_b 25.516288
_cell_length_c 14.617088
_cell_angle_alpha 90.000000
_cell_angle_beta 90.000000
_cell_angle_gamma 90.000000
_cell_volume 3262.635920
_symmetry_space_group_name_H-M "P M M A"
_symmetry_group_IT_number 51
_symmetry_cell_setting 'orthorhombic'
loop_
_space_group_symop_operation_xyz
x,y,z
1/2-x,-y,z
1/2+x,-y,-z
-x,y,-z
-x,-y,-z
1/2+x,y,-z
1/2-x,y,z
x,-y,z
loop_
_atom_site_type_symbol
_atom_site_label
_atom_site_fract_x
_atom_site_fract_y
_atom_site_fract_z
Si Si1 0.427077 0.688912 0.096586
Si Si2 0.574293 0.356993 0.716302
Si Si3 0.926275 0.058534 0.268069
Si Si4 0.931212 0.898905 0.899872
Si Si5 0.431822 0.793301 0.899268
Si Si6 0.930996 0.857659 0.597528
Si Si7 0.429871 0.260136 0.403428
Si Si8 0.429313 0.559256 0.593953
O O1 0.250000 0.702743 0.079054
O O2 0.445773 0.643994 0.173358
O O3 0.511465 0.738812 0.143991
O O4 0.500000 0.670726 0.000000
O O5 0.750000 0.366049 0.689648
O O6 0.516276 0.302271 0.672015
O O7 0.477962 0.405619 0.679581
O O8 0.750000 0.074290 0.256443
O O9 0.007978 0.056887 0.168708
O O10 0.008458 0.100466 0.331133
O O11 0.942516 0.000000 0.309624
O O12 0.750000 0.898946 0.907143
O O13 0.991329 0.844344 0.854006
O O14 0.000000 0.908499 0.000000
O O15 0.250000 0.798512 0.897999
O O16 0.500000 0.790405 0.000000
O O17 0.750000 0.862100 0.592669
O O18 0.983838 0.798580 0.625592
O O19 0.000000 0.872699 0.500000
O O20 0.500000 0.276913 0.500000
O O21 0.250000 0.260201 0.415362
O O22 0.500000 0.581680 0.500000
O O23 0.250000 0.561221 0.583300
O O24 0.487515 0.500000 0.611582
#
# Coordination Sequence:
#
# PCOD8207111 Si02
#       8
#     8   8   8   8   8   8   8   8
#     4  10  20  34  52  77 114 155 196 241 287 336
#     4  10  21  35  55  84 117 154 194 238 288 337
#     4  11  25  43  61  84 112 142 185 238 286 342
#     4  11  22  38  60  84 113 147 185 229 281 341
#     4  10  18  31  51  77 107 143 185 227 275 330
#     4  10  21  39  63  86 113 149 186 230 285 342
#     4   9  19  35  54  82 115 147 179 221 276 336
#     4  10  21  37  58  85 118 155 195 240 288 339
#
# _framework density 19.616040999999999
#
# number of rings (size 3 to 8) (size 9 to 14) (size 15 to 20)
#    0.000    1.875    0.000    5.625    1.750    5.250 
#    0.000    0.000    0.000    0.375    0.000    0.000 
#    0.000    0.000    0.000    0.000    0.000    0.000 
#
# Total GULP energy -793463.168012 kJ/mol
# GULP energy per Si atom -12397.862000 kJ/mol
# Density = 1.957139 g / cm^3
# Si number density = 19.616041 Si / 1000 Ang^3
#
#
#
# Elastic Constant Matrix: (Units=GPa)
#
#
# Indices 1 2 3 4 5 6 
#
# 1 113.6628 37.1896 37.4351 0.0000 0.0000 0.0000
# 2 37.1896 87.5205 52.2116 0.0000 0.0000 0.0000
# 3 37.4351 52.2116 101.0676 0.0000 0.0000 0.0000
# 4 0.0000 0.0000 0.0000 32.9669 0.0000 0.0000
# 5 0.0000 0.0000 0.0000 0.0000 33.2191 0.0000
# 6 0.0000 0.0000 0.0000 0.0000 0.0000 29.4795
#
#
#
# Elastic Compliance Matrix: (Units=1/GPa)
#
#
# Indices 1 2 3 4 5 6 
#
# 1 0.010578 -0.003119 -0.002307 0.000000 0.000000 0.000000
# 2 -0.003119 0.017435 -0.007852 0.000000 0.000000 0.000000
# 3 -0.002307 -0.007852 0.014805 0.000000 0.000000 0.000000
# 4 0.000000 0.000000 0.000000 0.030333 0.000000 0.000000
# 5 0.000000 0.000000 0.000000 0.000000 0.030103 0.000000
# 6 0.000000 0.000000 0.000000 0.000000 0.000000 0.033922
#
#
# Mechanical properties :
#
#
# Convention : Reuss Voigt Hill
#
# Bulk Modulus (GPa) = 61.48766 61.76930 61.62848
# Shear Modulus (GPa) = 29.55897 30.82743 30.19320
#
# Velocity S-wave (km/s) = 3.88606 3.96857 3.92753
# Velocity P-wave (km/s) = 7.17976 7.24962 7.21477
#
# Compressibility (1/GPa) = 0.01626343
#
# Stress axis : x y z
#
# Youngs Moduli (GPa) = 94.53431 57.35504 67.54383
#
# Poissons Ratio (x) = 0.17887 0.15583
# Poissons Ratio (y) = 0.29482 0.53035
# Poissons Ratio (z) = 0.21809 0.45035
#
# Static dielectric constant tensor:
#      x y z
#    x 3.600630 0.000000 0.000000 
#    y 0.000000 3.906220 0.000000 
#    z 0.000000 0.000000 3.639070 
# 
# 
# High freq. dielectric constant tensor:
#      x y z
#    x 1.773710 0.000000 0.000000 
#    y 0.000000 1.752080 0.000000 
#    z 0.000000 0.000000 1.757290 
# 
# From -- ./inp_files/22260.got.cif
#   From: 2010.03.12/outbox.cif.g09.slc.cpg/sg51_12_cif.got.tgz:22260.got - 2010.04.16 13:43:02.
