data_PCOD8207314
_publ_section_title
;
Structure prediction by ZEFSAII (Michael W. Deem and Ramdas Pophale) SiO2 
 PCOD8207314
Probable space group: P M M A
;
_chemical_formula_sum "Si O2"
_cell_formula_units_Z 48
_cell_length_a 8.562693
_cell_length_b 30.761268
_cell_length_c 8.979202
_cell_angle_alpha 90.000000
_cell_angle_beta 90.000000
_cell_angle_gamma 90.000000
_cell_volume 2365.115469
_symmetry_space_group_name_H-M "P M M A"
_symmetry_group_IT_number 51
_symmetry_cell_setting 'orthorhombic'
loop_
_space_group_symop_operation_xyz
x,y,z
1/2-x,-y,z
1/2+x,-y,-z
-x,y,-z
-x,-y,-z
1/2+x,y,-z
1/2-x,y,z
x,-y,z
loop_
_atom_site_type_symbol
_atom_site_label
_atom_site_fract_x
_atom_site_fract_y
_atom_site_fract_z
Si Si1 0.068783 0.251927 0.339852
Si Si2 0.064705 0.000000 0.835881
Si Si3 0.934383 0.588962 0.665183
Si Si4 0.566395 0.084188 0.336463
Si Si5 0.435165 0.500000 0.665452
Si Si6 0.069775 0.836010 0.162589
Si Si7 0.434000 0.669396 0.837967
O O1 0.250000 0.265222 0.351835
O O2 0.044671 0.210406 0.236949
O O3 0.000000 0.240331 0.500000
O O4 0.971068 0.291341 0.272396
O O5 0.999784 0.042687 0.752544
O O6 0.250000 0.000000 0.841616
O O7 0.000000 0.000000 0.000000
O O8 0.750000 0.586229 0.652568
O O9 0.000000 0.597885 0.500000
O O10 0.999830 0.544250 0.738945
O O11 0.983808 0.626440 0.777288
O O12 0.500000 0.083723 0.500000
O O13 0.750000 0.081401 0.347079
O O14 0.520542 0.128304 0.256153
O O15 0.250000 0.500000 0.669127
O O16 0.500000 0.500000 0.500000
O O17 0.250000 0.849281 0.154927
O O18 0.000000 0.833565 0.000000
O O19 0.250000 0.661923 0.846101
O O20 0.500000 0.680837 0.000000
#
# Coordination Sequence:
#
# PCOD8207314 Si02
#       7
#     8   4   8   8   4   8   8
#     4  11  24  42  64  91 121 156 197 244 294 350
#     4  10  23  40  60  88 120 158 201 250 303 360
#     4  11  21  37  60  88 120 157 199 245 296 351
#     4  11  23  40  62  89 122 159 203 250 301 356
#     4  10  18  32  55  86 119 154 197 246 296 348
#     4  11  24  41  63  91 124 160 200 245 298 355
#     4  12  25  42  62  87 119 156 197 244 297 355
#
# _framework density 20.294993999999999
#
# number of rings (size 3 to 8) (size 9 to 14) (size 15 to 20)
#    0.000    1.000    0.000    8.500    0.000    8.000 
#    0.000    0.417    0.000    0.000    0.000    0.000 
#    0.000    0.000    0.000    0.000    0.000    0.000 
#
# Total GULP energy -595443.438397 kJ/mol
# GULP energy per Si atom -12405.071633 kJ/mol
# Density = 2.024880 g / cm^3
# Si number density = 20.294994 Si / 1000 Ang^3
#
#
#
# Elastic Constant Matrix: (Units=GPa)
#
#
# Indices 1 2 3 4 5 6 
#
# 1 128.7520 41.2444 40.2919 0.0000 0.0000 0.0000
# 2 41.2444 115.0629 42.4200 0.0000 0.0000 0.0000
# 3 40.2919 42.4200 132.3941 0.0000 0.0000 0.0000
# 4 0.0000 0.0000 0.0000 24.2438 0.0000 0.0000
# 5 0.0000 0.0000 0.0000 0.0000 34.1219 0.0000
# 6 0.0000 0.0000 0.0000 0.0000 0.0000 38.8161
#
#
#
# Elastic Compliance Matrix: (Units=1/GPa)
#
#
# Indices 1 2 3 4 5 6 
#
# 1 0.009210 -0.002572 -0.001979 0.000000 0.000000 0.000000
# 2 -0.002572 0.010573 -0.002605 0.000000 0.000000 0.000000
# 3 -0.001979 -0.002605 0.008990 0.000000 0.000000 0.000000
# 4 0.000000 0.000000 0.000000 0.041248 0.000000 0.000000
# 5 0.000000 0.000000 0.000000 0.000000 0.029307 0.000000
# 6 0.000000 0.000000 0.000000 0.000000 0.000000 0.025762
#
#
# Mechanical properties :
#
#
# Convention : Reuss Voigt Hill
#
# Bulk Modulus (GPa) = 69.14740 69.34683 69.24711
# Shear Modulus (GPa) = 34.66874 36.25321 35.46098
#
# Velocity S-wave (km/s) = 4.13757 4.23106 4.18458
# Velocity P-wave (km/s) = 7.54792 7.62318 7.58564
#
# Compressibility (1/GPa) = 0.01446186
#
# Stress axis : x y z
#
# Youngs Moduli (GPa) = 108.57772 94.57922 111.23324
#
# Poissons Ratio (x) = 0.24324 0.22012
# Poissons Ratio (y) = 0.27924 0.28977
# Poissons Ratio (z) = 0.21486 0.24638
#
# Static dielectric constant tensor:
#      x y z
#    x 3.874550 0.000000 0.000000 
#    y 0.000000 4.192510 0.000000 
#    z 0.000000 0.000000 3.646520 
# 
# 
# High freq. dielectric constant tensor:
#      x y z
#    x 1.810050 0.000000 0.000000 
#    y 0.000000 1.815350 0.000000 
#    z 0.000000 0.000000 1.793520 
# 
# From -- ./inp_files/6294.got.cif
#   From: 2010.03.12/outbox.cif.g09.slc.cpg/sg51_4_cif.got.tgz:6294.got - 2010.04.16 13:43:02.
