data_PCOD8207698
_publ_section_title
;
Structure prediction by ZEFSAII (Michael W. Deem and Ramdas Pophale) SiO2 
 PCOD8207698
Probable space group: P M M A
;
_chemical_formula_sum "Si O2"
_cell_formula_units_Z 56
_cell_length_a 15.828751
_cell_length_b 14.073237
_cell_length_c 15.241354
_cell_angle_alpha 90.000000
_cell_angle_beta 90.000000
_cell_angle_gamma 90.000000
_cell_volume 3395.190906
_symmetry_space_group_name_H-M "P M M A"
_symmetry_group_IT_number 51
_symmetry_cell_setting 'orthorhombic'
loop_
_space_group_symop_operation_xyz
x,y,z
1/2-x,-y,z
1/2+x,-y,-z
-x,y,-z
-x,-y,-z
1/2+x,y,-z
1/2-x,y,z
x,-y,z
loop_
_atom_site_type_symbol
_atom_site_label
_atom_site_fract_x
_atom_site_fract_y
_atom_site_fract_z
Si Si1 0.099989 0.609132 0.280118
Si Si2 0.092897 0.391837 0.723776
Si Si3 0.850397 0.393770 0.904817
Si Si4 0.500948 0.893980 0.604090
Si Si5 0.344151 0.233582 0.402989
Si Si6 0.344160 0.387269 0.907434
Si Si7 0.655229 0.768420 0.394669
O O1 0.132270 0.500000 0.282246
O O2 0.113230 0.655917 0.182982
O O3 0.153246 0.667834 0.350490
O O4 0.002809 0.615958 0.307927
O O5 0.126621 0.500000 0.716867
O O6 0.097948 0.356947 0.825408
O O7 0.150189 0.327801 0.661299
O O8 0.750000 0.393976 0.900733
O O9 0.887799 0.500000 0.902028
O O10 0.878117 0.345696 0.998358
O O11 0.500000 0.900014 0.500000
O O12 0.585370 0.838617 0.635081
O O13 0.415479 0.843039 0.638725
O O14 0.503375 0.000000 0.644377
O O15 0.250000 0.189075 0.392358
O O16 0.362730 0.257373 0.504318
O O17 0.250000 0.348811 0.888137
O O18 0.341588 0.500000 0.919394
O O19 0.750000 0.811194 0.383330
#
# Coordination Sequence:
#
# PCOD8207698 Si02
#       7
#     8   8   8   8   8   8   8
#     4  10  19  29  43  64  93 129 163 194 227 266
#     4  10  19  29  43  64  93 129 163 194 227 266
#     4   8  14  25  40  58  83 117 156 195 231 266
#     4   9  18  34  53  71  92 115 145 191 241 284
#     4  10  20  33  49  69  94 124 157 191 228 273
#     4   8  14  25  40  58  83 117 156 195 231 266
#     4  10  20  33  49  69  94 124 157 191 228 273
#
# _framework density 16.493918000000001
#
# number of rings (size 3 to 8) (size 9 to 14) (size 15 to 20)
#    0.000    2.714    1.429    1.714    0.000    3.429 
#    0.000    8.571    0.000    0.000    0.000    0.000 
#    0.000    2.286    0.000    6.000    0.000    0.571 
#
# Total GULP energy -693935.796373 kJ/mol
# GULP energy per Si atom -12391.710650 kJ/mol
# Density = 1.645638 g / cm^3
# Si number density = 16.493918 Si / 1000 Ang^3
#
#
#
# Elastic Constant Matrix: (Units=GPa)
#
#
# Indices 1 2 3 4 5 6 
#
# 1 88.6126 37.1291 29.7457 0.0000 0.0000 0.0000
# 2 37.1291 70.7866 36.8962 0.0000 0.0000 0.0000
# 3 29.7457 36.8962 75.5304 0.0000 0.0000 0.0000
# 4 0.0000 0.0000 0.0000 1.6940 0.0000 0.0000
# 5 0.0000 0.0000 0.0000 0.0000 23.3762 0.0000
# 6 0.0000 0.0000 0.0000 0.0000 0.0000 14.3069
#
#
#
# Elastic Compliance Matrix: (Units=1/GPa)
#
#
# Indices 1 2 3 4 5 6 
#
# 1 0.014877 -0.006372 -0.002746 0.000000 0.000000 0.000000
# 2 -0.006372 0.021682 -0.008082 0.000000 0.000000 0.000000
# 3 -0.002746 -0.008082 0.018269 0.000000 0.000000 0.000000
# 4 0.000000 0.000000 0.000000 0.590318 0.000000 0.000000
# 5 0.000000 0.000000 0.000000 0.000000 0.042779 0.000000
# 6 0.000000 0.000000 0.000000 0.000000 0.000000 0.069897
#
#
# Mechanical properties :
#
#
# Convention : Reuss Voigt Hill
#
# Bulk Modulus (GPa) = 48.95330 49.16350 49.05840
# Shear Modulus (GPa) = 6.25759 16.61931 11.43845
#
# Velocity S-wave (km/s) = 1.94990 3.17772 2.63629
# Velocity P-wave (km/s) = 5.90030 6.58298 6.25097
#
# Compressibility (1/GPa) = 0.02042763
#
# Stress axis : x y z
#
# Youngs Moduli (GPa) = 67.21901 46.12179 54.73667
#
# Poissons Ratio (x) = 0.29388 0.15032
# Poissons Ratio (y) = 0.42830 0.44239
# Poissons Ratio (z) = 0.18460 0.37276
#
# Static dielectric constant tensor:
#      x y z
#    x 3.164400 0.000000 0.000000 
#    y 0.000000 2.778960 0.000000 
#    z 0.000000 0.000000 3.212340 
# 
# 
# High freq. dielectric constant tensor:
#      x y z
#    x 1.646160 0.000000 0.000000 
#    y 0.000000 1.572200 0.000000 
#    z 0.000000 0.000000 1.629220 
# 
# From -- ./inp_files/13215.got.cif
#   From: 2010.03.12/outbox.cif.g09.slc.cpg/sg51_7_cif.got.tgz:13215.got - 2010.04.16 13:43:02.
