data_PCOD8207290
_publ_section_title
;
Structure prediction by ZEFSAII (Michael W. Deem and Ramdas Pophale) SiO2 
 PCOD8207290
Probable space group: P M M A
;
_chemical_formula_sum "Si O2"
_cell_formula_units_Z 56
_cell_length_a 8.799233
_cell_length_b 22.433192
_cell_length_c 14.935314
_cell_angle_alpha 90.000000
_cell_angle_beta 90.000000
_cell_angle_gamma 90.000000
_cell_volume 2948.154565
_symmetry_space_group_name_H-M "P M M A"
_symmetry_group_IT_number 51
_symmetry_cell_setting 'orthorhombic'
loop_
_space_group_symop_operation_xyz
x,y,z
1/2-x,-y,z
1/2+x,-y,-z
-x,y,-z
-x,-y,-z
1/2+x,y,-z
1/2-x,y,z
x,-y,z
loop_
_atom_site_type_symbol
_atom_site_label
_atom_site_fract_x
_atom_site_fract_y
_atom_site_fract_z
Si Si1 0.928886 0.681056 0.089922
Si Si2 0.069590 0.224741 0.213696
Si Si3 0.068515 0.120475 0.901439
Si Si4 0.581933 0.431193 0.860001
Si Si5 0.417265 0.392058 0.336688
Si Si6 0.927187 0.735395 0.594148
Si Si7 0.079795 0.500000 0.591493
Si Si8 0.067779 0.000000 0.098625
O O1 0.750000 0.692568 0.093147
O O2 0.009056 0.712791 0.174227
O O3 0.963363 0.609591 0.085402
O O4 0.000000 0.710119 0.000000
O O5 0.250000 0.219582 0.196913
O O6 0.033271 0.222177 0.320831
O O7 0.978210 0.172369 0.165842
O O8 0.250000 0.115972 0.909115
O O9 0.998394 0.060193 0.856897
O O10 0.000000 0.132394 0.000000
O O11 0.750000 0.431742 0.904996
O O12 0.523678 0.500000 0.850365
O O13 0.597930 0.394039 0.769072
O O14 0.250000 0.405893 0.378386
O O15 0.481083 0.330569 0.376918
O O16 0.541174 0.441346 0.354984
O O17 0.750000 0.735587 0.577013
O O18 0.000000 0.756468 0.500000
O O19 0.250000 0.500000 0.566393
O O20 0.000000 0.500000 0.500000
O O21 0.250000 0.000000 0.099748
O O22 0.000000 0.000000 0.000000
#
# Coordination Sequence:
#
# PCOD8207290 Si02
#       8
#     8   8   8   8   8   8   4   4
#     4  12  25  40  59  82 109 142 183 232 282 339
#     4  11  22  40  60  83 115 153 192 235 285 337
#     4  11  21  35  56  88 125 164 202 242 282 329
#     4  10  20  38  61  79 102 136 175 222 280 341
#     4  10  19  37  57  76 100 134 169 215 277 339
#     4  10  22  38  59  81 108 141 180 226 280 337
#     4  12  24  34  48  74 101 130 167 216 270 338
#     4  10  18  32  54  84 123 168 205 240 278 326
#
# _framework density 18.994931999999999
#
# number of rings (size 3 to 8) (size 9 to 14) (size 15 to 20)
#    0.000    1.286    2.143    6.000    0.000    4.000 
#    0.000    0.000    0.000    0.000    0.000    0.500 
#    0.000    0.000    0.000    0.000    0.000    0.000 
#
# Total GULP energy -693898.699290 kJ/mol
# GULP energy per Si atom -12391.048202 kJ/mol
# Density = 1.895170 g / cm^3
# Si number density = 18.994932 Si / 1000 Ang^3
#
#
#
# Elastic Constant Matrix: (Units=GPa)
#
#
# Indices 1 2 3 4 5 6 
#
# 1 128.6615 42.2975 39.2642 0.0000 0.0000 0.0000
# 2 42.2975 111.9272 33.8522 0.0000 0.0000 0.0000
# 3 39.2642 33.8522 95.7590 0.0000 0.0000 0.0000
# 4 0.0000 0.0000 0.0000 17.5154 0.0000 0.0000
# 5 0.0000 0.0000 0.0000 0.0000 28.7026 0.0000
# 6 0.0000 0.0000 0.0000 0.0000 0.0000 28.0339
#
#
#
# Elastic Compliance Matrix: (Units=1/GPa)
#
#
# Indices 1 2 3 4 5 6 
#
# 1 0.009571 -0.002721 -0.002963 0.000000 0.000000 0.000000
# 2 -0.002721 0.010778 -0.002694 0.000000 0.000000 0.000000
# 3 -0.002963 -0.002694 0.012610 0.000000 0.000000 0.000000
# 4 0.000000 0.000000 0.000000 0.057093 0.000000 0.000000
# 5 0.000000 0.000000 0.000000 0.000000 0.034840 0.000000
# 6 0.000000 0.000000 0.000000 0.000000 0.000000 0.035671
#
#
# Mechanical properties :
#
#
# Convention : Reuss Voigt Hill
#
# Bulk Modulus (GPa) = 61.71680 63.01950 62.36815
# Shear Modulus (GPa) = 27.36444 29.57929 28.47187
#
# Velocity S-wave (km/s) = 3.79967 3.95044 3.87579
# Velocity P-wave (km/s) = 7.19803 7.35235 7.27560
#
# Compressibility (1/GPa) = 0.01620304
#
# Stress axis : x y z
#
# Youngs Moduli (GPa) = 104.48339 92.78588 79.30152
#
# Poissons Ratio (x) = 0.25246 0.23493
# Poissons Ratio (y) = 0.28428 0.21367
# Poissons Ratio (z) = 0.30953 0.25000
#
# Static dielectric constant tensor:
#      x y z
#    x 3.464230 0.000000 0.000000 
#    y 0.000000 3.709200 0.000000 
#    z 0.000000 0.000000 3.459640 
# 
# 
# High freq. dielectric constant tensor:
#      x y z
#    x 1.744750 0.000000 0.000000 
#    y 0.000000 1.722910 0.000000 
#    z 0.000000 0.000000 1.723230 
# 
# From -- ./inp_files/21871.got.cif
#   From: 2010.03.12/outbox.cif.g09.slc.cpg/sg51_11_cif.got.tgz:21871.got - 2010.04.16 13:43:02.
