data_PCOD8207496
_publ_section_title
;
Structure prediction by ZEFSAII (Michael W. Deem and Ramdas Pophale) SiO2 
 PCOD8207496
Probable space group: P M M A
;
_chemical_formula_sum "Si O2"
_cell_formula_units_Z 64
_cell_length_a 17.825330
_cell_length_b 14.581212
_cell_length_c 11.607222
_cell_angle_alpha 90.000000
_cell_angle_beta 90.000000
_cell_angle_gamma 90.000000
_cell_volume 3016.890128
_symmetry_space_group_name_H-M "P M M A"
_symmetry_group_IT_number 51
_symmetry_cell_setting 'orthorhombic'
loop_
_space_group_symop_operation_xyz
x,y,z
1/2-x,-y,z
1/2+x,-y,-z
-x,y,-z
-x,-y,-z
1/2+x,y,-z
1/2-x,y,z
x,-y,z
loop_
_atom_site_type_symbol
_atom_site_label
_atom_site_fract_x
_atom_site_fract_y
_atom_site_fract_z
Si Si1 0.338424 0.394507 0.194641
Si Si2 0.167009 0.901559 0.133378
Si Si3 0.836816 0.338741 0.060203
Si Si4 0.337353 0.219352 0.576381
Si Si5 0.893327 0.227836 0.675583
Si Si6 0.037805 0.105165 0.687499
Si Si7 0.571996 0.838489 0.063986
Si Si8 0.337875 0.597897 0.695757
O O1 0.250000 0.370699 0.211664
O O2 0.353421 0.500000 0.227519
O O3 0.392267 0.333097 0.277779
O O4 0.363960 0.379809 0.061590
O O5 0.250000 0.883464 0.085688
O O6 0.149252 0.823897 0.223556
O O7 0.160323 0.000000 0.196567
O O8 0.113241 0.905882 0.023766
O O9 0.750000 0.316638 0.050739
O O10 0.875425 0.244878 0.097128
O O11 0.854394 0.405254 0.167087
O O12 0.250000 0.204006 0.608962
O O13 0.344984 0.223784 0.439546
O O14 0.385272 0.134243 0.624958
O O15 0.371806 0.313640 0.630606
O O16 0.974018 0.180089 0.653421
O O17 0.048507 0.104448 0.824269
O O18 0.017059 0.000000 0.650593
O O19 0.500000 0.796721 0.000000
O O20 0.250000 0.602311 0.672071
O O21 0.369410 0.500000 0.647382
#
# Coordination Sequence:
#
# PCOD8207496 Si02
#       8
#     8   8   8   8   8   8   8   8
#     4  10  20  36  64 101 136 173 218 269 328 390
#     4  11  23  38  61  93 126 164 212 265 321 383
#     4  10  18  34  62  93 129 169 210 261 323 386
#     4  11  25  44  67  95 127 169 226 282 327 381
#     4  12  24  43  66  91 132 175 220 267 325 391
#     4  12  27  46  69  94 128 174 219 271 338 403
#     4  12  22  38  65  93 128 166 208 259 326 395
#     4   9  18  35  62  93 123 159 204 256 318 383
#
# _framework density 21.213898
#
# number of rings (size 3 to 8) (size 9 to 14) (size 15 to 20)
#    0.000    1.125    3.750    3.000    0.000    4.750 
#    0.000    1.875    0.000    3.000    0.000    0.000 
#    0.000    0.000    0.000    0.000    0.000    0.000 
#
# Total GULP energy -793263.004998 kJ/mol
# GULP energy per Si atom -12394.734453 kJ/mol
# Density = 2.116561 g / cm^3
# Si number density = 21.213898 Si / 1000 Ang^3
#
#
#
# Elastic Constant Matrix: (Units=GPa)
#
#
# Indices 1 2 3 4 5 6 
#
# 1 70.8600 38.8110 26.8774 0.0000 0.0000 0.0000
# 2 38.8110 134.6165 16.0733 0.0000 0.0000 0.0000
# 3 26.8774 16.0733 69.0474 0.0000 0.0000 0.0000
# 4 0.0000 0.0000 0.0000 10.7738 0.0000 0.0000
# 5 0.0000 0.0000 0.0000 0.0000 29.7046 0.0000
# 6 0.0000 0.0000 0.0000 0.0000 0.0000 12.6435
#
#
#
# Elastic Compliance Matrix: (Units=1/GPa)
#
#
# Indices 1 2 3 4 5 6 
#
# 1 0.019120 -0.004756 -0.006336 0.000000 0.000000 0.000000
# 2 -0.004756 0.008824 -0.000203 0.000000 0.000000 0.000000
# 3 -0.006336 -0.000203 0.016996 0.000000 0.000000 0.000000
# 4 0.000000 0.000000 0.000000 0.092818 0.000000 0.000000
# 5 0.000000 0.000000 0.000000 0.000000 0.033665 0.000000
# 6 0.000000 0.000000 0.000000 0.000000 0.000000 0.079092
#
#
# Mechanical properties :
#
#
# Convention : Reuss Voigt Hill
#
# Bulk Modulus (GPa) = 44.73954 48.67194 46.70574
# Shear Modulus (GPa) = 17.82186 23.47520 20.64853
#
# Velocity S-wave (km/s) = 2.90160 3.33016 3.12324
# Velocity P-wave (km/s) = 5.68869 6.14653 5.92204
#
# Compressibility (1/GPa) = 0.02235160
#
# Stress axis : x y z
#
# Youngs Moduli (GPa) = 52.30007 113.32818 58.83661
#
# Poissons Ratio (x) = 0.53900 0.37277
# Poissons Ratio (y) = 0.24874 0.01193
# Poissons Ratio (z) = 0.33136 0.02298
#
# Static dielectric constant tensor:
#      x y z
#    x 3.737560 0.000000 0.000000 
#    y 0.000000 3.407880 0.000000 
#    z 0.000000 0.000000 3.870860 
# 
# 
# High freq. dielectric constant tensor:
#      x y z
#    x 1.813440 0.000000 0.000000 
#    y 0.000000 1.839300 0.000000 
#    z 0.000000 0.000000 1.829180 
# 
# From -- ./inp_files/17545.got.cif
#   From: 2010.03.12/outbox.cif.g09.slc.cpg/sg51_9_cif.got.tgz:17545.got - 2010.04.16 13:43:02.
