data_PCOD8207445
_publ_section_title
;
Structure prediction by ZEFSAII (Michael W. Deem and Ramdas Pophale) SiO2 
 PCOD8207445
Probable space group: P M M A
;
_chemical_formula_sum "Si O2"
_cell_formula_units_Z 56
_cell_length_a 21.660987
_cell_length_b 8.987020
_cell_length_c 14.790162
_cell_angle_alpha 90.000000
_cell_angle_beta 90.000000
_cell_angle_gamma 90.000000
_cell_volume 2879.167165
_symmetry_space_group_name_H-M "P M M A"
_symmetry_group_IT_number 51
_symmetry_cell_setting 'orthorhombic'
loop_
_space_group_symop_operation_xyz
x,y,z
1/2-x,-y,z
1/2+x,-y,-z
-x,y,-z
-x,-y,-z
1/2+x,y,-z
1/2-x,y,z
x,-y,z
loop_
_atom_site_type_symbol
_atom_site_label
_atom_site_fract_x
_atom_site_fract_y
_atom_site_fract_z
Si Si1 0.681358 0.323259 0.231372
Si Si2 0.425695 0.323821 0.637433
Si Si3 0.129946 0.171319 0.134793
Si Si4 0.750000 0.324003 0.563827
Si Si5 0.374894 0.826789 0.470387
Si Si6 0.180212 0.324643 0.970480
Si Si7 0.250000 0.827397 0.247479
Si Si8 0.954622 0.828218 0.703435
O O1 0.750000 0.265587 0.258135
O O2 0.681257 0.500000 0.231409
O O3 0.631338 0.263296 0.302394
O O4 0.663910 0.267393 0.130451
O O5 0.423520 0.500000 0.623111
O O6 0.423670 0.241906 0.540979
O O7 0.488698 0.280861 0.686952
O O8 0.130180 0.259786 0.040560
O O9 0.190880 0.212702 0.189428
O O10 0.071420 0.212310 0.197240
O O11 0.128966 0.000000 0.108692
O O12 0.750000 0.500000 0.550601
O O13 0.810381 0.257744 0.515720
O O14 0.750000 0.280918 0.667987
O O15 0.400622 0.800600 0.369679
O O16 0.365296 0.000000 0.490316
O O17 0.250000 0.272760 0.994990
O O18 0.175478 0.500000 0.975016
O O19 0.250000 0.000000 0.280262
O O20 0.976083 0.000000 0.698416
#
# Coordination Sequence:
#
# PCOD8207445 Si02
#       8
#     8   8   8   4   8   8   4   8
#     4   8  17  36  58  80 112 147 180 227 292 346
#     4  11  23  38  60  86 110 144 193 245 287 330
#     4  10  19  33  55  81 112 150 187 224 277 336
#     4  12  24  36  56  89 120 145 184 241 284 320
#     4  11  23  41  61  81 114 157 192 226 281 347
#     4   9  17  31  54  83 111 143 182 227 283 342
#     4  10  18  34  54  77 114 155 186 221 278 342
#     4  10  22  40  58  77 111 159 193 222 277 346
#
# _framework density 19.450068000000002
#
# number of rings (size 3 to 8) (size 9 to 14) (size 15 to 20)
#    0.000    2.000    2.143    2.786    1.000    4.000 
#    0.000    2.143    0.000    6.000    0.000    0.000 
#    0.000    0.000    0.000    0.000    0.000    0.000 
#
# Total GULP energy -694440.853412 kJ/mol
# GULP energy per Si atom -12400.729525 kJ/mol
# Density = 1.940580 g / cm^3
# Si number density = 19.450068 Si / 1000 Ang^3
#
#
#
# Elastic Constant Matrix: (Units=GPa)
#
#
# Indices 1 2 3 4 5 6 
#
# 1 76.3025 31.5805 13.2197 0.0000 0.0000 0.0000
# 2 31.5805 71.0255 28.5929 0.0000 0.0000 0.0000
# 3 13.2197 28.5929 72.5139 0.0000 0.0000 0.0000
# 4 0.0000 0.0000 0.0000 21.4957 0.0000 0.0000
# 5 0.0000 0.0000 0.0000 0.0000 33.1698 0.0000
# 6 0.0000 0.0000 0.0000 0.0000 0.0000 31.5423
#
#
#
# Elastic Compliance Matrix: (Units=1/GPa)
#
#
# Indices 1 2 3 4 5 6 
#
# 1 0.016063 -0.007088 -0.000133 0.000000 0.000000 0.000000
# 2 -0.007088 0.019864 -0.006540 0.000000 0.000000 0.000000
# 3 -0.000133 -0.006540 0.016394 0.000000 0.000000 0.000000
# 4 0.000000 0.000000 0.000000 0.046521 0.000000 0.000000
# 5 0.000000 0.000000 0.000000 0.000000 0.030148 0.000000
# 6 0.000000 0.000000 0.000000 0.000000 0.000000 0.031703
#
#
# Mechanical properties :
#
#
# Convention : Reuss Voigt Hill
#
# Bulk Modulus (GPa) = 40.32844 40.73645 40.53244
# Shear Modulus (GPa) = 25.44760 27.00481 26.22621
#
# Velocity S-wave (km/s) = 3.62104 3.73019 3.67602
# Velocity P-wave (km/s) = 6.18563 6.28824 6.23715
#
# Compressibility (1/GPa) = 0.02479640
#
# Stress axis : x y z
#
# Youngs Moduli (GPa) = 62.25649 50.34195 60.99904
#
# Poissons Ratio (x) = 0.35684 0.00813
# Poissons Ratio (y) = 0.44129 0.39896
# Poissons Ratio (z) = 0.00830 0.32926
#
# Static dielectric constant tensor:
#      x y z
#    x 3.518440 0.000000 0.000000 
#    y 0.000000 3.290010 0.000000 
#    z 0.000000 0.000000 3.666730 
# 
# 
# High freq. dielectric constant tensor:
#      x y z
#    x 1.749030 0.000000 0.000000 
#    y 0.000000 1.739300 0.000000 
#    z 0.000000 0.000000 1.762910 
# 
# From -- ./inp_files/25889.got.cif
#   From: 2010.03.12/outbox.cif.g09.slc.cpg/sg51_13_cif.got.tgz:25889.got - 2010.04.16 13:43:02.
