data_PCOD8207171
_publ_section_title
;
Structure prediction by ZEFSAII (Michael W. Deem and Ramdas Pophale) SiO2 
 PCOD8207171
Probable space group: P M M A
;
_chemical_formula_sum "Si O2"
_cell_formula_units_Z 56
_cell_length_a 15.502915
_cell_length_b 19.368419
_cell_length_c 9.527773
_cell_angle_alpha 90.000000
_cell_angle_beta 90.000000
_cell_angle_gamma 90.000000
_cell_volume 2860.875372
_symmetry_space_group_name_H-M "P M M A"
_symmetry_group_IT_number 51
_symmetry_cell_setting 'orthorhombic'
loop_
_space_group_symop_operation_xyz
x,y,z
1/2-x,-y,z
1/2+x,-y,-z
-x,y,-z
-x,-y,-z
1/2+x,y,-z
1/2-x,y,z
x,-y,z
loop_
_atom_site_type_symbol
_atom_site_label
_atom_site_fract_x
_atom_site_fract_y
_atom_site_fract_z
Si Si1 0.345950 0.177009 0.887343
Si Si2 0.442942 0.306340 0.876251
Si Si3 0.651069 0.833584 0.780836
Si Si4 0.153609 0.578544 0.028130
Si Si5 0.648863 0.423898 0.647317
Si Si6 0.940057 0.289643 0.622732
Si Si7 0.493370 0.923311 0.833763
O O1 0.250000 0.155131 0.841482
O O2 0.366791 0.253829 0.833733
O O3 0.410593 0.125094 0.806452
O O4 0.353703 0.182245 0.054902
O O5 0.409318 0.379541 0.928476
O O6 0.499579 0.320343 0.741944
O O7 0.500000 0.270760 0.000000
O O8 0.750000 0.855617 0.740938
O O9 0.625112 0.767724 0.685567
O O10 0.580025 0.894050 0.757930
O O11 0.250000 0.607036 0.007129
O O12 0.146846 0.500000 0.979293
O O13 0.127120 0.587381 0.189212
O O14 0.750000 0.423531 0.621498
O O15 0.613268 0.500000 0.599299
O O16 0.609586 0.358068 0.564133
O O17 0.000000 0.257535 0.500000
O O18 0.477695 0.000000 0.771704
O O19 0.500000 0.928110 0.000000
#
# Coordination Sequence:
#
# PCOD8207171 Si02
#       7
#     8   8   8   8   8   8   8
#     4  10  18  31  55  85 115 150 191 230 277 338
#     4  12  19  33  55  78 109 143 189 240 286 343
#     4  10  19  35  58  81 112 154 193 229 278 341
#     4   9  18  32  53  82 109 139 187 243 292 342
#     4   9  18  35  57  79 105 143 191 237 287 351
#     4  12  24  36  53  80 116 147 193 248 290 337
#     4   9  17  31  53  88 124 145 179 236 286 328
#
# _framework density 19.574427
#
# number of rings (size 3 to 8) (size 9 to 14) (size 15 to 20)
#    0.000    1.857    4.286    2.143    0.000    4.000 
#    0.000    5.714    0.000    2.143    0.000    0.000 
#    0.000    0.000    0.000    0.000    0.000    0.000 
#
# Total GULP energy -693927.925642 kJ/mol
# GULP energy per Si atom -12391.570101 kJ/mol
# Density = 1.952988 g / cm^3
# Si number density = 19.574427 Si / 1000 Ang^3
#
#
#
# Elastic Constant Matrix: (Units=GPa)
#
#
# Indices 1 2 3 4 5 6 
#
# 1 127.6756 56.5093 27.6036 0.0000 0.0000 0.0000
# 2 56.5093 118.4813 10.0170 0.0000 0.0000 0.0000
# 3 27.6036 10.0170 26.0881 0.0000 0.0000 0.0000
# 4 0.0000 0.0000 0.0000 8.4674 0.0000 0.0000
# 5 0.0000 0.0000 0.0000 0.0000 20.9205 0.0000
# 6 0.0000 0.0000 0.0000 0.0000 0.0000 5.9849
#
#
#
# Elastic Compliance Matrix: (Units=1/GPa)
#
#
# Indices 1 2 3 4 5 6 
#
# 1 0.012487 -0.005001 -0.011292 0.000000 0.000000 0.000000
# 2 -0.005001 0.010726 0.001173 0.000000 0.000000 0.000000
# 3 -0.011292 0.001173 0.049830 0.000000 0.000000 0.000000
# 4 0.000000 0.000000 0.000000 0.118099 0.000000 0.000000
# 5 0.000000 0.000000 0.000000 0.000000 0.047800 0.000000
# 6 0.000000 0.000000 0.000000 0.000000 0.000000 0.167087
#
#
# Mechanical properties :
#
#
# Convention : Reuss Voigt Hill
#
# Bulk Modulus (GPa) = 23.36321 51.16717 37.26519
# Shear Modulus (GPa) = 11.09784 18.94891 15.02337
#
# Velocity S-wave (km/s) = 2.38367 3.11472 2.77338
# Velocity P-wave (km/s) = 4.42010 6.25554 5.41614
#
# Compressibility (1/GPa) = 0.04280235
#
# Stress axis : x y z
#
# Youngs Moduli (GPa) = 80.08175 93.22961 20.06834
#
# Poissons Ratio (x) = 0.46624 0.22662
# Poissons Ratio (y) = 0.40049 -0.02354
# Poissons Ratio (z) = 0.90432 -0.10936
#
# Static dielectric constant tensor:
#      x y z
#    x 3.926810 0.000000 0.000000 
#    y 0.000000 3.651390 0.000000 
#    z 0.000000 0.000000 3.049860 
# 
# 
# High freq. dielectric constant tensor:
#      x y z
#    x 1.773530 0.000000 0.000000 
#    y 0.000000 1.763220 0.000000 
#    z 0.000000 0.000000 1.699490 
# 
# From -- ./inp_files/8486.got.cif
#   From: 2010.03.12/outbox.cif.g09.slc.cpg/sg51_5_cif.got.tgz:8486.got - 2010.04.16 13:43:02.
