data_PCOD8207163
_publ_section_title
;
Structure prediction by ZEFSAII (Michael W. Deem and Ramdas Pophale) SiO2 
 PCOD8207163
Probable space group: P M M A
;
_chemical_formula_sum "Si O2"
_cell_formula_units_Z 64
_cell_length_a 29.408502
_cell_length_b 9.200881
_cell_length_c 12.720247
_cell_angle_alpha 90.000000
_cell_angle_beta 90.000000
_cell_angle_gamma 90.000000
_cell_volume 3441.896933
_symmetry_space_group_name_H-M "P M M A"
_symmetry_group_IT_number 51
_symmetry_cell_setting 'orthorhombic'
loop_
_space_group_symop_operation_xyz
x,y,z
1/2-x,-y,z
1/2+x,-y,-z
-x,y,-z
-x,-y,-z
1/2+x,y,-z
1/2-x,y,z
x,-y,z
loop_
_atom_site_type_symbol
_atom_site_label
_atom_site_fract_x
_atom_site_fract_y
_atom_site_fract_z
Si Si1 0.395974 0.171106 0.390264
Si Si2 0.421662 0.332234 0.597385
Si Si3 0.799069 0.835031 0.537948
Si Si4 0.679818 0.333796 0.336000
Si Si5 0.300107 0.167573 0.872603
Si Si6 0.106625 0.828050 0.964606
Si Si7 0.063050 0.170083 0.174861
Si Si8 0.960577 0.170111 0.216181
O O1 0.421062 0.252948 0.485200
O O2 0.341750 0.206566 0.388276
O O3 0.416021 0.235430 0.282082
O O4 0.405710 0.000000 0.403124
O O5 0.434792 0.500000 0.579690
O O6 0.374005 0.314145 0.656342
O O7 0.458029 0.255790 0.673647
O O8 0.750000 0.818132 0.597407
O O9 0.796443 0.733966 0.436899
O O10 0.805834 0.000000 0.498649
O O11 0.694536 0.500000 0.330055
O O12 0.698579 0.256788 0.233646
O O13 0.250000 0.189800 0.925147
O O14 0.308253 0.000000 0.843068
O O15 0.340477 0.218578 0.950932
O O16 0.087967 0.759269 0.073410
O O17 0.100469 0.000000 0.969726
O O18 0.076899 0.770643 0.866260
O O19 0.009645 0.202219 0.166041
O O20 0.073111 0.000000 0.176529
O O21 0.953802 0.000000 0.240332
#
# Coordination Sequence:
#
# PCOD8207163 Si02
#       8
#     8   8   8   8   8   8   8   8
#     4   9  18  33  51  71 100 132 165 206 246 291
#     4  10  20  33  50  74 105 133 160 200 250 303
#     4   9  17  29  46  68  94 127 164 198 240 292
#     4  10  19  30  46  70 100 130 160 198 244 291
#     4  10  19  30  47  73 103 133 162 194 242 299
#     4   9  17  31  51  75 103 130 162 207 249 287
#     4   9  18  32  52  77  98 125 171 214 245 287
#     4  10  18  31  55  79  98 127 166 208 253 296
#
# _framework density 18.594398000000002
#
# number of rings (size 3 to 8) (size 9 to 14) (size 15 to 20)
#    0.000    2.500    1.250    1.500    0.000    5.000 
#    0.000    3.750    0.000    7.500    0.000    0.000 
#    0.000    2.000    0.000    0.000    0.000    0.000 
#
# Total GULP energy -793359.976107 kJ/mol
# GULP energy per Si atom -12396.249627 kJ/mol
# Density = 1.855208 g / cm^3
# Si number density = 18.594398 Si / 1000 Ang^3
#
#
#
# Elastic Constant Matrix: (Units=GPa)
#
#
# Indices 1 2 3 4 5 6 
#
# 1 108.5523 29.3815 62.9475 0.0000 0.0000 0.0000
# 2 29.3815 50.7139 31.8542 0.0000 0.0000 0.0000
# 3 62.9475 31.8542 121.5082 0.0000 0.0000 0.0000
# 4 0.0000 0.0000 0.0000 -3.4664 0.0000 0.0000
# 5 0.0000 0.0000 0.0000 0.0000 14.8227 0.0000
# 6 0.0000 0.0000 0.0000 0.0000 0.0000 12.1563
#
#
#
# Elastic Compliance Matrix: (Units=1/GPa)
#
#
# Indices 1 2 3 4 5 6 
#
# 1 0.013884 -0.004221 -0.006086 0.000000 0.000000 0.000000
# 2 -0.004221 0.024889 -0.004338 0.000000 0.000000 0.000000
# 3 -0.006086 -0.004338 0.012520 0.000000 0.000000 0.000000
# 4 0.000000 0.000000 0.000000 -0.288481 0.000000 0.000000
# 5 0.000000 0.000000 0.000000 0.000000 0.067464 0.000000
# 6 0.000000 0.000000 0.000000 0.000000 0.000000 0.082262
#
#
# Mechanical properties :
#
#
# Convention : Reuss Voigt Hill
#
# Bulk Modulus (GPa) = 45.44939 58.79341 52.12140
# Shear Modulus (GPa) = -98.35144 15.14192 -41.60476
#
# Velocity S-wave (km/s) = -7.28065 2.85674 -4.73534
# Velocity P-wave (km/s) = 6.79570 6.52448 1.34402
#
# Compressibility (1/GPa) = 0.02200249
#
# Stress axis : x y z
#
# Youngs Moduli (GPa) = 72.02659 40.17879 79.87230
#
# Poissons Ratio (x) = 0.16959 0.48610
# Poissons Ratio (y) = 0.30402 0.34649
# Poissons Ratio (z) = 0.43835 0.17430
#
# Static dielectric constant tensor:
#      x y z
#    x 3.619510 0.000000 0.000000 
#    y 0.000000 3.131690 0.000000 
#    z 0.000000 0.000000 3.385350 
# 
# 
# High freq. dielectric constant tensor:
#      x y z
#    x 1.735550 0.000000 0.000000 
#    y 0.000000 1.687200 0.000000 
#    z 0.000000 0.000000 1.700910 
# 
# From -- ./inp_files/19435.got.cif
#   From: 2010.03.12/outbox.cif.g09.slc.cpg/sg51_10_cif.got.tgz:19435.got - 2010.04.16 13:43:02.
