data_PCOD8207864
_publ_section_title
;
Structure prediction by ZEFSAII (Michael W. Deem and Ramdas Pophale) SiO2 
 PCOD8207864
Probable space group: P M M A
;
_chemical_formula_sum "Si O2"
_cell_formula_units_Z 64
_cell_length_a 9.206376
_cell_length_b 19.961604
_cell_length_c 19.932674
_cell_angle_alpha 90.000000
_cell_angle_beta 90.000000
_cell_angle_gamma 90.000000
_cell_volume 3663.107869
_symmetry_space_group_name_H-M "P M M A"
_symmetry_group_IT_number 51
_symmetry_cell_setting 'orthorhombic'
loop_
_space_group_symop_operation_xyz
x,y,z
1/2-x,-y,z
1/2+x,-y,-z
-x,y,-z
-x,-y,-z
1/2+x,y,-z
1/2-x,y,z
x,-y,z
loop_
_atom_site_type_symbol
_atom_site_label
_atom_site_fract_x
_atom_site_fract_y
_atom_site_fract_z
Si Si1 0.418061 0.602425 0.065395
Si Si2 0.580421 0.285776 0.243269
Si Si3 0.582761 0.889901 0.935161
Si Si4 0.412838 0.746162 0.113272
Si Si5 0.087558 0.074735 0.806191
Si Si6 0.579821 0.161346 0.320720
Si Si7 0.418019 0.572952 0.800862
Si Si8 0.420281 0.076283 0.430309
O O1 0.250000 0.580975 0.061986
O O2 0.439260 0.682209 0.066498
O O3 0.487246 0.571409 0.132060
O O4 0.500000 0.573866 0.000000
O O5 0.750000 0.279637 0.233550
O O6 0.516649 0.252354 0.176955
O O7 0.538622 0.240494 0.308506
O O8 0.533727 0.364924 0.248029
O O9 0.750000 0.910265 0.941488
O O10 0.558491 0.810234 0.932676
O O11 0.521175 0.922791 0.868209
O O12 0.500000 0.918605 0.000000
O O13 0.250000 0.745885 0.142431
O O14 0.250000 0.093890 0.830493
O O15 0.036638 0.123898 0.747574
O O16 0.084333 0.000000 0.776145
O O17 0.750000 0.151768 0.338198
O O18 0.482974 0.131022 0.379410
O O19 0.250000 0.582857 0.821234
O O20 0.440115 0.500000 0.765021
O O21 0.500000 0.088482 0.500000
O O22 0.250000 0.089452 0.439920
O O23 0.448818 0.000000 0.405027
#
# Coordination Sequence:
#
# PCOD8207864 Si02
#       8
#     8   8   8   8   8   8   8   8
#     4  10  19  30  44  63  86 114 151 194 245 305
#     4   9  17  30  51  74  96 125 161 201 244 291
#     4  11  22  34  49  66  87 116 154 203 259 311
#     4   9  18  31  46  66  89 114 148 197 251 302
#     4  10  21  36  52  70  93 123 159 201 250 300
#     4  10  19  33  55  80 105 135 170 208 248 292
#     4   9  18  32  48  67  93 124 157 197 246 299
#     4  10  21  36  55  81 114 150 182 210 243 286
#
# _framework density 17.471503999999999
#
# number of rings (size 3 to 8) (size 9 to 14) (size 15 to 20)
#    0.000    2.250    1.250    1.875    0.000    4.250 
#    0.000    0.000    0.000    0.000    0.000    0.000 
#    0.000    0.500    0.000    0.875    0.000    1.250 
#
# Total GULP energy -793265.945638 kJ/mol
# GULP energy per Si atom -12394.780401 kJ/mol
# Density = 1.743174 g / cm^3
# Si number density = 17.471504 Si / 1000 Ang^3
#
#
#
# Elastic Constant Matrix: (Units=GPa)
#
#
# Indices 1 2 3 4 5 6 
#
# 1 78.3947 40.9759 47.3589 0.0000 0.0000 0.0000
# 2 40.9759 109.5836 47.9989 0.0000 0.0000 0.0000
# 3 47.3589 47.9989 78.9961 0.0000 0.0000 0.0000
# 4 0.0000 0.0000 0.0000 12.6309 0.0000 0.0000
# 5 0.0000 0.0000 0.0000 0.0000 28.7189 0.0000
# 6 0.0000 0.0000 0.0000 0.0000 0.0000 17.1247
#
#
#
# Elastic Compliance Matrix: (Units=1/GPa)
#
#
# Indices 1 2 3 4 5 6 
#
# 1 0.020768 -0.003151 -0.010536 0.000000 0.000000 0.000000
# 2 -0.003151 0.012913 -0.005957 0.000000 0.000000 0.000000
# 3 -0.010536 -0.005957 0.022595 0.000000 0.000000 0.000000
# 4 0.000000 0.000000 0.000000 0.079171 0.000000 0.000000
# 5 0.000000 0.000000 0.000000 0.000000 0.034820 0.000000
# 6 0.000000 0.000000 0.000000 0.000000 0.000000 0.058395
#
#
# Mechanical properties :
#
#
# Convention : Reuss Voigt Hill
#
# Bulk Modulus (GPa) = 58.86576 59.96018 59.41297
# Shear Modulus (GPa) = 18.27404 20.40428 19.33916
#
# Velocity S-wave (km/s) = 3.23760 3.42111 3.33062
# Velocity P-wave (km/s) = 6.90953 7.07097 6.99072
#
# Compressibility (1/GPa) = 0.01698780
#
# Stress axis : x y z
#
# Youngs Moduli (GPa) = 48.15179 77.44231 44.25766
#
# Poissons Ratio (x) = 0.24399 0.46630
# Poissons Ratio (y) = 0.15171 0.26365
# Poissons Ratio (z) = 0.50733 0.46134
#
# Static dielectric constant tensor:
#      x y z
#    x 3.527600 0.000000 0.000000 
#    y 0.000000 3.646710 0.000000 
#    z 0.000000 0.000000 2.869800 
# 
# 
# High freq. dielectric constant tensor:
#      x y z
#    x 1.681400 0.000000 0.000000 
#    y 0.000000 1.685950 0.000000 
#    z 0.000000 0.000000 1.624210 
# 
# From -- ./inp_files/28376.got.cif
#   From: 2010.03.12/outbox.cif.g09.slc.cpg/sg51_15_cif.got.tgz:28376.got - 2010.04.16 13:43:02.
