data_PCOD8207999
_publ_section_title
;
Structure prediction by ZEFSAII (Michael W. Deem and Ramdas Pophale) SiO2 
 PCOD8207999
Probable space group: P M M A
;
_chemical_formula_sum "Si O2"
_cell_formula_units_Z 64
_cell_length_a 9.674214
_cell_length_b 22.925466
_cell_length_c 15.087352
_cell_angle_alpha 90.000000
_cell_angle_beta 90.000000
_cell_angle_gamma 90.000000
_cell_volume 3346.161401
_symmetry_space_group_name_H-M "P M M A"
_symmetry_group_IT_number 51
_symmetry_cell_setting 'orthorhombic'
loop_
_space_group_symop_operation_xyz
x,y,z
1/2-x,-y,z
1/2+x,-y,-z
-x,y,-z
-x,-y,-z
1/2+x,y,-z
1/2-x,y,z
x,-y,z
loop_
_atom_site_type_symbol
_atom_site_label
_atom_site_fract_x
_atom_site_fract_y
_atom_site_fract_z
Si Si1 0.592273 0.112946 0.918675
Si Si2 0.404743 0.437118 0.733629
Si Si3 0.914015 0.065504 0.733508
Si Si4 0.465139 0.719981 0.396988
Si Si5 0.405107 0.152999 0.414361
Si Si6 0.596599 0.310376 0.222755
Si Si7 0.909367 0.250811 0.916907
Si Si8 0.900710 0.404318 0.583399
O O1 0.750000 0.093362 0.936037
O O2 0.529910 0.083995 0.829963
O O3 0.582317 0.181901 0.907855
O O4 0.500000 0.090400 0.000000
O O5 0.250000 0.431656 0.691835
O O6 0.416472 0.500000 0.785059
O O7 0.427443 0.379901 0.794183
O O8 0.521449 0.439882 0.658892
O O9 0.750000 0.070639 0.736149
O O10 0.970493 0.109157 0.658242
O O11 0.963594 0.000000 0.711286
O O12 0.500000 0.726362 0.500000
O O13 0.397237 0.781999 0.371658
O O14 0.590122 0.706973 0.327573
O O15 0.369713 0.662899 0.388015
O O16 0.500000 0.149216 0.500000
O O17 0.250000 0.133922 0.440755
O O18 0.750000 0.292497 0.189046
O O19 0.475737 0.277422 0.171336
O O20 0.750000 0.271524 0.926830
O O21 0.000000 0.273016 0.000000
O O22 0.750000 0.432696 0.565014
O O23 0.000000 0.407049 0.500000
#
# Coordination Sequence:
#
# PCOD8207999 Si02
#       8
#     8   8   8   8   8   8   8   8
#     4   9  18  33  53  78 106 135 166 202 248 303
#     4   9  19  35  51  68  95 132 171 209 251 301
#     4   9  18  33  52  73 100 136 174 209 250 304
#     4   9  19  32  49  74 106 138 171 210 259 314
#     4  10  20  34  52  73  98 132 174 218 263 308
#     4  10  20  34  55  81 107 137 173 214 261 309
#     4  10  20  35  56  82 111 139 169 209 259 314
#     4  10  19  30  46  68  95 128 167 213 261 309
#
# _framework density 19.126394000000001
#
# number of rings (size 3 to 8) (size 9 to 14) (size 15 to 20)
#    0.000    2.500    0.000    1.875    0.000   10.000 
#    0.000    0.625    0.000    1.125    0.000    0.000 
#    0.000    0.000    0.000    0.000    0.000    0.000 
#
# Total GULP energy -792848.915837 kJ/mol
# GULP energy per Si atom -12388.264310 kJ/mol
# Density = 1.908286 g / cm^3
# Si number density = 19.126394 Si / 1000 Ang^3
#
#
#
# Elastic Constant Matrix: (Units=GPa)
#
#
# Indices 1 2 3 4 5 6 
#
# 1 102.0302 15.8869 29.8318 0.0000 0.0000 0.0000
# 2 15.8869 81.5779 38.2642 0.0000 0.0000 0.0000
# 3 29.8318 38.2642 80.9882 0.0000 0.0000 0.0000
# 4 0.0000 0.0000 0.0000 12.0839 0.0000 0.0000
# 5 0.0000 0.0000 0.0000 0.0000 28.9657 0.0000
# 6 0.0000 0.0000 0.0000 0.0000 0.0000 14.2574
#
#
#
# Elastic Compliance Matrix: (Units=1/GPa)
#
#
# Indices 1 2 3 4 5 6 
#
# 1 0.010990 -0.000310 -0.003902 0.000000 0.000000 0.000000
# 2 -0.000310 0.015757 -0.007330 0.000000 0.000000 0.000000
# 3 -0.003902 -0.007330 0.017248 0.000000 0.000000 0.000000
# 4 0.000000 0.000000 0.000000 0.082755 0.000000 0.000000
# 5 0.000000 0.000000 0.000000 0.000000 0.034524 0.000000
# 6 0.000000 0.000000 0.000000 0.000000 0.000000 0.070139
#
#
# Mechanical properties :
#
#
# Convention : Reuss Voigt Hill
#
# Bulk Modulus (GPa) = 47.82256 48.06248 47.94252
# Shear Modulus (GPa) = 19.12289 23.10229 21.11259
#
# Velocity S-wave (km/s) = 3.16542 3.47922 3.32602
# Velocity P-wave (km/s) = 6.19819 6.42833 6.31431
#
# Compressibility (1/GPa) = 0.02091063
#
# Stress axis : x y z
#
# Youngs Moduli (GPa) = 90.99113 63.46409 57.97783
#
# Poissons Ratio (x) = 0.01969 0.22621
# Poissons Ratio (y) = 0.02823 0.42500
# Poissons Ratio (z) = 0.35501 0.46521
#
# Static dielectric constant tensor:
#      x y z
#    x 3.346230 0.000000 0.000000 
#    y 0.000000 3.758610 0.000000 
#    z 0.000000 0.000000 3.323720 
# 
# 
# High freq. dielectric constant tensor:
#      x y z
#    x 1.731530 0.000000 0.000000 
#    y 0.000000 1.749210 0.000000 
#    z 0.000000 0.000000 1.717910 
# 
# From -- ./inp_files/22341.got.cif
#   From: 2010.03.12/outbox.cif.g09.slc.cpg/sg51_12_cif.got.tgz:22341.got - 2010.04.16 13:43:02.
