data_PCOD8207044
_publ_section_title
;
Structure prediction by ZEFSAII (Michael W. Deem and Ramdas Pophale) SiO2 
 PCOD8207044
Probable space group: P M M A
;
_chemical_formula_sum "Si O2"
_cell_formula_units_Z 52
_cell_length_a 9.236715
_cell_length_b 15.640627
_cell_length_c 21.433004
_cell_angle_alpha 90.000000
_cell_angle_beta 90.000000
_cell_angle_gamma 90.000000
_cell_volume 3096.383522
_symmetry_space_group_name_H-M "P M M A"
_symmetry_group_IT_number 51
_symmetry_cell_setting 'orthorhombic'
loop_
_space_group_symop_operation_xyz
x,y,z
1/2-x,-y,z
1/2+x,-y,-z
-x,y,-z
-x,-y,-z
1/2+x,y,-z
1/2-x,y,z
x,-y,z
loop_
_atom_site_type_symbol
_atom_site_label
_atom_site_fract_x
_atom_site_fract_y
_atom_site_fract_z
Si Si1 0.581616 0.161480 0.564487
Si Si2 0.585243 0.344745 0.848620
Si Si3 0.920154 0.000000 0.223288
Si Si4 0.082113 0.741731 0.664490
Si Si5 0.586538 0.000000 0.649376
Si Si6 0.423060 0.500000 0.065777
Si Si7 0.580419 0.187635 0.201366
Si Si8 0.409493 0.596726 0.288722
O O1 0.500000 0.149379 0.500000
O O2 0.750000 0.179479 0.551702
O O3 0.511065 0.237348 0.603708
O O4 0.553597 0.079304 0.605919
O O5 0.750000 0.319119 0.863362
O O6 0.526113 0.412056 0.899987
O O7 0.498450 0.254344 0.845116
O O8 0.570142 0.396814 0.785074
O O9 0.964881 0.088120 0.186991
O O10 0.982605 0.000000 0.292212
O O11 0.750000 0.000000 0.233316
O O12 0.250000 0.751765 0.648822
O O13 0.037688 0.795984 0.726144
O O14 0.040853 0.643996 0.677430
O O15 0.750000 0.000000 0.674771
O O16 0.250000 0.500000 0.059909
O O17 0.500000 0.500000 0.000000
O O18 0.750000 0.202370 0.191396
O O19 0.250000 0.634210 0.306513
O O20 0.420179 0.500000 0.310391
#
# Coordination Sequence:
#
# PCOD8207044 Si02
#       8
#     8   8   4   8   4   4   8   8
#     4  11  22  35  49  66  89 121 161 202 246 298
#     4   9  17  31  49  71 102 136 170 204 240 288
#     4  10  18  31  49  70 102 135 162 201 253 303
#     4  10  19  31  47  69  95 123 157 199 246 296
#     4  10  21  33  47  68  92 121 161 201 240 297
#     4  10  20  34  52  78 110 146 177 204 245 288
#     4   9  18  30  47  71  99 132 166 203 249 294
#     4   9  16  29  50  72  96 127 159 195 239 289
#
# _framework density 16.793786999999998
#
# number of rings (size 3 to 8) (size 9 to 14) (size 15 to 20)
#    0.000    2.308    2.308    1.154    0.000    2.769 
#    0.000    0.000    0.000    0.462    0.000    0.538 
#    0.000    0.000    0.000    0.000    0.000    0.000 
#
# Total GULP energy -644460.817975 kJ/mol
# GULP energy per Si atom -12393.477269 kJ/mol
# Density = 1.675556 g / cm^3
# Si number density = 16.793787 Si / 1000 Ang^3
#
#
#
# Elastic Constant Matrix: (Units=GPa)
#
#
# Indices 1 2 3 4 5 6 
#
# 1 65.7058 47.7421 34.3693 0.0000 0.0000 0.0000
# 2 47.7421 122.8717 40.9023 0.0000 0.0000 0.0000
# 3 34.3693 40.9023 55.0458 0.0000 0.0000 0.0000
# 4 0.0000 0.0000 0.0000 32.5013 0.0000 0.0000
# 5 0.0000 0.0000 0.0000 0.0000 25.8093 0.0000
# 6 0.0000 0.0000 0.0000 0.0000 0.0000 28.7869
#
#
#
# Elastic Compliance Matrix: (Units=1/GPa)
#
#
# Indices 1 2 3 4 5 6 
#
# 1 0.025697 -0.006170 -0.011460 0.000000 0.000000 0.000000
# 2 -0.006170 0.012295 -0.005283 0.000000 0.000000 0.000000
# 3 -0.011460 -0.005283 0.029248 0.000000 0.000000 0.000000
# 4 0.000000 0.000000 0.000000 0.030768 0.000000 0.000000
# 5 0.000000 0.000000 0.000000 0.000000 0.038746 0.000000
# 6 0.000000 0.000000 0.000000 0.000000 0.000000 0.034738
#
#
# Mechanical properties :
#
#
# Convention : Reuss Voigt Hill
#
# Bulk Modulus (GPa) = 46.70040 54.40564 50.55302
# Shear Modulus (GPa) = 22.27618 25.46013 23.86816
#
# Velocity S-wave (km/s) = 3.64600 3.89787 3.77404
# Velocity P-wave (km/s) = 6.75226 7.26116 7.01133
#
# Compressibility (1/GPa) = 0.02141309
#
# Stress axis : x y z
#
# Youngs Moduli (GPa) = 38.91545 81.33665 34.19039
#
# Poissons Ratio (x) = 0.50182 0.39182
# Poissons Ratio (y) = 0.24009 0.18064
# Poissons Ratio (z) = 0.44597 0.42974
#
# Static dielectric constant tensor:
#      x y z
#    x 3.187710 0.000000 0.000000 
#    y 0.000000 3.322530 0.000000 
#    z 0.000000 0.000000 2.841590 
# 
# 
# High freq. dielectric constant tensor:
#      x y z
#    x 1.650220 0.000000 0.000000 
#    y 0.000000 1.653910 0.000000 
#    z 0.000000 0.000000 1.605470 
# 
# From -- ./inp_files/31852.got.cif
#   From: 2010.03.12/outbox.cif.g09.slc.cpg/sg51_16_cif.got.tgz:31852.got - 2010.04.16 13:43:02.
