data_PCOD8207338
_publ_section_title
;
Structure prediction by ZEFSAII (Michael W. Deem and Ramdas Pophale) SiO2 
 PCOD8207338
Probable space group: P M M A
;
_chemical_formula_sum "Si O2"
_cell_formula_units_Z 40
_cell_length_a 16.203023
_cell_length_b 9.075192
_cell_length_c 12.841509
_cell_angle_alpha 90.000000
_cell_angle_beta 90.000000
_cell_angle_gamma 90.000000
_cell_volume 1888.286686
_symmetry_space_group_name_H-M "P M M A"
_symmetry_group_IT_number 51
_symmetry_cell_setting 'orthorhombic'
loop_
_space_group_symop_operation_xyz
x,y,z
1/2-x,-y,z
1/2+x,-y,-z
-x,y,-z
-x,-y,-z
1/2+x,y,-z
1/2-x,y,z
x,-y,z
loop_
_atom_site_type_symbol
_atom_site_label
_atom_site_fract_x
_atom_site_fract_y
_atom_site_fract_z
Si Si1 0.606015 0.164100 0.953556
Si Si2 0.430425 0.324599 0.419630
Si Si3 0.750000 0.160936 0.791479
Si Si4 0.508198 0.829752 0.228877
Si Si5 0.750000 0.671565 0.587946
Si Si6 0.155846 0.327769 0.847140
O O1 0.669626 0.174696 0.860291
O O2 0.518584 0.190454 0.893744
O O3 0.608620 0.000000 0.005081
O O4 0.629230 0.288253 0.035849
O O5 0.500000 0.268564 0.500000
O O6 0.434059 0.500000 0.406403
O O7 0.446798 0.252313 0.307461
O O8 0.338333 0.271961 0.459247
O O9 0.750000 0.291863 0.709507
O O10 0.750000 0.000000 0.735414
O O11 0.599280 0.758385 0.236299
O O12 0.510998 0.000000 0.260604
O O13 0.750000 0.500000 0.572506
O O14 0.250000 0.280456 0.827019
O O15 0.143095 0.500000 0.829977
#
# Coordination Sequence:
#
# PCOD8207338 Si02
#       6
#     8   8   4   8   4   8
#     4  10  20  35  57  85 117 155 195 239 291 345
#     4  10  22  41  63  89 121 155 195 247 303 357
#     4  10  18  32  56  85 118 153 190 239 290 340
#     4  11  23  39  61  87 118 154 196 246 299 354
#     4  10  20  36  62  89 114 151 196 243 300 356
#     4  11  24  39  56  82 118 161 204 244 290 349
#
# _framework density 21.183223000000002
#
# number of rings (size 3 to 8) (size 9 to 14) (size 15 to 20)
#    0.000    1.600    3.000    1.800    0.000    6.400 
#    1.800    0.000    0.000    0.000    0.000    0.000 
#    0.000    0.000    0.000    0.000    0.000    0.000 
#
# Total GULP energy -495819.745582 kJ/mol
# GULP energy per Si atom -12395.493640 kJ/mol
# Density = 2.113501 g / cm^3
# Si number density = 21.183223 Si / 1000 Ang^3
#
#
#
# Elastic Constant Matrix: (Units=GPa)
#
#
# Indices 1 2 3 4 5 6 
#
# 1 174.0455 47.0015 20.9195 0.0000 0.0000 0.0000
# 2 47.0015 50.5014 15.1018 0.0000 0.0000 0.0000
# 3 20.9195 15.1018 36.0720 0.0000 0.0000 0.0000
# 4 0.0000 0.0000 0.0000 23.1279 0.0000 0.0000
# 5 0.0000 0.0000 0.0000 0.0000 57.4896 0.0000
# 6 0.0000 0.0000 0.0000 0.0000 0.0000 20.5047
#
#
#
# Elastic Compliance Matrix: (Units=1/GPa)
#
#
# Indices 1 2 3 4 5 6 
#
# 1 0.007763 -0.006720 -0.001689 0.000000 0.000000 0.000000
# 2 -0.006720 0.028453 -0.008015 0.000000 0.000000 0.000000
# 3 -0.001689 -0.008015 0.032057 0.000000 0.000000 0.000000
# 4 0.000000 0.000000 0.000000 0.043238 0.000000 0.000000
# 5 0.000000 0.000000 0.000000 0.000000 0.017394 0.000000
# 6 0.000000 0.000000 0.000000 0.000000 0.000000 0.048769
#
#
# Mechanical properties :
#
#
# Convention : Reuss Voigt Hill
#
# Bulk Modulus (GPa) = 28.22797 47.40717 37.81757
# Shear Modulus (GPa) = 22.48900 32.06418 27.27659
#
# Velocity S-wave (km/s) = 3.26182 3.89480 3.59228
# Velocity P-wave (km/s) = 5.24791 6.53101 5.92430
#
# Compressibility (1/GPa) = 0.03542586
#
# Stress axis : x y z
#
# Youngs Moduli (GPa) = 128.80803 35.14592 31.19437
#
# Poissons Ratio (x) = 0.23620 0.05268
# Poissons Ratio (y) = 0.86565 0.25001
# Poissons Ratio (z) = 0.21753 0.28168
#
# Static dielectric constant tensor:
#      x y z
#    x 4.722890 0.000000 0.000000 
#    y 0.000000 3.705860 0.000000 
#    z 0.000000 0.000000 3.427510 
# 
# 
# High freq. dielectric constant tensor:
#      x y z
#    x 1.866770 0.000000 0.000000 
#    y 0.000000 1.818330 0.000000 
#    z 0.000000 0.000000 1.796130 
# 
# From -- ./inp_files/23774.got.cif
#   From: 2010.03.12/outbox.cif.g09.slc.cpg/sg51_12_cif.got.tgz:23774.got - 2010.04.16 13:43:02.
