data_PCOD8207411
_publ_section_title
;
Structure prediction by ZEFSAII (Michael W. Deem and Ramdas Pophale) SiO2 
 PCOD8207411
Probable space group: P M M A
;
_chemical_formula_sum "Si O2"
_cell_formula_units_Z 56
_cell_length_a 22.537998
_cell_length_b 8.486712
_cell_length_c 14.781727
_cell_angle_alpha 90.000000
_cell_angle_beta 90.000000
_cell_angle_gamma 90.000000
_cell_volume 2827.352631
_symmetry_space_group_name_H-M "P M M A"
_symmetry_group_IT_number 51
_symmetry_cell_setting 'orthorhombic'
loop_
_space_group_symop_operation_xyz
x,y,z
1/2-x,-y,z
1/2+x,-y,-z
-x,y,-z
-x,-y,-z
1/2+x,y,-z
1/2-x,y,z
x,-y,z
loop_
_atom_site_type_symbol
_atom_site_label
_atom_site_fract_x
_atom_site_fract_y
_atom_site_fract_z
Si Si1 0.184484 0.187222 0.201802
Si Si2 0.596768 0.815538 0.280230
Si Si3 0.817894 0.317548 0.422397
Si Si4 0.493223 0.818849 0.401775
Si Si5 0.946038 0.683525 0.103995
Si Si6 0.140922 0.819067 0.392470
Si Si7 0.072459 0.814325 0.088829
O O1 0.250000 0.244117 0.168222
O O2 0.177350 0.243728 0.306018
O O3 0.131662 0.254029 0.138412
O O4 0.180726 0.000000 0.200012
O O5 0.654255 0.782404 0.340858
O O6 0.539631 0.743096 0.332289
O O7 0.599028 0.724369 0.185048
O O8 0.591573 0.000000 0.259722
O O9 0.750000 0.266440 0.428253
O O10 0.826124 0.500000 0.399704
O O11 0.847174 0.283444 0.519209
O O12 0.500000 0.736482 0.500000
O O13 0.427468 0.801084 0.363226
O O14 0.512829 0.000000 0.412604
O O15 0.944540 0.500000 0.081252
O O16 0.013271 0.734326 0.129540
O O17 0.922470 0.777776 0.017145
O O18 0.156403 0.000000 0.415754
O O19 0.066740 0.000000 0.104815
#
# Coordination Sequence:
#
# PCOD8207411 Si02
#       7
#     8   8   8   8   8   8   8
#     4   9  18  32  54  85 115 144 186 238 281 321
#     4  11  21  37  61  84 108 142 188 231 273 331
#     4  11  24  39  52  73 111 152 187 228 276 324
#     4   9  16  29  51  82 111 136 173 227 275 310
#     4  11  22  37  58  85 117 145 177 228 291 345
#     4  10  18  33  57  81 108 146 187 225 269 324
#     4  10  19  36  61  86 112 146 189 231 277 334
#
# _framework density 19.806515000000001
#
# number of rings (size 3 to 8) (size 9 to 14) (size 15 to 20)
#    0.000    1.857    1.429    4.714    0.000    4.000 
#    0.000    5.714    0.000    6.000    0.000    0.000 
#    0.000    0.000    0.000    0.000    0.000    0.000 
#
# Total GULP energy -694372.190489 kJ/mol
# GULP energy per Si atom -12399.503402 kJ/mol
# Density = 1.976143 g / cm^3
# Si number density = 19.806515 Si / 1000 Ang^3
#
#
#
# Elastic Constant Matrix: (Units=GPa)
#
#
# Indices 1 2 3 4 5 6 
#
# 1 76.6420 12.0527 27.8614 0.0000 0.0000 0.0000
# 2 12.0527 39.3813 5.5482 0.0000 0.0000 0.0000
# 3 27.8614 5.5482 90.1083 0.0000 0.0000 0.0000
# 4 0.0000 0.0000 0.0000 15.7328 0.0000 0.0000
# 5 0.0000 0.0000 0.0000 0.0000 31.2801 0.0000
# 6 0.0000 0.0000 0.0000 0.0000 0.0000 17.3883
#
#
#
# Elastic Compliance Matrix: (Units=1/GPa)
#
#
# Indices 1 2 3 4 5 6 
#
# 1 0.015316 -0.004056 -0.004486 0.000000 0.000000 0.000000
# 2 -0.004056 0.026689 -0.000389 0.000000 0.000000 0.000000
# 3 -0.004486 -0.000389 0.012509 0.000000 0.000000 0.000000
# 4 0.000000 0.000000 0.000000 0.063561 0.000000 0.000000
# 5 0.000000 0.000000 0.000000 0.000000 0.031969 0.000000
# 6 0.000000 0.000000 0.000000 0.000000 0.000000 0.057510
#
#
# Mechanical properties :
#
#
# Convention : Reuss Voigt Hill
#
# Bulk Modulus (GPa) = 27.28363 33.00623 30.14493
# Shear Modulus (GPa) = 21.04080 23.59153 22.31617
#
# Velocity S-wave (km/s) = 3.26286 3.45498 3.36029
# Velocity P-wave (km/s) = 5.29150 5.71107 5.50528
#
# Compressibility (1/GPa) = 0.03665202
#
# Stress axis : x y z
#
# Youngs Moduli (GPa) = 65.29013 37.46889 79.94363
#
# Poissons Ratio (x) = 0.15196 0.35863
# Poissons Ratio (y) = 0.26479 0.03113
# Poissons Ratio (z) = 0.29289 0.01459
#
# Static dielectric constant tensor:
#      x y z
#    x 3.709930 0.000000 0.000000 
#    y 0.000000 3.278450 0.000000 
#    z 0.000000 0.000000 3.639360 
# 
# 
# High freq. dielectric constant tensor:
#      x y z
#    x 1.769020 0.000000 0.000000 
#    y 0.000000 1.742230 0.000000 
#    z 0.000000 0.000000 1.775800 
# 
# From -- ./inp_files/25682.got.cif
#   From: 2010.03.12/outbox.cif.g09.slc.cpg/sg51_13_cif.got.tgz:25682.got - 2010.04.16 13:43:02.
