data_PCOD8207899
_publ_section_title
;
Structure prediction by ZEFSAII (Michael W. Deem and Ramdas Pophale) SiO2 
 PCOD8207899
Probable space group: P M M A
;
_chemical_formula_sum "Si O2"
_cell_formula_units_Z 64
_cell_length_a 8.975426
_cell_length_b 27.450443
_cell_length_c 18.140438
_cell_angle_alpha 90.000000
_cell_angle_beta 90.000000
_cell_angle_gamma 90.000000
_cell_volume 4469.430590
_symmetry_space_group_name_H-M "P M M A"
_symmetry_group_IT_number 51
_symmetry_cell_setting 'orthorhombic'
loop_
_space_group_symop_operation_xyz
x,y,z
1/2-x,-y,z
1/2+x,-y,-z
-x,y,-z
-x,-y,-z
1/2+x,y,-z
1/2-x,y,z
x,-y,z
loop_
_atom_site_type_symbol
_atom_site_label
_atom_site_fract_x
_atom_site_fract_y
_atom_site_fract_z
Si Si1 0.925757 0.252303 0.659701
Si Si2 0.924398 0.948591 0.578271
Si Si3 0.572572 0.341125 0.421314
Si Si4 0.577848 0.445398 0.174590
Si Si5 0.085480 0.697704 0.198540
Si Si6 0.416669 0.603213 0.299546
Si Si7 0.924360 0.644669 0.077921
Si Si8 0.924815 0.843466 0.578718
O O1 0.750000 0.262639 0.646928
O O2 0.964327 0.258156 0.747111
O O3 0.974041 0.197954 0.636383
O O4 0.019290 0.289457 0.610314
O O5 0.750000 0.948062 0.564604
O O6 0.969822 0.896517 0.614915
O O7 0.000000 0.949923 0.500000
O O8 0.967650 0.000000 0.620772
O O9 0.500000 0.349587 0.500000
O O10 0.750000 0.341449 0.426839
O O11 0.518016 0.386027 0.370603
O O12 0.750000 0.435290 0.192539
O O13 0.551627 0.500000 0.144021
O O14 0.488346 0.439755 0.250860
O O15 0.523351 0.407031 0.112635
O O16 0.250000 0.707455 0.165363
O O17 0.088731 0.650972 0.250230
O O18 0.971965 0.689348 0.131267
O O19 0.250000 0.587957 0.324060
O O20 0.750000 0.646834 0.066152
O O21 0.000000 0.651604 0.000000
O O22 0.750000 0.840304 0.564355
O O23 0.000000 0.834557 0.500000
#
# Coordination Sequence:
#
# PCOD8207899 Si02
#       8
#     8   8   8   8   8   8   8   8
#     4   9  17  28  40  56  78 102 129 162 200 239
#     4   8  13  21  32  45  63  91 128 167 204 240
#     4  11  20  29  42  59  79 102 128 160 198 237
#     4   9  18  32  48  66  87 109 131 154 182 217
#     4   8  15  28  43  57  76 101 127 155 186 224
#     4   9  17  30  46  63  81 102 130 159 188 226
#     4  10  19  30  45  64  85 107 130 155 181 212
#     4   9  16  24  34  50  73 100 131 169 209 242
#
# _framework density 14.319497999999999
#
# number of rings (size 3 to 8) (size 9 to 14) (size 15 to 20)
#    0.000    2.875    0.000    3.000    0.000    5.500 
#    0.000    0.000    0.000    0.375    0.000    0.000 
#    0.000    0.000    0.000    0.000    0.000    0.625 
#
# Total GULP energy -792883.054228 kJ/mol
# GULP energy per Si atom -12388.797722 kJ/mol
# Density = 1.428691 g / cm^3
# Si number density = 14.319498 Si / 1000 Ang^3
#
#
#
# Elastic Constant Matrix: (Units=GPa)
#
#
# Indices 1 2 3 4 5 6 
#
# 1 60.3537 18.2884 38.1325 0.0000 0.0000 0.0000
# 2 18.2884 73.6764 43.2154 0.0000 0.0000 0.0000
# 3 38.1325 43.2154 88.7618 0.0000 0.0000 0.0000
# 4 0.0000 0.0000 0.0000 11.8333 0.0000 0.0000
# 5 0.0000 0.0000 0.0000 0.0000 20.5935 0.0000
# 6 0.0000 0.0000 0.0000 0.0000 0.0000 13.3841
#
#
#
# Elastic Compliance Matrix: (Units=1/GPa)
#
#
# Indices 1 2 3 4 5 6 
#
# 1 0.022743 0.000120 -0.009829 0.000000 0.000000 0.000000
# 2 0.000120 0.018999 -0.009301 0.000000 0.000000 0.000000
# 3 -0.009829 -0.009301 0.020017 0.000000 0.000000 0.000000
# 4 0.000000 0.000000 0.000000 0.084508 0.000000 0.000000
# 5 0.000000 0.000000 0.000000 0.000000 0.048559 0.000000
# 6 0.000000 0.000000 0.000000 0.000000 0.000000 0.074715
#
#
# Mechanical properties :
#
#
# Convention : Reuss Voigt Hill
#
# Bulk Modulus (GPa) = 42.12652 46.89605 44.51129
# Shear Modulus (GPa) = 15.84916 17.37255 16.61086
#
# Velocity S-wave (km/s) = 3.33051 3.48689 3.40960
# Velocity P-wave (km/s) = 6.65376 7.00229 6.83025
#
# Compressibility (1/GPa) = 0.02373801
#
# Stress axis : x y z
#
# Youngs Moduli (GPa) = 43.97036 52.63436 49.95717
#
# Poissons Ratio (x) = -0.00630 0.49101
# Poissons Ratio (y) = -0.00527 0.46468
# Poissons Ratio (z) = 0.43217 0.48958
#
# Static dielectric constant tensor:
#      x y z
#    x 2.846690 0.000000 0.000000 
#    y 0.000000 3.176160 0.000000 
#    z 0.000000 0.000000 2.689220 
# 
# 
# High freq. dielectric constant tensor:
#      x y z
#    x 1.555540 0.000000 0.000000 
#    y 0.000000 1.529940 0.000000 
#    z 0.000000 0.000000 1.513000 
# 
# From -- ./inp_files/22579.got.cif
#   From: 2010.03.12/outbox.cif.g09.slc.cpg/sg51_12_cif.got.tgz:22579.got - 2010.04.16 13:43:02.
