data_PCOD8207989
_publ_section_title
;
Structure prediction by ZEFSAII (Michael W. Deem and Ramdas Pophale) SiO2 
 PCOD8207989
Probable space group: P M M A
;
_chemical_formula_sum "Si O2"
_cell_formula_units_Z 48
_cell_length_a 29.541828
_cell_length_b 9.047729
_cell_length_c 11.585711
_cell_angle_alpha 90.000000
_cell_angle_beta 90.000000
_cell_angle_gamma 90.000000
_cell_volume 3096.703609
_symmetry_space_group_name_H-M "P M M A"
_symmetry_group_IT_number 51
_symmetry_cell_setting 'orthorhombic'
loop_
_space_group_symop_operation_xyz
x,y,z
1/2-x,-y,z
1/2+x,-y,-z
-x,y,-z
-x,-y,-z
1/2+x,y,-z
1/2-x,y,z
x,-y,z
loop_
_atom_site_type_symbol
_atom_site_label
_atom_site_fract_x
_atom_site_fract_y
_atom_site_fract_z
Si Si1 0.040456 0.326622 0.415013
Si Si2 0.570184 0.168671 0.047364
Si Si3 0.477941 0.170438 0.180829
Si Si4 0.300757 0.668394 0.620744
Si Si5 0.384170 0.175219 0.552252
Si Si6 0.878269 0.666984 0.223995
O O1 0.050496 0.500000 0.420585
O O2 0.027633 0.281166 0.286117
O O3 0.085533 0.238212 0.449324
O O4 0.000000 0.280705 0.500000
O O5 0.525943 0.201488 0.122690
O O6 0.611126 0.267308 0.097861
O O7 0.585080 0.000000 0.059406
O O8 0.560963 0.206701 0.913699
O O9 0.474237 0.000000 0.221140
O O10 0.250000 0.733448 0.627337
O O11 0.300122 0.500000 0.574879
O O12 0.332129 0.767248 0.535284
O O13 0.324085 0.672991 0.748852
O O14 0.403377 0.237884 0.674885
O O15 0.385699 0.000000 0.551813
O O16 0.896645 0.500000 0.230848
#
# Coordination Sequence:
#
# PCOD8207989 Si02
#       6
#     8   8   8   8   8   8
#     4  11  22  33  45  65  93 126 163 200 237 281
#     4   9  17  31  47  65  90 121 155 193 234 275
#     4   9  19  32  46  64  89 123 161 193 230 278
#     4   8  16  31  48  69  98 125 150 187 235 285
#     4  10  19  30  46  68  94 123 155 192 235 280
#     4   9  17  28  45  68  93 120 151 185 230 277
#
# _framework density 15.500353
#
# number of rings (size 3 to 8) (size 9 to 14) (size 15 to 20)
#    1.000    1.667    0.000    4.000    0.000    5.667 
#    0.000    1.667    0.000    0.000    0.000    1.167 
#    0.000    4.000    0.000    0.000    0.000    0.000 
#
# Total GULP energy -594766.384833 kJ/mol
# GULP energy per Si atom -12390.966351 kJ/mol
# Density = 1.546507 g / cm^3
# Si number density = 15.500353 Si / 1000 Ang^3
#
#
#
# Elastic Constant Matrix: (Units=GPa)
#
#
# Indices 1 2 3 4 5 6 
#
# 1 78.1502 45.3240 32.1850 0.0000 0.0000 0.0000
# 2 45.3240 99.8432 41.4597 0.0000 0.0000 0.0000
# 3 32.1850 41.4597 74.4600 0.0000 0.0000 0.0000
# 4 0.0000 0.0000 0.0000 25.2598 0.0000 0.0000
# 5 0.0000 0.0000 0.0000 0.0000 18.0792 0.0000
# 6 0.0000 0.0000 0.0000 0.0000 0.0000 19.2780
#
#
#
# Elastic Compliance Matrix: (Units=1/GPa)
#
#
# Indices 1 2 3 4 5 6 
#
# 1 0.018364 -0.006556 -0.004287 0.000000 0.000000 0.000000
# 2 -0.006556 0.015368 -0.005723 0.000000 0.000000 0.000000
# 3 -0.004287 -0.005723 0.018470 0.000000 0.000000 0.000000
# 4 0.000000 0.000000 0.000000 0.039589 0.000000 0.000000
# 5 0.000000 0.000000 0.000000 0.000000 0.055312 0.000000
# 6 0.000000 0.000000 0.000000 0.000000 0.000000 0.051873
#
#
# Mechanical properties :
#
#
# Convention : Reuss Voigt Hill
#
# Bulk Modulus (GPa) = 52.44146 54.48785 53.46466
# Shear Modulus (GPa) = 20.96740 21.42236 21.19488
#
# Velocity S-wave (km/s) = 3.68190 3.72164 3.70182
# Velocity P-wave (km/s) = 7.20979 7.32778 7.26903
#
# Compressibility (1/GPa) = 0.01906888
#
# Stress axis : x y z
#
# Youngs Moduli (GPa) = 54.45521 65.06834 54.14179
#
# Poissons Ratio (x) = 0.42659 0.23212
# Poissons Ratio (y) = 0.35701 0.30988
# Poissons Ratio (z) = 0.23346 0.37242
#
# Static dielectric constant tensor:
#      x y z
#    x 2.827220 0.000000 0.000000 
#    y 0.000000 2.935530 0.000000 
#    z 0.000000 0.000000 2.806060 
# 
# 
# High freq. dielectric constant tensor:
#      x y z
#    x 1.570100 0.000000 0.000000 
#    y 0.000000 1.603280 0.000000 
#    z 0.000000 0.000000 1.569550 
# 
# From -- ./inp_files/19289.got.cif
#   From: 2010.03.12/outbox.cif.g09.slc.cpg/sg51_10_cif.got.tgz:19289.got - 2010.04.16 13:43:02.
