data_PCOD8207642
_publ_section_title
;
Structure prediction by ZEFSAII (Michael W. Deem and Ramdas Pophale) SiO2 
 PCOD8207642
Probable space group: P M M A
;
_chemical_formula_sum "Si O2"
_cell_formula_units_Z 64
_cell_length_a 9.047196
_cell_length_b 18.116673
_cell_length_c 26.468676
_cell_angle_alpha 90.000000
_cell_angle_beta 90.000000
_cell_angle_gamma 90.000000
_cell_volume 4338.350762
_symmetry_space_group_name_H-M "P M M A"
_symmetry_group_IT_number 51
_symmetry_cell_setting 'orthorhombic'
loop_
_space_group_symop_operation_xyz
x,y,z
1/2-x,-y,z
1/2+x,-y,-z
-x,y,-z
-x,-y,-z
1/2+x,y,-z
1/2-x,y,z
x,-y,z
loop_
_atom_site_type_symbol
_atom_site_label
_atom_site_fract_x
_atom_site_fract_y
_atom_site_fract_z
Si Si1 0.576129 0.415760 0.949306
Si Si2 0.075531 0.329041 0.149234
Si Si3 0.913175 0.703364 0.299538
Si Si4 0.925877 0.153067 0.352458
Si Si5 0.423837 0.417609 0.247910
Si Si6 0.921889 0.914247 0.552303
Si Si7 0.916101 0.797431 0.198134
Si Si8 0.920095 0.914265 0.742779
O O1 0.750000 0.410059 0.956531
O O2 0.527717 0.500000 0.938490
O O3 0.522405 0.365855 0.902786
O O4 0.500000 0.385555 0.000000
O O5 0.250000 0.315683 0.150501
O O6 0.026754 0.383773 0.194309
O O7 0.995255 0.249995 0.154248
O O8 0.750000 0.673088 0.311342
O O9 0.964612 0.760399 0.343006
O O10 0.913659 0.749430 0.248343
O O11 0.018762 0.632537 0.294402
O O12 0.750000 0.140043 0.352761
O O13 0.997017 0.133397 0.405575
O O14 0.994802 0.101729 0.309185
O O15 0.250000 0.420366 0.252186
O O16 0.490486 0.500000 0.252238
O O17 0.750000 0.892711 0.549238
O O18 0.000000 0.894379 0.500000
O O19 0.942013 0.000000 0.565652
O O20 0.750000 0.818095 0.180981
O O21 0.007965 0.871551 0.209723
O O22 0.750000 0.889401 0.736368
O O23 0.932751 0.000000 0.755533
#
# Coordination Sequence:
#
# PCOD8207642 Si02
#       8
#     8   8   8   8   8   8   8   8
#     4   9  17  28  41  58  81 109 141 176 211 245
#     4   9  16  27  42  57  78 109 140 170 206 246
#     4   8  16  28  39  55  79 106 134 164 200 240
#     4  10  19  30  44  61  83 111 142 174 207 243
#     4   9  16  25  39  59  80 104 136 170 202 239
#     4  10  20  32  45  62  84 110 141 175 209 244
#     4   9  17  28  41  58  80 105 135 170 205 242
#     4  10  19  29  42  61  84 110 140 170 201 242
#
# _framework density 14.752148999999999
#
# number of rings (size 3 to 8) (size 9 to 14) (size 15 to 20)
#    0.000    2.750    0.000    3.000    0.000    9.000 
#    0.000    0.000    0.000    2.250    0.000    0.000 
#    0.000    1.000    0.000    3.250    0.000    4.375 
#
# Total GULP energy -793457.582758 kJ/mol
# GULP energy per Si atom -12397.774731 kJ/mol
# Density = 1.471857 g / cm^3
# Si number density = 14.752149 Si / 1000 Ang^3
#
#
#
# Elastic Constant Matrix: (Units=GPa)
#
#
# Indices 1 2 3 4 5 6 
#
# 1 78.1653 48.9061 44.1034 0.0000 0.0000 0.0000
# 2 48.9061 90.5565 54.5939 0.0000 0.0000 0.0000
# 3 44.1034 54.5939 88.8358 0.0000 0.0000 0.0000
# 4 0.0000 0.0000 0.0000 26.2144 0.0000 0.0000
# 5 0.0000 0.0000 0.0000 0.0000 23.9749 0.0000
# 6 0.0000 0.0000 0.0000 0.0000 0.0000 22.2695
#
#
#
# Elastic Compliance Matrix: (Units=1/GPa)
#
#
# Indices 1 2 3 4 5 6 
#
# 1 0.020863 -0.007979 -0.005454 0.000000 0.000000 0.000000
# 2 -0.007979 0.020594 -0.008695 0.000000 0.000000 0.000000
# 3 -0.005454 -0.008695 0.019308 0.000000 0.000000 0.000000
# 4 0.000000 0.000000 0.000000 0.038147 0.000000 0.000000
# 5 0.000000 0.000000 0.000000 0.000000 0.041710 0.000000
# 6 0.000000 0.000000 0.000000 0.000000 0.000000 0.044904
#
#
# Mechanical properties :
#
#
# Convention : Reuss Voigt Hill
#
# Bulk Modulus (GPa) = 60.57333 61.41826 60.99579
# Shear Modulus (GPa) = 21.25080 21.82203 21.53642
#
# Velocity S-wave (km/s) = 3.79954 3.85027 3.82499
# Velocity P-wave (km/s) = 7.77165 7.84155 7.80668
#
# Compressibility (1/GPa) = 0.01650892
#
# Stress axis : x y z
#
# Youngs Moduli (GPa) = 47.93116 48.55819 51.79294
#
# Poissons Ratio (x) = 0.38746 0.28248
# Poissons Ratio (y) = 0.38246 0.45031
# Poissons Ratio (z) = 0.26142 0.42219
#
# Static dielectric constant tensor:
#      x y z
#    x 2.987800 0.000000 0.000000 
#    y 0.000000 2.937170 0.000000 
#    z 0.000000 0.000000 2.715490 
# 
# 
# High freq. dielectric constant tensor:
#      x y z
#    x 1.575220 0.000000 0.000000 
#    y 0.000000 1.551420 0.000000 
#    z 0.000000 0.000000 1.531850 
# 
# From -- ./inp_files/36413.got.cif
#   From: 2010.03.12/outbox.cif.g09.slc.cpg/sg51_19_cif.got.tgz:36413.got - 2010.04.16 13:43:02.
