data_PCOD8207790
_publ_section_title
;
Structure prediction by ZEFSAII (Michael W. Deem and Ramdas Pophale) SiO2 
 PCOD8207790
Probable space group: P M M A
;
_chemical_formula_sum "Si O2"
_cell_formula_units_Z 48
_cell_length_a 18.064247
_cell_length_b 9.417533
_cell_length_c 15.797327
_cell_angle_alpha 90.000000
_cell_angle_beta 90.000000
_cell_angle_gamma 90.000000
_cell_volume 2687.451415
_symmetry_space_group_name_H-M "P M M A"
_symmetry_group_IT_number 51
_symmetry_cell_setting 'orthorhombic'
loop_
_space_group_symop_operation_xyz
x,y,z
1/2-x,-y,z
1/2+x,-y,-z
-x,y,-z
-x,-y,-z
1/2+x,y,-z
1/2-x,y,z
x,-y,z
loop_
_atom_site_type_symbol
_atom_site_label
_atom_site_fract_x
_atom_site_fract_y
_atom_site_fract_z
Si Si1 0.250000 0.668931 0.276346
Si Si2 0.666339 0.331171 0.432303
Si Si3 0.024313 0.839268 0.861239
Si Si4 0.613881 0.668936 0.613520
Si Si5 0.250000 0.331905 0.085154
Si Si6 0.460614 0.668694 0.692959
Si Si7 0.115350 0.838862 0.027574
O O1 0.250000 0.500000 0.278387
O O2 0.323518 0.727144 0.322493
O O3 0.250000 0.726395 0.180994
O O4 0.750000 0.272833 0.417906
O O5 0.668190 0.500000 0.436308
O O6 0.632885 0.271861 0.520288
O O7 0.612593 0.279725 0.357035
O O8 0.042491 0.732779 0.786041
O O9 0.945605 0.801359 0.902100
O O10 0.024304 0.000000 0.826521
O O11 0.085765 0.820888 0.932967
O O12 0.614387 0.500000 0.612109
O O13 0.533514 0.723962 0.643277
O O14 0.250000 0.500000 0.081772
O O15 0.320655 0.274765 0.036364
O O16 0.462701 0.500000 0.701712
O O17 0.143614 0.000000 0.041011
#
# Coordination Sequence:
#
# PCOD8207790 Si02
#       7
#     4   8   8   8   4   8   8
#     4   9  16  25  41  68 103 132 156 199 255 303
#     4   9  16  28  45  67 100 139 171 203 247 302
#     4   9  19  37  57  74  96 135 181 217 253 303
#     4   9  15  26  44  68 100 135 167 200 246 303
#     4  11  21  31  49  84 115 132 158 209 271 315
#     4  10  19  29  48  78 103 126 166 218 261 303
#     4   9  19  37  57  73  98 138 180 213 247 309
#
# _framework density 17.860787999999999
#
# number of rings (size 3 to 8) (size 9 to 14) (size 15 to 20)
#    0.000    2.667    0.833    2.750    0.000    4.667 
#    1.500    1.667    0.000    2.000    0.000    0.000 
#    0.000    0.000    0.000    0.000    0.000    0.000 
#
# Total GULP energy -595122.527365 kJ/mol
# GULP energy per Si atom -12398.385987 kJ/mol
# Density = 1.782014 g / cm^3
# Si number density = 17.860788 Si / 1000 Ang^3
#
#
#
# Elastic Constant Matrix: (Units=GPa)
#
#
# Indices 1 2 3 4 5 6 
#
# 1 141.0899 36.7071 71.0962 0.0000 0.0000 0.0000
# 2 36.7071 37.9969 35.1011 0.0000 0.0000 0.0000
# 3 71.0962 35.1011 110.7225 0.0000 0.0000 0.0000
# 4 0.0000 0.0000 0.0000 14.1131 0.0000 0.0000
# 5 0.0000 0.0000 0.0000 0.0000 22.5394 0.0000
# 6 0.0000 0.0000 0.0000 0.0000 0.0000 17.0347
#
#
#
# Elastic Compliance Matrix: (Units=1/GPa)
#
#
# Indices 1 2 3 4 5 6 
#
# 1 0.011368 -0.005994 -0.005399 0.000000 0.000000 0.000000
# 2 -0.005994 0.040378 -0.008952 0.000000 0.000000 0.000000
# 3 -0.005399 -0.008952 0.015336 0.000000 0.000000 0.000000
# 4 0.000000 0.000000 0.000000 0.070856 0.000000 0.000000
# 5 0.000000 0.000000 0.000000 0.000000 0.044367 0.000000
# 6 0.000000 0.000000 0.000000 0.000000 0.000000 0.058704
#
#
# Mechanical properties :
#
#
# Convention : Reuss Voigt Hill
#
# Bulk Modulus (GPa) = 37.88998 63.95759 50.92379
# Shear Modulus (GPa) = 17.21189 20.53109 18.87149
#
# Velocity S-wave (km/s) = 3.10767 3.39412 3.25405
# Velocity P-wave (km/s) = 5.84268 7.15868 6.53390
#
# Compressibility (1/GPa) = 0.02639220
#
# Stress axis : x y z
#
# Youngs Moduli (GPa) = 87.96720 24.76578 65.20493
#
# Poissons Ratio (x) = 0.14845 0.35205
# Poissons Ratio (y) = 0.52731 0.58369
# Poissons Ratio (z) = 0.47495 0.22169
#
# Static dielectric constant tensor:
#      x y z
#    x 3.494340 0.000000 0.000000 
#    y 0.000000 2.828270 0.000000 
#    z 0.000000 0.000000 3.326830 
# 
# 
# High freq. dielectric constant tensor:
#      x y z
#    x 1.701880 0.000000 0.000000 
#    y 0.000000 1.640280 0.000000 
#    z 0.000000 0.000000 1.697090 
# 
# From -- ./inp_files/24952.got.cif
#   From: 2010.03.12/outbox.cif.g09.slc.cpg/sg51_13_cif.got.tgz:24952.got - 2010.04.16 13:43:02.
