data_PCOD8207762
_publ_section_title
;
Structure prediction by ZEFSAII (Michael W. Deem and Ramdas Pophale) SiO2 
 PCOD8207762
Probable space group: P M M A
;
_chemical_formula_sum "Si O2"
_cell_formula_units_Z 64
_cell_length_a 8.884833
_cell_length_b 18.894450
_cell_length_c 23.489412
_cell_angle_alpha 90.000000
_cell_angle_beta 90.000000
_cell_angle_gamma 90.000000
_cell_volume 3943.262322
_symmetry_space_group_name_H-M "P M M A"
_symmetry_group_IT_number 51
_symmetry_cell_setting 'orthorhombic'
loop_
_space_group_symop_operation_xyz
x,y,z
1/2-x,-y,z
1/2+x,-y,-z
-x,y,-z
-x,-y,-z
1/2+x,y,-z
1/2-x,y,z
x,-y,z
loop_
_atom_site_type_symbol
_atom_site_label
_atom_site_fract_x
_atom_site_fract_y
_atom_site_fract_z
Si Si1 0.073999 0.920712 0.753958
Si Si2 0.424968 0.418667 0.220162
Si Si3 0.077395 0.349747 0.337823
Si Si4 0.575230 0.784969 0.731565
Si Si5 0.571991 0.292195 0.163732
Si Si6 0.921833 0.921200 0.872771
Si Si7 0.073368 0.783918 0.060419
Si Si8 0.573502 0.580339 0.441832
O O1 0.250000 0.908105 0.746824
O O2 0.985689 0.863165 0.715318
O O3 0.030766 0.909147 0.819583
O O4 0.028432 0.000000 0.734118
O O5 0.250000 0.400578 0.210072
O O6 0.462525 0.500000 0.208458
O O7 0.467515 0.399785 0.285042
O O8 0.524163 0.372801 0.176928
O O9 0.250000 0.362187 0.355214
O O10 0.047325 0.267914 0.321134
O O11 0.973905 0.368493 0.390877
O O12 0.750000 0.787446 0.747550
O O13 0.487003 0.759517 0.787204
O O14 0.750000 0.286285 0.159814
O O15 0.499229 0.271041 0.104122
O O16 0.750000 0.910762 0.851646
O O17 0.962745 0.864648 0.921186
O O18 0.945349 0.000000 0.898322
O O19 0.250000 0.769525 0.056954
O O20 0.000000 0.769519 0.000000
O O21 0.500000 0.608199 0.500000
O O22 0.750000 0.584416 0.449557
O O23 0.519910 0.500000 0.428855
#
# Coordination Sequence:
#
# PCOD8207762 Si02
#       8
#     8   8   8   8   8   8   8   8
#     4  10  19  29  45  70  97 125 158 196 238 285
#     4   9  18  33  53  75  99 127 156 190 236 288
#     4   9  18  31  48  71  99 129 164 202 238 276
#     4  10  19  32  49  69  95 129 163 197 240 289
#     4  11  21  33  50  71  96 122 153 194 238 285
#     4   9  18  32  49  67  90 123 157 189 229 280
#     4  11  22  35  51  69  92 121 157 196 235 286
#     4  10  20  32  47  68  97 135 174 207 240 279
#
# _framework density 16.230215999999999
#
# number of rings (size 3 to 8) (size 9 to 14) (size 15 to 20)
#    0.000    2.125    1.250    3.750    0.000    5.500 
#    0.000    0.000    0.000    0.375    0.000    0.000 
#    0.000    0.500    0.000    1.625    0.000    2.375 
#
# Total GULP energy -793667.884988 kJ/mol
# GULP energy per Si atom -12401.060703 kJ/mol
# Density = 1.619328 g / cm^3
# Si number density = 16.230216 Si / 1000 Ang^3
#
#
#
# Elastic Constant Matrix: (Units=GPa)
#
#
# Indices 1 2 3 4 5 6 
#
# 1 91.5802 51.8038 44.9302 0.0000 0.0000 0.0000
# 2 51.8038 111.9653 51.0796 0.0000 0.0000 0.0000
# 3 44.9302 51.0796 88.3736 0.0000 0.0000 0.0000
# 4 0.0000 0.0000 0.0000 18.6983 0.0000 0.0000
# 5 0.0000 0.0000 0.0000 0.0000 27.3890 0.0000
# 6 0.0000 0.0000 0.0000 0.0000 0.0000 26.4339
#
#
#
# Elastic Compliance Matrix: (Units=1/GPa)
#
#
# Indices 1 2 3 4 5 6 
#
# 1 0.016490 -0.005168 -0.005397 0.000000 0.000000 0.000000
# 2 -0.005168 0.013749 -0.005320 0.000000 0.000000 0.000000
# 3 -0.005397 -0.005320 0.017134 0.000000 0.000000 0.000000
# 4 0.000000 0.000000 0.000000 0.053481 0.000000 0.000000
# 5 0.000000 0.000000 0.000000 0.000000 0.036511 0.000000
# 6 0.000000 0.000000 0.000000 0.000000 0.000000 0.037830
#
#
# Mechanical properties :
#
#
# Convention : Reuss Voigt Hill
#
# Bulk Modulus (GPa) = 64.08137 65.28292 64.68214
# Shear Modulus (GPa) = 23.56645 24.11129 23.83887
#
# Velocity S-wave (km/s) = 3.81466 3.85850 3.83664
# Velocity P-wave (km/s) = 7.67923 7.75636 7.71789
#
# Compressibility (1/GPa) = 0.01560516
#
# Stress axis : x y z
#
# Youngs Moduli (GPa) = 60.64155 72.73189 58.36241
#
# Poissons Ratio (x) = 0.37584 0.31499
# Poissons Ratio (y) = 0.31337 0.31047
# Poissons Ratio (z) = 0.32729 0.38691
#
# Static dielectric constant tensor:
#      x y z
#    x 3.123080 0.000000 0.000000 
#    y 0.000000 3.306070 0.000000 
#    z 0.000000 0.000000 2.754560 
# 
# 
# High freq. dielectric constant tensor:
#      x y z
#    x 1.634990 0.000000 0.000000 
#    y 0.000000 1.627520 0.000000 
#    z 0.000000 0.000000 1.585210 
# 
# From -- ./inp_files/32411.got.cif
#   From: 2010.03.12/outbox.cif.g09.slc.cpg/sg51_17_cif.got.tgz:32411.got - 2010.04.16 13:43:02.
