data_PCOD8207765
_publ_section_title
;
Structure prediction by ZEFSAII (Michael W. Deem and Ramdas Pophale) SiO2 
 PCOD8207765
Probable space group: P M M A
;
_chemical_formula_sum "Si O2"
_cell_formula_units_Z 64
_cell_length_a 17.763111
_cell_length_b 10.994220
_cell_length_c 17.766114
_cell_angle_alpha 90.000000
_cell_angle_beta 90.000000
_cell_angle_gamma 90.000000
_cell_volume 3469.571944
_symmetry_space_group_name_H-M "P M M A"
_symmetry_group_IT_number 51
_symmetry_cell_setting 'orthorhombic'
loop_
_space_group_symop_operation_xyz
x,y,z
1/2-x,-y,z
1/2+x,-y,-z
-x,y,-z
-x,-y,-z
1/2+x,y,-z
1/2-x,y,z
x,-y,z
loop_
_atom_site_type_symbol
_atom_site_label
_atom_site_fract_x
_atom_site_fract_y
_atom_site_fract_z
Si Si1 0.038928 0.359330 0.668890
Si Si2 0.333007 0.360707 0.947969
Si Si3 0.125978 0.636161 0.114330
Si Si4 0.019126 0.772170 0.917178
Si Si5 0.377345 0.638051 0.393651
Si Si6 0.165954 0.356263 0.555445
Si Si7 0.832236 0.791786 0.745049
Si Si8 0.006922 0.130015 0.236603
O O1 0.048498 0.500000 0.700217
O O2 0.110431 0.313445 0.621400
O O3 0.029467 0.256124 0.733294
O O4 0.967217 0.355211 0.614792
O O5 0.250000 0.327292 0.915803
O O6 0.353401 0.500000 0.928817
O O7 0.395115 0.274276 0.910789
O O8 0.329109 0.342066 0.037557
O O9 0.132890 0.500000 0.143877
O O10 0.162880 0.716418 0.178388
O O11 0.037770 0.661476 0.099618
O O12 0.006065 0.873351 0.853363
O O13 0.000000 0.826850 0.000000
O O14 0.348595 0.500000 0.390961
O O15 0.357052 0.698690 0.474222
O O16 0.334134 0.706335 0.327786
O O17 0.250000 0.313290 0.576829
O O18 0.159621 0.500000 0.549237
O O19 0.750000 0.858309 0.744623
O O20 0.904150 0.880102 0.743355
O O21 0.973236 0.000000 0.267135
#
# Coordination Sequence:
#
# PCOD8207765 Si02
#       8
#     8   8   8   8   8   8   8   8
#     4   9  18  33  53  75 101 134 171 209 248 293
#     4   9  16  26  43  69 100 132 165 204 250 296
#     4   9  16  26  42  68 104 140 168 196 238 295
#     4   9  18  32  50  70  94 127 168 209 248 295
#     4   9  16  26  44  74 109 139 167 202 245 293
#     4   9  16  27  47  76 106 134 168 212 256 293
#     4  10  19  29  45  71 102 134 165 198 239 292
#     4  10  22  38  55  74  97 130 169 205 247 302
#
# _framework density 18.446079999999998
#
# number of rings (size 3 to 8) (size 9 to 14) (size 15 to 20)
#    0.000    2.750    0.000    1.875    0.000    9.000 
#    0.000    0.625    0.000    9.000    0.000    0.000 
#    0.000    0.000    0.000    0.000    0.000    0.000 
#
# Total GULP energy -792907.525469 kJ/mol
# GULP energy per Si atom -12389.180085 kJ/mol
# Density = 1.840410 g / cm^3
# Si number density = 18.446080 Si / 1000 Ang^3
#
#
#
# Elastic Constant Matrix: (Units=GPa)
#
#
# Indices 1 2 3 4 5 6 
#
# 1 109.4810 18.0869 35.0260 0.0000 0.0000 0.0000
# 2 18.0869 74.5681 32.4189 0.0000 0.0000 0.0000
# 3 35.0260 32.4189 82.5149 0.0000 0.0000 0.0000
# 4 0.0000 0.0000 0.0000 1.8859 0.0000 0.0000
# 5 0.0000 0.0000 0.0000 0.0000 20.2776 0.0000
# 6 0.0000 0.0000 0.0000 0.0000 0.0000 -0.2161
#
#
#
# Elastic Compliance Matrix: (Units=1/GPa)
#
#
# Indices 1 2 3 4 5 6 
#
# 1 0.010603 -0.000742 -0.004209 0.000000 0.000000 0.000000
# 2 -0.000742 0.016225 -0.006060 0.000000 0.000000 0.000000
# 3 -0.004209 -0.006060 0.016287 0.000000 0.000000 0.000000
# 4 0.000000 0.000000 0.000000 0.530240 0.000000 0.000000
# 5 0.000000 0.000000 0.000000 0.000000 0.049315 0.000000
# 6 0.000000 0.000000 0.000000 0.000000 0.000000 -4.627361
#
#
# Mechanical properties :
#
#
# Convention : Reuss Voigt Hill
#
# Bulk Modulus (GPa) = 47.40907 48.62528 48.01718
# Shear Modulus (GPa) = -1.25766 16.45830 7.60032
#
# Velocity S-wave (km/s) = -0.82661 2.99028 2.03205
# Velocity P-wave (km/s) = 4.98459 6.19196 5.62079
#
# Compressibility (1/GPa) = 0.02109301
#
# Stress axis : x y z
#
# Youngs Moduli (GPa) = 94.31050 61.63339 61.40011
#
# Poissons Ratio (x) = 0.04572 0.25846
# Poissons Ratio (y) = 0.06996 0.37206
# Poissons Ratio (z) = 0.39699 0.37348
#
# Static dielectric constant tensor:
#      x y z
#    x 3.537870 0.000000 0.000000 
#    y 0.000000 2.968060 0.000000 
#    z 0.000000 0.000000 3.385240 
# 
# 
# High freq. dielectric constant tensor:
#      x y z
#    x 1.721140 0.000000 0.000000 
#    y 0.000000 1.667680 0.000000 
#    z 0.000000 0.000000 1.708290 
# 
# From -- ./inp_files/30282.got.cif
#   From: 2010.03.12/outbox.cif.g09.slc.cpg/sg51_16_cif.got.tgz:30282.got - 2010.04.16 13:43:02.
