data_PCOD8207047
_publ_section_title
;
Structure prediction by ZEFSAII (Michael W. Deem and Ramdas Pophale) SiO2 
 PCOD8207047
Probable space group: P M M A
;
_chemical_formula_sum "Si O2"
_cell_formula_units_Z 48
_cell_length_a 18.239812
_cell_length_b 8.814757
_cell_length_c 16.615429
_cell_angle_alpha 90.000000
_cell_angle_beta 90.000000
_cell_angle_gamma 90.000000
_cell_volume 2671.420541
_symmetry_space_group_name_H-M "P M M A"
_symmetry_group_IT_number 51
_symmetry_cell_setting 'orthorhombic'
loop_
_space_group_symop_operation_xyz
x,y,z
1/2-x,-y,z
1/2+x,-y,-z
-x,y,-z
-x,-y,-z
1/2+x,y,-z
1/2-x,y,z
x,-y,z
loop_
_atom_site_type_symbol
_atom_site_label
_atom_site_fract_x
_atom_site_fract_y
_atom_site_fract_z
Si Si1 0.168412 0.320238 0.145979
Si Si2 0.170000 0.177560 0.666291
Si Si3 0.956089 0.321425 0.737768
Si Si4 0.911112 0.177135 0.174784
Si Si5 0.523399 0.180500 0.412648
Si Si6 0.915385 0.678731 0.010986
O O1 0.250000 0.250883 0.153530
O O2 0.171424 0.500000 0.139339
O O3 0.122583 0.274210 0.225358
O O4 0.129569 0.258335 0.065365
O O5 0.250000 0.250822 0.646210
O O6 0.151790 0.210473 0.759512
O O7 0.104975 0.243400 0.609415
O O8 0.174560 0.000000 0.650551
O O9 0.963060 0.500000 0.725331
O O10 0.016445 0.269441 0.801838
O O11 0.964813 0.240440 0.651882
O O12 0.882901 0.235770 0.088852
O O13 0.930602 0.000000 0.172340
O O14 0.500000 0.241661 0.500000
O O15 0.522163 0.000000 0.408871
O O16 0.905342 0.500000 0.023031
O O17 0.000000 0.722721 0.000000
#
# Coordination Sequence:
#
# PCOD8207047 Si02
#       6
#     8   8   8   8   8   8
#     4   9  18  32  49  69  96 132 170 208 248 287
#     4   8  15  29  48  69  96 130 162 194 238 292
#     4  10  18  32  53  73  95 127 166 202 240 292
#     4  10  19  30  48  73  98 128 165 203 247 293
#     4   9  18  33  53  77 102 127 159 199 244 297
#     4  10  18  31  49  70  95 128 170 207 242 289
#
# _framework density 17.967969
#
# number of rings (size 3 to 8) (size 9 to 14) (size 15 to 20)
#    0.000    2.667    1.667    2.000    0.000    1.333 
#    0.000    0.833    0.000   17.000    0.000    0.000 
#    0.000    0.000    0.000    0.000    0.000    0.000 
#
# Total GULP energy -595014.978448 kJ/mol
# GULP energy per Si atom -12396.145384 kJ/mol
# Density = 1.792707 g / cm^3
# Si number density = 17.967969 Si / 1000 Ang^3
#
#
#
# Elastic Constant Matrix: (Units=GPa)
#
#
# Indices 1 2 3 4 5 6 
#
# 1 144.0628 16.5193 78.7463 0.0000 0.0000 0.0000
# 2 16.5193 18.6862 22.7823 0.0000 0.0000 0.0000
# 3 78.7463 22.7823 157.5857 0.0000 0.0000 0.0000
# 4 0.0000 0.0000 0.0000 27.9269 0.0000 0.0000
# 5 0.0000 0.0000 0.0000 0.0000 21.4890 0.0000
# 6 0.0000 0.0000 0.0000 0.0000 0.0000 14.8024
#
#
#
# Elastic Compliance Matrix: (Units=1/GPa)
#
#
# Indices 1 2 3 4 5 6 
#
# 1 0.009709 -0.003239 -0.004383 0.000000 0.000000 0.000000
# 2 -0.003239 0.066047 -0.007930 0.000000 0.000000 0.000000
# 3 -0.004383 -0.007930 0.009683 0.000000 0.000000 0.000000
# 4 0.000000 0.000000 0.000000 0.035808 0.000000 0.000000
# 5 0.000000 0.000000 0.000000 0.000000 0.046536 0.000000
# 6 0.000000 0.000000 0.000000 0.000000 0.000000 0.067557
#
#
# Mechanical properties :
#
#
# Convention : Reuss Voigt Hill
#
# Bulk Modulus (GPa) = 18.40467 61.82563 40.11515
# Shear Modulus (GPa) = 17.57138 26.32944 21.95041
#
# Velocity S-wave (km/s) = 3.13058 3.83215 3.49899
# Velocity P-wave (km/s) = 4.83039 7.35282 6.22080
#
# Compressibility (1/GPa) = 0.05433403
#
# Stress axis : x y z
#
# Youngs Moduli (GPa) = 102.99990 15.14075 103.27860
#
# Poissons Ratio (x) = 0.04904 0.45270
# Poissons Ratio (y) = 0.33360 0.81900
# Poissons Ratio (z) = 0.45148 0.12007
#
# Static dielectric constant tensor:
#      x y z
#    x 3.611320 0.000000 0.000000 
#    y 0.000000 3.002790 0.000000 
#    z 0.000000 0.000000 3.419060 
# 
# 
# High freq. dielectric constant tensor:
#      x y z
#    x 1.689110 0.000000 0.000000 
#    y 0.000000 1.664750 0.000000 
#    z 0.000000 0.000000 1.694220 
# 
# From -- ./inp_files/30077.got.cif
#   From: 2010.03.12/outbox.cif.g09.slc.cpg/sg51_16_cif.got.tgz:30077.got - 2010.04.16 13:43:02.
