data_PCOD8207013
_publ_section_title
;
Structure prediction by ZEFSAII (Michael W. Deem and Ramdas Pophale) SiO2 
 PCOD8207013
Probable space group: P M M A
;
_chemical_formula_sum "Si O2"
_cell_formula_units_Z 48
_cell_length_a 15.017564
_cell_length_b 18.233821
_cell_length_c 9.016757
_cell_angle_alpha 90.000000
_cell_angle_beta 90.000000
_cell_angle_gamma 90.000000
_cell_volume 2469.036693
_symmetry_space_group_name_H-M "P M M A"
_symmetry_group_IT_number 51
_symmetry_cell_setting 'orthorhombic'
loop_
_space_group_symop_operation_xyz
x,y,z
1/2-x,-y,z
1/2+x,-y,-z
-x,y,-z
-x,-y,-z
1/2+x,y,-z
1/2-x,y,z
x,-y,z
loop_
_atom_site_type_symbol
_atom_site_label
_atom_site_fract_x
_atom_site_fract_y
_atom_site_fract_z
Si Si1 0.916901 0.793123 0.597498
Si Si2 0.848886 0.337991 0.762906
Si Si3 0.018646 0.580660 0.827179
Si Si4 0.647531 0.703725 0.101747
Si Si5 0.535440 0.152562 0.156492
Si Si6 0.850162 0.918829 0.387758
O O1 0.853766 0.724364 0.635472
O O2 0.865933 0.857584 0.512249
O O3 0.000000 0.765244 0.500000
O O4 0.948141 0.824133 0.754548
O O5 0.750000 0.374227 0.752069
O O6 0.928288 0.396409 0.739337
O O7 0.862883 0.304179 0.925846
O O8 0.047460 0.500000 0.768011
O O9 0.098216 0.639096 0.805449
O O10 0.000000 0.575495 0.000000
O O11 0.750000 0.703567 0.152483
O O12 0.602608 0.779569 0.144808
O O13 0.586361 0.089091 0.245205
O O14 0.500000 0.122496 0.000000
O O15 0.750000 0.911592 0.329951
O O16 0.867661 0.000000 0.455825
#
# Coordination Sequence:
#
# PCOD8207013 Si02
#       6
#     8   8   8   8   8   8
#     4  10  20  34  59  81 111 150 194 239 284 340
#     4  10  18  31  53  81 111 145 193 237 277 333
#     4   9  17  30  48  77 116 148 180 230 291 342
#     4  10  18  30  53  82 112 147 187 234 287 336
#     4  11  19  35  59  84 114 144 188 241 290 340
#     4  10  23  41  57  81 116 151 190 236 288 348
#
# _framework density 19.440778999999999
#
# number of rings (size 3 to 8) (size 9 to 14) (size 15 to 20)
#    0.000    2.000    3.333    1.500    0.000    4.000 
#    0.000    3.333    0.000    2.500    0.000    0.000 
#    0.000    0.000    0.000    0.000    0.000    0.000 
#
# Total GULP energy -594972.642087 kJ/mol
# GULP energy per Si atom -12395.263377 kJ/mol
# Density = 1.939653 g / cm^3
# Si number density = 19.440779 Si / 1000 Ang^3
#
#
#
# Elastic Constant Matrix: (Units=GPa)
#
#
# Indices 1 2 3 4 5 6 
#
# 1 109.8448 44.6711 23.4431 0.0000 0.0000 0.0000
# 2 44.6711 99.6355 16.1958 0.0000 0.0000 0.0000
# 3 23.4431 16.1958 66.2934 0.0000 0.0000 0.0000
# 4 0.0000 0.0000 0.0000 17.1672 0.0000 0.0000
# 5 0.0000 0.0000 0.0000 0.0000 21.5561 0.0000
# 6 0.0000 0.0000 0.0000 0.0000 0.0000 23.8804
#
#
#
# Elastic Compliance Matrix: (Units=1/GPa)
#
#
# Indices 1 2 3 4 5 6 
#
# 1 0.011668 -0.004749 -0.002966 0.000000 0.000000 0.000000
# 2 -0.004749 0.012385 -0.001346 0.000000 0.000000 0.000000
# 3 -0.002966 -0.001346 0.016462 0.000000 0.000000 0.000000
# 4 0.000000 0.000000 0.000000 0.058251 0.000000 0.000000
# 5 0.000000 0.000000 0.000000 0.000000 0.046390 0.000000
# 6 0.000000 0.000000 0.000000 0.000000 0.000000 0.041875
#
#
# Mechanical properties :
#
#
# Convention : Reuss Voigt Hill
#
# Bulk Modulus (GPa) = 44.65812 49.37707 47.01759
# Shear Modulus (GPa) = 23.51635 25.28501 24.40068
#
# Velocity S-wave (km/s) = 3.48176 3.61032 3.54662
# Velocity P-wave (km/s) = 6.25977 6.54470 6.40382
#
# Compressibility (1/GPa) = 0.02239235
#
# Stress axis : x y z
#
# Youngs Moduli (GPa) = 85.70349 80.74476 60.74539
#
# Poissons Ratio (x) = 0.38348 0.18016
# Poissons Ratio (y) = 0.40703 0.08177
# Poissons Ratio (z) = 0.25419 0.10870
#
# Static dielectric constant tensor:
#      x y z
#    x 3.697630 0.000000 0.000000 
#    y 0.000000 3.619630 0.000000 
#    z 0.000000 0.000000 3.417790 
# 
# 
# High freq. dielectric constant tensor:
#      x y z
#    x 1.764690 0.000000 0.000000 
#    y 0.000000 1.744310 0.000000 
#    z 0.000000 0.000000 1.732200 
# 
# From -- ./inp_files/8263.got.cif
#   From: 2010.03.12/outbox.cif.g09.slc.cpg/sg51_5_cif.got.tgz:8263.got - 2010.04.16 13:43:02.
