data_PCOD8207127
_publ_section_title
;
Structure prediction by ZEFSAII (Michael W. Deem and Ramdas Pophale) SiO2 
 PCOD8207127
Probable space group: P M M A
;
_chemical_formula_sum "Si O2"
_cell_formula_units_Z 64
_cell_length_a 19.465333
_cell_length_b 9.144020
_cell_length_c 19.602881
_cell_angle_alpha 90.000000
_cell_angle_beta 90.000000
_cell_angle_gamma 90.000000
_cell_volume 3489.144121
_symmetry_space_group_name_H-M "P M M A"
_symmetry_group_IT_number 51
_symmetry_cell_setting 'orthorhombic'
loop_
_space_group_symop_operation_xyz
x,y,z
1/2-x,-y,z
1/2+x,-y,-z
-x,y,-z
-x,-y,-z
1/2+x,y,-z
1/2-x,y,z
x,-y,z
loop_
_atom_site_type_symbol
_atom_site_label
_atom_site_fract_x
_atom_site_fract_y
_atom_site_fract_z
Si Si1 0.329595 0.832934 0.116164
Si Si2 0.671976 0.834128 0.260598
Si Si3 0.561921 0.671586 0.795439
Si Si4 0.827433 0.170675 0.041268
Si Si5 0.578062 0.665586 0.524308
Si Si6 0.892498 0.833731 0.397787
Si Si7 0.586364 0.670522 0.152424
Si Si8 0.043635 0.171038 0.346392
O O1 0.250000 0.810284 0.134373
O O2 0.373001 0.721238 0.160922
O O3 0.351593 0.000000 0.131438
O O4 0.343002 0.795607 0.037280
O O5 0.750000 0.810918 0.237756
O O6 0.665990 0.804621 0.341535
O O7 0.625375 0.722178 0.219867
O O8 0.647652 0.000000 0.244553
O O9 0.566485 0.500000 0.779941
O O10 0.493693 0.709386 0.838720
O O11 0.563765 0.756440 0.724509
O O12 0.750000 0.223166 0.059985
O O13 0.884340 0.252655 0.085367
O O14 0.833658 0.000000 0.057052
O O15 0.500000 0.676016 0.500000
O O16 0.601490 0.500000 0.537578
O O17 0.623478 0.733074 0.463125
O O18 0.589179 0.757223 0.593408
O O19 0.964154 0.796249 0.360940
O O20 0.893164 0.000000 0.424157
O O21 0.598574 0.500000 0.143838
O O22 0.060321 0.000000 0.343111
#
# Coordination Sequence:
#
# PCOD8207127 Si02
#       8
#     8   8   8   8   8   8   8   8
#     4   9  20  40  63  84 104 132 175 222 269 326
#     4  10  20  34  52  74 104 145 189 229 269 316
#     4  11  23  36  53  80 114 146 175 218 273 323
#     4   9  19  37  59  80 105 140 182 225 266 314
#     4   9  17  28  46  72 102 134 167 212 267 318
#     4   9  17  30  48  72 100 134 178 223 264 312
#     4  11  23  35  50  77 113 146 180 222 267 318
#     4  10  18  31  52  76 103 137 176 220 266 313
#
# _framework density 18.342606
#
# number of rings (size 3 to 8) (size 9 to 14) (size 15 to 20)
#    0.000    2.250    1.250    2.625    0.000    7.250 
#    0.000    3.750    0.000    0.750    0.000    1.750 
#    0.000    0.000    0.000    0.000    0.000    0.000 
#
# Total GULP energy -793668.590521 kJ/mol
# GULP energy per Si atom -12401.071727 kJ/mol
# Density = 1.830086 g / cm^3
# Si number density = 18.342606 Si / 1000 Ang^3
#
#
#
# Elastic Constant Matrix: (Units=GPa)
#
#
# Indices 1 2 3 4 5 6 
#
# 1 59.9433 40.8302 46.2356 0.0000 0.0000 0.0000
# 2 40.8302 94.7700 69.6378 0.0000 0.0000 0.0000
# 3 46.2356 69.6378 119.6421 0.0000 0.0000 0.0000
# 4 0.0000 0.0000 0.0000 24.2177 0.0000 0.0000
# 5 0.0000 0.0000 0.0000 0.0000 15.9651 0.0000
# 6 0.0000 0.0000 0.0000 0.0000 0.0000 23.3565
#
#
#
# Elastic Compliance Matrix: (Units=1/GPa)
#
#
# Indices 1 2 3 4 5 6 
#
# 1 0.025972 -0.006665 -0.006157 0.000000 0.000000 0.000000
# 2 -0.006665 0.020148 -0.009151 0.000000 0.000000 0.000000
# 3 -0.006157 -0.009151 0.016064 0.000000 0.000000 0.000000
# 4 0.000000 0.000000 0.000000 0.041292 0.000000 0.000000
# 5 0.000000 0.000000 0.000000 0.000000 0.062636 0.000000
# 6 0.000000 0.000000 0.000000 0.000000 0.000000 0.042815
#
#
# Mechanical properties :
#
#
# Convention : Reuss Voigt Hill
#
# Bulk Modulus (GPa) = 54.83559 65.30695 60.07127
# Shear Modulus (GPa) = 19.30850 20.55132 19.92991
#
# Velocity S-wave (km/s) = 3.24799 3.35089 3.29984
# Velocity P-wave (km/s) = 6.63521 7.11706 6.88035
#
# Compressibility (1/GPa) = 0.01823633
#
# Stress axis : x y z
#
# Youngs Moduli (GPa) = 38.50370 49.63286 62.24960
#
# Poissons Ratio (x) = 0.33080 0.38329
# Poissons Ratio (y) = 0.25663 0.56967
# Poissons Ratio (z) = 0.23708 0.45421
#
# Static dielectric constant tensor:
#      x y z
#    x 3.150270 0.000000 0.000000 
#    y 0.000000 3.393220 0.000000 
#    z 0.000000 0.000000 3.419040 
# 
# 
# High freq. dielectric constant tensor:
#      x y z
#    x 1.680800 0.000000 0.000000 
#    y 0.000000 1.714190 0.000000 
#    z 0.000000 0.000000 1.719770 
# 
# From -- ./inp_files/30681.got.cif
#   From: 2010.03.12/outbox.cif.g09.slc.cpg/sg51_16_cif.got.tgz:30681.got - 2010.04.16 13:43:02.
