data_PCOD8207048
_publ_section_title
;
Structure prediction by ZEFSAII (Michael W. Deem and Ramdas Pophale) SiO2 
 PCOD8207048
Probable space group: P M M A
;
_chemical_formula_sum "Si O2"
_cell_formula_units_Z 56
_cell_length_a 18.816790
_cell_length_b 9.198861
_cell_length_c 17.144496
_cell_angle_alpha 90.000000
_cell_angle_beta 90.000000
_cell_angle_gamma 90.000000
_cell_volume 2967.592858
_symmetry_space_group_name_H-M "P M M A"
_symmetry_group_IT_number 51
_symmetry_cell_setting 'orthorhombic'
loop_
_space_group_symop_operation_xyz
x,y,z
1/2-x,-y,z
1/2+x,-y,-z
-x,y,-z
-x,-y,-z
1/2+x,y,-z
1/2-x,y,z
x,-y,z
loop_
_atom_site_type_symbol
_atom_site_label
_atom_site_fract_x
_atom_site_fract_y
_atom_site_fract_z
Si Si1 0.437922 0.327499 0.850169
Si Si2 0.924407 0.171023 0.897368
Si Si3 0.882919 0.666278 0.616834
Si Si4 0.329147 0.163797 0.245119
Si Si5 0.956872 0.334068 0.327943
Si Si6 0.167590 0.830246 0.952640
Si Si7 0.919221 0.163838 0.472020
O O1 0.440880 0.500000 0.860065
O O2 0.501604 0.257099 0.900623
O O3 0.444090 0.280394 0.759955
O O4 0.363589 0.264210 0.881471
O O5 0.882743 0.221930 0.820249
O O6 0.940975 0.000000 0.896855
O O7 0.875443 0.213686 0.970075
O O8 0.862360 0.500000 0.603205
O O9 0.829704 0.735610 0.678969
O O10 0.872969 0.747144 0.534461
O O11 0.961005 0.684790 0.651883
O O12 0.250000 0.166985 0.209418
O O13 0.350417 0.000000 0.269611
O O14 0.932438 0.500000 0.338744
O O15 0.910680 0.236326 0.386953
O O16 0.250000 0.789567 0.964311
O O17 0.158497 0.000000 0.933474
O O18 0.000000 0.168159 0.500000
O O19 0.890350 0.000000 0.467093
#
# Coordination Sequence:
#
# PCOD8207048 Si02
#       7
#     8   8   8   8   8   8   8
#     4  11  22  36  56  84 115 144 180 226 276 327
#     4  10  20  36  58  81 108 143 184 228 276 327
#     4  10  18  31  49  71 105 144 179 216 266 323
#     4  10  20  33  51  76 107 144 185 230 277 325
#     4   9  18  32  49  74 107 140 173 216 269 320
#     4  10  22  40  59  80 108 144 186 228 274 330
#     4   9  17  28  47  75 103 133 173 219 265 310
#
# _framework density 18.870512999999999
#
# number of rings (size 3 to 8) (size 9 to 14) (size 15 to 20)
#    0.000    2.143    1.429    2.143    0.000    8.000 
#    0.000    0.000    0.000    3.429    0.000    4.000 
#    0.000    0.000    0.000    0.000    0.000    0.000 
#
# Total GULP energy -694518.677778 kJ/mol
# GULP energy per Si atom -12402.119246 kJ/mol
# Density = 1.882756 g / cm^3
# Si number density = 18.870513 Si / 1000 Ang^3
#
#
#
# Elastic Constant Matrix: (Units=GPa)
#
#
# Indices 1 2 3 4 5 6 
#
# 1 68.4972 33.0706 42.1015 0.0000 0.0000 0.0000
# 2 33.0706 93.8495 59.3484 0.0000 0.0000 0.0000
# 3 42.1015 59.3484 117.9533 0.0000 0.0000 0.0000
# 4 0.0000 0.0000 0.0000 34.7582 0.0000 0.0000
# 5 0.0000 0.0000 0.0000 0.0000 20.3157 0.0000
# 6 0.0000 0.0000 0.0000 0.0000 0.0000 18.1562
#
#
#
# Elastic Compliance Matrix: (Units=1/GPa)
#
#
# Indices 1 2 3 4 5 6 
#
# 1 0.019508 -0.003624 -0.005140 0.000000 0.000000 0.000000
# 2 -0.003624 0.016301 -0.006908 0.000000 0.000000 0.000000
# 3 -0.005140 -0.006908 0.013788 0.000000 0.000000 0.000000
# 4 0.000000 0.000000 0.000000 0.028770 0.000000 0.000000
# 5 0.000000 0.000000 0.000000 0.000000 0.049223 0.000000
# 6 0.000000 0.000000 0.000000 0.000000 0.000000 0.055078
#
#
# Mechanical properties :
#
#
# Convention : Reuss Voigt Hill
#
# Bulk Modulus (GPa) = 54.78437 61.03788 57.91112
# Shear Modulus (GPa) = 22.71730 24.36465 23.54098
#
# Velocity S-wave (km/s) = 3.47342 3.59716 3.53583
# Velocity P-wave (km/s) = 6.72168 7.04759 6.88656
#
# Compressibility (1/GPa) = 0.01825338
#
# Stress axis : x y z
#
# Youngs Moduli (GPa) = 51.26144 61.34553 72.52477
#
# Poissons Ratio (x) = 0.22232 0.37275
# Poissons Ratio (y) = 0.18577 0.50103
# Poissons Ratio (z) = 0.26346 0.42380
#
# Static dielectric constant tensor:
#      x y z
#    x 3.164110 0.000000 0.000000 
#    y 0.000000 3.446210 0.000000 
#    z 0.000000 0.000000 3.550920 
# 
# 
# High freq. dielectric constant tensor:
#      x y z
#    x 1.701720 0.000000 0.000000 
#    y 0.000000 1.733270 0.000000 
#    z 0.000000 0.000000 1.739730 
# 
# From -- ./inp_files/25630.got.cif
#   From: 2010.03.12/outbox.cif.g09.slc.cpg/sg51_13_cif.got.tgz:25630.got - 2010.04.16 13:43:02.
