data_PCOD8207336
_publ_section_title
;
Structure prediction by ZEFSAII (Michael W. Deem and Ramdas Pophale) SiO2 
 PCOD8207336
Probable space group: P M M A
;
_chemical_formula_sum "Si O2"
_cell_formula_units_Z 48
_cell_length_a 8.226168
_cell_length_b 15.338932
_cell_length_c 18.014262
_cell_angle_alpha 90.000000
_cell_angle_beta 90.000000
_cell_angle_gamma 90.000000
_cell_volume 2273.050956
_symmetry_space_group_name_H-M "P M M A"
_symmetry_group_IT_number 51
_symmetry_cell_setting 'orthorhombic'
loop_
_space_group_symop_operation_xyz
x,y,z
1/2-x,-y,z
1/2+x,-y,-z
-x,y,-z
-x,-y,-z
1/2+x,y,-z
1/2-x,y,z
x,-y,z
loop_
_atom_site_type_symbol
_atom_site_label
_atom_site_fract_x
_atom_site_fract_y
_atom_site_fract_z
Si Si1 0.436198 0.670303 0.168765
Si Si2 0.064103 0.596571 0.582197
Si Si3 0.443971 0.500000 0.085834
Si Si4 0.439129 0.824193 0.918213
Si Si5 0.442807 0.000000 0.084525
Si Si6 0.942887 0.098543 0.582228
Si Si7 0.436479 0.743277 0.320169
O O1 0.250000 0.649002 0.187037
O O2 0.513734 0.583253 0.131978
O O3 0.451128 0.745404 0.108725
O O4 0.522628 0.708607 0.243873
O O5 0.250000 0.629314 0.584809
O O6 0.049444 0.500000 0.618345
O O7 0.000000 0.591647 0.500000
O O8 0.948543 0.663630 0.623511
O O9 0.250000 0.500000 0.083823
O O10 0.500000 0.500000 0.000000
O O11 0.250000 0.800975 0.911989
O O12 0.482755 0.914150 0.874681
O O13 0.500000 0.841955 0.000000
O O14 0.250000 0.000000 0.090976
O O15 0.500000 0.000000 0.000000
O O16 0.750000 0.102792 0.582717
O O17 0.013185 0.168396 0.642881
O O18 0.000000 0.125960 0.500000
O O19 0.003671 0.000000 0.601486
O O20 0.250000 0.764099 0.302353
#
# Coordination Sequence:
#
# PCOD8207336 Si02
#       7
#     8   8   4   8   4   8   8
#     4  10  22  39  57  84 115 150 192 237 298 356
#     4  10  21  36  55  81 112 148 190 234 282 341
#     4  10  22  40  62  84 111 146 193 246 291 354
#     4  11  21  36  58  84 115 149 189 237 285 343
#     4  10  18  32  56  84 112 144 181 226 277 336
#     4   9  18  34  56  83 114 150 194 238 280 333
#     4  10  21  36  57  83 115 151 189 238 291 346
#
# _framework density 21.116993000000001
#
# number of rings (size 3 to 8) (size 9 to 14) (size 15 to 20)
#    0.000    2.000    0.000    4.750    1.167    5.667 
#    1.500    0.000    0.000    0.000    0.000    0.000 
#    0.000    0.000    0.000    0.000    0.000    0.000 
#
# Total GULP energy -594742.453918 kJ/mol
# GULP energy per Si atom -12390.467790 kJ/mol
# Density = 2.106893 g / cm^3
# Si number density = 21.116993 Si / 1000 Ang^3
#
#
#
# Elastic Constant Matrix: (Units=GPa)
#
#
# Indices 1 2 3 4 5 6 
#
# 1 35.1245 5.0737 10.5486 0.0000 0.0000 0.0000
# 2 5.0737 187.0072 82.6751 0.0000 0.0000 0.0000
# 3 10.5486 82.6751 107.0154 0.0000 0.0000 0.0000
# 4 0.0000 0.0000 0.0000 36.3960 0.0000 0.0000
# 5 0.0000 0.0000 0.0000 0.0000 21.2278 0.0000
# 6 0.0000 0.0000 0.0000 0.0000 0.0000 18.0107
#
#
#
# Elastic Compliance Matrix: (Units=1/GPa)
#
#
# Indices 1 2 3 4 5 6 
#
# 1 0.029405 0.000734 -0.003466 0.000000 0.000000 0.000000
# 2 0.000734 0.008139 -0.006361 0.000000 0.000000 0.000000
# 3 -0.003466 -0.006361 0.014600 0.000000 0.000000 0.000000
# 4 0.000000 0.000000 0.000000 0.027476 0.000000 0.000000
# 5 0.000000 0.000000 0.000000 0.000000 0.047108 0.000000
# 6 0.000000 0.000000 0.000000 0.000000 0.000000 0.055523
#
#
# Mechanical properties :
#
#
# Convention : Reuss Voigt Hill
#
# Bulk Modulus (GPa) = 29.44606 58.41577 43.93091
# Shear Modulus (GPa) = 23.61226 30.51688 27.06457
#
# Velocity S-wave (km/s) = 3.34752 3.80562 3.58390
# Velocity P-wave (km/s) = 5.37734 6.85808 6.16235
#
# Compressibility (1/GPa) = 0.03396040
#
# Stress axis : x y z
#
# Youngs Moduli (GPa) = 34.00788 122.85872 68.49344
#
# Poissons Ratio (x) = -0.09023 0.23739
# Poissons Ratio (y) = -0.02498 0.43566
# Poissons Ratio (z) = 0.11787 0.78145
#
# Static dielectric constant tensor:
#      x y z
#    x 3.524730 0.000000 0.000000 
#    y 0.000000 4.615400 0.000000 
#    z 0.000000 0.000000 3.742580 
# 
# 
# High freq. dielectric constant tensor:
#      x y z
#    x 1.803480 0.000000 0.000000 
#    y 0.000000 1.853360 0.000000 
#    z 0.000000 0.000000 1.807280 
# 
# From -- ./inp_files/27686.got.cif
#   From: 2010.03.12/outbox.cif.g09.slc.cpg/sg51_14_cif.got.tgz:27686.got - 2010.04.16 13:43:02.
