data_PCOD8207666
_publ_section_title
;
Structure prediction by ZEFSAII (Michael W. Deem and Ramdas Pophale) SiO2 
 PCOD8207666
Probable space group: P M M A
;
_chemical_formula_sum "Si O2"
_cell_formula_units_Z 64
_cell_length_a 13.942026
_cell_length_b 9.108828
_cell_length_c 31.394620
_cell_angle_alpha 90.000000
_cell_angle_beta 90.000000
_cell_angle_gamma 90.000000
_cell_volume 3986.975992
_symmetry_space_group_name_H-M "P M M A"
_symmetry_group_IT_number 51
_symmetry_cell_setting 'orthorhombic'
loop_
_space_group_symop_operation_xyz
x,y,z
1/2-x,-y,z
1/2+x,-y,-z
-x,y,-z
-x,-y,-z
1/2+x,y,-z
1/2-x,y,z
x,-y,z
loop_
_atom_site_type_symbol
_atom_site_label
_atom_site_fract_x
_atom_site_fract_y
_atom_site_fract_z
Si Si1 0.860807 0.671836 0.187162
Si Si2 0.360487 0.172020 0.063266
Si Si3 0.355898 0.826326 0.480656
Si Si4 0.361069 0.668865 0.978043
Si Si5 0.022779 0.327174 0.895384
Si Si6 0.861118 0.672918 0.355438
Si Si7 0.136139 0.834657 0.729120
Si Si8 0.042552 0.173851 0.566267
O O1 0.750000 0.710713 0.178005
O O2 0.872733 0.500000 0.195995
O O3 0.922497 0.724605 0.146908
O O4 0.901948 0.757344 0.228086
O O5 0.250000 0.212917 0.071336
O O6 0.420999 0.244319 0.101613
O O7 0.377851 0.000000 0.062450
O O8 0.396608 0.237809 0.018353
O O9 0.250000 0.759874 0.470781
O O10 0.390475 0.774257 0.527192
O O11 0.432645 0.779919 0.444600
O O12 0.351233 0.000000 0.481683
O O13 0.250000 0.695428 0.968889
O O14 0.383575 0.500000 0.988670
O O15 0.414675 0.721963 0.935852
O O16 0.005058 0.500000 0.894605
O O17 0.750000 0.713680 0.363748
O O18 0.875957 0.500000 0.352440
O O19 0.899411 0.743990 0.311745
O O20 0.925990 0.737746 0.392592
O O21 0.250000 0.834216 0.730076
O O22 0.095488 0.000000 0.726659
O O23 0.051837 0.000000 0.574514
#
# Coordination Sequence:
#
# PCOD8207666 Si02
#       8
#     8   8   8   8   8   8   8   8
#     4   9  17  30  47  68  95 120 140 168 210 260
#     4  10  21  34  45  60  85 116 149 186 224 254
#     4   8  14  25  41  62  89 119 150 185 224 263
#     4   9  17  30  47  66  89 116 145 176 210 253
#     4  10  19  30  47  69  89 114 147 177 210 256
#     4  10  19  29  42  62  89 119 148 181 222 261
#     4   9  17  29  45  65  89 117 147 176 208 253
#     4   9  16  26  43  65  86 114 153 190 221 258
#
# _framework density 16.052265999999999
#
# number of rings (size 3 to 8) (size 9 to 14) (size 15 to 20)
#    0.000    2.750    0.000    3.000    0.000    7.500 
#    0.000    1.250    0.000    4.875    0.000    0.875 
#    0.000    5.000    0.000    0.000    0.000    0.000 
#
# Total GULP energy -793523.093683 kJ/mol
# GULP energy per Si atom -12398.798339 kJ/mol
# Density = 1.601573 g / cm^3
# Si number density = 16.052266 Si / 1000 Ang^3
#
#
#
# Elastic Constant Matrix: (Units=GPa)
#
#
# Indices 1 2 3 4 5 6 
#
# 1 85.7303 36.6386 65.9184 0.0000 0.0000 0.0000
# 2 36.6386 62.1092 57.3149 0.0000 0.0000 0.0000
# 3 65.9184 57.3149 138.2235 0.0000 0.0000 0.0000
# 4 0.0000 0.0000 0.0000 21.9198 0.0000 0.0000
# 5 0.0000 0.0000 0.0000 0.0000 24.2510 0.0000
# 6 0.0000 0.0000 0.0000 0.0000 0.0000 18.7201
#
#
#
# Elastic Compliance Matrix: (Units=1/GPa)
#
#
# Indices 1 2 3 4 5 6 
#
# 1 0.019218 -0.004664 -0.007231 0.000000 0.000000 0.000000
# 2 -0.004664 0.027212 -0.009059 0.000000 0.000000 0.000000
# 3 -0.007231 -0.009059 0.014440 0.000000 0.000000 0.000000
# 4 0.000000 0.000000 0.000000 0.045621 0.000000 0.000000
# 5 0.000000 0.000000 0.000000 0.000000 0.041235 0.000000
# 6 0.000000 0.000000 0.000000 0.000000 0.000000 0.053419
#
#
# Mechanical properties :
#
#
# Convention : Reuss Voigt Hill
#
# Bulk Modulus (GPa) = 52.74024 67.31189 60.02607
# Shear Modulus (GPa) = 20.05032 21.39091 20.72062
#
# Velocity S-wave (km/s) = 3.53805 3.65441 3.59670
# Velocity P-wave (km/s) = 7.04393 7.73500 7.39754
#
# Compressibility (1/GPa) = 0.01896085
#
# Stress axis : x y z
#
# Youngs Moduli (GPa) = 52.03576 36.74856 69.25402
#
# Poissons Ratio (x) = 0.17139 0.50077
# Poissons Ratio (y) = 0.24268 0.62740
# Poissons Ratio (z) = 0.37627 0.33292
#
# Static dielectric constant tensor:
#      x y z
#    x 3.140870 0.000000 0.000000 
#    y 0.000000 2.936470 0.000000 
#    z 0.000000 0.000000 3.047290 
# 
# 
# High freq. dielectric constant tensor:
#      x y z
#    x 1.597390 0.000000 0.000000 
#    y 0.000000 1.607950 0.000000 
#    z 0.000000 0.000000 1.608630 
# 
# From -- ./inp_files/37807.got.cif
#   From: 2010.03.12/outbox.cif.g09.slc.cpg/sg51_19_cif.got.tgz:37807.got - 2010.04.16 13:43:02.
