data_PCOD8207027
_publ_section_title
;
Structure prediction by ZEFSAII (Michael W. Deem and Ramdas Pophale) SiO2 
 PCOD8207027
Probable space group: P M M A
;
_chemical_formula_sum "Si O2"
_cell_formula_units_Z 52
_cell_length_a 9.196720
_cell_length_b 17.917197
_cell_length_c 17.934988
_cell_angle_alpha 90.000000
_cell_angle_beta 90.000000
_cell_angle_gamma 90.000000
_cell_volume 2955.317351
_symmetry_space_group_name_H-M "P M M A"
_symmetry_group_IT_number 51
_symmetry_cell_setting 'orthorhombic'
loop_
_space_group_symop_operation_xyz
x,y,z
1/2-x,-y,z
1/2+x,-y,-z
-x,y,-z
-x,-y,-z
1/2+x,y,-z
1/2-x,y,z
x,-y,z
loop_
_atom_site_type_symbol
_atom_site_label
_atom_site_fract_x
_atom_site_fract_y
_atom_site_fract_z
Si Si1 0.925865 0.500000 0.079800
Si Si2 0.586974 0.765782 0.209377
Si Si3 0.082004 0.372016 0.169456
Si Si4 0.415382 0.581695 0.340179
Si Si5 0.922538 0.081669 0.267186
Si Si6 0.090320 0.285125 0.620896
Si Si7 0.421655 0.126743 0.571986
O O1 0.750000 0.500000 0.075622
O O2 0.981377 0.425794 0.120799
O O3 0.000000 0.500000 0.000000
O O4 0.750000 0.764486 0.174350
O O5 0.480112 0.712632 0.161519
O O6 0.521944 0.851023 0.213369
O O7 0.594749 0.736329 0.292862
O O8 0.250000 0.373951 0.142201
O O9 0.069510 0.398955 0.253684
O O10 0.250000 0.580680 0.365012
O O11 0.485744 0.500000 0.353530
O O12 0.490722 0.642874 0.392599
O O13 0.750000 0.090619 0.270973
O O14 0.980251 0.088155 0.352278
O O15 0.968987 0.000000 0.235549
O O16 0.250000 0.307563 0.593459
O O17 0.033854 0.214131 0.574790
O O18 0.500000 0.090728 0.500000
O O19 0.250000 0.115322 0.563716
#
# Coordination Sequence:
#
# PCOD8207027 Si02
#       7
#     4   8   8   8   8   8   8
#     4  12  24  36  50  70 100 136 169 196 221 250
#     4   8  14  26  44  65  86 114 154 191 227 274
#     4  10  18  31  47  66  95 126 156 188 226 268
#     4   9  16  26  41  62  85 105 132 175 223 268
#     4   8  14  26  44  65  91 120 149 188 236 282
#     4   8  15  26  38  55  77 102 136 180 223 268
#     4   9  17  28  41  57  79 108 146 184 223 276
#
# _framework density 17.595403999999998
#
# number of rings (size 3 to 8) (size 9 to 14) (size 15 to 20)
#    0.000    3.077    0.769    3.000    0.000    1.846 
#    0.000    2.308    0.000    1.846    0.000    0.000 
#    0.000    0.615    0.000    1.692    0.000    2.462 
#
# Total GULP energy -644254.899855 kJ/mol
# GULP energy per Si atom -12389.517305 kJ/mol
# Density = 1.755536 g / cm^3
# Si number density = 17.595404 Si / 1000 Ang^3
#
#
#
# Elastic Constant Matrix: (Units=GPa)
#
#
# Indices 1 2 3 4 5 6 
#
# 1 70.6979 45.1338 18.5475 0.0000 0.0000 0.0000
# 2 45.1338 148.5714 17.5086 0.0000 0.0000 0.0000
# 3 18.5475 17.5086 27.1510 0.0000 0.0000 0.0000
# 4 0.0000 0.0000 0.0000 0.7310 0.0000 0.0000
# 5 0.0000 0.0000 0.0000 0.0000 18.7445 0.0000
# 6 0.0000 0.0000 0.0000 0.0000 0.0000 16.5854
#
#
#
# Elastic Compliance Matrix: (Units=1/GPa)
#
#
# Indices 1 2 3 4 5 6 
#
# 1 0.019995 -0.004832 -0.010544 0.000000 0.000000 0.000000
# 2 -0.004832 0.008452 -0.002150 0.000000 0.000000 0.000000
# 3 -0.010544 -0.002150 0.045420 0.000000 0.000000 0.000000
# 4 0.000000 0.000000 0.000000 1.368028 0.000000 0.000000
# 5 0.000000 0.000000 0.000000 0.000000 0.053349 0.000000
# 6 0.000000 0.000000 0.000000 0.000000 0.000000 0.060294
#
#
# Mechanical properties :
#
#
# Convention : Reuss Voigt Hill
#
# Bulk Modulus (GPa) = 25.76173 45.42223 35.59198
# Shear Modulus (GPa) = 3.11813 18.22754 10.67283
#
# Velocity S-wave (km/s) = 1.33266 3.22207 2.46553
# Velocity P-wave (km/s) = 4.12806 6.30184 5.32701
#
# Compressibility (1/GPa) = 0.03881728
#
# Stress axis : x y z
#
# Youngs Moduli (GPa) = 50.01149 118.31640 22.01686
#
# Poissons Ratio (x) = 0.57168 0.23214
# Poissons Ratio (y) = 0.24164 0.04733
# Poissons Ratio (z) = 0.52730 0.25433
#
# Static dielectric constant tensor:
#      x y z
#    x 3.227160 0.000000 0.000000 
#    y 0.000000 3.681280 0.000000 
#    z 0.000000 0.000000 2.810060 
# 
# 
# High freq. dielectric constant tensor:
#      x y z
#    x 1.662040 0.000000 0.000000 
#    y 0.000000 1.693570 0.000000 
#    z 0.000000 0.000000 1.619470 
# 
# From -- ./inp_files/27951.got.cif
#   From: 2010.03.12/outbox.cif.g09.slc.cpg/sg51_14_cif.got.tgz:27951.got - 2010.04.16 13:43:02.
