data_PCOD8207046
_publ_section_title
;
Structure prediction by ZEFSAII (Michael W. Deem and Ramdas Pophale) SiO2 
 PCOD8207046
Probable space group: P M M A
;
_chemical_formula_sum "Si O2"
_cell_formula_units_Z 64
_cell_length_a 23.509756
_cell_length_b 8.395509
_cell_length_c 19.106716
_cell_angle_alpha 90.000000
_cell_angle_beta 90.000000
_cell_angle_gamma 90.000000
_cell_volume 3771.214210
_symmetry_space_group_name_H-M "P M M A"
_symmetry_group_IT_number 51
_symmetry_cell_setting 'orthorhombic'
loop_
_space_group_symop_operation_xyz
x,y,z
1/2-x,-y,z
1/2+x,-y,-z
-x,y,-z
-x,-y,-z
1/2+x,y,-z
1/2-x,y,z
x,-y,z
loop_
_atom_site_type_symbol
_atom_site_label
_atom_site_fract_x
_atom_site_fract_y
_atom_site_fract_z
Si Si1 0.015764 0.684769 0.896210
Si Si2 0.368478 0.810494 0.250000
Si Si3 0.584681 0.814290 0.515391
Si Si4 0.484236 0.315231 0.603790
Si Si5 0.001551 0.188605 0.250000
Si Si6 0.313455 0.189575 0.108099
Si Si7 0.415319 0.814290 0.015391
Si Si8 0.186545 0.189575 0.391901
O O1 0.000065 0.500000 0.898785
O O2 0.030029 0.740776 0.817879
O O3 0.962643 0.785832 0.924986
O O4 0.070740 0.717060 0.944934
O O5 0.433385 0.750933 0.250000
O O6 0.336633 0.741875 0.181690
O O7 0.336633 0.741875 0.318310
O O8 0.367233 0.000000 0.250000
O O9 0.570740 0.717060 0.444934
O O10 0.537357 0.785832 0.575014
O O11 0.645485 0.755052 0.544963
O O12 0.585765 0.000000 0.497194
O O13 0.499935 0.500000 0.601215
O O14 0.469971 0.259224 0.682121
O O15 0.996453 0.000000 0.250000
O O16 0.250000 0.255690 0.094175
O O17 0.354515 0.244948 0.044963
O O18 0.313418 0.000000 0.112557
O O19 0.414235 0.000000 0.997194
O O20 0.250000 0.255690 0.405825
O O21 0.186582 0.000000 0.387443
#
# Coordination Sequence:
#
# PCOD8207046 Si02
#       8
#     8   8   8   8   8   8   8   8
#     4  11  21  32  47  69  97 128 160 201 248 290
#     4   9  15  25  42  68  98 127 159 195 230 271
#     4  10  18  31  49  70  95 128 166 203 239 282
#     4  11  21  32  47  69  97 128 160 201 248 290
#     4  11  19  32  51  73  95 127 164 198 241 293
#     4   9  16  26  44  71  99 127 164 205 239 272
#     4  10  18  31  49  70  95 128 166 203 239 282
#     4   9  16  26  44  71  99 127 164 205 239 272
#
# _framework density 16.970662000000001
#
# number of rings (size 3 to 8) (size 9 to 14) (size 15 to 20)
#    0.000    2.000    2.500    5.250    0.000    1.500 
#    0.000    0.000    0.000    3.000    0.000    2.625 
#    0.000    7.000    0.000    0.000    0.000    0.000 
#
# Total GULP energy -793595.786706 kJ/mol
# GULP energy per Si atom -12399.934167 kJ/mol
# Density = 1.693204 g / cm^3
# Si number density = 16.970662 Si / 1000 Ang^3
#
#
#
# Elastic Constant Matrix: (Units=GPa)
#
#
# Indices 1 2 3 4 5 6 
#
# 1 100.7905 13.4586 62.2247 0.0000 0.0000 0.0000
# 2 13.4586 41.6254 18.1909 0.0000 0.0000 0.0000
# 3 62.2247 18.1909 139.3533 0.0000 0.0000 0.0000
# 4 0.0000 0.0000 0.0000 16.6117 0.0000 0.0000
# 5 0.0000 0.0000 0.0000 0.0000 24.9072 0.0000
# 6 0.0000 0.0000 0.0000 0.0000 0.0000 3.5994
#
#
#
# Elastic Compliance Matrix: (Units=1/GPa)
#
#
# Indices 1 2 3 4 5 6 
#
# 1 0.013835 -0.001881 -0.005932 0.000000 0.000000 0.000000
# 2 -0.001881 0.025733 -0.002519 0.000000 0.000000 0.000000
# 3 -0.005932 -0.002519 0.010154 0.000000 0.000000 0.000000
# 4 0.000000 0.000000 0.000000 0.060199 0.000000 0.000000
# 5 0.000000 0.000000 0.000000 0.000000 0.040149 0.000000
# 6 0.000000 0.000000 0.000000 0.000000 0.000000 0.277823
#
#
# Mechanical properties :
#
#
# Convention : Reuss Voigt Hill
#
# Bulk Modulus (GPa) = 34.41497 52.16863 43.29180
# Shear Modulus (GPa) = 10.91126 21.54999 16.23062
#
# Velocity S-wave (km/s) = 2.53839 3.56734 3.09592
# Velocity P-wave (km/s) = 5.37721 6.91196 6.19231
#
# Compressibility (1/GPa) = 0.02905713
#
# Stress axis : x y z
#
# Youngs Moduli (GPa) = 72.28023 38.86077 98.48594
#
# Poissons Ratio (x) = 0.07309 0.58424
# Poissons Ratio (y) = 0.13594 0.24812
# Poissons Ratio (z) = 0.42878 0.09790
#
# Static dielectric constant tensor:
#      x y z
#    x 3.210330 0.000000 0.000000 
#    y 0.000000 2.875110 0.000000 
#    z 0.000000 0.000000 3.331220 
# 
# 
# High freq. dielectric constant tensor:
#      x y z
#    x 1.624260 0.000000 0.000000 
#    y 0.000000 1.635890 0.000000 
#    z 0.000000 0.000000 1.653310 
# 
# From -- ./inp_files/34210.got.cif
#   From: 2010.03.12/outbox.cif.g09.slc.cpg/sg51_18_cif.got.tgz:34210.got - 2010.04.16 13:43:02.
