data_PCOD8207164
_publ_section_title
;
Structure prediction by ZEFSAII (Michael W. Deem and Ramdas Pophale) SiO2 
 PCOD8207164
Probable space group: P M M A
;
_chemical_formula_sum "Si O2"
_cell_formula_units_Z 48
_cell_length_a 9.086135
_cell_length_b 14.332147
_cell_length_c 20.757251
_cell_angle_alpha 90.000000
_cell_angle_beta 90.000000
_cell_angle_gamma 90.000000
_cell_volume 2703.088569
_symmetry_space_group_name_H-M "P M M A"
_symmetry_group_IT_number 51
_symmetry_cell_setting 'orthorhombic'
loop_
_space_group_symop_operation_xyz
x,y,z
1/2-x,-y,z
1/2+x,-y,-z
-x,y,-z
-x,-y,-z
1/2+x,y,-z
1/2-x,y,z
x,-y,z
loop_
_atom_site_type_symbol
_atom_site_label
_atom_site_fract_x
_atom_site_fract_y
_atom_site_fract_z
Si Si1 0.079672 0.894002 0.387947
Si Si2 0.422604 0.392740 0.064148
Si Si3 0.575043 0.705018 0.806950
Si Si4 0.923682 0.279461 0.436841
Si Si5 0.920527 0.608417 0.310863
Si Si6 0.575588 0.899180 0.758781
O O1 0.250000 0.864222 0.394741
O O2 0.025028 0.883480 0.314438
O O3 0.978719 0.827024 0.430629
O O4 0.056778 0.000000 0.411633
O O5 0.250000 0.380590 0.054749
O O6 0.466323 0.500000 0.076408
O O7 0.481224 0.333583 0.124716
O O8 0.500000 0.353967 0.000000
O O9 0.750000 0.698462 0.801952
O O10 0.511702 0.642424 0.750161
O O11 0.518475 0.812352 0.801430
O O12 0.750000 0.281568 0.446245
O O13 0.974391 0.338382 0.374811
O O14 0.000000 0.324036 0.500000
O O15 0.750000 0.628949 0.297309
O O16 0.951501 0.500000 0.321926
O O17 0.750000 0.903146 0.760492
O O18 0.514098 0.000000 0.784037
#
# Coordination Sequence:
#
# PCOD8207164 Si02
#       6
#     8   8   8   8   8   8
#     4   9  17  32  54  77 101 129 162 202 250 304
#     4   9  18  31  47  72 104 136 170 206 245 291
#     4  10  18  31  55  81 103 129 168 211 247 290
#     4  11  23  37  53  72  98 132 169 208 253 303
#     4  10  22  38  53  73 101 130 163 206 257 307
#     4   8  14  26  48  77 104 128 157 198 248 297
#
# _framework density 17.757463999999999
#
# number of rings (size 3 to 8) (size 9 to 14) (size 15 to 20)
#    0.000    2.500    1.667    2.000    0.000    3.333 
#    0.000    1.667    0.000    1.000    0.000    0.000 
#    0.000    0.000    0.000    0.000    0.000    0.000 
#
# Total GULP energy -595112.504014 kJ/mol
# GULP energy per Si atom -12398.177167 kJ/mol
# Density = 1.771705 g / cm^3
# Si number density = 17.757464 Si / 1000 Ang^3
#
#
#
# Elastic Constant Matrix: (Units=GPa)
#
#
# Indices 1 2 3 4 5 6 
#
# 1 38.5676 25.9620 38.4359 0.0000 0.0000 0.0000
# 2 25.9620 95.6554 58.0994 0.0000 0.0000 0.0000
# 3 38.4359 58.0994 135.4557 0.0000 0.0000 0.0000
# 4 0.0000 0.0000 0.0000 27.2613 0.0000 0.0000
# 5 0.0000 0.0000 0.0000 0.0000 27.3943 0.0000
# 6 0.0000 0.0000 0.0000 0.0000 0.0000 16.2601
#
#
#
# Elastic Compliance Matrix: (Units=1/GPa)
#
#
# Indices 1 2 3 4 5 6 
#
# 1 0.037891 -0.005076 -0.008574 0.000000 0.000000 0.000000
# 2 -0.005076 0.014817 -0.004915 0.000000 0.000000 0.000000
# 3 -0.008574 -0.004915 0.011924 0.000000 0.000000 0.000000
# 4 0.000000 0.000000 0.000000 0.036682 0.000000 0.000000
# 5 0.000000 0.000000 0.000000 0.000000 0.036504 0.000000
# 6 0.000000 0.000000 0.000000 0.000000 0.000000 0.061500
#
#
# Mechanical properties :
#
#
# Convention : Reuss Voigt Hill
#
# Bulk Modulus (GPa) = 36.36288 57.18594 46.77441
# Shear Modulus (GPa) = 20.35702 23.99522 22.17612
#
# Velocity S-wave (km/s) = 3.38952 3.67996 3.53772
# Velocity P-wave (km/s) = 5.98668 7.09436 6.56393
#
# Compressibility (1/GPa) = 0.02750057
#
# Stress axis : x y z
#
# Youngs Moduli (GPa) = 26.39177 67.48917 83.86705
#
# Poissons Ratio (x) = 0.34258 0.71911
# Poissons Ratio (y) = 0.13397 0.41221
# Poissons Ratio (z) = 0.22629 0.33171
#
# Static dielectric constant tensor:
#      x y z
#    x 3.045540 0.000000 0.000000 
#    y 0.000000 3.681740 0.000000 
#    z 0.000000 0.000000 3.311090 
# 
# 
# High freq. dielectric constant tensor:
#      x y z
#    x 1.665090 0.000000 0.000000 
#    y 0.000000 1.691190 0.000000 
#    z 0.000000 0.000000 1.677120 
# 
# From -- ./inp_files/27559.got.cif
#   From: 2010.03.12/outbox.cif.g09.slc.cpg/sg51_14_cif.got.tgz:27559.got - 2010.04.16 13:43:02.
