data_PCOD8207705
_publ_section_title
;
Structure prediction by ZEFSAII (Michael W. Deem and Ramdas Pophale) SiO2 
 PCOD8207705
Probable space group: P M M A
;
_chemical_formula_sum "Si O2"
_cell_formula_units_Z 64
_cell_length_a 24.447207
_cell_length_b 9.613987
_cell_length_c 15.384262
_cell_angle_alpha 90.000000
_cell_angle_beta 90.000000
_cell_angle_gamma 90.000000
_cell_volume 3615.842023
_symmetry_space_group_name_H-M "P M M A"
_symmetry_group_IT_number 51
_symmetry_cell_setting 'orthorhombic'
loop_
_space_group_symop_operation_xyz
x,y,z
1/2-x,-y,z
1/2+x,-y,-z
-x,y,-z
-x,-y,-z
1/2+x,y,-z
1/2-x,y,z
x,-y,z
loop_
_atom_site_type_symbol
_atom_site_label
_atom_site_fract_x
_atom_site_fract_y
_atom_site_fract_z
Si Si1 0.867829 0.341511 0.567780
Si Si2 0.119613 0.662721 0.764477
Si Si3 0.186453 0.661114 0.928296
Si Si4 0.534582 0.148690 0.581283
Si Si5 0.375912 0.342736 0.233224
Si Si6 0.689919 0.663809 0.394799
Si Si7 0.186175 0.838210 0.096103
Si Si8 0.999438 0.659037 0.725218
O O1 0.887856 0.500000 0.554093
O O2 0.915590 0.237130 0.546054
O O3 0.851805 0.321715 0.669198
O O4 0.821940 0.302497 0.496662
O O5 0.130221 0.500000 0.762616
O O6 0.151880 0.722106 0.847603
O O7 0.145204 0.725199 0.674207
O O8 0.054778 0.694174 0.778767
O O9 0.250000 0.677832 0.904906
O O10 0.172427 0.500000 0.949565
O O11 0.169672 0.755801 0.009581
O O12 0.500000 0.107346 0.500000
O O13 0.497259 0.238108 0.644958
O O14 0.553058 0.000000 0.624182
O O15 0.362583 0.500000 0.201769
O O16 0.346919 0.228295 0.175145
O O17 0.441627 0.316598 0.225672
O O18 0.750000 0.726639 0.373899
O O19 0.691459 0.500000 0.382622
O O20 0.250000 0.820128 0.116312
O O21 0.170253 0.000000 0.086045
O O22 0.001606 0.500000 0.691952
#
# Coordination Sequence:
#
# PCOD8207705 Si02
#       8
#     8   8   8   8   8   8   8   8
#     4   9  18  31  48  70  96 129 165 199 239 287
#     4   9  16  28  49  76 104 133 164 201 246 292
#     4   9  17  31  53  79 103 128 162 204 247 291
#     4  10  19  29  43  65  93 126 165 207 245 281
#     4   9  18  32  50  73  99 129 167 208 249 292
#     4   9  16  26  44  74 107 133 162 204 249 292
#     4  10  21  36  54  75  97 125 162 202 249 304
#     4   9  18  32  50  72  98 130 168 205 243 293
#
# _framework density 17.699888999999999
#
# number of rings (size 3 to 8) (size 9 to 14) (size 15 to 20)
#    0.000    2.750    0.000    2.625    0.000    6.750 
#    0.000    2.500    0.000    4.875    0.000    0.000 
#    0.000    0.000    0.000    0.000    0.000    0.000 
#
# Total GULP energy -792874.498611 kJ/mol
# GULP energy per Si atom -12388.664041 kJ/mol
# Density = 1.765960 g / cm^3
# Si number density = 17.699889 Si / 1000 Ang^3
#
#
#
# Elastic Constant Matrix: (Units=GPa)
#
#
# Indices 1 2 3 4 5 6 
#
# 1 86.1472 39.9564 61.9504 0.0000 0.0000 0.0000
# 2 39.9564 87.7452 50.6905 0.0000 0.0000 0.0000
# 3 61.9504 50.6905 113.4605 0.0000 0.0000 0.0000
# 4 0.0000 0.0000 0.0000 23.9707 0.0000 0.0000
# 5 0.0000 0.0000 0.0000 0.0000 26.3979 0.0000
# 6 0.0000 0.0000 0.0000 0.0000 0.0000 60.6830
#
#
#
# Elastic Compliance Matrix: (Units=1/GPa)
#
#
# Indices 1 2 3 4 5 6 
#
# 1 0.019998 -0.003772 -0.009234 0.000000 0.000000 0.000000
# 2 -0.003772 0.016073 -0.005121 0.000000 0.000000 0.000000
# 3 -0.009234 -0.005121 0.016143 0.000000 0.000000 0.000000
# 4 0.000000 0.000000 0.000000 0.041718 0.000000 0.000000
# 5 0.000000 0.000000 0.000000 0.000000 0.037882 0.000000
# 6 0.000000 0.000000 0.000000 0.000000 0.000000 0.016479
#
#
# Mechanical properties :
#
#
# Convention : Reuss Voigt Hill
#
# Bulk Modulus (GPa) = 62.65695 65.83861 64.24778
# Shear Modulus (GPa) = 26.33431 31.19404 28.76417
#
# Velocity S-wave (km/s) = 3.86142 4.20263 4.03563
# Velocity P-wave (km/s) = 7.44024 7.79919 7.62183
#
# Compressibility (1/GPa) = 0.01595992
#
# Stress axis : x y z
#
# Youngs Moduli (GPa) = 50.00569 62.21665 61.94499
#
# Poissons Ratio (x) = 0.23468 0.57198
# Poissons Ratio (y) = 0.18862 0.31724
# Poissons Ratio (z) = 0.46174 0.31863
#
# Static dielectric constant tensor:
#      x y z
#    x 3.399800 0.000000 0.000000 
#    y 0.000000 3.137310 0.000000 
#    z 0.000000 0.000000 3.289150 
# 
# 
# High freq. dielectric constant tensor:
#      x y z
#    x 1.679980 0.000000 0.000000 
#    y 0.000000 1.662450 0.000000 
#    z 0.000000 0.000000 1.675300 
# 
# From -- ./inp_files/26268.got.cif
#   From: 2010.03.12/outbox.cif.g09.slc.cpg/sg51_14_cif.got.tgz:26268.got - 2010.04.16 13:43:02.
