data_PCOD8207774
_publ_section_title
;
Structure prediction by ZEFSAII (Michael W. Deem and Ramdas Pophale) SiO2 
 PCOD8207774
Probable space group: P M M A
;
_chemical_formula_sum "Si O2"
_cell_formula_units_Z 40
_cell_length_a 20.635152
_cell_length_b 7.928195
_cell_length_c 13.900498
_cell_angle_alpha 90.000000
_cell_angle_beta 90.000000
_cell_angle_gamma 90.000000
_cell_volume 2274.114646
_symmetry_space_group_name_H-M "P M M A"
_symmetry_group_IT_number 51
_symmetry_cell_setting 'orthorhombic'
loop_
_space_group_symop_operation_xyz
x,y,z
1/2-x,-y,z
1/2+x,-y,-z
-x,y,-z
-x,-y,-z
1/2+x,y,-z
1/2-x,y,z
x,-y,z
loop_
_atom_site_type_symbol
_atom_site_label
_atom_site_fract_x
_atom_site_fract_y
_atom_site_fract_z
Si Si1 0.179016 0.803925 0.626831
Si Si2 0.952914 0.500000 0.906646
Si Si3 0.819293 0.500000 0.005935
Si Si4 0.494847 0.812598 0.797873
Si Si5 0.638653 0.311944 0.174919
Si Si6 0.960428 0.693980 0.409327
O O1 0.250000 0.743312 0.586769
O O2 0.181271 0.770106 0.741400
O O3 0.117724 0.712821 0.576678
O O4 0.170377 0.000000 0.607053
O O5 0.877693 0.500000 0.932555
O O6 0.960373 0.331643 0.843337
O O7 0.000000 0.500000 0.000000
O O8 0.750000 0.500000 0.951278
O O9 0.821879 0.666051 0.075468
O O10 0.424365 0.799887 0.847129
O O11 0.485352 0.793324 0.683640
O O12 0.523364 0.000000 0.818659
O O13 0.614465 0.500000 0.209683
O O14 0.978455 0.500000 0.396499
O O15 0.000000 0.768661 0.500000
#
# Coordination Sequence:
#
# PCOD8207774 Si02
#       6
#     8   4   4   8   8   8
#     4  10  19  29  45  74 111 144 173 212 265 332
#     4  12  20  40  53  80 113 138 189 234 253 329
#     4  10  20  32  54  74 104 150 179 224 283 311
#     4  11  20  34  58  83 109 146 181 227 278 319
#     4   9  16  30  49  73 107 132 174 215 266 326
#     4  10  20  35  56  81 111 141 179 228 275 323
#
# _framework density 17.589261
#
# number of rings (size 3 to 8) (size 9 to 14) (size 15 to 20)
#    0.600    1.200    4.000    4.800    0.000    3.200 
#    0.000    0.000    0.000    4.200    0.000    0.000 
#    0.000    0.000    0.000    0.000    0.000    0.000 
#
# Total GULP energy -495523.637515 kJ/mol
# GULP energy per Si atom -12388.090938 kJ/mol
# Density = 1.754923 g / cm^3
# Si number density = 17.589261 Si / 1000 Ang^3
#
#
#
# Elastic Constant Matrix: (Units=GPa)
#
#
# Indices 1 2 3 4 5 6 
#
# 1 133.2411 29.6579 54.5206 0.0000 0.0000 0.0000
# 2 29.6579 90.5023 23.6144 0.0000 0.0000 0.0000
# 3 54.5206 23.6144 58.9519 0.0000 0.0000 0.0000
# 4 0.0000 0.0000 0.0000 7.3958 0.0000 0.0000
# 5 0.0000 0.0000 0.0000 0.0000 24.0152 0.0000
# 6 0.0000 0.0000 0.0000 0.0000 0.0000 17.5479
#
#
#
# Elastic Compliance Matrix: (Units=1/GPa)
#
#
# Indices 1 2 3 4 5 6 
#
# 1 0.012186 -0.001176 -0.010799 0.000000 0.000000 0.000000
# 2 -0.001176 0.012453 -0.003901 0.000000 0.000000 0.000000
# 3 -0.010799 -0.003901 0.028512 0.000000 0.000000 0.000000
# 4 0.000000 0.000000 0.000000 0.135213 0.000000 0.000000
# 5 0.000000 0.000000 0.000000 0.000000 0.041640 0.000000
# 6 0.000000 0.000000 0.000000 0.000000 0.000000 0.056987
#
#
# Mechanical properties :
#
#
# Convention : Reuss Voigt Hill
#
# Bulk Modulus (GPa) = 46.72836 55.36456 51.04646
# Shear Modulus (GPa) = 15.34335 21.45194 18.39765
#
# Velocity S-wave (km/s) = 2.95670 3.49607 3.23764
# Velocity P-wave (km/s) = 6.18710 6.91675 6.56207
#
# Compressibility (1/GPa) = 0.02140028
#
# Stress axis : x y z
#
# Youngs Moduli (GPa) = 82.06446 80.30494 35.07236
#
# Poissons Ratio (x) = 0.09441 0.37873
# Poissons Ratio (y) = 0.09648 0.13681
# Poissons Ratio (z) = 0.88619 0.31326
#
# Static dielectric constant tensor:
#      x y z
#    x 3.257130 0.000000 0.000000 
#    y 0.000000 3.275950 0.000000 
#    z 0.000000 0.000000 3.058470 
# 
# 
# High freq. dielectric constant tensor:
#      x y z
#    x 1.666990 0.000000 0.000000 
#    y 0.000000 1.679620 0.000000 
#    z 0.000000 0.000000 1.640960 
# 
# From -- ./inp_files/17923.got.cif
#   From: 2010.03.12/outbox.cif.g09.slc.cpg/sg51_9_cif.got.tgz:17923.got - 2010.04.16 13:43:02.
