data_PCOD8207914
_publ_section_title
;
Structure prediction by ZEFSAII (Michael W. Deem and Ramdas Pophale) SiO2 
 PCOD8207914
Probable space group: P M M A
;
_chemical_formula_sum "Si O2"
_cell_formula_units_Z 56
_cell_length_a 9.049067
_cell_length_b 29.706085
_cell_length_c 13.512957
_cell_angle_alpha 90.000000
_cell_angle_beta 90.000000
_cell_angle_gamma 90.000000
_cell_volume 3632.449774
_symmetry_space_group_name_H-M "P M M A"
_symmetry_group_IT_number 51
_symmetry_cell_setting 'orthorhombic'
loop_
_space_group_symop_operation_xyz
x,y,z
1/2-x,-y,z
1/2+x,-y,-z
-x,y,-z
-x,-y,-z
1/2+x,y,-z
1/2-x,y,z
x,-y,z
loop_
_atom_site_type_symbol
_atom_site_label
_atom_site_fract_x
_atom_site_fract_y
_atom_site_fract_z
Si Si1 0.422136 0.678485 0.701780
Si Si2 0.423500 0.132688 0.606239
Si Si3 0.577504 0.048936 0.606023
Si Si4 0.423025 0.630836 0.900736
Si Si5 0.921462 0.551516 0.798974
Si Si6 0.922176 0.400491 0.598474
Si Si7 0.921076 0.768853 0.396489
O O1 0.250000 0.668905 0.682239
O O2 0.463766 0.666309 0.814547
O O3 0.514311 0.648385 0.625755
O O4 0.465066 0.730523 0.682709
O O5 0.500000 0.133722 0.500000
O O6 0.250000 0.123276 0.597853
O O7 0.500275 0.090740 0.665831
O O8 0.456376 0.182109 0.652859
O O9 0.500000 0.046470 0.500000
O O10 0.750000 0.059262 0.592916
O O11 0.554542 0.000000 0.659063
O O12 0.250000 0.627321 0.919127
O O13 0.482282 0.581353 0.873269
O O14 0.500000 0.648686 0.000000
O O15 0.750000 0.560181 0.822677
O O16 0.966539 0.500000 0.815978
O O17 0.956407 0.564224 0.685585
O O18 0.750000 0.395345 0.577678
O O19 0.000000 0.419183 0.500000
O O20 0.750000 0.766198 0.422967
O O21 0.000000 0.760406 0.500000
#
# Coordination Sequence:
#
# PCOD8207914 Si02
#       7
#     8   8   8   8   8   8   8
#     4   9  18  32  47  63  83 107 136 167 200 239
#     4   9  15  22  32  46  66  92 123 160 197 231
#     4   9  15  21  29  41  59  86 122 163 201 233
#     4  10  20  34  52  70  87 107 131 163 201 241
#     4   9  19  35  51  67  88 112 138 167 197 232
#     4  10  19  30  45  65  88 113 140 168 197 231
#     4   9  17  27  39  57  80 105 133 164 198 235
#
# _framework density 15.416592
#
# number of rings (size 3 to 8) (size 9 to 14) (size 15 to 20)
#    0.000    2.714    0.000    3.000    0.000    5.143 
#    0.000    0.000    0.000    0.000    0.000    0.000 
#    0.000    0.000    0.000    0.000    0.000    0.714 
#
# Total GULP energy -693970.483827 kJ/mol
# GULP energy per Si atom -12392.330068 kJ/mol
# Density = 1.538150 g / cm^3
# Si number density = 15.416592 Si / 1000 Ang^3
#
#
#
# Elastic Constant Matrix: (Units=GPa)
#
#
# Indices 1 2 3 4 5 6 
#
# 1 71.2048 42.0253 27.2047 0.0000 0.0000 0.0000
# 2 42.0253 132.4667 30.0899 0.0000 0.0000 0.0000
# 3 27.2047 30.0899 59.3017 0.0000 0.0000 0.0000
# 4 0.0000 0.0000 0.0000 9.7817 0.0000 0.0000
# 5 0.0000 0.0000 0.0000 0.0000 20.4401 0.0000
# 6 0.0000 0.0000 0.0000 0.0000 0.0000 23.4424
#
#
#
# Elastic Compliance Matrix: (Units=1/GPa)
#
#
# Indices 1 2 3 4 5 6 
#
# 1 0.019257 -0.004637 -0.006481 0.000000 0.000000 0.000000
# 2 -0.004637 0.009649 -0.002769 0.000000 0.000000 0.000000
# 3 -0.006481 -0.002769 0.021241 0.000000 0.000000 0.000000
# 4 0.000000 0.000000 0.000000 0.102232 0.000000 0.000000
# 5 0.000000 0.000000 0.000000 0.000000 0.048923 0.000000
# 6 0.000000 0.000000 0.000000 0.000000 0.000000 0.042658
#
#
# Mechanical properties :
#
#
# Convention : Reuss Voigt Hill
#
# Bulk Modulus (GPa) = 44.69671 51.29035 47.99353
# Shear Modulus (GPa) = 17.90879 21.64305 19.77592
#
# Velocity S-wave (km/s) = 3.41201 3.75090 3.58546
# Velocity P-wave (km/s) = 6.67667 7.21809 6.95265
#
# Compressibility (1/GPa) = 0.02237301
#
# Stress axis : x y z
#
# Youngs Moduli (GPa) = 51.92885 103.63642 47.07852
#
# Poissons Ratio (x) = 0.48057 0.30513
# Poissons Ratio (y) = 0.24080 0.13035
# Poissons Ratio (z) = 0.33657 0.28694
#
# Static dielectric constant tensor:
#      x y z
#    x 3.071850 0.000000 0.000000 
#    y 0.000000 3.821870 0.000000 
#    z 0.000000 0.000000 2.610290 
# 
# 
# High freq. dielectric constant tensor:
#      x y z
#    x 1.605400 0.000000 0.000000 
#    y 0.000000 1.601640 0.000000 
#    z 0.000000 0.000000 1.532260 
# 
# From -- ./inp_files/22546.got.cif
#   From: 2010.03.12/outbox.cif.g09.slc.cpg/sg51_12_cif.got.tgz:22546.got - 2010.04.16 13:43:02.
