data_PCOD8207591
_publ_section_title
;
Structure prediction by ZEFSAII (Michael W. Deem and Ramdas Pophale) SiO2 
 PCOD8207591
Probable space group: P M M A
;
_chemical_formula_sum "Si O2"
_cell_formula_units_Z 56
_cell_length_a 9.388844
_cell_length_b 18.997935
_cell_length_c 18.866093
_cell_angle_alpha 90.000000
_cell_angle_beta 90.000000
_cell_angle_gamma 90.000000
_cell_volume 3365.119502
_symmetry_space_group_name_H-M "P M M A"
_symmetry_group_IT_number 51
_symmetry_cell_setting 'orthorhombic'
loop_
_space_group_symop_operation_xyz
x,y,z
1/2-x,-y,z
1/2+x,-y,-z
-x,y,-z
-x,-y,-z
1/2+x,y,-z
1/2-x,y,z
x,-y,z
loop_
_atom_site_type_symbol
_atom_site_label
_atom_site_fract_x
_atom_site_fract_y
_atom_site_fract_z
Si Si1 0.584520 0.297465 0.658250
Si Si2 0.083440 0.714940 0.070510
Si Si3 0.581165 0.792637 0.791422
Si Si4 0.412487 0.578702 0.153816
Si Si5 0.580355 0.078206 0.706730
Si Si6 0.915190 0.420229 0.296301
Si Si7 0.415739 0.836684 0.429493
O O1 0.750000 0.317868 0.660850
O O2 0.532036 0.262698 0.731886
O O3 0.491675 0.368235 0.647572
O O4 0.554129 0.243619 0.594237
O O5 0.250000 0.725935 0.056461
O O6 0.026271 0.767892 0.131779
O O7 0.049707 0.634461 0.092613
O O8 0.000000 0.734623 0.000000
O O9 0.750000 0.793156 0.790740
O O10 0.525040 0.870894 0.770455
O O11 0.250000 0.591226 0.180004
O O12 0.431477 0.500000 0.122386
O O13 0.515557 0.590454 0.219575
O O14 0.750000 0.075966 0.707965
O O15 0.530896 0.110004 0.631523
O O16 0.515890 0.000000 0.717046
O O17 0.750000 0.400922 0.290495
O O18 0.937392 0.500000 0.323211
O O19 0.500000 0.855109 0.500000
O O20 0.250000 0.847917 0.444625
#
# Coordination Sequence:
#
# PCOD8207591 Si02
#       7
#     8   8   8   8   8   8   8
#     4   9  16  30  49  65  85 121 161 192 221 265
#     4  10  19  30  44  63  88 119 154 194 235 274
#     4   8  14  27  45  64  87 115 153 195 225 261
#     4   9  17  30  46  61  83 120 157 186 226 281
#     4   8  14  26  47  73  96 121 154 188 220 260
#     4  10  19  28  42  68  95 115 144 194 244 275
#     4   9  18  30  47  72 101 127 153 184 220 265
#
# _framework density 16.641310000000001
#
# number of rings (size 3 to 8) (size 9 to 14) (size 15 to 20)
#    0.000    3.000    1.429    2.143    0.000    2.571 
#    0.000    0.000    0.000    0.857    0.000    0.000 
#    0.000    0.000    0.000    0.000    0.000    0.000 
#
# Total GULP energy -694078.457309 kJ/mol
# GULP energy per Si atom -12394.258166 kJ/mol
# Density = 1.660343 g / cm^3
# Si number density = 16.641310 Si / 1000 Ang^3
#
#
#
# Elastic Constant Matrix: (Units=GPa)
#
#
# Indices 1 2 3 4 5 6 
#
# 1 44.3090 38.3460 22.5516 0.0000 0.0000 0.0000
# 2 38.3460 128.7243 56.7835 0.0000 0.0000 0.0000
# 3 22.5516 56.7835 82.7329 0.0000 0.0000 0.0000
# 4 0.0000 0.0000 0.0000 18.8563 0.0000 0.0000
# 5 0.0000 0.0000 0.0000 0.0000 25.6207 0.0000
# 6 0.0000 0.0000 0.0000 0.0000 0.0000 12.0275
#
#
#
# Elastic Compliance Matrix: (Units=1/GPa)
#
#
# Indices 1 2 3 4 5 6 
#
# 1 0.030926 -0.007880 -0.003022 0.000000 0.000000 0.000000
# 2 -0.007880 0.013150 -0.006877 0.000000 0.000000 0.000000
# 3 -0.003022 -0.006877 0.017631 0.000000 0.000000 0.000000
# 4 0.000000 0.000000 0.000000 0.053033 0.000000 0.000000
# 5 0.000000 0.000000 0.000000 0.000000 0.039031 0.000000
# 6 0.000000 0.000000 0.000000 0.000000 0.000000 0.083143
#
#
# Mechanical properties :
#
#
# Convention : Reuss Voigt Hill
#
# Bulk Modulus (GPa) = 38.24220 54.56982 46.40601
# Shear Modulus (GPa) = 17.78179 20.50658 19.14418
#
# Velocity S-wave (km/s) = 3.27239 3.51418 3.39544
# Velocity P-wave (km/s) = 6.10804 7.02345 6.58168
#
# Compressibility (1/GPa) = 0.02614913
#
# Stress axis : x y z
#
# Youngs Moduli (GPa) = 32.33531 76.04802 56.71827
#
# Poissons Ratio (x) = 0.59923 0.17139
# Poissons Ratio (y) = 0.25479 0.39007
# Poissons Ratio (z) = 0.09771 0.52301
#
# Static dielectric constant tensor:
#      x y z
#    x 2.843270 0.000000 0.000000 
#    y 0.000000 3.538500 0.000000 
#    z 0.000000 0.000000 2.939630 
# 
# 
# High freq. dielectric constant tensor:
#      x y z
#    x 1.611150 0.000000 0.000000 
#    y 0.000000 1.646160 0.000000 
#    z 0.000000 0.000000 1.613400 
# 
# From -- ./inp_files/32268.got.cif
#   From: 2010.03.12/outbox.cif.g09.slc.cpg/sg51_17_cif.got.tgz:32268.got - 2010.04.16 13:43:02.
