data_PCOD8207547
_publ_section_title
;
Structure prediction by ZEFSAII (Michael W. Deem and Ramdas Pophale) SiO2 
 PCOD8207547
Probable space group: P M M A
;
_chemical_formula_sum "Si O2"
_cell_formula_units_Z 64
_cell_length_a 9.304636
_cell_length_b 26.695803
_cell_length_c 18.265205
_cell_angle_alpha 90.000000
_cell_angle_beta 90.000000
_cell_angle_gamma 90.000000
_cell_volume 4536.980658
_symmetry_space_group_name_H-M "P M M A"
_symmetry_group_IT_number 51
_symmetry_cell_setting 'orthorhombic'
loop_
_space_group_symop_operation_xyz
x,y,z
1/2-x,-y,z
1/2+x,-y,-z
-x,y,-z
-x,-y,-z
1/2+x,y,-z
1/2-x,y,z
x,-y,z
loop_
_atom_site_type_symbol
_atom_site_label
_atom_site_fract_x
_atom_site_fract_y
_atom_site_fract_z
Si Si1 0.912063 0.213592 0.784861
Si Si2 0.582102 0.646126 0.827085
Si Si3 0.415577 0.700242 0.714358
Si Si4 0.081249 0.242005 0.574044
Si Si5 0.585354 0.153444 0.652132
Si Si6 0.917414 0.055732 0.573153
Si Si7 0.587279 0.260259 0.927308
Si Si8 0.917572 0.556792 0.927054
O O1 0.750000 0.235163 0.769938
O O2 0.930701 0.161374 0.740559
O O3 0.932064 0.211737 0.873085
O O4 0.032421 0.249942 0.754215
O O5 0.750000 0.647585 0.810741
O O6 0.502489 0.653264 0.748725
O O7 0.536983 0.689946 0.883886
O O8 0.534402 0.592966 0.861026
O O9 0.250000 0.691208 0.732012
O O10 0.441188 0.710040 0.627866
O O11 0.250000 0.232443 0.559984
O O12 0.000000 0.256403 0.500000
O O13 0.014858 0.191280 0.607334
O O14 0.750000 0.163404 0.627680
O O15 0.541194 0.096134 0.635423
O O16 0.750000 0.057458 0.554435
O O17 0.000000 0.070876 0.500000
O O18 0.962401 0.000000 0.600282
O O19 0.750000 0.267000 0.952808
O O20 0.500000 0.250411 0.000000
O O21 0.750000 0.563317 0.944082
O O22 0.955912 0.500000 0.904101
O O23 0.000000 0.572967 0.000000
#
# Coordination Sequence:
#
# PCOD8207547 Si02
#       8
#     8   8   8   8   8   8   8   8
#     4   8  15  27  39  52  72  98 125 152 186 226
#     4   9  17  28  40  54  75 104 132 156 187 225
#     4   9  17  27  39  56  75  96 125 159 188 218
#     4  10  19  28  39  57  79 101 127 157 187 223
#     4   9  16  27  42  55  72 101 130 156 188 223
#     4   9  17  27  38  54  75  98 125 156 187 218
#     4   9  16  24  35  52  73  96 123 152 182 219
#     4   9  17  28  41  58  80 105 134 166 195 223
#
# _framework density 14.106298000000001
#
# number of rings (size 3 to 8) (size 9 to 14) (size 15 to 20)
#    0.000    3.000    0.000    2.250    0.000    5.500 
#    0.000    0.000    0.000    0.000    0.000    0.000 
#    0.000    1.000    0.000    1.500    0.000    2.750 
#
# Total GULP energy -792914.628322 kJ/mol
# GULP energy per Si atom -12389.291068 kJ/mol
# Density = 1.407419 g / cm^3
# Si number density = 14.106298 Si / 1000 Ang^3
#
#
#
# Elastic Constant Matrix: (Units=GPa)
#
#
# Indices 1 2 3 4 5 6 
#
# 1 56.0473 32.2649 46.2778 0.0000 0.0000 0.0000
# 2 32.2649 81.5780 54.1125 0.0000 0.0000 0.0000
# 3 46.2778 54.1125 98.4648 0.0000 0.0000 0.0000
# 4 0.0000 0.0000 0.0000 26.2769 0.0000 0.0000
# 5 0.0000 0.0000 0.0000 0.0000 24.4223 0.0000
# 6 0.0000 0.0000 0.0000 0.0000 0.0000 14.6065
#
#
#
# Elastic Compliance Matrix: (Units=1/GPa)
#
#
# Indices 1 2 3 4 5 6 
#
# 1 0.029943 -0.003946 -0.011904 0.000000 0.000000 0.000000
# 2 -0.003946 0.019810 -0.009032 0.000000 0.000000 0.000000
# 3 -0.011904 -0.009032 0.020715 0.000000 0.000000 0.000000
# 4 0.000000 0.000000 0.000000 0.038056 0.000000 0.000000
# 5 0.000000 0.000000 0.000000 0.000000 0.040946 0.000000
# 6 0.000000 0.000000 0.000000 0.000000 0.000000 0.068463
#
#
# Mechanical properties :
#
#
# Convention : Reuss Voigt Hill
#
# Bulk Modulus (GPa) = 48.30388 55.71115 52.00752
# Shear Modulus (GPa) = 18.20834 19.95683 19.08258
#
# Velocity S-wave (km/s) = 3.59666 3.76539 3.68199
# Velocity P-wave (km/s) = 7.18088 7.64747 7.41785
#
# Compressibility (1/GPa) = 0.02070227
#
# Stress axis : x y z
#
# Youngs Moduli (GPa) = 33.39657 50.47876 48.27523
#
# Poissons Ratio (x) = 0.19921 0.57468
# Poissons Ratio (y) = 0.13180 0.43603
# Poissons Ratio (z) = 0.39756 0.45593
#
# Static dielectric constant tensor:
#      x y z
#    x 2.836920 0.000000 0.000000 
#    y 0.000000 2.763240 0.000000 
#    z 0.000000 0.000000 2.906850 
# 
# 
# High freq. dielectric constant tensor:
#      x y z
#    x 1.546580 0.000000 0.000000 
#    y 0.000000 1.506310 0.000000 
#    z 0.000000 0.000000 1.525760 
# 
# From -- ./inp_files/28675.got.cif
#   From: 2010.03.12/outbox.cif.g09.slc.cpg/sg51_15_cif.got.tgz:28675.got - 2010.04.16 13:43:02.
