data_PCOD8207308
_publ_section_title
;
Structure prediction by ZEFSAII (Michael W. Deem and Ramdas Pophale) SiO2 
 PCOD8207308
Probable space group: P M M A
;
_chemical_formula_sum "Si O2"
_cell_formula_units_Z 48
_cell_length_a 8.557734
_cell_length_b 30.509682
_cell_length_c 9.321298
_cell_angle_alpha 90.000000
_cell_angle_beta 90.000000
_cell_angle_gamma 90.000000
_cell_volume 2433.732584
_symmetry_space_group_name_H-M "P M M A"
_symmetry_group_IT_number 51
_symmetry_cell_setting 'orthorhombic'
loop_
_space_group_symop_operation_xyz
x,y,z
1/2-x,-y,z
1/2+x,-y,-z
-x,y,-z
-x,-y,-z
1/2+x,y,-z
1/2-x,y,z
x,-y,z
loop_
_atom_site_type_symbol
_atom_site_label
_atom_site_fract_x
_atom_site_fract_y
_atom_site_fract_z
Si Si1 0.064164 0.346011 0.346283
Si Si2 0.065048 0.000000 0.340207
Si Si3 0.565832 0.089176 0.341446
Si Si4 0.564929 0.579479 0.158581
Si Si5 0.065132 0.832360 0.157918
Si Si6 0.064726 0.500000 0.340619
Si Si7 0.067128 0.753047 0.351019
O O1 0.250000 0.351565 0.342848
O O2 0.007978 0.296113 0.317961
O O3 0.000000 0.362355 0.500000
O O4 0.986823 0.373522 0.218988
O O5 0.000000 0.000000 0.500000
O O6 0.001238 0.955400 0.267513
O O7 0.250000 0.000000 0.337600
O O8 0.500000 0.096476 0.500000
O O9 0.750000 0.085439 0.351116
O O10 0.516970 0.129426 0.244656
O O11 0.750000 0.575468 0.155437
O O12 0.494348 0.542849 0.260650
O O13 0.500000 0.572877 0.000000
O O14 0.250000 0.839426 0.160676
O O15 0.015304 0.785659 0.224973
O O16 0.000000 0.833109 0.000000
O O17 0.250000 0.500000 0.344740
O O18 0.000000 0.500000 0.500000
O O19 0.250000 0.752371 0.369530
O O20 0.000000 0.771082 0.500000
#
# Coordination Sequence:
#
# PCOD8207308 Si02
#       7
#     8   4   8   8   8   4   8
#     4  10  20  38  61  89 120 155 195 240 288 342
#     4  10  18  32  55  84 113 144 183 232 280 332
#     4  11  21  36  58  85 114 148 187 233 282 337
#     4  12  25  42  62  89 122 159 197 241 292 348
#     4  11  23  39  56  81 114 152 192 236 287 343
#     4  12  25  44  67  92 120 156 198 244 291 344
#     4   9  20  37  60  86 115 149 193 240 287 339
#
# _framework density 19.722791999999998
#
# number of rings (size 3 to 8) (size 9 to 14) (size 15 to 20)
#    0.000    1.333    0.000    7.750    0.000    4.000 
#    0.000    2.083    0.000    0.000    0.000    0.000 
#    0.000    0.000    0.000    0.000    0.000    0.000 
#
# Total GULP energy -595335.608575 kJ/mol
# GULP energy per Si atom -12402.825179 kJ/mol
# Density = 1.967790 g / cm^3
# Si number density = 19.722792 Si / 1000 Ang^3
#
#
#
# Elastic Constant Matrix: (Units=GPa)
#
#
# Indices 1 2 3 4 5 6 
#
# 1 153.4192 60.0520 59.7174 0.0000 0.0000 0.0000
# 2 60.0520 132.8540 75.7309 0.0000 0.0000 0.0000
# 3 59.7174 75.7309 140.7232 0.0000 0.0000 0.0000
# 4 0.0000 0.0000 0.0000 19.0116 0.0000 0.0000
# 5 0.0000 0.0000 0.0000 0.0000 36.1242 0.0000
# 6 0.0000 0.0000 0.0000 0.0000 0.0000 7.8815
#
#
#
# Elastic Compliance Matrix: (Units=1/GPa)
#
#
# Indices 1 2 3 4 5 6 
#
# 1 0.008360 -0.002534 -0.002184 0.000000 0.000000 0.000000
# 2 -0.002534 0.011626 -0.005181 0.000000 0.000000 0.000000
# 3 -0.002184 -0.005181 0.010821 0.000000 0.000000 0.000000
# 4 0.000000 0.000000 0.000000 0.052599 0.000000 0.000000
# 5 0.000000 0.000000 0.000000 0.000000 0.027682 0.000000
# 6 0.000000 0.000000 0.000000 0.000000 0.000000 0.126880
#
#
# Mechanical properties :
#
#
# Convention : Reuss Voigt Hill
#
# Bulk Modulus (GPa) = 90.83602 90.88855 90.86229
# Shear Modulus (GPa) = 19.12508 28.03654 23.58081
#
# Velocity S-wave (km/s) = 3.11737 3.77441 3.46151
# Velocity P-wave (km/s) = 7.68854 8.07328 7.88326
#
# Compressibility (1/GPa) = 0.01100885
#
# Stress axis : x y z
#
# Youngs Moduli (GPa) = 119.61664 86.01499 92.41051
#
# Poissons Ratio (x) = 0.21795 0.20183
# Poissons Ratio (y) = 0.30310 0.47880
# Poissons Ratio (z) = 0.26125 0.44566
#
# Static dielectric constant tensor:
#      x y z
#    x 3.754060 0.000000 0.000000 
#    y 0.000000 4.349130 0.000000 
#    z 0.000000 0.000000 3.526280 
# 
# 
# High freq. dielectric constant tensor:
#      x y z
#    x 1.786180 0.000000 0.000000 
#    y 0.000000 1.789920 0.000000 
#    z 0.000000 0.000000 1.757050 
# 
# From -- ./inp_files/6126.got.cif
#   From: 2010.03.12/outbox.cif.g09.slc.cpg/sg51_4_cif.got.tgz:6126.got - 2010.04.16 13:43:02.
