data_PCOD8207527
_publ_section_title
;
Structure prediction by ZEFSAII (Michael W. Deem and Ramdas Pophale) SiO2 
 PCOD8207527
Probable space group: P M M A
;
_chemical_formula_sum "Si O2"
_cell_formula_units_Z 48
_cell_length_a 27.835521
_cell_length_b 8.930361
_cell_length_c 10.217240
_cell_angle_alpha 90.000000
_cell_angle_beta 90.000000
_cell_angle_gamma 90.000000
_cell_volume 2539.814303
_symmetry_space_group_name_H-M "P M M A"
_symmetry_group_IT_number 51
_symmetry_cell_setting 'orthorhombic'
loop_
_space_group_symop_operation_xyz
x,y,z
1/2-x,-y,z
1/2+x,-y,-z
-x,y,-z
-x,-y,-z
1/2+x,y,-z
1/2-x,y,z
x,-y,z
loop_
_atom_site_type_symbol
_atom_site_label
_atom_site_fract_x
_atom_site_fract_y
_atom_site_fract_z
Si Si1 0.659395 0.170970 0.518666
Si Si2 0.852294 0.177726 0.992401
Si Si3 0.005666 0.677007 0.648194
Si Si4 0.913118 0.175621 0.745767
Si Si5 0.101700 0.172996 0.739398
Si Si6 0.750000 0.821908 0.903001
Si Si7 0.750000 0.325038 0.621821
O O1 0.616810 0.216388 0.616578
O O2 0.641657 0.192142 0.371472
O O3 0.703680 0.281491 0.537446
O O4 0.675557 0.000000 0.545913
O O5 0.884384 0.236535 0.871825
O O6 0.797599 0.237624 0.977445
O O7 0.851158 0.000000 0.990908
O O8 0.874904 0.236158 0.127361
O O9 0.003068 0.500000 0.650520
O O10 0.963769 0.741149 0.739573
O O11 0.000000 0.738565 0.500000
O O12 0.055684 0.728740 0.707997
O O13 0.923200 0.000000 0.756358
O O14 0.085869 0.000000 0.752583
O O15 0.750000 0.763767 0.756266
O O16 0.750000 0.000000 0.894844
O O17 0.750000 0.500000 0.650688
#
# Coordination Sequence:
#
# PCOD8207527 Si02
#       7
#     8   8   8   8   8   4   4
#     4  10  20  36  60  86 111 144 189 236 280 330
#     4   9  19  35  60  89 115 144 183 238 290 333
#     4  11  23  37  56  83 116 155 191 232 288 341
#     4  10  19  35  60  87 111 144 189 235 280 331
#     4  10  21  38  60  87 114 146 190 238 287 337
#     4  10  18  37  62  84 114 150 190 230 281 339
#     4  12  24  35  56  88 118 150 190 234 281 333
#
# _framework density 18.899018999999999
#
# number of rings (size 3 to 8) (size 9 to 14) (size 15 to 20)
#    0.000    1.833    3.333    1.250    0.000    3.333 
#    0.000    7.500    0.000    1.000    0.000    0.000 
#    0.000    0.000    0.000    0.000    0.000    0.000 
#
# Total GULP energy -595364.674490 kJ/mol
# GULP energy per Si atom -12403.430719 kJ/mol
# Density = 1.885600 g / cm^3
# Si number density = 18.899019 Si / 1000 Ang^3
#
#
#
# Elastic Constant Matrix: (Units=GPa)
#
#
# Indices 1 2 3 4 5 6 
#
# 1 137.3264 36.7415 55.7529 0.0000 0.0000 0.0000
# 2 36.7415 40.1927 21.1731 0.0000 0.0000 0.0000
# 3 55.7529 21.1731 132.0649 0.0000 0.0000 0.0000
# 4 0.0000 0.0000 0.0000 14.5567 0.0000 0.0000
# 5 0.0000 0.0000 0.0000 0.0000 29.4923 0.0000
# 6 0.0000 0.0000 0.0000 0.0000 0.0000 0.8835
#
#
#
# Elastic Compliance Matrix: (Units=1/GPa)
#
#
# Indices 1 2 3 4 5 6 
#
# 1 0.010778 -0.008143 -0.003244 0.000000 0.000000 0.000000
# 2 -0.008143 0.033328 -0.001905 0.000000 0.000000 0.000000
# 3 -0.003244 -0.001905 0.009247 0.000000 0.000000 0.000000
# 4 0.000000 0.000000 0.000000 0.068697 0.000000 0.000000
# 5 0.000000 0.000000 0.000000 0.000000 0.033907 0.000000
# 6 0.000000 0.000000 0.000000 0.000000 0.000000 1.131924
#
#
# Mechanical properties :
#
#
# Convention : Reuss Voigt Hill
#
# Bulk Modulus (GPa) = 37.35989 59.65766 48.50878
# Shear Modulus (GPa) = 3.77818 22.04758 12.91288
#
# Velocity S-wave (km/s) = 1.41544 3.41926 2.61675
# Velocity P-wave (km/s) = 4.74156 6.87194 5.90364
#
# Compressibility (1/GPa) = 0.02676668
#
# Stress axis : x y z
#
# Youngs Moduli (GPa) = 92.78298 30.00483 108.14061
#
# Poissons Ratio (x) = 0.24434 0.35086
# Poissons Ratio (y) = 0.75555 0.20606
# Poissons Ratio (z) = 0.30103 0.05717
#
# Static dielectric constant tensor:
#      x y z
#    x 3.580440 0.000000 0.000000 
#    y 0.000000 3.157090 0.000000 
#    z 0.000000 0.000000 3.639090 
# 
# 
# High freq. dielectric constant tensor:
#      x y z
#    x 1.746680 0.000000 0.000000 
#    y 0.000000 1.704420 0.000000 
#    z 0.000000 0.000000 1.737090 
# 
# From -- ./inp_files/12940.got.cif
#   From: 2010.03.12/outbox.cif.g09.slc.cpg/sg51_7_cif.got.tgz:12940.got - 2010.04.16 13:43:02.
