data_PCOD8207153
_publ_section_title
;
Structure prediction by ZEFSAII (Michael W. Deem and Ramdas Pophale) SiO2 
 PCOD8207153
Probable space group: P M M A
;
_chemical_formula_sum "Si O2"
_cell_formula_units_Z 64
_cell_length_a 19.083038
_cell_length_b 19.192995
_cell_length_c 9.787160
_cell_angle_alpha 90.000000
_cell_angle_beta 90.000000
_cell_angle_gamma 90.000000
_cell_volume 3584.651612
_symmetry_space_group_name_H-M "P M M A"
_symmetry_group_IT_number 51
_symmetry_cell_setting 'orthorhombic'
loop_
_space_group_symop_operation_xyz
x,y,z
1/2-x,-y,z
1/2+x,-y,-z
-x,y,-z
-x,-y,-z
1/2+x,y,-z
1/2-x,y,z
x,-y,z
loop_
_atom_site_type_symbol
_atom_site_label
_atom_site_fract_x
_atom_site_fract_y
_atom_site_fract_z
Si Si1 0.330445 0.325699 0.363210
Si Si2 0.045072 0.165358 0.128293
Si Si3 0.171484 0.824333 0.477696
Si Si4 0.920797 0.326668 0.888461
Si Si5 0.543952 0.210393 0.363974
Si Si6 0.570774 0.652531 0.188955
Si Si7 0.830859 0.580200 0.389558
Si Si8 0.170911 0.919144 0.226632
O O1 0.250000 0.341600 0.346482
O O2 0.347185 0.244864 0.390648
O O3 0.363108 0.348655 0.220301
O O4 0.359685 0.372966 0.485975
O O5 0.062595 0.245513 0.112287
O O6 0.115830 0.119972 0.129843
O O7 0.001605 0.157941 0.270113
O O8 0.000000 0.138399 0.000000
O O9 0.250000 0.817956 0.539826
O O10 0.114806 0.831435 0.597701
O O11 0.165521 0.890841 0.380625
O O12 0.990710 0.369459 0.844497
O O13 0.892398 0.340560 0.040684
O O14 0.500000 0.231712 0.500000
O O15 0.569269 0.277590 0.279639
O O16 0.616730 0.593994 0.263897
O O17 0.750000 0.599771 0.351846
O O18 0.836241 0.500000 0.432316
O O19 0.250000 0.906378 0.170557
O O20 0.151897 0.000000 0.230007
#
# Coordination Sequence:
#
# PCOD8207153 Si02
#       8
#     8   8   8   8   8   8   8   8
#     4  10  19  33  57  81 104 143 191 234 274 324
#     4  11  20  35  55  83 119 150 182 233 289 330
#     4  10  18  31  53  81 108 139 190 242 277 325
#     4  10  19  35  53  83 116 141 183 235 279 328
#     4  11  18  31  55  85 110 142 184 234 280 329
#     4  10  20  33  54  81 112 148 179 226 284 334
#     4  10  22  39  56  80 115 147 184 235 286 339
#     4  10  21  37  57  82 115 154 192 232 284 340
#
# _framework density 17.853897
#
# number of rings (size 3 to 8) (size 9 to 14) (size 15 to 20)
#    0.000    1.750    6.250    0.750    0.000    0.750 
#    0.000    5.000    0.000    1.500    0.000    1.750 
#    0.000    0.000    0.000    0.000    0.000    0.000 
#
# Total GULP energy -793327.878976 kJ/mol
# GULP energy per Si atom -12395.748109 kJ/mol
# Density = 1.781326 g / cm^3
# Si number density = 17.853897 Si / 1000 Ang^3
#
#
#
# Elastic Constant Matrix: (Units=GPa)
#
#
# Indices 1 2 3 4 5 6 
#
# 1 81.3081 27.3698 52.7403 0.0000 0.0000 0.0000
# 2 27.3698 52.4794 23.9589 0.0000 0.0000 0.0000
# 3 52.7403 23.9589 123.1194 0.0000 0.0000 0.0000
# 4 0.0000 0.0000 0.0000 -13.3376 0.0000 0.0000
# 5 0.0000 0.0000 0.0000 0.0000 35.5943 0.0000
# 6 0.0000 0.0000 0.0000 0.0000 0.0000 19.6497
#
#
#
# Elastic Compliance Matrix: (Units=1/GPa)
#
#
# Indices 1 2 3 4 5 6 
#
# 1 0.019013 -0.006802 -0.006821 0.000000 0.000000 0.000000
# 2 -0.006802 0.023346 -0.001630 0.000000 0.000000 0.000000
# 3 -0.006821 -0.001630 0.011361 0.000000 0.000000 0.000000
# 4 0.000000 0.000000 0.000000 -0.074976 0.000000 0.000000
# 5 0.000000 0.000000 0.000000 0.000000 0.028094 0.000000
# 6 0.000000 0.000000 0.000000 0.000000 0.000000 0.050891
#
#
# Mechanical properties :
#
#
# Convention : Reuss Voigt Hill
#
# Bulk Modulus (GPa) = 43.07375 51.67165 47.37270
# Shear Modulus (GPa) = 52.09781 18.57047 35.33414
#
# Velocity S-wave (km/s) = 5.40772 3.22861 4.45350
# Velocity P-wave (km/s) = 7.94791 6.55002 7.28258
#
# Compressibility (1/GPa) = 0.02321600
#
# Stress axis : x y z
#
# Youngs Moduli (GPa) = 52.59607 42.83307 88.01955
#
# Poissons Ratio (x) = 0.29134 0.60037
# Poissons Ratio (y) = 0.35775 0.14343
# Poissons Ratio (z) = 0.35875 0.06980
#
# Static dielectric constant tensor:
#      x y z
#    x 3.564830 0.000000 0.000000 
#    y 0.000000 2.993080 0.000000 
#    z 0.000000 0.000000 3.571780 
# 
# 
# High freq. dielectric constant tensor:
#      x y z
#    x 1.702550 0.000000 0.000000 
#    y 0.000000 1.656110 0.000000 
#    z 0.000000 0.000000 1.687500 
# 
# From -- ./inp_files/11168.got.cif
#   From: 2010.03.12/outbox.cif.g09.slc.cpg/sg51_6_cif.got.tgz:11168.got - 2010.04.16 13:43:02.
