data_PCOD8208054
_publ_section_title
;
Structure prediction by ZEFSAII (Michael W. Deem and Ramdas Pophale) SiO2 
 PCOD8208054
Probable space group: P M M A
;
_chemical_formula_sum "Si O2"
_cell_formula_units_Z 56
_cell_length_a 13.893401
_cell_length_b 7.590807
_cell_length_c 29.925753
_cell_angle_alpha 90.000000
_cell_angle_beta 90.000000
_cell_angle_gamma 90.000000
_cell_volume 3156.033521
_symmetry_space_group_name_H-M "P M M A"
_symmetry_group_IT_number 51
_symmetry_cell_setting 'orthorhombic'
loop_
_space_group_symop_operation_xyz
x,y,z
1/2-x,-y,z
1/2+x,-y,-z
-x,y,-z
-x,-y,-z
1/2+x,y,-z
1/2-x,y,z
x,-y,z
loop_
_atom_site_type_symbol
_atom_site_label
_atom_site_fract_x
_atom_site_fract_y
_atom_site_fract_z
Si Si1 0.640490 0.201472 0.533606
Si Si2 0.862578 0.294973 0.702018
Si Si3 0.636539 0.000000 0.769166
Si Si4 0.049832 0.291045 0.068410
Si Si5 0.143197 0.709522 0.563311
Si Si6 0.528027 0.696451 0.616721
Si Si7 0.643631 0.292374 0.024363
Si Si8 0.865297 0.000000 0.870034
O O1 0.750000 0.266255 0.530638
O O2 0.597057 0.230442 0.483987
O O3 0.591178 0.315337 0.571855
O O4 0.630932 0.000000 0.548267
O O5 0.750000 0.268176 0.692231
O O6 0.885000 0.500000 0.712273
O O7 0.897799 0.177494 0.743790
O O8 0.917857 0.214726 0.658545
O O9 0.596105 0.000000 0.819267
O O10 0.750000 0.000000 0.771817
O O11 0.059637 0.500000 0.078642
O O12 0.091969 0.178437 0.108910
O O13 0.937669 0.235881 0.060322
O O14 0.110844 0.234636 0.024960
O O15 0.250000 0.789081 0.570298
O O16 0.144863 0.500000 0.564910
O O17 0.074122 0.785661 0.602785
O O18 0.507775 0.500000 0.633072
O O19 0.750000 0.211310 0.035240
O O20 0.650202 0.500000 0.024963
O O21 0.750000 0.000000 0.873942
#
# Coordination Sequence:
#
# PCOD8208054 Si02
#       8
#     8   8   4   8   8   8   8   4
#     4  10  20  30  41  62  92 122 148 175 210 256
#     4   9  18  33  52  73  95 117 146 187 235 290
#     4   9  20  36  51  70  97 123 149 190 246 298
#     4   9  18  31  47  71 103 137 174 213 247 285
#     4   9  18  32  46  61  88 121 148 178 213 252
#     4  10  19  30  47  69  87 111 149 183 217 266
#     4   8  14  27  47  71 103 141 176 210 248 286
#     4  11  22  33  48  72  98 129 170 208 245 299
#
# _framework density 17.743790000000001
#
# number of rings (size 3 to 8) (size 9 to 14) (size 15 to 20)
#    0.000    2.714    0.000    2.571    1.000    6.286 
#    0.000    2.500    0.000    0.000    0.000    2.000 
#    0.000    4.571    0.000    0.000    0.000    0.000 
#
# Total GULP energy -693892.684182 kJ/mol
# GULP energy per Si atom -12390.940789 kJ/mol
# Density = 1.770340 g / cm^3
# Si number density = 17.743790 Si / 1000 Ang^3
#
#
#
# Elastic Constant Matrix: (Units=GPa)
#
#
# Indices 1 2 3 4 5 6 
#
# 1 100.7422 26.8583 58.9783 0.0000 0.0000 0.0000
# 2 26.8583 61.0554 43.0598 0.0000 0.0000 0.0000
# 3 58.9783 43.0598 132.5566 0.0000 0.0000 0.0000
# 4 0.0000 0.0000 0.0000 22.3036 0.0000 0.0000
# 5 0.0000 0.0000 0.0000 0.0000 22.9551 0.0000
# 6 0.0000 0.0000 0.0000 0.0000 0.0000 13.0591
#
#
#
# Elastic Compliance Matrix: (Units=1/GPa)
#
#
# Indices 1 2 3 4 5 6 
#
# 1 0.013653 -0.002234 -0.005349 0.000000 0.000000 0.000000
# 2 -0.002234 0.021611 -0.006026 0.000000 0.000000 0.000000
# 3 -0.005349 -0.006026 0.011882 0.000000 0.000000 0.000000
# 4 0.000000 0.000000 0.000000 0.044836 0.000000 0.000000
# 5 0.000000 0.000000 0.000000 0.000000 0.043563 0.000000
# 6 0.000000 0.000000 0.000000 0.000000 0.000000 0.076575
#
#
# Mechanical properties :
#
#
# Convention : Reuss Voigt Hill
#
# Bulk Modulus (GPa) = 50.18105 61.34968 55.76536
# Shear Modulus (GPa) = 20.32673 22.69408 21.51040
#
# Velocity S-wave (km/s) = 3.38830 3.58017 3.48556
# Velocity P-wave (km/s) = 6.60679 7.19309 6.90617
#
# Compressibility (1/GPa) = 0.01992784
#
# Stress axis : x y z
#
# Youngs Moduli (GPa) = 73.24139 46.27205 84.16341
#
# Poissons Ratio (x) = 0.10335 0.45021
# Poissons Ratio (y) = 0.16359 0.50721
# Poissons Ratio (z) = 0.39179 0.27886
#
# Static dielectric constant tensor:
#      x y z
#    x 3.744940 0.000000 0.000000 
#    y 0.000000 3.137770 0.000000 
#    z 0.000000 0.000000 3.180860 
# 
# 
# High freq. dielectric constant tensor:
#      x y z
#    x 1.681500 0.000000 0.000000 
#    y 0.000000 1.684560 0.000000 
#    z 0.000000 0.000000 1.648730 
# 
# From -- ./inp_files/33607.got.cif
#   From: 2010.03.12/outbox.cif.g09.slc.cpg/sg51_17_cif.got.tgz:33607.got - 2010.04.16 13:43:02.
