data_PCOD8208895
_publ_section_title
;
Structure prediction by ZEFSAII (Michael W. Deem and Ramdas Pophale) SiO2 
 PCOD8208895
Probable space group: P M M A
;
_chemical_formula_sum "Si O2"
_cell_formula_units_Z 64
_cell_length_a 8.891800
_cell_length_b 24.535832
_cell_length_c 15.396488
_cell_angle_alpha 90.000000
_cell_angle_beta 90.000000
_cell_angle_gamma 90.000000
_cell_volume 3359.016544
_symmetry_space_group_name_H-M "P M M A"
_symmetry_group_IT_number 51
_symmetry_cell_setting 'orthorhombic'
loop_
_space_group_symop_operation_xyz
x,y,z
1/2-x,-y,z
1/2+x,-y,-z
-x,y,-z
-x,-y,-z
1/2+x,y,-z
1/2-x,y,z
x,-y,z
loop_
_atom_site_type_symbol
_atom_site_label
_atom_site_fract_x
_atom_site_fract_y
_atom_site_fract_z
Si Si1 0.576436 0.642795 0.589717
Si Si2 0.576451 0.935724 0.589400
Si Si3 0.925273 0.746848 0.693704
Si Si4 0.420917 0.163642 0.914270
Si Si5 0.928795 0.561043 0.734265
Si Si6 0.572358 0.393281 0.915580
Si Si7 0.423680 0.714045 0.867735
Si Si8 0.570371 0.142421 0.278948
O O1 0.500000 0.628392 0.500000
O O2 0.750000 0.628680 0.579932
O O3 0.553025 0.706546 0.612149
O O4 0.506089 0.603228 0.663468
O O5 0.500000 0.915742 0.500000
O O6 0.750000 0.917271 0.588705
O O7 0.489990 0.910462 0.671554
O O8 0.560173 0.000000 0.599689
O O9 0.750000 0.754393 0.717063
O O10 0.010897 0.718036 0.771683
O O11 0.999903 0.805056 0.672758
O O12 0.250000 0.145563 0.921932
O O13 0.441443 0.228517 0.916154
O O14 0.484117 0.140437 0.822134
O O15 0.500000 0.138600 0.000000
O O16 0.750000 0.564929 0.736914
O O17 0.983213 0.500000 0.711502
O O18 0.990138 0.577437 0.829311
O O19 0.750000 0.396469 0.922396
O O20 0.520777 0.330393 0.918194
O O21 0.500000 0.422502 0.000000
O O22 0.250000 0.696244 0.863003
O O23 0.750000 0.146419 0.283856
#
# Coordination Sequence:
#
# PCOD8208895 Si02
#       8
#     8   8   8   8   8   8   8   8
#     4  10  21  37  57  82 106 138 178 219 274 334
#     4  10  21  38  61  88 116 150 193 240 290 341
#     4  10  19  34  54  79 112 148 185 223 273 333
#     4   9  19  32  48  75 110 148 187 226 271 321
#     4   9  19  38  59  76 102 139 177 222 276 334
#     4  11  21  34  53  79 106 138 177 219 271 330
#     4  10  19  32  51  77 108 143 181 224 272 325
#     4  10  21  36  55  84 119 154 193 235 282 333
#
# _framework density 19.053196
#
# number of rings (size 3 to 8) (size 9 to 14) (size 15 to 20)
#    0.000    2.125    1.250    3.000    0.000    6.750 
#    0.000    1.250    0.000    3.000    0.000    0.000 
#    0.000    0.000    0.000    0.000    0.000    0.000 
#
# Total GULP energy -793511.843130 kJ/mol
# GULP energy per Si atom -12398.622549 kJ/mol
# Density = 1.900983 g / cm^3
# Si number density = 19.053196 Si / 1000 Ang^3
#
#
#
# Elastic Constant Matrix: (Units=GPa)
#
#
# Indices 1 2 3 4 5 6 
#
# 1 58.4350 20.8219 42.4735 0.0000 0.0000 0.0000
# 2 20.8219 57.7831 45.6833 0.0000 0.0000 0.0000
# 3 42.4735 45.6833 140.8639 0.0000 0.0000 0.0000
# 4 0.0000 0.0000 0.0000 878.2183 0.0000 0.0000
# 5 0.0000 0.0000 0.0000 0.0000 35.7134 0.0000
# 6 0.0000 0.0000 0.0000 0.0000 0.0000 17.1421
#
#
#
# Elastic Compliance Matrix: (Units=1/GPa)
#
#
# Indices 1 2 3 4 5 6 
#
# 1 0.022486 -0.003688 -0.005584 0.000000 0.000000 0.000000
# 2 -0.003688 0.023878 -0.006632 0.000000 0.000000 0.000000
# 3 -0.005584 -0.006632 0.010933 0.000000 0.000000 0.000000
# 4 0.000000 0.000000 0.000000 0.001139 0.000000 0.000000
# 5 0.000000 0.000000 0.000000 0.000000 0.028001 0.000000
# 6 0.000000 0.000000 0.000000 0.000000 0.000000 0.058336
#
#
# Mechanical properties :
#
#
# Convention : Reuss Voigt Hill
#
# Bulk Modulus (GPa) = 39.23120 52.78213 46.00667
# Shear Modulus (GPa) = 27.01575 196.08830 111.55202
#
# Velocity S-wave (km/s) = 3.76960 10.15577 7.65995
# Velocity P-wave (km/s) = 6.29139 12.85621 10.12086
#
# Compressibility (1/GPa) = 0.02548991
#
# Stress axis : x y z
#
# Youngs Moduli (GPa) = 44.47246 41.87916 91.46218
#
# Poissons Ratio (x) = 0.15445 0.51072
# Poissons Ratio (y) = 0.16402 0.60657
# Poissons Ratio (z) = 0.24833 0.27774
#
# Static dielectric constant tensor:
#      x y z
#    x 3.422570 0.000000 0.000000 
#    y 0.000000 3.390780 0.000000 
#    z 0.000000 0.000000 4.029250 
# 
# 
# High freq. dielectric constant tensor:
#      x y z
#    x 1.734530 0.000000 0.000000 
#    y 0.000000 1.718280 0.000000 
#    z 0.000000 0.000000 1.747260 
# 
# From -- ./inp_files/22211.got.cif
#   From: 2010.03.12/outbox.cif.g09.slc.cpg/sg51_12_cif.got.tgz:22211.got - 2010.04.16 13:43:02.
