data_PCOD8208350
_publ_section_title
;
Structure prediction by ZEFSAII (Michael W. Deem and Ramdas Pophale) SiO2 
 PCOD8208350
Probable space group: P M M A
;
_chemical_formula_sum "Si O2"
_cell_formula_units_Z 52
_cell_length_a 9.056500
_cell_length_b 22.086306
_cell_length_c 15.407255
_cell_angle_alpha 90.000000
_cell_angle_beta 90.000000
_cell_angle_gamma 90.000000
_cell_volume 3081.830485
_symmetry_space_group_name_H-M "P M M A"
_symmetry_group_IT_number 51
_symmetry_cell_setting 'orthorhombic'
loop_
_space_group_symop_operation_xyz
x,y,z
1/2-x,-y,z
1/2+x,-y,-z
-x,y,-z
-x,-y,-z
1/2+x,y,-z
1/2-x,y,z
x,-y,z
loop_
_atom_site_type_symbol
_atom_site_label
_atom_site_fract_x
_atom_site_fract_y
_atom_site_fract_z
Si Si1 0.577888 0.782246 0.256477
Si Si2 0.579119 0.429059 0.588338
Si Si3 0.084265 0.215445 0.083967
Si Si4 0.923189 0.641428 0.258563
Si Si5 0.080231 0.000000 0.589327
Si Si6 0.082909 0.359523 0.084475
Si Si7 0.076648 0.131226 0.592556
O O1 0.750000 0.793952 0.240841
O O2 0.495398 0.806734 0.171282
O O3 0.544423 0.712077 0.273614
O O4 0.517627 0.819291 0.339294
O O5 0.500000 0.409066 0.500000
O O6 0.750000 0.410095 0.583254
O O7 0.560390 0.500000 0.604945
O O8 0.499960 0.394607 0.665281
O O9 0.250000 0.189768 0.083289
O O10 0.084313 0.287523 0.080138
O O11 0.000000 0.189056 0.000000
O O12 0.750000 0.627287 0.256681
O O13 0.993848 0.618471 0.168726
O O14 0.040798 0.935681 0.635033
O O15 0.000000 0.000000 0.500000
O O16 0.250000 0.000000 0.565875
O O17 0.250000 0.384869 0.087742
O O18 0.000000 0.385979 0.000000
O O19 0.250000 0.139842 0.577163
O O20 0.000000 0.141336 0.500000
#
# Coordination Sequence:
#
# PCOD8208350 Si02
#       7
#     8   8   8   8   4   8   8
#     4   9  18  30  43  65  96 124 150 183 225 271
#     4  10  21  37  55  72  90 116 153 194 231 269
#     4   9  16  26  42  63  88 119 152 186 223 265
#     4  10  19  31  48  70  96 124 152 185 227 273
#     4   8  14  26  44  62  81 112 153 190 223 260
#     4   9  16  27  44  67  94 123 154 186 222 267
#     4   9  17  29  44  63  89 120 153 188 224 264
#
# _framework density 16.873090000000001
#
# number of rings (size 3 to 8) (size 9 to 14) (size 15 to 20)
#    0.000    2.769    0.000    1.846    0.000    6.462 
#    0.000    1.538    0.000    0.462    0.000    0.538 
#    0.000    0.000    0.000    0.000    0.000    0.000 
#
# Total GULP energy -644557.000878 kJ/mol
# GULP energy per Si atom -12395.326940 kJ/mol
# Density = 1.683469 g / cm^3
# Si number density = 16.873090 Si / 1000 Ang^3
#
#
#
# Elastic Constant Matrix: (Units=GPa)
#
#
# Indices 1 2 3 4 5 6 
#
# 1 112.5349 37.8784 80.3064 0.0000 0.0000 0.0000
# 2 37.8784 39.9731 54.1623 0.0000 0.0000 0.0000
# 3 80.3064 54.1623 165.5057 0.0000 0.0000 0.0000
# 4 0.0000 0.0000 0.0000 -4.4910 0.0000 0.0000
# 5 0.0000 0.0000 0.0000 0.0000 36.8170 0.0000
# 6 0.0000 0.0000 0.0000 0.0000 0.0000 15.7484
#
#
#
# Elastic Compliance Matrix: (Units=1/GPa)
#
#
# Indices 1 2 3 4 5 6 
#
# 1 0.014810 -0.007720 -0.004660 0.000000 0.000000 0.000000
# 2 -0.007720 0.048972 -0.012280 0.000000 0.000000 0.000000
# 3 -0.004660 -0.012280 0.012322 0.000000 0.000000 0.000000
# 4 0.000000 0.000000 0.000000 -0.222667 0.000000 0.000000
# 5 0.000000 0.000000 0.000000 0.000000 0.027161 0.000000
# 6 0.000000 0.000000 0.000000 0.000000 0.000000 0.063499
#
#
# Mechanical properties :
#
#
# Convention : Reuss Voigt Hill
#
# Bulk Modulus (GPa) = 37.33655 73.63420 55.48537
# Shear Modulus (GPa) = 2133.23277 19.32600 1076.27938
#
# Velocity S-wave (km/s) = 35.59530 3.38801 25.28344
# Velocity P-wave (km/s) = 41.37081 7.68372 29.75385
#
# Compressibility (1/GPa) = 0.02678341
#
# Stress axis : x y z
#
# Youngs Moduli (GPa) = 67.52299 20.41996 81.15769
#
# Poissons Ratio (x) = 0.15765 0.37816
# Poissons Ratio (y) = 0.52129 0.99663
# Poissons Ratio (z) = 0.31462 0.25076
#
# Static dielectric constant tensor:
#      x y z
#    x 3.307600 0.000000 0.000000 
#    y 0.000000 3.287090 0.000000 
#    z 0.000000 0.000000 3.158380 
# 
# 
# High freq. dielectric constant tensor:
#      x y z
#    x 1.663810 0.000000 0.000000 
#    y 0.000000 1.612100 0.000000 
#    z 0.000000 0.000000 1.651120 
# 
# From -- ./inp_files/21650.got.cif
#   From: 2010.03.12/outbox.cif.g09.slc.cpg/sg51_11_cif.got.tgz:21650.got - 2010.04.16 13:43:02.
