data_PCOD8208763
_publ_section_title
;
Structure prediction by ZEFSAII (Michael W. Deem and Ramdas Pophale) SiO2 
 PCOD8208763
Probable space group: P M M A
;
_chemical_formula_sum "Si O2"
_cell_formula_units_Z 44
_cell_length_a 9.558967
_cell_length_b 10.393143
_cell_length_c 24.670933
_cell_angle_alpha 90.000000
_cell_angle_beta 90.000000
_cell_angle_gamma 90.000000
_cell_volume 2451.000721
_symmetry_space_group_name_H-M "P M M A"
_symmetry_group_IT_number 51
_symmetry_cell_setting 'orthorhombic'
loop_
_space_group_symop_operation_xyz
x,y,z
1/2-x,-y,z
1/2+x,-y,-z
-x,y,-z
-x,-y,-z
1/2+x,y,-z
1/2-x,y,z
x,-y,z
loop_
_atom_site_type_symbol
_atom_site_label
_atom_site_fract_x
_atom_site_fract_y
_atom_site_fract_z
Si Si1 0.906101 0.500000 0.447950
Si Si2 0.416290 0.354859 0.748268
Si Si3 0.088421 0.263822 0.630301
Si Si4 0.416974 0.855656 0.832655
Si Si5 0.094315 0.852447 0.452013
Si Si6 0.404376 0.151965 0.952818
O O1 0.750000 0.500000 0.470073
O O2 0.936040 0.380148 0.410048
O O3 0.000000 0.500000 0.500000
O O4 0.250000 0.359308 0.751030
O O5 0.474630 0.500000 0.758651
O O6 0.463700 0.304262 0.689677
O O7 0.476858 0.253203 0.792113
O O8 0.250000 0.216778 0.631552
O O9 0.985717 0.155256 0.606004
O O10 0.250000 0.857065 0.831815
O O11 0.468216 0.818685 0.893270
O O12 0.470271 0.000000 0.816555
O O13 0.250000 0.787635 0.450223
O O14 0.000000 0.787584 0.500000
O O15 0.115633 0.000000 0.466642
O O16 0.250000 0.213440 0.958283
O O17 0.393427 0.000000 0.960661
O O18 0.500000 0.213609 0.000000
#
# Coordination Sequence:
#
# PCOD8208763 Si02
#       6
#     4   8   8   8   8   8
#     4  10  20  32  46  68  94 116 143 186 232 272
#     4   9  16  28  46  67  95 128 159 195 237 281
#     4  10  19  32  50  71  95 121 153 191 232 280
#     4   8  14  24  40  65  93 120 157 201 238 276
#     4  10  21  36  52  71  96 123 152 189 234 285
#     4   8  13  22  38  62  91 120 152 193 236 277
#
# _framework density 17.951853
#
# number of rings (size 3 to 8) (size 9 to 14) (size 15 to 20)
#    0.000    2.909    0.909    2.182    0.000    4.000 
#    0.000    1.818    0.000    1.636    0.000    2.545 
#    0.000    0.000    0.000    0.000    0.000    0.000 
#
# Total GULP energy -545209.135134 kJ/mol
# GULP energy per Si atom -12391.116708 kJ/mol
# Density = 1.791099 g / cm^3
# Si number density = 17.951853 Si / 1000 Ang^3
#
#
#
# Elastic Constant Matrix: (Units=GPa)
#
#
# Indices 1 2 3 4 5 6 
#
# 1 65.3516 24.0270 48.8527 0.0000 0.0000 0.0000
# 2 24.0270 60.4823 57.4320 0.0000 0.0000 0.0000
# 3 48.8527 57.4320 162.3808 0.0000 0.0000 0.0000
# 4 0.0000 0.0000 0.0000 32.4775 0.0000 0.0000
# 5 0.0000 0.0000 0.0000 0.0000 23.1563 0.0000
# 6 0.0000 0.0000 0.0000 0.0000 0.0000 12.2464
#
#
#
# Elastic Compliance Matrix: (Units=1/GPa)
#
#
# Indices 1 2 3 4 5 6 
#
# 1 0.020194 -0.003393 -0.004875 0.000000 0.000000 0.000000
# 2 -0.003393 0.025465 -0.007986 0.000000 0.000000 0.000000
# 3 -0.004875 -0.007986 0.010450 0.000000 0.000000 0.000000
# 4 0.000000 0.000000 0.000000 0.030791 0.000000 0.000000
# 5 0.000000 0.000000 0.000000 0.000000 0.043185 0.000000
# 6 0.000000 0.000000 0.000000 0.000000 0.000000 0.081657
#
#
# Mechanical properties :
#
#
# Convention : Reuss Voigt Hill
#
# Bulk Modulus (GPa) = 42.37232 60.98199 51.67715
# Shear Modulus (GPa) = 19.83229 24.10291 21.96760
#
# Velocity S-wave (km/s) = 3.32738 3.66818 3.50193
# Velocity P-wave (km/s) = 6.19811 7.21001 6.72312
#
# Compressibility (1/GPa) = 0.02360031
#
# Stress axis : x y z
#
# Youngs Moduli (GPa) = 49.52039 39.27026 95.69704
#
# Poissons Ratio (x) = 0.13323 0.46656
# Poissons Ratio (y) = 0.16800 0.76422
# Poissons Ratio (z) = 0.24143 0.31361
#
# Static dielectric constant tensor:
#      x y z
#    x 3.166990 0.000000 0.000000 
#    y 0.000000 3.156010 0.000000 
#    z 0.000000 0.000000 3.841440 
# 
# 
# High freq. dielectric constant tensor:
#      x y z
#    x 1.652370 0.000000 0.000000 
#    y 0.000000 1.672640 0.000000 
#    z 0.000000 0.000000 1.699220 
# 
# From -- ./inp_files/34520.got.cif
#   From: 2010.03.12/outbox.cif.g09.slc.cpg/sg51_18_cif.got.tgz:34520.got - 2010.04.16 13:43:02.
