data_PCOD8208706
_publ_section_title
;
Structure prediction by ZEFSAII (Michael W. Deem and Ramdas Pophale) SiO2 
 PCOD8208706
Probable space group: P M M A
;
_chemical_formula_sum "Si O2"
_cell_formula_units_Z 52
_cell_length_a 9.144018
_cell_length_b 12.913310
_cell_length_c 27.400602
_cell_angle_alpha 90.000000
_cell_angle_beta 90.000000
_cell_angle_gamma 90.000000
_cell_volume 3235.450455
_symmetry_space_group_name_H-M "P M M A"
_symmetry_group_IT_number 51
_symmetry_cell_setting 'orthorhombic'
loop_
_space_group_symop_operation_xyz
x,y,z
1/2-x,-y,z
1/2+x,-y,-z
-x,y,-z
-x,-y,-z
1/2+x,y,-z
1/2-x,y,z
x,-y,z
loop_
_atom_site_type_symbol
_atom_site_label
_atom_site_fract_x
_atom_site_fract_y
_atom_site_fract_z
Si Si1 0.417127 0.821235 0.742533
Si Si2 0.086824 0.120572 0.639397
Si Si3 0.077665 0.500000 0.051367
Si Si4 0.085185 0.613424 0.786124
Si Si5 0.077700 0.314393 0.121463
Si Si6 0.414054 0.123584 0.452779
Si Si7 0.422981 0.883402 0.848422
O O1 0.250000 0.858342 0.740163
O O2 0.491210 0.859941 0.692246
O O3 0.435820 0.696951 0.743380
O O4 0.482747 0.869275 0.792673
O O5 0.250000 0.170360 0.638013
O O6 0.989841 0.169083 0.596108
O O7 0.099505 0.000000 0.629732
O O8 0.250000 0.500000 0.043833
O O9 0.029832 0.394551 0.079185
O O10 0.000000 0.500000 0.000000
O O11 0.250000 0.624630 0.807959
O O12 0.060114 0.500000 0.763330
O O13 0.968623 0.632063 0.828362
O O14 0.250000 0.295744 0.121210
O O15 0.999603 0.201538 0.116328
O O16 0.500000 0.165067 0.500000
O O17 0.250000 0.167297 0.454971
O O18 0.412978 0.000000 0.452096
O O19 0.250000 0.862794 0.850061
O O20 0.461108 0.000000 0.866186
#
# Coordination Sequence:
#
# PCOD8208706 Si02
#       7
#     8   8   4   8   8   8   8
#     4   8  14  24  39  61  86 114 147 180 212 249
#     4   9  15  23  36  52  74 106 138 169 206 246
#     4  10  22  36  52  74  98 122 150 192 237 278
#     4   9  16  27  45  66  88 118 153 184 215 257
#     4  10  19  32  48  70  98 123 150 186 232 276
#     4   9  16  25  36  50  69  95 130 170 209 251
#     4   9  17  30  48  70  95 125 161 192 217 258
#
# _framework density 16.071950999999999
#
# number of rings (size 3 to 8) (size 9 to 14) (size 15 to 20)
#    0.000    2.923    0.769    2.308    0.000    5.231 
#    0.000    3.077    0.000    4.154    0.000    0.000 
#    0.000    0.615    0.000    1.077    0.000    1.538 
#
# Total GULP energy -644315.084626 kJ/mol
# GULP energy per Si atom -12390.674704 kJ/mol
# Density = 1.603537 g / cm^3
# Si number density = 16.071951 Si / 1000 Ang^3
#
#
#
# Elastic Constant Matrix: (Units=GPa)
#
#
# Indices 1 2 3 4 5 6 
#
# 1 63.5483 30.8001 40.2308 0.0000 0.0000 0.0000
# 2 30.8001 95.7918 31.4970 0.0000 0.0000 0.0000
# 3 40.2308 31.4970 96.9099 0.0000 0.0000 0.0000
# 4 0.0000 0.0000 0.0000 16.1461 0.0000 0.0000
# 5 0.0000 0.0000 0.0000 0.0000 22.6587 0.0000
# 6 0.0000 0.0000 0.0000 0.0000 0.0000 18.2252
#
#
#
# Elastic Compliance Matrix: (Units=1/GPa)
#
#
# Indices 1 2 3 4 5 6 
#
# 1 0.023162 -0.004798 -0.008056 0.000000 0.000000 0.000000
# 2 -0.004798 0.012683 -0.002130 0.000000 0.000000 0.000000
# 3 -0.008056 -0.002130 0.014355 0.000000 0.000000 0.000000
# 4 0.000000 0.000000 0.000000 0.061935 0.000000 0.000000
# 5 0.000000 0.000000 0.000000 0.000000 0.044133 0.000000
# 6 0.000000 0.000000 0.000000 0.000000 0.000000 0.054869
#
#
# Mechanical properties :
#
#
# Convention : Reuss Voigt Hill
#
# Bulk Modulus (GPa) = 49.42841 51.25620 50.34230
# Shear Modulus (GPa) = 20.17367 21.65415 20.91391
#
# Velocity S-wave (km/s) = 3.54674 3.67458 3.61122
# Velocity P-wave (km/s) = 6.89882 7.06854 6.98420
#
# Compressibility (1/GPa) = 0.02023128
#
# Stress axis : x y z
#
# Youngs Moduli (GPa) = 43.17502 78.84873 69.66059
#
# Poissons Ratio (x) = 0.37835 0.56116
# Poissons Ratio (y) = 0.20717 0.14838
# Poissons Ratio (z) = 0.34780 0.16795
#
# Static dielectric constant tensor:
#      x y z
#    x 3.001570 0.000000 0.000000 
#    y 0.000000 3.048300 0.000000 
#    z 0.000000 0.000000 2.994800 
# 
# 
# High freq. dielectric constant tensor:
#      x y z
#    x 1.603450 0.000000 0.000000 
#    y 0.000000 1.594050 0.000000 
#    z 0.000000 0.000000 1.596810 
# 
# From -- ./inp_files/36339.got.cif
#   From: 2010.03.12/outbox.cif.g09.slc.cpg/sg51_19_cif.got.tgz:36339.got - 2010.04.16 13:43:02.
