data_PCOD8208519
_publ_section_title
;
Structure prediction by ZEFSAII (Michael W. Deem and Ramdas Pophale) SiO2 
 PCOD8208519
Probable space group: P M M A
;
_chemical_formula_sum "Si O2"
_cell_formula_units_Z 64
_cell_length_a 8.963893
_cell_length_b 14.229516
_cell_length_c 28.306786
_cell_angle_alpha 90.000000
_cell_angle_beta 90.000000
_cell_angle_gamma 90.000000
_cell_volume 3610.583173
_symmetry_space_group_name_H-M "P M M A"
_symmetry_group_IT_number 51
_symmetry_cell_setting 'orthorhombic'
loop_
_space_group_symop_operation_xyz
x,y,z
1/2-x,-y,z
1/2+x,-y,-z
-x,y,-z
-x,-y,-z
1/2+x,y,-z
1/2-x,y,z
x,-y,z
loop_
_atom_site_type_symbol
_atom_site_label
_atom_site_fract_x
_atom_site_fract_y
_atom_site_fract_z
Si Si1 0.925012 0.392163 0.049504
Si Si2 0.074456 0.607205 0.680372
Si Si3 0.926053 0.107208 0.548111
Si Si4 0.924466 0.891634 0.175650
Si Si5 0.420629 0.891431 0.272358
Si Si6 0.573758 0.225718 0.637102
Si Si7 0.922203 0.607853 0.776687
Si Si8 0.426258 0.724007 0.131795
O O1 0.750000 0.372956 0.045625
O O2 0.958603 0.500000 0.063596
O O3 0.995895 0.324126 0.087755
O O4 0.000000 0.367119 0.000000
O O5 0.250000 0.618550 0.679314
O O6 0.024970 0.500000 0.670532
O O7 0.002437 0.671996 0.639791
O O8 0.015926 0.640650 0.731469
O O9 0.750000 0.114625 0.542710
O O10 0.984628 0.172502 0.590559
O O11 0.000000 0.144107 0.500000
O O12 0.974786 0.000000 0.558698
O O13 0.750000 0.871084 0.171770
O O14 0.978229 0.863715 0.227998
O O15 0.012443 0.829958 0.137001
O O16 0.962676 0.000000 0.164932
O O17 0.250000 0.866523 0.259189
O O18 0.476613 0.833957 0.317472
O O19 0.437092 0.000000 0.285888
O O20 0.750000 0.238087 0.635337
O O21 0.750000 0.625382 0.764312
O O22 0.954327 0.500000 0.789412
O O23 0.973696 0.667886 0.821353
O O24 0.250000 0.724287 0.123738
#
# Coordination Sequence:
#
# PCOD8208519 Si02
#       8
#     8   8   8   8   8   8   8   8
#     4  10  21  37  57  81 109 138 167 203 249 300
#     4  10  21  34  47  67  97 131 166 206 248 287
#     4   9  18  33  52  75 102 128 155 191 238 292
#     4  10  21  35  49  69 101 138 174 213 254 296
#     4   9  17  30  48  71 100 132 165 201 243 293
#     4  10  19  31  50  73  96 127 165 201 240 290
#     4   9  18  32  49  71 101 135 168 202 243 294
#     4  11  21  33  53  78 103 134 173 213 252 298
#
# _framework density 17.725669
#
# number of rings (size 3 to 8) (size 9 to 14) (size 15 to 20)
#    0.000    2.250    0.000    3.000    0.000    9.250 
#    0.000    1.250    0.000    4.500    0.000    0.000 
#    0.000    0.000    0.000    0.000    0.000    0.000 
#
# Total GULP energy -793811.532586 kJ/mol
# GULP energy per Si atom -12403.305197 kJ/mol
# Density = 1.768532 g / cm^3
# Si number density = 17.725669 Si / 1000 Ang^3
#
#
#
# Elastic Constant Matrix: (Units=GPa)
#
#
# Indices 1 2 3 4 5 6 
#
# 1 65.5792 47.9003 55.0516 0.0000 0.0000 0.0000
# 2 47.9003 102.2912 83.1628 0.0000 0.0000 0.0000
# 3 55.0516 83.1628 121.5751 0.0000 0.0000 0.0000
# 4 0.0000 0.0000 0.0000 30.1287 0.0000 0.0000
# 5 0.0000 0.0000 0.0000 0.0000 30.5946 0.0000
# 6 0.0000 0.0000 0.0000 0.0000 0.0000 27.5348
#
#
#
# Elastic Compliance Matrix: (Units=1/GPa)
#
#
# Indices 1 2 3 4 5 6 
#
# 1 0.026082 -0.005884 -0.007786 0.000000 0.000000 0.000000
# 2 -0.005884 0.023352 -0.013309 0.000000 0.000000 0.000000
# 3 -0.007786 -0.013309 0.020855 0.000000 0.000000 0.000000
# 4 0.000000 0.000000 0.000000 0.033191 0.000000 0.000000
# 5 0.000000 0.000000 0.000000 0.000000 0.032685 0.000000
# 6 0.000000 0.000000 0.000000 0.000000 0.000000 0.036318
#
#
# Mechanical properties :
#
#
# Convention : Reuss Voigt Hill
#
# Bulk Modulus (GPa) = 61.23218 73.51942 67.37580
# Shear Modulus (GPa) = 21.56243 24.54033 23.05138
#
# Velocity S-wave (km/s) = 3.49155 3.72486 3.61009
# Velocity P-wave (km/s) = 7.13260 7.75021 7.44781
#
# Compressibility (1/GPa) = 0.01633128
#
# Stress axis : x y z
#
# Youngs Moduli (GPa) = 38.34022 42.82339 47.94997
#
# Poissons Ratio (x) = 0.25196 0.37333
# Poissons Ratio (y) = 0.22559 0.63818
# Poissons Ratio (z) = 0.29851 0.56995
#
# Static dielectric constant tensor:
#      x y z
#    x 3.231730 0.000000 0.000000 
#    y 0.000000 3.427510 0.000000 
#    z 0.000000 0.000000 3.234130 
# 
# 
# High freq. dielectric constant tensor:
#      x y z
#    x 1.686920 0.000000 0.000000 
#    y 0.000000 1.689690 0.000000 
#    z 0.000000 0.000000 1.667110 
# 
# From -- ./inp_files/34945.got.cif
#   From: 2010.03.12/outbox.cif.g09.slc.cpg/sg51_18_cif.got.tgz:34945.got - 2010.04.16 13:43:02.
