data_PCOD8208513
_publ_section_title
;
Structure prediction by ZEFSAII (Michael W. Deem and Ramdas Pophale) SiO2 
 PCOD8208513
Probable space group: P M M A
;
_chemical_formula_sum "Si O2"
_cell_formula_units_Z 64
_cell_length_a 9.103273
_cell_length_b 14.241837
_cell_length_c 31.106522
_cell_angle_alpha 90.000000
_cell_angle_beta 90.000000
_cell_angle_gamma 90.000000
_cell_volume 4032.877530
_symmetry_space_group_name_H-M "P M M A"
_symmetry_group_IT_number 51
_symmetry_cell_setting 'orthorhombic'
loop_
_space_group_symop_operation_xyz
x,y,z
1/2-x,-y,z
1/2+x,-y,-z
-x,y,-z
-x,-y,-z
1/2+x,y,-z
1/2-x,y,z
x,-y,z
loop_
_atom_site_type_symbol
_atom_site_label
_atom_site_fract_x
_atom_site_fract_y
_atom_site_fract_z
Si Si1 0.424198 0.398130 0.081011
Si Si2 0.080621 0.109572 0.878473
Si Si3 0.416003 0.888022 0.541948
Si Si4 0.079338 0.605844 0.178021
Si Si5 0.584153 0.111833 0.625433
Si Si6 0.423371 0.781235 0.793631
Si Si7 0.578557 0.108845 0.289924
Si Si8 0.575148 0.204623 0.956364
O O1 0.250000 0.399519 0.082708
O O2 0.481033 0.500000 0.063379
O O3 0.481988 0.383577 0.129459
O O4 0.479029 0.312112 0.051733
O O5 0.250000 0.134132 0.889018
O O6 0.024383 0.163920 0.836256
O O7 0.978694 0.138292 0.918174
O O8 0.061219 0.000000 0.869295
O O9 0.500000 0.849671 0.500000
O O10 0.250000 0.849595 0.541360
O O11 0.497074 0.848496 0.584239
O O12 0.416662 0.000000 0.542151
O O13 0.250000 0.631809 0.179860
O O14 0.051984 0.500000 0.194688
O O15 0.991536 0.677404 0.208096
O O16 0.750000 0.150091 0.623815
O O17 0.507236 0.148585 0.668766
O O18 0.581035 0.000000 0.624557
O O19 0.250000 0.773098 0.792917
O O20 0.479472 0.836529 0.751839
O O21 0.750000 0.125373 0.298209
O O22 0.543938 0.000000 0.282037
O O23 0.750000 0.196936 0.960245
O O24 0.500000 0.169058 0.000000
#
# Coordination Sequence:
#
# PCOD8208513 Si02
#       8
#     8   8   8   8   8   8   8   8
#     4   8  15  30  51  72  94 118 140 165 203 251
#     4  10  21  37  54  71  92 117 146 181 218 255
#     4   9  15  22  33  49  70 100 140 186 233 277
#     4   9  17  31  51  72  94 119 143 169 208 257
#     4   9  16  25  36  52  76 106 143 188 230 266
#     4  10  19  31  50  73  94 114 143 182 220 257
#     4   9  17  29  43  60  85 118 150 180 222 270
#     4  11  22  36  54  73  94 118 145 176 211 254
#
# _framework density 15.869562
#
# number of rings (size 3 to 8) (size 9 to 14) (size 15 to 20)
#    0.000    2.625    1.250    2.250    0.000    6.000 
#    0.000    0.000    0.000    3.375    0.000    0.000 
#    0.000    0.000    0.000    0.000    0.000    0.625 
#
# Total GULP energy -793500.581316 kJ/mol
# GULP energy per Si atom -12398.446583 kJ/mol
# Density = 1.583344 g / cm^3
# Si number density = 15.869562 Si / 1000 Ang^3
#
#
#
# Elastic Constant Matrix: (Units=GPa)
#
#
# Indices 1 2 3 4 5 6 
#
# 1 68.9095 24.5062 54.9541 0.0000 0.0000 0.0000
# 2 24.5062 55.7902 35.0939 0.0000 0.0000 0.0000
# 3 54.9541 35.0939 130.8372 0.0000 0.0000 0.0000
# 4 0.0000 0.0000 0.0000 6.6659 0.0000 0.0000
# 5 0.0000 0.0000 0.0000 0.0000 25.8530 0.0000
# 6 0.0000 0.0000 0.0000 0.0000 0.0000 19.8263
#
#
#
# Elastic Compliance Matrix: (Units=1/GPa)
#
#
# Indices 1 2 3 4 5 6 
#
# 1 0.022846 -0.004811 -0.008305 0.000000 0.000000 0.000000
# 2 -0.004811 0.022575 -0.004035 0.000000 0.000000 0.000000
# 3 -0.008305 -0.004035 0.012214 0.000000 0.000000 0.000000
# 4 0.000000 0.000000 0.000000 0.150017 0.000000 0.000000
# 5 0.000000 0.000000 0.000000 0.000000 0.038680 0.000000
# 6 0.000000 0.000000 0.000000 0.000000 0.000000 0.050438
#
#
# Mechanical properties :
#
#
# Convention : Reuss Voigt Hill
#
# Bulk Modulus (GPa) = 42.85711 53.84947 48.35329
# Shear Modulus (GPa) = 14.75581 19.86790 17.31185
#
# Velocity S-wave (km/s) = 3.05260 3.54213 3.30644
# Velocity P-wave (km/s) = 6.28403 7.12286 6.71655
#
# Compressibility (1/GPa) = 0.02333335
#
# Stress axis : x y z
#
# Youngs Moduli (GPa) = 43.77121 44.29595 81.87535
#
# Poissons Ratio (x) = 0.21310 0.68000
# Poissons Ratio (y) = 0.21058 0.33034
# Poissons Ratio (z) = 0.36354 0.17872
#
# Static dielectric constant tensor:
#      x y z
#    x 2.953140 0.000000 0.000000 
#    y 0.000000 2.857210 0.000000 
#    z 0.000000 0.000000 3.060190 
# 
# 
# High freq. dielectric constant tensor:
#      x y z
#    x 1.606630 0.000000 0.000000 
#    y 0.000000 1.569820 0.000000 
#    z 0.000000 0.000000 1.603390 
# 
# From -- ./inp_files/37662.got.cif
#   From: 2010.03.12/outbox.cif.g09.slc.cpg/sg51_19_cif.got.tgz:37662.got - 2010.04.16 13:43:02.
