data_PCOD8208302
_publ_section_title
;
Structure prediction by ZEFSAII (Michael W. Deem and Ramdas Pophale) SiO2 
 PCOD8208302
Probable space group: P M M A
;
_chemical_formula_sum "Si O2"
_cell_formula_units_Z 56
_cell_length_a 8.811239
_cell_length_b 20.163718
_cell_length_c 15.305459
_cell_angle_alpha 90.000000
_cell_angle_beta 90.000000
_cell_angle_gamma 90.000000
_cell_volume 2719.280164
_symmetry_space_group_name_H-M "P M M A"
_symmetry_group_IT_number 51
_symmetry_cell_setting 'orthorhombic'
loop_
_space_group_symop_operation_xyz
x,y,z
1/2-x,-y,z
1/2+x,-y,-z
-x,y,-z
-x,-y,-z
1/2+x,y,-z
1/2-x,y,z
x,-y,z
loop_
_atom_site_type_symbol
_atom_site_label
_atom_site_fract_x
_atom_site_fract_y
_atom_site_fract_z
Si Si1 0.425388 0.925853 0.230366
Si Si2 0.924250 0.243938 0.360440
Si Si3 0.423810 0.425917 0.237893
Si Si4 0.070764 0.384578 0.588087
Si Si5 0.569089 0.798167 0.172947
Si Si6 0.925554 0.100949 0.413236
Si Si7 0.430148 0.675818 0.089389
O O1 0.250000 0.905607 0.236631
O O2 0.510472 0.874199 0.165821
O O3 0.493888 0.926450 0.327578
O O4 0.445213 0.000000 0.191439
O O5 0.750000 0.260471 0.343896
O O6 0.996942 0.309421 0.403134
O O7 0.994337 0.228892 0.265468
O O8 0.946436 0.180301 0.421464
O O9 0.250000 0.409612 0.261343
O O10 0.439303 0.500000 0.198282
O O11 0.521278 0.424344 0.326280
O O12 0.485092 0.373003 0.167073
O O13 0.250000 0.388162 0.578802
O O14 0.000000 0.415887 0.500000
O O15 0.750000 0.798357 0.164436
O O16 0.496005 0.750209 0.100981
O O17 0.750000 0.080611 0.408106
O O18 0.000000 0.069255 0.500000
O O19 0.250000 0.678100 0.082559
O O20 0.500000 0.647174 0.000000
#
# Coordination Sequence:
#
# PCOD8208302 Si02
#       7
#     8   8   8   8   8   8   8
#     4  10  21  36  54  79 112 153 199 243 293 357
#     4   8  16  30  50  77 108 144 188 242 297 349
#     4  10  23  43  63  87 122 162 204 250 300 355
#     4  11  21  35  56  84 118 158 206 253 302 356
#     4  10  19  36  61  88 119 152 193 245 296 353
#     4  10  19  31  47  71 105 147 195 250 304 357
#     4  11  23  40  66  97 126 158 196 244 301 362
#
# _framework density 20.593686000000002
#
# number of rings (size 3 to 8) (size 9 to 14) (size 15 to 20)
#    0.000    2.000    1.429    3.429    0.000    2.857 
#    0.000    1.429    0.000    0.429    0.000    0.000 
#    0.000    0.000    0.000    0.000    0.000    0.000 
#
# Total GULP energy -694278.276570 kJ/mol
# GULP energy per Si atom -12397.826367 kJ/mol
# Density = 2.054681 g / cm^3
# Si number density = 20.593686 Si / 1000 Ang^3
#
#
#
# Elastic Constant Matrix: (Units=GPa)
#
#
# Indices 1 2 3 4 5 6 
#
# 1 102.4136 37.6215 42.1039 0.0000 0.0000 0.0000
# 2 37.6215 109.0368 33.6185 0.0000 0.0000 0.0000
# 3 42.1039 33.6185 99.8075 0.0000 0.0000 0.0000
# 4 0.0000 0.0000 0.0000 8.0502 0.0000 0.0000
# 5 0.0000 0.0000 0.0000 0.0000 32.5661 0.0000
# 6 0.0000 0.0000 0.0000 0.0000 0.0000 23.4602
#
#
#
# Elastic Compliance Matrix: (Units=1/GPa)
#
#
# Indices 1 2 3 4 5 6 
#
# 1 0.012654 -0.003035 -0.004316 0.000000 0.000000 0.000000
# 2 -0.003035 0.010962 -0.002412 0.000000 0.000000 0.000000
# 3 -0.004316 -0.002412 0.012652 0.000000 0.000000 0.000000
# 4 0.000000 0.000000 0.000000 0.124220 0.000000 0.000000
# 5 0.000000 0.000000 0.000000 0.000000 0.030707 0.000000
# 6 0.000000 0.000000 0.000000 0.000000 0.000000 0.042625
#
#
# Mechanical properties :
#
#
# Convention : Reuss Voigt Hill
#
# Bulk Modulus (GPa) = 59.72892 59.77174 59.75033
# Shear Modulus (GPa) = 19.31047 26.00957 22.66002
#
# Velocity S-wave (km/s) = 3.06549 3.55771 3.32073
# Velocity P-wave (km/s) = 6.44951 6.77965 6.61664
#
# Compressibility (1/GPa) = 0.01674231
#
# Stress axis : x y z
#
# Youngs Moduli (GPa) = 79.02927 91.22270 79.03753
#
# Poissons Ratio (x) = 0.27689 0.34109
# Poissons Ratio (y) = 0.23988 0.19064
# Poissons Ratio (z) = 0.34105 0.22003
#
# Static dielectric constant tensor:
#      x y z
#    x 3.572760 0.000000 0.000000 
#    y 0.000000 3.901290 0.000000 
#    z 0.000000 0.000000 3.493410 
# 
# 
# High freq. dielectric constant tensor:
#      x y z
#    x 1.800490 0.000000 0.000000 
#    y 0.000000 1.810840 0.000000 
#    z 0.000000 0.000000 1.780870 
# 
# From -- ./inp_files/21737.got.cif
#   From: 2010.03.12/outbox.cif.g09.slc.cpg/sg51_11_cif.got.tgz:21737.got - 2010.04.16 13:43:02.
