data_PCOD8208075
_publ_section_title
;
Structure prediction by ZEFSAII (Michael W. Deem and Ramdas Pophale) SiO2 
 PCOD8208075
Probable space group: P M M A
;
_chemical_formula_sum "Si O2"
_cell_formula_units_Z 64
_cell_length_a 9.184697
_cell_length_b 15.227103
_cell_length_c 30.084921
_cell_angle_alpha 90.000000
_cell_angle_beta 90.000000
_cell_angle_gamma 90.000000
_cell_volume 4207.566556
_symmetry_space_group_name_H-M "P M M A"
_symmetry_group_IT_number 51
_symmetry_cell_setting 'orthorhombic'
loop_
_space_group_symop_operation_xyz
x,y,z
1/2-x,-y,z
1/2+x,-y,-z
-x,y,-z
-x,-y,-z
1/2+x,y,-z
1/2-x,y,z
x,-y,z
loop_
_atom_site_type_symbol
_atom_site_label
_atom_site_fract_x
_atom_site_fract_y
_atom_site_fract_z
Si Si1 0.081053 0.238046 0.788516
Si Si2 0.085086 0.104719 0.543149
Si Si3 0.585458 0.895455 0.628824
Si Si4 0.080220 0.899372 0.715813
Si Si5 0.913620 0.595283 0.786428
Si Si6 0.919585 0.897524 0.954832
Si Si7 0.414194 0.597020 0.107983
Si Si8 0.078136 0.232599 0.890921
O O1 0.250000 0.256001 0.785418
O O2 0.033538 0.154507 0.759437
O O3 0.035294 0.220959 0.839301
O O4 0.008537 0.325027 0.767572
O O5 0.250000 0.140790 0.542426
O O6 0.000000 0.140129 0.500000
O O7 0.003406 0.141635 0.586704
O O8 0.085800 0.000000 0.543459
O O9 0.750000 0.859200 0.627083
O O10 0.508815 0.862479 0.673832
O O11 0.584221 0.000000 0.627450
O O12 0.250000 0.888631 0.704680
O O13 0.040268 0.000000 0.725965
O O14 0.750000 0.608580 0.769267
O O15 0.972825 0.500000 0.769848
O O16 0.918530 0.596429 0.839285
O O17 0.750000 0.872534 0.958761
O O18 0.994574 0.845540 0.915026
O O19 0.940741 0.000000 0.944641
O O20 0.000000 0.870345 0.000000
O O21 0.250000 0.617392 0.091478
O O22 0.463069 0.500000 0.090479
O O23 0.522674 0.672931 0.090435
O O24 0.250000 0.225341 0.899260
#
# Coordination Sequence:
#
# PCOD8208075 Si02
#       8
#     8   8   8   8   8   8   8   8
#     4   9  18  29  42  63  87 112 142 173 205 241
#     4   9  15  22  33  49  68  90 119 160 208 251
#     4   9  16  25  36  50  68  93 129 170 209 248
#     4   9  17  29  41  52  73 108 145 176 206 242
#     4   8  14  25  41  60  82 108 136 168 207 246
#     4  10  21  37  55  72  89 111 140 173 209 250
#     4   8  14  26  44  65  90 119 146 170 199 238
#     4  10  19  30  47  71  95 116 139 171 209 248
#
# _framework density 15.210692
#
# number of rings (size 3 to 8) (size 9 to 14) (size 15 to 20)
#    0.000    3.000    0.000    2.250    0.000    5.750 
#    0.000    3.750    0.000    1.875    0.000    0.000 
#    0.000    0.000    0.000    0.000    0.000    0.625 
#
# Total GULP energy -793322.700640 kJ/mol
# GULP energy per Si atom -12395.667198 kJ/mol
# Density = 1.517607 g / cm^3
# Si number density = 15.210692 Si / 1000 Ang^3
#
#
#
# Elastic Constant Matrix: (Units=GPa)
#
#
# Indices 1 2 3 4 5 6 
#
# 1 97.2118 46.4515 53.3153 0.0000 0.0000 0.0000
# 2 46.4515 73.7929 46.9471 0.0000 0.0000 0.0000
# 3 53.3153 46.9471 79.4589 0.0000 0.0000 0.0000
# 4 0.0000 0.0000 0.0000 1.1290 0.0000 0.0000
# 5 0.0000 0.0000 0.0000 0.0000 24.2739 0.0000
# 6 0.0000 0.0000 0.0000 0.0000 0.0000 23.5043
#
#
#
# Elastic Compliance Matrix: (Units=1/GPa)
#
#
# Indices 1 2 3 4 5 6 
#
# 1 0.017673 -0.005737 -0.008468 0.000000 0.000000 0.000000
# 2 -0.005737 0.023576 -0.010080 0.000000 0.000000 0.000000
# 3 -0.008468 -0.010080 0.024223 0.000000 0.000000 0.000000
# 4 0.000000 0.000000 0.000000 0.885776 0.000000 0.000000
# 5 0.000000 0.000000 0.000000 0.000000 0.041196 0.000000
# 6 0.000000 0.000000 0.000000 0.000000 0.000000 0.042545
#
#
# Mechanical properties :
#
#
# Convention : Reuss Voigt Hill
#
# Bulk Modulus (GPa) = 59.16984 60.43239 59.80112
# Shear Modulus (GPa) = 4.59055 16.69807 10.64431
#
# Velocity S-wave (km/s) = 1.73912 3.31688 2.64823
# Velocity P-wave (km/s) = 6.55876 7.38142 6.98222
#
# Compressibility (1/GPa) = 0.01690050
#
# Stress axis : x y z
#
# Youngs Moduli (GPa) = 56.58469 42.41654 41.28359
#
# Poissons Ratio (x) = 0.24335 0.34960
# Poissons Ratio (y) = 0.32463 0.41613
# Poissons Ratio (z) = 0.47917 0.42755
#
# Static dielectric constant tensor:
#      x y z
#    x 3.079070 0.000000 0.000000 
#    y 0.000000 2.921720 0.000000 
#    z 0.000000 0.000000 2.814220 
# 
# 
# High freq. dielectric constant tensor:
#      x y z
#    x 1.593960 0.000000 0.000000 
#    y 0.000000 1.551160 0.000000 
#    z 0.000000 0.000000 1.556490 
# 
# From -- ./inp_files/37533.got.cif
#   From: 2010.03.12/outbox.cif.g09.slc.cpg/sg51_19_cif.got.tgz:37533.got - 2010.04.16 13:43:02.
