data_PCOD8208003
_publ_section_title
;
Structure prediction by ZEFSAII (Michael W. Deem and Ramdas Pophale) SiO2 
 PCOD8208003
Probable space group: P M M A
;
_chemical_formula_sum "Si O2"
_cell_formula_units_Z 64
_cell_length_a 9.356599
_cell_length_b 13.695052
_cell_length_c 33.901127
_cell_angle_alpha 90.000000
_cell_angle_beta 90.000000
_cell_angle_gamma 90.000000
_cell_volume 4344.060237
_symmetry_space_group_name_H-M "P M M A"
_symmetry_group_IT_number 51
_symmetry_cell_setting 'orthorhombic'
loop_
_space_group_symop_operation_xyz
x,y,z
1/2-x,-y,z
1/2+x,-y,-z
-x,y,-z
-x,-y,-z
1/2+x,y,-z
1/2-x,y,z
x,-y,z
loop_
_atom_site_type_symbol
_atom_site_label
_atom_site_fract_x
_atom_site_fract_y
_atom_site_fract_z
Si Si1 0.591211 0.616027 0.610200
Si Si2 0.413021 0.707618 0.765611
Si Si3 0.583702 0.611719 0.152590
Si Si4 0.910962 0.616476 0.462681
Si Si5 0.081246 0.784205 0.118282
Si Si6 0.086099 0.889550 0.815315
Si Si7 0.084118 0.888581 0.038026
Si Si8 0.918967 0.610305 0.697917
O O1 0.750000 0.658213 0.601942
O O2 0.598863 0.500000 0.607866
O O3 0.483009 0.657455 0.577350
O O4 0.537991 0.645899 0.653916
O O5 0.250000 0.691456 0.752682
O O6 0.452272 0.637375 0.802164
O O7 0.442743 0.819679 0.777944
O O8 0.511648 0.683891 0.728707
O O9 0.750000 0.632760 0.144123
O O10 0.542936 0.500000 0.144482
O O11 0.488976 0.677804 0.123601
O O12 0.750000 0.657256 0.465259
O O13 0.910333 0.500000 0.462525
O O14 0.000000 0.655873 0.500000
O O15 0.250000 0.777599 0.125447
O O16 0.043285 0.820584 0.074671
O O17 0.016564 0.861819 0.148786
O O18 0.250000 0.875894 0.829524
O O19 0.054397 0.000000 0.801992
O O20 0.250000 0.881394 0.028010
O O21 0.040192 0.000000 0.048002
O O22 0.000000 0.849388 0.000000
O O23 0.750000 0.613738 0.702899
O O24 0.974724 0.500000 0.705402
#
# Coordination Sequence:
#
# PCOD8208003 Si02
#       8
#     8   8   8   8   8   8   8   8
#     4   8  14  24  34  44  62  89 121 156 192 230
#     4   9  17  28  42  60  79 101 132 168 202 234
#     4   9  18  32  47  63  85 113 144 174 203 239
#     4   9  15  21  30  44  61  83 114 153 195 235
#     4  10  19  30  46  69  93 112 134 169 208 242
#     4   9  18  32  47  62  83 112 142 168 198 241
#     4   9  18  31  46  66  91 115 137 163 198 241
#     4   9  17  27  38  53  75 103 132 163 201 242
#
# _framework density 14.732761
#
# number of rings (size 3 to 8) (size 9 to 14) (size 15 to 20)
#    0.000    3.000    0.000    3.000    0.000    6.750 
#    0.000    2.500    0.000    0.375    0.000    0.000 
#    0.000    0.000    0.000    0.000    0.000    0.625 
#
# Total GULP energy -793461.437755 kJ/mol
# GULP energy per Si atom -12397.834965 kJ/mol
# Density = 1.469923 g / cm^3
# Si number density = 14.732761 Si / 1000 Ang^3
#
#
#
# Elastic Constant Matrix: (Units=GPa)
#
#
# Indices 1 2 3 4 5 6 
#
# 1 78.4844 36.9143 67.3110 0.0000 0.0000 0.0000
# 2 36.9143 78.4137 47.8639 0.0000 0.0000 0.0000
# 3 67.3110 47.8639 123.5375 0.0000 0.0000 0.0000
# 4 0.0000 0.0000 0.0000 11.9766 0.0000 0.0000
# 5 0.0000 0.0000 0.0000 0.0000 30.2140 0.0000
# 6 0.0000 0.0000 0.0000 0.0000 0.0000 17.7701
#
#
#
# Elastic Compliance Matrix: (Units=1/GPa)
#
#
# Indices 1 2 3 4 5 6 
#
# 1 0.025095 -0.004542 -0.011914 0.000000 0.000000 0.000000
# 2 -0.004542 0.017525 -0.004315 0.000000 0.000000 0.000000
# 3 -0.011914 -0.004315 0.016258 0.000000 0.000000 0.000000
# 4 0.000000 0.000000 0.000000 0.083496 0.000000 0.000000
# 5 0.000000 0.000000 0.000000 0.000000 0.033097 0.000000
# 6 0.000000 0.000000 0.000000 0.000000 0.000000 0.056274
#
#
# Mechanical properties :
#
#
# Convention : Reuss Voigt Hill
#
# Bulk Modulus (GPa) = 57.68153 64.95714 61.31933
# Shear Modulus (GPa) = 17.91687 20.54857 19.23272
#
# Velocity S-wave (km/s) = 3.49108 3.73869 3.61701
# Velocity P-wave (km/s) = 7.44896 7.92610 7.69123
#
# Compressibility (1/GPa) = 0.01733657
#
# Stress axis : x y z
#
# Youngs Moduli (GPa) = 39.84821 57.06117 61.50789
#
# Poissons Ratio (x) = 0.25916 0.73279
# Poissons Ratio (y) = 0.18098 0.26543
# Poissons Ratio (z) = 0.47474 0.24624
#
# Static dielectric constant tensor:
#      x y z
#    x 2.931420 0.000000 0.000000 
#    y 0.000000 2.641980 0.000000 
#    z 0.000000 0.000000 2.874730 
# 
# 
# High freq. dielectric constant tensor:
#      x y z
#    x 1.570520 0.000000 0.000000 
#    y 0.000000 1.520140 0.000000 
#    z 0.000000 0.000000 1.559060 
# 
# From -- ./inp_files/37562.got.cif
#   From: 2010.03.12/outbox.cif.g09.slc.cpg/sg51_19_cif.got.tgz:37562.got - 2010.04.16 13:43:02.
