data_PCOD8208756
_publ_section_title
;
Structure prediction by ZEFSAII (Michael W. Deem and Ramdas Pophale) SiO2 
 PCOD8208756
Probable space group: P M M A
;
_chemical_formula_sum "Si O2"
_cell_formula_units_Z 64
_cell_length_a 22.546755
_cell_length_b 9.580023
_cell_length_c 16.240742
_cell_angle_alpha 90.000000
_cell_angle_beta 90.000000
_cell_angle_gamma 90.000000
_cell_volume 3507.974798
_symmetry_space_group_name_H-M "P M M A"
_symmetry_group_IT_number 51
_symmetry_cell_setting 'orthorhombic'
loop_
_space_group_symop_operation_xyz
x,y,z
1/2-x,-y,z
1/2+x,-y,-z
-x,y,-z
-x,-y,-z
1/2+x,y,-z
1/2-x,y,z
x,-y,z
loop_
_atom_site_type_symbol
_atom_site_label
_atom_site_fract_x
_atom_site_fract_y
_atom_site_fract_z
Si Si1 0.180816 0.337375 0.158256
Si Si2 0.182325 0.153181 0.476461
Si Si3 0.990434 0.663905 0.591323
Si Si4 0.077292 0.660159 0.730558
Si Si5 0.138347 0.661597 0.340215
Si Si6 0.589294 0.161802 0.940278
Si Si7 0.182376 0.342085 0.620903
Si Si8 0.039502 0.838465 0.882203
O O1 0.250000 0.291787 0.160483
O O2 0.175589 0.500000 0.136664
O O3 0.149016 0.304303 0.244817
O O4 0.145468 0.252057 0.088860
O O5 0.250000 0.131276 0.500089
O O6 0.181036 0.238011 0.391436
O O7 0.153709 0.243943 0.550225
O O8 0.151542 0.000000 0.469153
O O9 0.999519 0.500000 0.583230
O O10 0.927333 0.701987 0.630505
O O11 0.000000 0.730973 0.500000
O O12 0.038708 0.722611 0.655271
O O13 0.059506 0.500000 0.748706
O O14 0.145984 0.675230 0.705127
O O15 0.068552 0.747366 0.811988
O O16 0.153537 0.500000 0.358253
O O17 0.577310 0.191536 0.036000
O O18 0.604284 0.000000 0.925309
O O19 0.529414 0.204041 0.891832
O O20 0.250000 0.304567 0.641985
O O21 0.176284 0.500000 0.587061
O O22 0.043922 0.000000 0.858338
#
# Coordination Sequence:
#
# PCOD8208756 Si02
#       8
#     8   8   8   8   8   8   8   8
#     4  10  21  35  52  78 110 142 179 223 267 314
#     4  10  20  32  47  69  96 128 170 215 252 290
#     4   9  17  29  47  73 103 134 170 211 252 297
#     4  10  19  32  53  79 103 131 169 209 253 306
#     4  10  19  32  50  70  98 137 174 209 255 309
#     4   9  19  37  58  78 103 137 173 208 256 318
#     4   9  18  33  52  72  96 129 167 205 248 300
#     4   9  19  36  57  80 105 133 168 213 261 311
#
# _framework density 18.244145
#
# number of rings (size 3 to 8) (size 9 to 14) (size 15 to 20)
#    0.000    2.500    0.000    3.000    0.000    6.500 
#    0.000    2.500    0.000    3.750    0.000    0.000 
#    0.000    0.000    0.000    0.000    0.000    0.000 
#
# Total GULP energy -793423.070821 kJ/mol
# GULP energy per Si atom -12397.235482 kJ/mol
# Density = 1.820262 g / cm^3
# Si number density = 18.244145 Si / 1000 Ang^3
#
#
#
# Elastic Constant Matrix: (Units=GPa)
#
#
# Indices 1 2 3 4 5 6 
#
# 1 92.9157 44.6484 55.5781 0.0000 0.0000 0.0000
# 2 44.6484 80.5354 59.6418 0.0000 0.0000 0.0000
# 3 55.5781 59.6418 114.1932 0.0000 0.0000 0.0000
# 4 0.0000 0.0000 0.0000 15.8025 0.0000 0.0000
# 5 0.0000 0.0000 0.0000 0.0000 30.0938 0.0000
# 6 0.0000 0.0000 0.0000 0.0000 0.0000 25.0505
#
#
#
# Elastic Compliance Matrix: (Units=1/GPa)
#
#
# Indices 1 2 3 4 5 6 
#
# 1 0.016414 -0.005192 -0.005277 0.000000 0.000000 0.000000
# 2 -0.005192 0.021891 -0.008907 0.000000 0.000000 0.000000
# 3 -0.005277 -0.008907 0.015977 0.000000 0.000000 0.000000
# 4 0.000000 0.000000 0.000000 0.063281 0.000000 0.000000
# 5 0.000000 0.000000 0.000000 0.000000 0.033229 0.000000
# 6 0.000000 0.000000 0.000000 0.000000 0.000000 0.039919
#
#
# Mechanical properties :
#
#
# Convention : Reuss Voigt Hill
#
# Bulk Modulus (GPa) = 64.38600 67.48677 65.93638
# Shear Modulus (GPa) = 21.30927 22.70777 22.00852
#
# Velocity S-wave (km/s) = 3.42132 3.53180 3.47700
# Velocity P-wave (km/s) = 7.13969 7.32821 7.23457
#
# Compressibility (1/GPa) = 0.01553133
#
# Stress axis : x y z
#
# Youngs Moduli (GPa) = 60.92481 45.68064 62.58889
#
# Poissons Ratio (x) = 0.23716 0.33028
# Poissons Ratio (y) = 0.31630 0.55746
# Poissons Ratio (z) = 0.32150 0.40686
#
# Static dielectric constant tensor:
#      x y z
#    x 3.371870 0.000000 0.000000 
#    y 0.000000 3.328660 0.000000 
#    z 0.000000 0.000000 3.264190 
# 
# 
# High freq. dielectric constant tensor:
#      x y z
#    x 1.705990 0.000000 0.000000 
#    y 0.000000 1.692060 0.000000 
#    z 0.000000 0.000000 1.700710 
# 
# From -- ./inp_files/26334.got.cif
#   From: 2010.03.12/outbox.cif.g09.slc.cpg/sg51_14_cif.got.tgz:26334.got - 2010.04.16 13:43:02.
