data_PCOD8208779
_publ_section_title
;
Structure prediction by ZEFSAII (Michael W. Deem and Ramdas Pophale) SiO2 
 PCOD8208779
Probable space group: P M M A
;
_chemical_formula_sum "Si O2"
_cell_formula_units_Z 64
_cell_length_a 8.884716
_cell_length_b 20.428355
_cell_length_c 19.691205
_cell_angle_alpha 90.000000
_cell_angle_beta 90.000000
_cell_angle_gamma 90.000000
_cell_volume 3573.956317
_symmetry_space_group_name_H-M "P M M A"
_symmetry_group_IT_number 51
_symmetry_cell_setting 'orthorhombic'
loop_
_space_group_symop_operation_xyz
x,y,z
1/2-x,-y,z
1/2+x,-y,-z
-x,y,-z
-x,-y,-z
1/2+x,y,-z
1/2-x,y,z
x,-y,z
loop_
_atom_site_type_symbol
_atom_site_label
_atom_site_fract_x
_atom_site_fract_y
_atom_site_fract_z
Si Si1 0.428927 0.266717 0.794715
Si Si2 0.584896 0.885618 0.935280
Si Si3 0.927748 0.196201 0.426535
Si Si4 0.077990 0.926905 0.661389
Si Si5 0.928821 0.126787 0.788386
Si Si6 0.071754 0.309026 0.336457
Si Si7 0.074048 0.573304 0.430840
Si Si8 0.419129 0.270278 0.066548
O O1 0.250000 0.268756 0.793405
O O2 0.484917 0.194320 0.776463
O O3 0.498373 0.314137 0.737838
O O4 0.487168 0.291739 0.867467
O O5 0.750000 0.915227 0.941570
O O6 0.518814 0.904850 0.860917
O O7 0.585359 0.807565 0.938895
O O8 0.500000 0.916140 0.000000
O O9 0.750000 0.207915 0.431748
O O10 0.967431 0.124542 0.396756
O O11 0.000000 0.202421 0.500000
O O12 0.999447 0.249632 0.377613
O O13 0.250000 0.915015 0.684308
O O14 0.972214 0.921154 0.727502
O O15 0.055609 0.000000 0.631635
O O16 0.750000 0.140411 0.790313
O O17 0.250000 0.297739 0.331626
O O18 0.028989 0.377745 0.370969
O O19 0.250000 0.573982 0.443680
O O20 0.017474 0.500000 0.412255
O O21 0.000000 0.598876 0.500000
O O22 0.250000 0.298410 0.071385
O O23 0.500000 0.299894 0.000000
#
# Coordination Sequence:
#
# PCOD8208779 Si02
#       8
#     8   8   8   8   8   8   8   8
#     4  11  20  30  47  72 103 138 173 213 260 308
#     4   8  15  25  40  65  93 122 156 197 241 293
#     4  11  23  38  56  78 103 131 165 208 257 312
#     4  10  22  39  56  74  97 128 167 211 260 315
#     4  10  19  32  50  72  98 127 166 210 256 308
#     4  11  21  34  54  79 108 139 174 216 256 304
#     4   9  19  35  54  77 106 141 178 214 255 303
#     4   9  16  27  42  65  98 135 173 212 256 306
#
# _framework density 17.907325
#
# number of rings (size 3 to 8) (size 9 to 14) (size 15 to 20)
#    0.000    2.125    1.250    3.750    0.000    6.500 
#    0.000    0.000    0.000    0.375    0.000    0.000 
#    0.000    0.500    0.000    1.375    0.000    2.125 
#
# Total GULP energy -793471.958192 kJ/mol
# GULP energy per Si atom -12397.999347 kJ/mol
# Density = 1.786657 g / cm^3
# Si number density = 17.907325 Si / 1000 Ang^3
#
#
#
# Elastic Constant Matrix: (Units=GPa)
#
#
# Indices 1 2 3 4 5 6 
#
# 1 99.5252 32.8747 53.5117 0.0000 0.0000 0.0000
# 2 32.8747 64.9499 41.8311 0.0000 0.0000 0.0000
# 3 53.5117 41.8311 136.0103 0.0000 0.0000 0.0000
# 4 0.0000 0.0000 0.0000 7.0668 0.0000 0.0000
# 5 0.0000 0.0000 0.0000 0.0000 35.6101 0.0000
# 6 0.0000 0.0000 0.0000 0.0000 0.0000 15.5056
#
#
#
# Elastic Compliance Matrix: (Units=1/GPa)
#
#
# Indices 1 2 3 4 5 6 
#
# 1 0.013643 -0.004300 -0.004045 0.000000 0.000000 0.000000
# 2 -0.004300 0.020555 -0.004630 0.000000 0.000000 0.000000
# 3 -0.004045 -0.004630 0.010368 0.000000 0.000000 0.000000
# 4 0.000000 0.000000 0.000000 0.141507 0.000000 0.000000
# 5 0.000000 0.000000 0.000000 0.000000 0.028082 0.000000
# 6 0.000000 0.000000 0.000000 0.000000 0.000000 0.064493
#
#
# Mechanical properties :
#
#
# Convention : Reuss Voigt Hill
#
# Bulk Modulus (GPa) = 53.71935 61.88006 57.79970
# Shear Modulus (GPa) = 16.08731 23.12101 19.60416
#
# Velocity S-wave (km/s) = 3.00052 3.59715 3.31230
# Velocity P-wave (km/s) = 6.48597 7.20301 6.85388
#
# Compressibility (1/GPa) = 0.01861527
#
# Stress axis : x y z
#
# Youngs Moduli (GPa) = 73.29716 48.64988 96.45158
#
# Poissons Ratio (x) = 0.20921 0.39016
# Poissons Ratio (y) = 0.31520 0.44657
# Poissons Ratio (z) = 0.29650 0.22525
#
# Static dielectric constant tensor:
#      x y z
#    x 3.443600 0.000000 0.000000 
#    y 0.000000 3.071490 0.000000 
#    z 0.000000 0.000000 3.553590 
# 
# 
# High freq. dielectric constant tensor:
#      x y z
#    x 1.702560 0.000000 0.000000 
#    y 0.000000 1.644150 0.000000 
#    z 0.000000 0.000000 1.705660 
# 
# From -- ./inp_files/28322.got.cif
#   From: 2010.03.12/outbox.cif.g09.slc.cpg/sg51_15_cif.got.tgz:28322.got - 2010.04.16 13:43:02.
