data_PCOD8208284
_publ_section_title
;
Structure prediction by ZEFSAII (Michael W. Deem and Ramdas Pophale) SiO2 
 PCOD8208284
Probable space group: P M M A
;
_chemical_formula_sum "Si O2"
_cell_formula_units_Z 64
_cell_length_a 8.811198
_cell_length_b 18.528960
_cell_length_c 22.838762
_cell_angle_alpha 90.000000
_cell_angle_beta 90.000000
_cell_angle_gamma 90.000000
_cell_volume 3728.709619
_symmetry_space_group_name_H-M "P M M A"
_symmetry_group_IT_number 51
_symmetry_cell_setting 'orthorhombic'
loop_
_space_group_symop_operation_xyz
x,y,z
1/2-x,-y,z
1/2+x,-y,-z
-x,y,-z
-x,-y,-z
1/2+x,y,-z
1/2-x,y,z
x,-y,z
loop_
_atom_site_type_symbol
_atom_site_label
_atom_site_fract_x
_atom_site_fract_y
_atom_site_fract_z
Si Si1 0.423043 0.703172 0.756873
Si Si2 0.573672 0.228380 0.555597
Si Si3 0.930065 0.383050 0.439575
Si Si4 0.430709 0.918205 0.062871
Si Si5 0.076791 0.581455 0.317591
Si Si6 0.919465 0.192865 0.841637
Si Si7 0.916333 0.921258 0.740050
Si Si8 0.918832 0.173649 0.338958
O O1 0.250000 0.682079 0.769557
O O2 0.508174 0.631948 0.733499
O O3 0.488654 0.736959 0.817828
O O4 0.437726 0.760494 0.705284
O O5 0.500000 0.187398 0.500000
O O6 0.750000 0.246536 0.546940
O O7 0.474080 0.299815 0.564002
O O8 0.546826 0.179152 0.611616
O O9 0.750000 0.393183 0.441665
O O10 0.000000 0.416875 0.500000
O O11 0.991198 0.418711 0.380091
O O12 0.250000 0.913886 0.060506
O O13 0.492419 0.852346 0.104085
O O14 0.478456 0.000000 0.083479
O O15 0.500000 0.901993 0.000000
O O16 0.250000 0.606120 0.328701
O O17 0.068540 0.500000 0.293159
O O18 0.750000 0.220116 0.857074
O O19 0.914638 0.133690 0.792171
O O20 0.750000 0.920504 0.709859
O O21 0.045707 0.900925 0.693557
O O22 0.955323 0.000000 0.765214
O O23 0.750000 0.171242 0.365547
#
# Coordination Sequence:
#
# PCOD8208284 Si02
#       8
#     8   8   8   8   8   8   8   8
#     4  10  20  33  50  71  96 124 160 203 246 291
#     4  11  20  31  49  69  90 115 148 190 234 284
#     4  11  21  34  51  71  95 124 157 196 241 293
#     4   9  17  29  46  71 105 145 183 216 250 289
#     4  11  23  37  53  72  96 128 163 200 246 300
#     4   9  17  30  49  70  97 133 171 209 245 283
#     4   9  17  29  46  68  92 121 158 197 237 283
#     4  10  19  31  47  68  92 118 149 189 237 287
#
# _framework density 17.164114000000001
#
# number of rings (size 3 to 8) (size 9 to 14) (size 15 to 20)
#    0.000    2.000    1.250    4.500    0.000    4.500 
#    0.000    0.000    0.000    2.625    0.000    0.000 
#    0.000    0.500    0.000    1.625    0.000    2.000 
#
# Total GULP energy -792968.639980 kJ/mol
# GULP energy per Si atom -12390.135000 kJ/mol
# Density = 1.712505 g / cm^3
# Si number density = 17.164114 Si / 1000 Ang^3
#
#
#
# Elastic Constant Matrix: (Units=GPa)
#
#
# Indices 1 2 3 4 5 6 
#
# 1 108.5721 35.4831 39.9239 0.0000 0.0000 0.0000
# 2 35.4831 69.0717 36.8945 0.0000 0.0000 0.0000
# 3 39.9239 36.8945 79.9109 0.0000 0.0000 0.0000
# 4 0.0000 0.0000 0.0000 21.8711 0.0000 0.0000
# 5 0.0000 0.0000 0.0000 0.0000 26.6967 0.0000
# 6 0.0000 0.0000 0.0000 0.0000 0.0000 15.3581
#
#
#
# Elastic Compliance Matrix: (Units=1/GPa)
#
#
# Indices 1 2 3 4 5 6 
#
# 1 0.012042 -0.003946 -0.004195 0.000000 0.000000 0.000000
# 2 -0.003946 0.020510 -0.007498 0.000000 0.000000 0.000000
# 3 -0.004195 -0.007498 0.018071 0.000000 0.000000 0.000000
# 4 0.000000 0.000000 0.000000 0.045723 0.000000 0.000000
# 5 0.000000 0.000000 0.000000 0.000000 0.037458 0.000000
# 6 0.000000 0.000000 0.000000 0.000000 0.000000 0.065112
#
#
# Mechanical properties :
#
#
# Convention : Reuss Voigt Hill
#
# Bulk Modulus (GPa) = 51.68830 53.57307 52.63068
# Shear Modulus (GPa) = 21.12896 22.46871 21.79884
#
# Velocity S-wave (km/s) = 3.51236 3.62201 3.56761
# Velocity P-wave (km/s) = 6.82850 6.98369 6.90653
#
# Compressibility (1/GPa) = 0.01934674
#
# Stress axis : x y z
#
# Youngs Moduli (GPa) = 83.03926 48.75738 55.33604
#
# Poissons Ratio (x) = 0.19239 0.23212
# Poissons Ratio (y) = 0.32766 0.41490
# Poissons Ratio (z) = 0.34833 0.36558
#
# Static dielectric constant tensor:
#      x y z
#    x 3.370430 0.000000 0.000000 
#    y 0.000000 3.114850 0.000000 
#    z 0.000000 0.000000 3.341810 
# 
# 
# High freq. dielectric constant tensor:
#      x y z
#    x 1.671730 0.000000 0.000000 
#    y 0.000000 1.637370 0.000000 
#    z 0.000000 0.000000 1.638140 
# 
# From -- ./inp_files/35163.got.cif
#   From: 2010.03.12/outbox.cif.g09.slc.cpg/sg51_18_cif.got.tgz:35163.got - 2010.04.16 13:43:02.
