data_PCOD8208702
_publ_section_title
;
Structure prediction by ZEFSAII (Michael W. Deem and Ramdas Pophale) SiO2 
 PCOD8208702
Probable space group: P M M A
;
_chemical_formula_sum "Si O2"
_cell_formula_units_Z 60
_cell_length_a 10.804099
_cell_length_b 12.997737
_cell_length_c 24.549238
_cell_angle_alpha 90.000000
_cell_angle_beta 90.000000
_cell_angle_gamma 90.000000
_cell_volume 3447.420950
_symmetry_space_group_name_H-M "P M M A"
_symmetry_group_IT_number 51
_symmetry_cell_setting 'orthorhombic'
loop_
_space_group_symop_operation_xyz
x,y,z
1/2-x,-y,z
1/2+x,-y,-z
-x,y,-z
-x,-y,-z
1/2+x,y,-z
1/2-x,y,z
x,-y,z
loop_
_atom_site_type_symbol
_atom_site_label
_atom_site_fract_x
_atom_site_fract_y
_atom_site_fract_z
Si Si1 0.610358 0.380863 0.959532
Si Si2 0.892422 0.700696 0.841979
Si Si3 0.893034 0.385584 0.594672
Si Si4 0.979637 0.757564 0.317866
Si Si5 0.889692 0.111323 0.412827
Si Si6 0.392642 0.112431 0.228084
Si Si7 0.112985 0.383928 0.772569
Si Si8 0.000000 0.261003 0.500000
O O1 0.750000 0.363895 0.984132
O O2 0.594101 0.500000 0.942922
O O3 0.593982 0.310676 0.906480
O O4 0.500000 0.347369 0.000000
O O5 0.750000 0.670003 0.824249
O O6 0.920573 0.819110 0.825706
O O7 0.997727 0.631507 0.813558
O O8 0.750000 0.394609 0.606435
O O9 0.952979 0.500000 0.594163
O O10 0.911563 0.333046 0.535925
O O11 0.947242 0.320076 0.643790
O O12 0.902621 0.836692 0.354013
O O13 0.890871 0.692192 0.278792
O O14 0.071331 0.825463 0.281837
O O15 0.750000 0.084660 0.422684
O O16 0.925061 0.188303 0.460269
O O17 0.961464 0.000000 0.415117
O O18 0.250000 0.090606 0.233472
O O19 0.459759 0.000000 0.223296
O O20 0.250000 0.367408 0.800180
O O21 0.102348 0.500000 0.750747
#
# Coordination Sequence:
#
# PCOD8208702 Si02
#       8
#     8   8   8   8   8   8   8   4
#     4   9  17  29  46  70  99 130 165 203 242 285
#     4   9  18  32  50  72  99 132 168 205 244 285
#     4  10  20  33  49  69  92 119 153 190 230 281
#     4  10  19  32  48  68  94 123 152 188 234 282
#     4  10  20  33  49  67  86 111 145 184 228 279
#     4   9  17  30  49  72  96 123 159 200 240 283
#     4  10  20  32  47  70 100 131 162 196 237 287
#     4  10  20  34  50  66  88 114 144 186 234 280
#
# _framework density 17.404315
#
# number of rings (size 3 to 8) (size 9 to 14) (size 15 to 20)
#    0.000    2.400    0.000    2.800    0.000    1.867 
#    0.000    1.333    0.000   16.800    0.000    0.000 
#    0.000    0.000    0.000    0.000    0.000    0.000 
#
# Total GULP energy -743409.726462 kJ/mol
# GULP energy per Si atom -12390.162108 kJ/mol
# Density = 1.736470 g / cm^3
# Si number density = 17.404315 Si / 1000 Ang^3
#
#
#
# Elastic Constant Matrix: (Units=GPa)
#
#
# Indices 1 2 3 4 5 6 
#
# 1 84.2017 37.4047 42.0843 0.0000 0.0000 0.0000
# 2 37.4047 125.6874 46.5738 0.0000 0.0000 0.0000
# 3 42.0843 46.5738 96.0961 0.0000 0.0000 0.0000
# 4 0.0000 0.0000 0.0000 18.9862 0.0000 0.0000
# 5 0.0000 0.0000 0.0000 0.0000 19.8697 0.0000
# 6 0.0000 0.0000 0.0000 0.0000 0.0000 20.0192
#
#
#
# Elastic Compliance Matrix: (Units=1/GPa)
#
#
# Indices 1 2 3 4 5 6 
#
# 1 0.015882 -0.002620 -0.005686 0.000000 0.000000 0.000000
# 2 -0.002620 0.010130 -0.003762 0.000000 0.000000 0.000000
# 3 -0.005686 -0.003762 0.014720 0.000000 0.000000 0.000000
# 4 0.000000 0.000000 0.000000 0.052670 0.000000 0.000000
# 5 0.000000 0.000000 0.000000 0.000000 0.050328 0.000000
# 6 0.000000 0.000000 0.000000 0.000000 0.000000 0.049952
#
#
# Mechanical properties :
#
#
# Convention : Reuss Voigt Hill
#
# Bulk Modulus (GPa) = 60.25479 62.01231 61.13355
# Shear Modulus (GPa) = 22.38657 23.76984 23.07820
#
# Velocity S-wave (km/s) = 3.59035 3.69961 3.64539
# Velocity P-wave (km/s) = 7.20300 7.34556 7.27463
#
# Compressibility (1/GPa) = 0.01659619
#
# Stress axis : x y z
#
# Youngs Moduli (GPa) = 62.96589 98.71669 67.93633
#
# Poissons Ratio (x) = 0.25860 0.38626
# Poissons Ratio (y) = 0.16494 0.25560
# Poissons Ratio (z) = 0.35800 0.37141
#
# Static dielectric constant tensor:
#      x y z
#    x 3.236580 0.000000 0.000000 
#    y 0.000000 3.315800 0.000000 
#    z 0.000000 0.000000 3.233810 
# 
# 
# High freq. dielectric constant tensor:
#      x y z
#    x 1.668010 0.000000 0.000000 
#    y 0.000000 1.682130 0.000000 
#    z 0.000000 0.000000 1.658220 
# 
# From -- ./inp_files/35434.got.cif
#   From: 2010.03.12/outbox.cif.g09.slc.cpg/sg51_18_cif.got.tgz:35434.got - 2010.04.16 13:43:02.
