data_PCOD8208277
_publ_section_title
;
Structure prediction by ZEFSAII (Michael W. Deem and Ramdas Pophale) SiO2 
 PCOD8208277
Probable space group: P M M A
;
_chemical_formula_sum "Si O2"
_cell_formula_units_Z 56
_cell_length_a 9.010958
_cell_length_b 18.600782
_cell_length_c 19.082049
_cell_angle_alpha 90.000000
_cell_angle_beta 90.000000
_cell_angle_gamma 90.000000
_cell_volume 3198.358746
_symmetry_space_group_name_H-M "P M M A"
_symmetry_group_IT_number 51
_symmetry_cell_setting 'orthorhombic'
loop_
_space_group_symop_operation_xyz
x,y,z
1/2-x,-y,z
1/2+x,-y,-z
-x,y,-z
-x,-y,-z
1/2+x,y,-z
1/2-x,y,z
x,-y,z
loop_
_atom_site_type_symbol
_atom_site_label
_atom_site_fract_x
_atom_site_fract_y
_atom_site_fract_z
Si Si1 0.423223 0.289993 0.699814
Si Si2 0.079347 0.807363 0.067329
Si Si3 0.577557 0.832254 0.780540
Si Si4 0.424559 0.642597 0.070159
Si Si5 0.576352 0.078383 0.650793
Si Si6 0.919640 0.418346 0.202948
Si Si7 0.426984 0.780424 0.426277
O O1 0.250000 0.279001 0.683310
O O2 0.474280 0.233608 0.758522
O O3 0.458365 0.369003 0.729973
O O4 0.516890 0.279051 0.628749
O O5 0.250000 0.809967 0.048596
O O6 0.043339 0.851796 0.138411
O O7 0.026965 0.725522 0.079879
O O8 0.000000 0.842531 0.000000
O O9 0.750000 0.808447 0.771823
O O10 0.542588 0.900784 0.731625
O O11 0.250000 0.633532 0.062833
O O12 0.477208 0.598128 0.137009
O O13 0.500000 0.611050 0.000000
O O14 0.750000 0.072084 0.638713
O O15 0.515818 0.140586 0.599214
O O16 0.502569 0.000000 0.635220
O O17 0.750000 0.404696 0.179778
O O18 0.946344 0.500000 0.227154
O O19 0.500000 0.762592 0.500000
O O20 0.250000 0.776964 0.431260
#
# Coordination Sequence:
#
# PCOD8208277 Si02
#       7
#     8   8   8   8   8   8   8
#     4  10  19  32  52  74  97 125 160 198 240 287
#     4   9  17  27  42  65  91 121 160 206 251 288
#     4   9  16  29  48  69  95 126 163 206 244 284
#     4  10  19  31  47  67  95 128 166 207 251 299
#     4   8  15  28  48  74 102 132 162 192 231 279
#     4  10  21  35  50  70  97 129 164 203 248 296
#     4  10  20  34  54  78 105 131 160 194 230 276
#
# _framework density 17.508980000000001
#
# number of rings (size 3 to 8) (size 9 to 14) (size 15 to 20)
#    0.000    2.571    1.429    2.143    0.000    2.571 
#    0.000    0.000    0.000   11.143    0.000    0.000 
#    0.000    0.000    0.000    0.000    0.000    0.000 
#
# Total GULP energy -694198.872106 kJ/mol
# GULP energy per Si atom -12396.408430 kJ/mol
# Density = 1.746913 g / cm^3
# Si number density = 17.508980 Si / 1000 Ang^3
#
#
#
# Elastic Constant Matrix: (Units=GPa)
#
#
# Indices 1 2 3 4 5 6 
#
# 1 63.0672 27.5269 45.9518 0.0000 0.0000 0.0000
# 2 27.5269 63.5618 36.8650 0.0000 0.0000 0.0000
# 3 45.9518 36.8650 135.4970 0.0000 0.0000 0.0000
# 4 0.0000 0.0000 0.0000 17.2487 0.0000 0.0000
# 5 0.0000 0.0000 0.0000 0.0000 30.6816 0.0000
# 6 0.0000 0.0000 0.0000 0.0000 0.0000 14.8611
#
#
#
# Elastic Compliance Matrix: (Units=1/GPa)
#
#
# Indices 1 2 3 4 5 6 
#
# 1 0.023113 -0.006487 -0.006073 0.000000 0.000000 0.000000
# 2 -0.006487 0.020501 -0.003378 0.000000 0.000000 0.000000
# 3 -0.006073 -0.003378 0.010359 0.000000 0.000000 0.000000
# 4 0.000000 0.000000 0.000000 0.057975 0.000000 0.000000
# 5 0.000000 0.000000 0.000000 0.000000 0.032593 0.000000
# 6 0.000000 0.000000 0.000000 0.000000 0.000000 0.067290
#
#
# Mechanical properties :
#
#
# Convention : Reuss Voigt Hill
#
# Bulk Modulus (GPa) = 45.25635 53.64594 49.45114
# Shear Modulus (GPa) = 19.91456 22.67709 21.29582
#
# Velocity S-wave (km/s) = 3.37618 3.60275 3.49130
# Velocity P-wave (km/s) = 6.41106 6.92907 6.67509
#
# Compressibility (1/GPa) = 0.02209635
#
# Stress axis : x y z
#
# Youngs Moduli (GPa) = 43.26640 48.77776 96.53480
#
# Poissons Ratio (x) = 0.31642 0.58629
# Poissons Ratio (y) = 0.28067 0.32608
# Poissons Ratio (z) = 0.26277 0.16476
#
# Static dielectric constant tensor:
#      x y z
#    x 3.161580 0.000000 0.000000 
#    y 0.000000 3.222010 0.000000 
#    z 0.000000 0.000000 3.320600 
# 
# 
# High freq. dielectric constant tensor:
#      x y z
#    x 1.669210 0.000000 0.000000 
#    y 0.000000 1.645760 0.000000 
#    z 0.000000 0.000000 1.678190 
# 
# From -- ./inp_files/32269.got.cif
#   From: 2010.03.12/outbox.cif.g09.slc.cpg/sg51_17_cif.got.tgz:32269.got - 2010.04.16 13:43:02.
