data_PCOD8208236
_publ_section_title
;
Structure prediction by ZEFSAII (Michael W. Deem and Ramdas Pophale) SiO2 
 PCOD8208236
Probable space group: P M M A
;
_chemical_formula_sum "Si O2"
_cell_formula_units_Z 64
_cell_length_a 18.559082
_cell_length_b 15.227406
_cell_length_c 14.710803
_cell_angle_alpha 90.000000
_cell_angle_beta 90.000000
_cell_angle_gamma 90.000000
_cell_volume 4157.371146
_symmetry_space_group_name_H-M "P M M A"
_symmetry_group_IT_number 51
_symmetry_cell_setting 'orthorhombic'
loop_
_space_group_symop_operation_xyz
x,y,z
1/2-x,-y,z
1/2+x,-y,-z
-x,y,-z
-x,-y,-z
1/2+x,y,-z
1/2-x,y,z
x,-y,z
loop_
_atom_site_type_symbol
_atom_site_label
_atom_site_fract_x
_atom_site_fract_y
_atom_site_fract_z
Si Si1 0.830719 0.402864 0.939231
Si Si2 0.907309 0.898340 0.276706
Si Si3 0.169573 0.895690 0.352890
Si Si4 0.063134 0.102502 0.195518
Si Si5 0.920891 0.895252 0.478835
Si Si6 0.077455 0.241201 0.037764
Si Si7 0.834976 0.222513 0.139373
Si Si8 0.330518 0.408232 0.844879
O O1 0.750000 0.382324 0.902033
O O2 0.855612 0.500000 0.903344
O O3 0.886001 0.324998 0.910905
O O4 0.828376 0.405065 0.047006
O O5 0.896377 0.862773 0.379203
O O6 0.850126 0.852940 0.211112
O O7 0.988192 0.879044 0.245399
O O8 0.888887 0.000000 0.271782
O O9 0.250000 0.857152 0.344963
O O10 0.125511 0.866590 0.264211
O O11 0.133725 0.858225 0.445157
O O12 0.170319 0.000000 0.358807
O O13 0.068279 0.159982 0.105491
O O14 0.070762 0.000000 0.168869
O O15 0.000000 0.857575 0.500000
O O16 0.923677 0.000000 0.480804
O O17 0.126294 0.203727 0.956062
O O18 0.000000 0.271589 0.000000
O O19 0.750000 0.229336 0.120005
O O20 0.865308 0.314921 0.183873
O O21 0.250000 0.413018 0.805478
O O22 0.370545 0.500000 0.813953
#
# Coordination Sequence:
#
# PCOD8208236 Si02
#       8
#     8   8   8   8   8   8   8   8
#     4   8  15  29  47  65  87 114 143 183 238 286
#     4  10  19  31  47  64  88 124 156 182 225 280
#     4   9  17  29  46  68  88 107 144 197 238 270
#     4  10  20  33  46  61  88 127 164 194 226 262
#     4   9  15  27  48  67  84 112 146 181 230 284
#     4  11  20  30  46  67  88 123 164 198 223 261
#     4  10  20  32  44  64  93 119 150 192 227 264
#     4   7  11  23  43  61  79 108 140 172 220 270
#
# _framework density 15.394344
#
# number of rings (size 3 to 8) (size 9 to 14) (size 15 to 20)
#    0.000    2.750    2.500    1.875    0.000    2.750 
#    0.000    1.250    0.000    0.000    0.000    0.000 
#    0.000    1.500    0.000    3.875    0.000    0.500 
#
# Total GULP energy -792882.131936 kJ/mol
# GULP energy per Si atom -12388.783311 kJ/mol
# Density = 1.535931 g / cm^3
# Si number density = 15.394344 Si / 1000 Ang^3
#
#
#
# Elastic Constant Matrix: (Units=GPa)
#
#
# Indices 1 2 3 4 5 6 
#
# 1 74.1242 29.8418 24.5418 0.0000 0.0000 0.0000
# 2 29.8418 68.4869 36.4121 0.0000 0.0000 0.0000
# 3 24.5418 36.4121 60.9551 0.0000 0.0000 0.0000
# 4 0.0000 0.0000 0.0000 1.0978 0.0000 0.0000
# 5 0.0000 0.0000 0.0000 0.0000 21.6594 0.0000
# 6 0.0000 0.0000 0.0000 0.0000 0.0000 19.1047
#
#
#
# Elastic Compliance Matrix: (Units=1/GPa)
#
#
# Indices 1 2 3 4 5 6 
#
# 1 0.016860 -0.005477 -0.003517 0.000000 0.000000 0.000000
# 2 -0.005477 0.023176 -0.011639 0.000000 0.000000 0.000000
# 3 -0.003517 -0.011639 0.024774 0.000000 0.000000 0.000000
# 4 0.000000 0.000000 0.000000 0.910909 0.000000 0.000000
# 5 0.000000 0.000000 0.000000 0.000000 0.046169 0.000000
# 6 0.000000 0.000000 0.000000 0.000000 0.000000 0.052343
#
#
# Mechanical properties :
#
#
# Convention : Reuss Voigt Hill
#
# Bulk Modulus (GPa) = 42.47210 42.79529 42.63370
# Shear Modulus (GPa) = 4.45099 15.89040 10.17070
#
# Velocity S-wave (km/s) = 1.70223 3.21631 2.57315
# Velocity P-wave (km/s) = 5.61362 6.45388 6.04836
#
# Compressibility (1/GPa) = 0.02354487
#
# Stress axis : x y z
#
# Youngs Moduli (GPa) = 59.31158 43.14814 40.36449
#
# Poissons Ratio (x) = 0.23631 0.14195
# Poissons Ratio (y) = 0.32484 0.46982
# Poissons Ratio (z) = 0.20858 0.50222
#
# Static dielectric constant tensor:
#      x y z
#    x 3.056370 0.000000 0.000000 
#    y 0.000000 3.265760 0.000000 
#    z 0.000000 0.000000 2.773180 
# 
# 
# High freq. dielectric constant tensor:
#      x y z
#    x 1.589170 0.000000 0.000000 
#    y 0.000000 1.567430 0.000000 
#    z 0.000000 0.000000 1.559060 
# 
# From -- ./inp_files/25404.got.cif
#   From: 2010.03.12/outbox.cif.g09.slc.cpg/sg51_13_cif.got.tgz:25404.got - 2010.04.16 13:43:02.
