data_PCOD8208705
_publ_section_title
;
Structure prediction by ZEFSAII (Michael W. Deem and Ramdas Pophale) SiO2 
 PCOD8208705
Probable space group: P M M A
;
_chemical_formula_sum "Si O2"
_cell_formula_units_Z 52
_cell_length_a 8.961564
_cell_length_b 18.255065
_cell_length_c 18.770456
_cell_angle_alpha 90.000000
_cell_angle_beta 90.000000
_cell_angle_gamma 90.000000
_cell_volume 3070.732727
_symmetry_space_group_name_H-M "P M M A"
_symmetry_group_IT_number 51
_symmetry_cell_setting 'orthorhombic'
loop_
_space_group_symop_operation_xyz
x,y,z
1/2-x,-y,z
1/2+x,-y,-z
-x,y,-z
-x,-y,-z
1/2+x,y,-z
1/2-x,y,z
x,-y,z
loop_
_atom_site_type_symbol
_atom_site_label
_atom_site_fract_x
_atom_site_fract_y
_atom_site_fract_z
Si Si1 0.926172 0.659441 0.922712
Si Si2 0.074051 0.717144 0.790575
Si Si3 0.575470 0.802502 0.670614
Si Si4 0.577598 0.417997 0.305929
Si Si5 0.077694 0.086014 0.573216
Si Si6 0.577349 0.337509 0.575288
Si Si7 0.579160 0.500000 0.926433
O O1 0.750000 0.674504 0.928692
O O2 0.960179 0.577670 0.888999
O O3 0.000955 0.717340 0.868978
O O4 0.000000 0.669135 0.000000
O O5 0.250000 0.729348 0.796784
O O6 0.031284 0.639773 0.754365
O O7 0.002621 0.783356 0.745580
O O8 0.750000 0.814900 0.683894
O O9 0.502146 0.876055 0.640032
O O10 0.543274 0.738586 0.614386
O O11 0.750000 0.408592 0.325785
O O12 0.542267 0.500000 0.277873
O O13 0.485331 0.404171 0.377820
O O14 0.250000 0.109863 0.569284
O O15 0.000000 0.111147 0.500000
O O16 0.059450 0.000000 0.585143
O O17 0.500000 0.335470 0.500000
O O18 0.750000 0.351163 0.563277
O O19 0.750000 0.500000 0.946560
O O20 0.500000 0.500000 0.000000
#
# Coordination Sequence:
#
# PCOD8208705 Si02
#       7
#     8   8   8   8   8   8   4
#     4  10  19  32  48  69  95 124 160 201 247 297
#     4  10  20  33  50  70  94 125 159 199 246 295
#     4  10  20  34  51  71  97 128 163 199 238 287
#     4   9  19  34  48  63  84 113 151 195 242 290
#     4  10  20  33  51  77 107 137 168 201 239 284
#     4  10  20  32  47  66  86 114 152 194 239 284
#     4   8  16  28  42  62  88 118 151 192 241 292
#
# _framework density 16.934069000000001
#
# number of rings (size 3 to 8) (size 9 to 14) (size 15 to 20)
#    0.000    2.308    0.000    2.769    1.077    5.846 
#    0.000    0.000    0.000    0.000    0.000    0.000 
#    0.000    0.615    0.000    2.308    0.000    3.538 
#
# Total GULP energy -644687.056089 kJ/mol
# GULP energy per Si atom -12397.828002 kJ/mol
# Density = 1.689553 g / cm^3
# Si number density = 16.934069 Si / 1000 Ang^3
#
#
#
# Elastic Constant Matrix: (Units=GPa)
#
#
# Indices 1 2 3 4 5 6 
#
# 1 92.9234 34.2922 57.7964 0.0000 0.0000 0.0000
# 2 34.2922 50.3503 33.6110 0.0000 0.0000 0.0000
# 3 57.7964 33.6110 108.6764 0.0000 0.0000 0.0000
# 4 0.0000 0.0000 0.0000 23.3609 0.0000 0.0000
# 5 0.0000 0.0000 0.0000 0.0000 30.9923 0.0000
# 6 0.0000 0.0000 0.0000 0.0000 0.0000 23.6235
#
#
#
# Elastic Compliance Matrix: (Units=1/GPa)
#
#
# Indices 1 2 3 4 5 6 
#
# 1 0.018037 -0.007411 -0.007301 0.000000 0.000000 0.000000
# 2 -0.007411 0.028073 -0.004741 0.000000 0.000000 0.000000
# 3 -0.007301 -0.004741 0.014550 0.000000 0.000000 0.000000
# 4 0.000000 0.000000 0.000000 0.042807 0.000000 0.000000
# 5 0.000000 0.000000 0.000000 0.000000 0.032266 0.000000
# 6 0.000000 0.000000 0.000000 0.000000 0.000000 0.042331
#
#
# Mechanical properties :
#
#
# Convention : Reuss Voigt Hill
#
# Bulk Modulus (GPa) = 45.96515 55.92767 50.94641
# Shear Modulus (GPa) = 22.29936 24.01205 23.15570
#
# Velocity S-wave (km/s) = 3.63276 3.76968 3.70185
# Velocity P-wave (km/s) = 6.69316 7.21427 6.95860
#
# Compressibility (1/GPa) = 0.02175561
#
# Stress axis : x y z
#
# Youngs Moduli (GPa) = 55.44042 35.62109 68.72651
#
# Poissons Ratio (x) = 0.26400 0.50174
# Poissons Ratio (y) = 0.41089 0.32582
# Poissons Ratio (z) = 0.40474 0.16887
#
# Static dielectric constant tensor:
#      x y z
#    x 3.272550 0.000000 0.000000 
#    y 0.000000 3.035630 0.000000 
#    z 0.000000 0.000000 3.272510 
# 
# 
# High freq. dielectric constant tensor:
#      x y z
#    x 1.671070 0.000000 0.000000 
#    y 0.000000 1.621140 0.000000 
#    z 0.000000 0.000000 1.640580 
# 
# From -- ./inp_files/27913.got.cif
#   From: 2010.03.12/outbox.cif.g09.slc.cpg/sg51_14_cif.got.tgz:27913.got - 2010.04.16 13:43:02.
