data_PCOD8208293
_publ_section_title
;
Structure prediction by ZEFSAII (Michael W. Deem and Ramdas Pophale) SiO2 
 PCOD8208293
Probable space group: P M M A
;
_chemical_formula_sum "Si O2"
_cell_formula_units_Z 64
_cell_length_a 8.961067
_cell_length_b 27.264659
_cell_length_c 14.840318
_cell_angle_alpha 90.000000
_cell_angle_beta 90.000000
_cell_angle_gamma 90.000000
_cell_volume 3625.792965
_symmetry_space_group_name_H-M "P M M A"
_symmetry_group_IT_number 51
_symmetry_cell_setting 'orthorhombic'
loop_
_space_group_symop_operation_xyz
x,y,z
1/2-x,-y,z
1/2+x,-y,-z
-x,y,-z
-x,-y,-z
1/2+x,y,-z
1/2-x,y,z
x,-y,z
loop_
_atom_site_type_symbol
_atom_site_label
_atom_site_fract_x
_atom_site_fract_y
_atom_site_fract_z
Si Si1 0.924592 0.723459 0.091090
Si Si2 0.573421 0.163935 0.093835
Si Si3 0.072593 0.640194 0.777985
Si Si4 0.075681 0.055268 0.408964
Si Si5 0.425940 0.555510 0.906718
Si Si6 0.423599 0.673549 0.589800
Si Si7 0.574477 0.787795 0.407641
Si Si8 0.073177 0.860679 0.273125
O O1 0.750000 0.717259 0.077539
O O2 0.966550 0.779372 0.113124
O O3 0.985257 0.688586 0.170251
O O4 0.000000 0.705178 0.000000
O O5 0.750000 0.154500 0.090336
O O6 0.498426 0.133267 0.174295
O O7 0.500000 0.146702 0.000000
O O8 0.250000 0.641179 0.776079
O O9 0.015009 0.590824 0.826912
O O10 0.012990 0.643062 0.675401
O O11 0.250000 0.057033 0.426860
O O12 0.030752 0.089720 0.325934
O O13 0.000000 0.075074 0.500000
O O14 0.021520 0.000000 0.386495
O O15 0.250000 0.560733 0.919288
O O16 0.472089 0.500000 0.881402
O O17 0.500000 0.572075 0.000000
O O18 0.500000 0.653002 0.500000
O O19 0.250000 0.664880 0.577412
O O20 0.459531 0.730571 0.605474
O O21 0.500000 0.807008 0.500000
O O22 0.750000 0.799092 0.410259
O O23 0.500188 0.814611 0.323306
O O24 0.250000 0.852748 0.265779
#
# Coordination Sequence:
#
# PCOD8208293 Si02
#       8
#     8   8   8   8   8   8   8   8
#     4   9  17  29  45  66  92 122 152 184 224 270
#     4  10  20  34  50  69  96 128 162 199 238 279
#     4   9  16  28  46  65  88 119 153 185 223 273
#     4   9  19  35  53  74 100 127 155 190 232 278
#     4   9  17  29  46  68  92 117 145 180 224 273
#     4   9  18  32  47  63  87 121 157 193 230 269
#     4  10  19  31  47  69  98 128 158 193 234 279
#     4  11  21  32  50  74  98 127 162 196 234 280
#
# _framework density 17.651309999999999
#
# number of rings (size 3 to 8) (size 9 to 14) (size 15 to 20)
#    0.000    2.500    0.000    2.625    0.000    5.000 
#    0.000    1.250    0.000    0.750    0.000    0.000 
#    0.000    0.000    0.000    0.000    0.000    0.000 
#
# Total GULP energy -793590.704356 kJ/mol
# GULP energy per Si atom -12399.854756 kJ/mol
# Density = 1.761114 g / cm^3
# Si number density = 17.651310 Si / 1000 Ang^3
#
#
#
# Elastic Constant Matrix: (Units=GPa)
#
#
# Indices 1 2 3 4 5 6 
#
# 1 50.8281 31.0684 50.5456 0.0000 0.0000 0.0000
# 2 31.0684 72.5259 70.3312 0.0000 0.0000 0.0000
# 3 50.5456 70.3312 178.6403 0.0000 0.0000 0.0000
# 4 0.0000 0.0000 0.0000 25.3178 0.0000 0.0000
# 5 0.0000 0.0000 0.0000 0.0000 33.3619 0.0000
# 6 0.0000 0.0000 0.0000 0.0000 0.0000 15.8763
#
#
#
# Elastic Compliance Matrix: (Units=1/GPa)
#
#
# Indices 1 2 3 4 5 6 
#
# 1 0.029635 -0.007382 -0.005479 0.000000 0.000000 0.000000
# 2 -0.007382 0.024142 -0.007416 0.000000 0.000000 0.000000
# 3 -0.005479 -0.007416 0.010068 0.000000 0.000000 0.000000
# 4 0.000000 0.000000 0.000000 0.039498 0.000000 0.000000
# 5 0.000000 0.000000 0.000000 0.000000 0.029974 0.000000
# 6 0.000000 0.000000 0.000000 0.000000 0.000000 0.062987
#
#
# Mechanical properties :
#
#
# Convention : Reuss Voigt Hill
#
# Bulk Modulus (GPa) = 42.93497 67.32054 55.12775
# Shear Modulus (GPa) = 20.43981 24.91447 22.67714
#
# Velocity S-wave (km/s) = 3.40660 3.76104 3.58820
# Velocity P-wave (km/s) = 6.31268 7.55530 6.96177
#
# Compressibility (1/GPa) = 0.02329104
#
# Stress axis : x y z
#
# Youngs Moduli (GPa) = 33.74443 41.42145 99.32649
#
# Poissons Ratio (x) = 0.30576 0.54419
# Poissons Ratio (y) = 0.24909 0.73662
# Poissons Ratio (z) = 0.18488 0.30719
#
# Static dielectric constant tensor:
#      x y z
#    x 3.172400 0.000000 0.000000 
#    y 0.000000 3.285200 0.000000 
#    z 0.000000 0.000000 3.501940 
# 
# 
# High freq. dielectric constant tensor:
#      x y z
#    x 1.673060 0.000000 0.000000 
#    y 0.000000 1.660700 0.000000 
#    z 0.000000 0.000000 1.687630 
# 
# From -- ./inp_files/22604.got.cif
#   From: 2010.03.12/outbox.cif.g09.slc.cpg/sg51_12_cif.got.tgz:22604.got - 2010.04.16 13:43:02.
