data_PCOD8208527
_publ_section_title
;
Structure prediction by ZEFSAII (Michael W. Deem and Ramdas Pophale) SiO2 
 PCOD8208527
Probable space group: P M M A
;
_chemical_formula_sum "Si O2"
_cell_formula_units_Z 64
_cell_length_a 17.577294
_cell_length_b 9.149039
_cell_length_c 22.764451
_cell_angle_alpha 90.000000
_cell_angle_beta 90.000000
_cell_angle_gamma 90.000000
_cell_volume 3660.873117
_symmetry_space_group_name_H-M "P M M A"
_symmetry_group_IT_number 51
_symmetry_cell_setting 'orthorhombic'
loop_
_space_group_symop_operation_xyz
x,y,z
1/2-x,-y,z
1/2+x,-y,-z
-x,y,-z
-x,-y,-z
1/2+x,y,-z
1/2-x,y,z
x,-y,z
loop_
_atom_site_type_symbol
_atom_site_label
_atom_site_fract_x
_atom_site_fract_y
_atom_site_fract_z
Si Si1 0.538493 0.168424 0.126860
Si Si2 0.401691 0.669984 0.072890
Si Si3 0.428438 0.164290 0.457492
Si Si4 0.836541 0.670613 0.451168
Si Si5 0.491307 0.672716 0.238733
Si Si6 0.974613 0.670645 0.369800
Si Si7 0.667901 0.670189 0.804097
Si Si8 0.663233 0.835101 0.035275
O O1 0.478515 0.240182 0.082500
O O2 0.542012 0.249073 0.189568
O O3 0.619905 0.187916 0.096562
O O4 0.516790 0.000000 0.137051
O O5 0.422690 0.500000 0.068112
O O6 0.345098 0.700219 0.127019
O O7 0.362483 0.720595 0.013444
O O8 0.500000 0.165924 0.500000
O O9 0.358203 0.245015 0.489077
O O10 0.453645 0.247045 0.398516
O O11 0.403130 0.000000 0.441797
O O12 0.750000 0.711038 0.433086
O O13 0.844678 0.500000 0.464838
O O14 0.893397 0.716503 0.398187
O O15 0.493616 0.500000 0.226505
O O16 0.526822 0.713639 0.301490
O O17 0.403665 0.731213 0.233569
O O18 0.989786 0.500000 0.378870
O O19 0.750000 0.742271 0.786527
O O20 0.673634 0.500000 0.791419
O O21 0.750000 0.805071 0.050847
O O22 0.649785 0.000000 0.011460
#
# Coordination Sequence:
#
# PCOD8208527 Si02
#       8
#     8   8   8   8   8   8   8   8
#     4  10  20  34  51  69  93 128 165 200 242 292
#     4  10  19  31  50  74  96 119 154 201 250 300
#     4   9  17  29  47  71  97 124 154 191 237 285
#     4   9  17  30  49  72  98 130 166 202 242 286
#     4   9  18  32  50  71  95 126 165 206 243 282
#     4   9  17  31  50  71  97 128 164 204 242 285
#     4   8  14  26  44  66  91 117 147 187 235 284
#     4  10  21  35  49  68  96 127 159 198 245 296
#
# _framework density 17.482167
#
# number of rings (size 3 to 8) (size 9 to 14) (size 15 to 20)
#    0.000    2.750    0.000    2.625    0.000    5.500 
#    0.000    1.250    0.000    6.375    0.000    0.000 
#    0.000    0.000    0.000    0.000    0.000    0.000 
#
# Total GULP energy -793402.500171 kJ/mol
# GULP energy per Si atom -12396.914065 kJ/mol
# Density = 1.744238 g / cm^3
# Si number density = 17.482167 Si / 1000 Ang^3
#
#
#
# Elastic Constant Matrix: (Units=GPa)
#
#
# Indices 1 2 3 4 5 6 
#
# 1 105.1533 43.5932 67.6586 0.0000 0.0000 0.0000
# 2 43.5932 69.7567 49.7890 0.0000 0.0000 0.0000
# 3 67.6586 49.7890 103.7964 0.0000 0.0000 0.0000
# 4 0.0000 0.0000 0.0000 21.9879 0.0000 0.0000
# 5 0.0000 0.0000 0.0000 0.0000 25.8375 0.0000
# 6 0.0000 0.0000 0.0000 0.0000 0.0000 18.1003
#
#
#
# Elastic Compliance Matrix: (Units=1/GPa)
#
#
# Indices 1 2 3 4 5 6 
#
# 1 0.017139 -0.004162 -0.009176 0.000000 0.000000 0.000000
# 2 -0.004162 0.022809 -0.008228 0.000000 0.000000 0.000000
# 3 -0.009176 -0.008228 0.019562 0.000000 0.000000 0.000000
# 4 0.000000 0.000000 0.000000 0.045480 0.000000 0.000000
# 5 0.000000 0.000000 0.000000 0.000000 0.038703 0.000000
# 6 0.000000 0.000000 0.000000 0.000000 0.000000 0.055248
#
#
# Mechanical properties :
#
#
# Convention : Reuss Voigt Hill
#
# Bulk Modulus (GPa) = 61.05289 66.75423 63.90356
# Shear Modulus (GPa) = 20.19932 21.02950 20.61441
#
# Velocity S-wave (km/s) = 3.40284 3.47206 3.43763
# Velocity P-wave (km/s) = 7.10196 7.37162 7.23804
#
# Compressibility (1/GPa) = 0.01637924
#
# Stress axis : x y z
#
# Youngs Moduli (GPa) = 58.34609 43.84165 51.11851
#
# Poissons Ratio (x) = 0.18245 0.46905
# Poissons Ratio (y) = 0.24281 0.42063
# Poissons Ratio (z) = 0.53537 0.36075
#
# Static dielectric constant tensor:
#      x y z
#    x 3.371710 0.000000 0.000000 
#    y 0.000000 3.236990 0.000000 
#    z 0.000000 0.000000 3.136470 
# 
# 
# High freq. dielectric constant tensor:
#      x y z
#    x 1.669810 0.000000 0.000000 
#    y 0.000000 1.667510 0.000000 
#    z 0.000000 0.000000 1.660590 
# 
# From -- ./inp_files/33920.got.cif
#   From: 2010.03.12/outbox.cif.g09.slc.cpg/sg51_17_cif.got.tgz:33920.got - 2010.04.16 13:43:02.
