data_PCOD8208844
_publ_section_title
;
Structure prediction by ZEFSAII (Michael W. Deem and Ramdas Pophale) SiO2 
 PCOD8208844
Probable space group: P M M A
;
_chemical_formula_sum "Si O2"
_cell_formula_units_Z 40
_cell_length_a 9.224825
_cell_length_b 7.855666
_cell_length_c 29.186429
_cell_angle_alpha 90.000000
_cell_angle_beta 90.000000
_cell_angle_gamma 90.000000
_cell_volume 2115.057156
_symmetry_space_group_name_H-M "P M M A"
_symmetry_group_IT_number 51
_symmetry_cell_setting 'orthorhombic'
loop_
_space_group_symop_operation_xyz
x,y,z
1/2-x,-y,z
1/2+x,-y,-z
-x,y,-z
-x,-y,-z
1/2+x,y,-z
1/2-x,y,z
x,-y,z
loop_
_atom_site_type_symbol
_atom_site_label
_atom_site_fract_x
_atom_site_fract_y
_atom_site_fract_z
Si Si1 0.923510 0.000000 0.212632
Si Si2 0.915910 0.700740 0.544492
Si Si3 0.588394 0.804853 0.368211
Si Si4 0.921908 0.000000 0.109806
Si Si5 0.419673 0.692559 0.952990
Si Si6 0.578017 0.312778 0.271652
O O1 0.985941 0.000000 0.161091
O O2 0.985530 0.168293 0.238031
O O3 0.750000 0.000000 0.212414
O O4 0.750000 0.757986 0.539968
O O5 0.932837 0.500000 0.548720
O O6 0.000000 0.770053 0.500000
O O7 0.982189 0.784229 0.589370
O O8 0.750000 0.736476 0.381007
O O9 0.523108 0.708249 0.323976
O O10 0.598196 0.000000 0.353768
O O11 0.976066 0.171528 0.084390
O O12 0.750000 0.000000 0.112047
O O13 0.250000 0.716154 0.962183
O O14 0.453819 0.500000 0.935798
O O15 0.500000 0.732700 0.000000
O O16 0.750000 0.294223 0.272506
O O17 0.530298 0.500000 0.253853
#
# Coordination Sequence:
#
# PCOD8208844 Si02
#       6
#     4   8   8   4   8   8
#     4   9  16  27  41  66  99 127 160 200 246 299
#     4  10  21  36  53  74 100 130 165 203 245 297
#     4  10  19  32  51  74 100 128 162 204 244 290
#     4   9  17  27  42  64  96 131 161 202 249 293
#     4   9  17  29  45  67  95 128 166 205 246 291
#     4   9  16  27  45  68  96 129 162 199 243 290
#
# _framework density 18.912018
#
# number of rings (size 3 to 8) (size 9 to 14) (size 15 to 20)
#    0.000    2.600    1.000    1.500    0.000    3.600 
#    0.000    4.000    0.000    0.000    0.000    2.800 
#    0.000    3.200    0.000    0.000    0.000    0.000 
#
# Total GULP energy -495906.665403 kJ/mol
# GULP energy per Si atom -12397.666635 kJ/mol
# Density = 1.886897 g / cm^3
# Si number density = 18.912018 Si / 1000 Ang^3
#
#
#
# Elastic Constant Matrix: (Units=GPa)
#
#
# Indices 1 2 3 4 5 6 
#
# 1 44.2537 23.8916 29.5504 0.0000 0.0000 0.0000
# 2 23.8916 133.3945 84.7735 0.0000 0.0000 0.0000
# 3 29.5504 84.7735 152.3046 0.0000 0.0000 0.0000
# 4 0.0000 0.0000 0.0000 27.5392 0.0000 0.0000
# 5 0.0000 0.0000 0.0000 0.0000 18.5574 0.0000
# 6 0.0000 0.0000 0.0000 0.0000 0.0000 14.7242
#
#
#
# Elastic Compliance Matrix: (Units=1/GPa)
#
#
# Indices 1 2 3 4 5 6 
#
# 1 0.026401 -0.002280 -0.003854 0.000000 0.000000 0.000000
# 2 -0.002280 0.011797 -0.006124 0.000000 0.000000 0.000000
# 3 -0.003854 -0.006124 0.010722 0.000000 0.000000 0.000000
# 4 0.000000 0.000000 0.000000 0.036312 0.000000 0.000000
# 5 0.000000 0.000000 0.000000 0.000000 0.053887 0.000000
# 6 0.000000 0.000000 0.000000 0.000000 0.000000 0.067915
#
#
# Mechanical properties :
#
#
# Convention : Reuss Voigt Hill
#
# Bulk Modulus (GPa) = 40.97403 67.37598 54.17501
# Shear Modulus (GPa) = 20.86094 24.94664 22.90379
#
# Velocity S-wave (km/s) = 3.32483 3.63587 3.48382
# Velocity P-wave (km/s) = 6.03754 7.30270 6.70005
#
# Compressibility (1/GPa) = 0.02440570
#
# Stress axis : x y z
#
# Youngs Moduli (GPa) = 37.87758 84.77075 93.26662
#
# Poissons Ratio (x) = 0.19324 0.35940
# Poissons Ratio (y) = 0.08634 0.57114
# Poissons Ratio (z) = 0.14596 0.51911
#
# Static dielectric constant tensor:
#      x y z
#    x 3.007490 0.000000 0.000000 
#    y 0.000000 3.651250 0.000000 
#    z 0.000000 0.000000 3.531310 
# 
# 
# High freq. dielectric constant tensor:
#      x y z
#    x 1.679780 0.000000 0.000000 
#    y 0.000000 1.748530 0.000000 
#    z 0.000000 0.000000 1.733490 
# 
# From -- ./inp_files/36053.got.cif
#   From: 2010.03.12/outbox.cif.g09.slc.cpg/sg51_19_cif.got.tgz:36053.got - 2010.04.16 13:43:02.
