data_PCOD8208949
_publ_section_title
;
Structure prediction by ZEFSAII (Michael W. Deem and Ramdas Pophale) SiO2 
 PCOD8208949
Probable space group: P M M A
;
_chemical_formula_sum "Si O2"
_cell_formula_units_Z 40
_cell_length_a 9.050968
_cell_length_b 25.279559
_cell_length_c 10.001956
_cell_angle_alpha 90.000000
_cell_angle_beta 90.000000
_cell_angle_gamma 90.000000
_cell_volume 2288.492337
_symmetry_space_group_name_H-M "P M M A"
_symmetry_group_IT_number 51
_symmetry_cell_setting 'orthorhombic'
loop_
_space_group_symop_operation_xyz
x,y,z
1/2-x,-y,z
1/2+x,-y,-z
-x,y,-z
-x,-y,-z
1/2+x,y,-z
1/2-x,y,z
x,-y,z
loop_
_atom_site_type_symbol
_atom_site_label
_atom_site_fract_x
_atom_site_fract_y
_atom_site_fract_z
Si Si1 0.423476 0.439633 0.363751
Si Si2 0.423510 0.359198 0.142554
Si Si3 0.580897 0.244629 0.862695
Si Si4 0.924531 0.870033 0.855434
Si Si5 0.919736 0.937505 0.365346
O O1 0.500000 0.421398 0.500000
O O2 0.250000 0.431984 0.383112
O O3 0.464661 0.500000 0.328237
O O4 0.485241 0.402907 0.244797
O O5 0.250000 0.367186 0.120173
O O6 0.458748 0.300740 0.208356
O O7 0.500000 0.366970 0.000000
O O8 0.750000 0.245373 0.902126
O O9 0.545759 0.188752 0.788997
O O10 0.500000 0.243564 0.000000
O O11 0.750000 0.881518 0.869140
O O12 0.997902 0.912825 0.760497
O O13 0.000000 0.874664 0.000000
O O14 0.750000 0.918729 0.370235
O O15 0.000000 0.918239 0.500000
O O16 0.931658 0.000000 0.349139
#
# Coordination Sequence:
#
# PCOD8208949 Si02
#       5
#     8   8   8   8   8
#     4   9  18  32  48  66  91 124 159 195 236 281
#     4   9  17  30  48  70  96 123 155 195 236 280
#     4   8  15  28  46  68  95 126 156 190 234 280
#     4  10  19  32  52  76 101 129 163 201 240 284
#     4  10  21  37  55  74  98 129 163 199 242 290
#
# _framework density 17.478757999999999
#
# number of rings (size 3 to 8) (size 9 to 14) (size 15 to 20)
#    0.000    2.800    0.000    1.200    0.000    3.600 
#    0.000    1.000    0.000    2.400    0.000    0.000 
#    0.000    0.000    0.000    0.000    0.000    0.000 
#
# Total GULP energy -495546.380809 kJ/mol
# GULP energy per Si atom -12388.659520 kJ/mol
# Density = 1.743898 g / cm^3
# Si number density = 17.478758 Si / 1000 Ang^3
#
#
#
# Elastic Constant Matrix: (Units=GPa)
#
#
# Indices 1 2 3 4 5 6 
#
# 1 72.7255 40.5213 45.0334 0.0000 0.0000 0.0000
# 2 40.5213 72.2691 55.8986 0.0000 0.0000 0.0000
# 3 45.0334 55.8986 100.5585 0.0000 0.0000 0.0000
# 4 0.0000 0.0000 0.0000 8.5677 0.0000 0.0000
# 5 0.0000 0.0000 0.0000 0.0000 30.1213 0.0000
# 6 0.0000 0.0000 0.0000 0.0000 0.0000 15.0493
#
#
#
# Elastic Compliance Matrix: (Units=1/GPa)
#
#
# Indices 1 2 3 4 5 6 
#
# 1 0.021397 -0.008044 -0.005111 0.000000 0.000000 0.000000
# 2 -0.008044 0.027299 -0.011572 0.000000 0.000000 0.000000
# 3 -0.005111 -0.011572 0.018666 0.000000 0.000000 0.000000
# 4 0.000000 0.000000 0.000000 0.116717 0.000000 0.000000
# 5 0.000000 0.000000 0.000000 0.000000 0.033199 0.000000
# 6 0.000000 0.000000 0.000000 0.000000 0.000000 0.066448
#
#
# Mechanical properties :
#
#
# Convention : Reuss Voigt Hill
#
# Bulk Modulus (GPa) = 55.84360 58.71776 57.28068
# Shear Modulus (GPa) = 14.74277 17.68765 16.21521
#
# Velocity S-wave (km/s) = 2.90740 3.18457 3.04914
# Velocity P-wave (km/s) = 6.57947 6.86940 6.72600
#
# Compressibility (1/GPa) = 0.01790716
#
# Stress axis : x y z
#
# Youngs Moduli (GPa) = 46.73521 36.63199 53.57359
#
# Poissons Ratio (x) = 0.29468 0.27379
# Poissons Ratio (y) = 0.37596 0.61996
# Poissons Ratio (z) = 0.23884 0.42391
#
# Static dielectric constant tensor:
#      x y z
#    x 3.337620 0.000000 0.000000 
#    y 0.000000 3.980970 0.000000 
#    z 0.000000 0.000000 3.014460 
# 
# 
# High freq. dielectric constant tensor:
#      x y z
#    x 1.682200 0.000000 0.000000 
#    y 0.000000 1.691750 0.000000 
#    z 0.000000 0.000000 1.644860 
# 
# From -- ./inp_files/5209.got.cif
#   From: 2010.03.12/outbox.cif.g09.slc.cpg/sg51_3_cif.got.tgz:5209.got - 2010.04.16 13:43:02.
