data_PCOD8208219
_publ_section_title
;
Structure prediction by ZEFSAII (Michael W. Deem and Ramdas Pophale) SiO2 
 PCOD8208219
Probable space group: P M M A
;
_chemical_formula_sum "Si O2"
_cell_formula_units_Z 56
_cell_length_a 9.288487
_cell_length_b 18.383069
_cell_length_c 18.985811
_cell_angle_alpha 90.000000
_cell_angle_beta 90.000000
_cell_angle_gamma 90.000000
_cell_volume 3241.844267
_symmetry_space_group_name_H-M "P M M A"
_symmetry_group_IT_number 51
_symmetry_cell_setting 'orthorhombic'
loop_
_space_group_symop_operation_xyz
x,y,z
1/2-x,-y,z
1/2+x,-y,-z
-x,y,-z
-x,-y,-z
1/2+x,y,-z
1/2-x,y,z
x,-y,z
loop_
_atom_site_type_symbol
_atom_site_label
_atom_site_fract_x
_atom_site_fract_y
_atom_site_fract_z
Si Si1 0.414307 0.286031 0.710120
Si Si2 0.085141 0.819964 0.066449
Si Si3 0.583460 0.837543 0.781497
Si Si4 0.418518 0.649998 0.069208
Si Si5 0.582834 0.916768 0.642892
Si Si6 0.915005 0.417236 0.197461
Si Si7 0.580344 0.789809 0.430021
O O1 0.250000 0.262953 0.721320
O O2 0.504125 0.236220 0.762169
O O3 0.442567 0.369597 0.731797
O O4 0.455878 0.271328 0.628681
O O5 0.250000 0.833051 0.048033
O O6 0.039434 0.861391 0.138937
O O7 0.050339 0.735272 0.078534
O O8 0.000000 0.852499 0.000000
O O9 0.750000 0.816280 0.781923
O O10 0.549827 0.901075 0.725430
O O11 0.250000 0.633108 0.061812
O O12 0.479589 0.607031 0.135727
O O13 0.500000 0.620706 0.000000
O O14 0.750000 0.900151 0.626019
O O15 0.482473 0.867821 0.593653
O O16 0.543852 0.000000 0.627348
O O17 0.750000 0.407437 0.171961
O O18 0.948445 0.500000 0.218571
O O19 0.500000 0.763319 0.500000
O O20 0.750000 0.798301 0.443951
#
# Coordination Sequence:
#
# PCOD8208219 Si02
#       7
#     8   8   8   8   8   8   8
#     4   9  18  32  50  71  94 120 156 195 233 279
#     4   9  17  27  42  65  90 119 156 199 242 279
#     4   9  16  29  48  69  93 122 159 199 238 278
#     4  10  19  31  46  66  93 126 162 201 244 289
#     4   9  18  32  51  75 102 131 159 189 229 278
#     4  10  20  33  49  69  94 125 159 198 244 290
#     4  10  20  34  53  77 101 128 157 189 228 273
#
# _framework density 17.274118000000001
#
# number of rings (size 3 to 8) (size 9 to 14) (size 15 to 20)
#    0.000    2.571    1.429    0.857    0.000    2.857 
#    0.000    0.000    0.000    0.857    0.000    0.000 
#    0.000    0.000    0.000    0.000    0.000    0.429 
#
# Total GULP energy -694239.160206 kJ/mol
# GULP energy per Si atom -12397.127861 kJ/mol
# Density = 1.723480 g / cm^3
# Si number density = 17.274118 Si / 1000 Ang^3
#
#
#
# Elastic Constant Matrix: (Units=GPa)
#
#
# Indices 1 2 3 4 5 6 
#
# 1 69.6343 25.4134 51.5601 0.0000 0.0000 0.0000
# 2 25.4134 50.2945 31.4715 0.0000 0.0000 0.0000
# 3 51.5601 31.4715 128.1460 0.0000 0.0000 0.0000
# 4 0.0000 0.0000 0.0000 17.4432 0.0000 0.0000
# 5 0.0000 0.0000 0.0000 0.0000 30.3826 0.0000
# 6 0.0000 0.0000 0.0000 0.0000 0.0000 16.4711
#
#
#
# Elastic Compliance Matrix: (Units=1/GPa)
#
#
# Indices 1 2 3 4 5 6 
#
# 1 0.022188 -0.006647 -0.007295 0.000000 0.000000 0.000000
# 2 -0.006647 0.025484 -0.003584 0.000000 0.000000 0.000000
# 3 -0.007295 -0.003584 0.011619 0.000000 0.000000 0.000000
# 4 0.000000 0.000000 0.000000 0.057329 0.000000 0.000000
# 5 0.000000 0.000000 0.000000 0.000000 0.032914 0.000000
# 6 0.000000 0.000000 0.000000 0.000000 0.000000 0.060712
#
#
# Mechanical properties :
#
#
# Convention : Reuss Voigt Hill
#
# Bulk Modulus (GPa) = 41.25548 51.66278 46.45913
# Shear Modulus (GPa) = 19.73334 22.16804 20.95069
#
# Velocity S-wave (km/s) = 3.38356 3.58622 3.48636
# Velocity P-wave (km/s) = 6.26093 6.86444 6.56962
#
# Compressibility (1/GPa) = 0.02423920
#
# Stress axis : x y z
#
# Youngs Moduli (GPa) = 45.06930 39.23987 86.06488
#
# Poissons Ratio (x) = 0.26081 0.62785
# Poissons Ratio (y) = 0.29956 0.30849
# Poissons Ratio (z) = 0.32879 0.14065
#
# Static dielectric constant tensor:
#      x y z
#    x 3.269060 0.000000 0.000000 
#    y 0.000000 3.017150 0.000000 
#    z 0.000000 0.000000 3.411480 
# 
# 
# High freq. dielectric constant tensor:
#      x y z
#    x 1.671320 0.000000 0.000000 
#    y 0.000000 1.632510 0.000000 
#    z 0.000000 0.000000 1.671290 
# 
# From -- ./inp_files/32259.got.cif
#   From: 2010.03.12/outbox.cif.g09.slc.cpg/sg51_17_cif.got.tgz:32259.got - 2010.04.16 13:43:02.
