data_PCOD8208565
_publ_section_title
;
Structure prediction by ZEFSAII (Michael W. Deem and Ramdas Pophale) SiO2 
 PCOD8208565
Probable space group: P M M A
;
_chemical_formula_sum "Si O2"
_cell_formula_units_Z 64
_cell_length_a 18.093526
_cell_length_b 8.984424
_cell_length_c 21.517220
_cell_angle_alpha 90.000000
_cell_angle_beta 90.000000
_cell_angle_gamma 90.000000
_cell_volume 3497.837330
_symmetry_space_group_name_H-M "P M M A"
_symmetry_group_IT_number 51
_symmetry_cell_setting 'orthorhombic'
loop_
_space_group_symop_operation_xyz
x,y,z
1/2-x,-y,z
1/2+x,-y,-z
-x,y,-z
-x,-y,-z
1/2+x,y,-z
1/2-x,y,z
x,-y,z
loop_
_atom_site_type_symbol
_atom_site_label
_atom_site_fract_x
_atom_site_fract_y
_atom_site_fract_z
Si Si1 0.833293 0.825892 0.874353
Si Si2 0.410692 0.673979 0.620487
Si Si3 0.966533 0.325102 0.935771
Si Si4 0.333175 0.323187 0.495368
Si Si5 0.450838 0.324709 0.812281
Si Si6 0.083245 0.326168 0.373776
Si Si7 0.084702 0.174467 0.250068
Si Si8 0.664901 0.175372 0.263155
O O1 0.750000 0.767388 0.884649
O O2 0.886835 0.747016 0.923618
O O3 0.856468 0.788153 0.803778
O O4 0.838767 0.000000 0.886886
O O5 0.394415 0.500000 0.631468
O O6 0.375533 0.733105 0.556440
O O7 0.497192 0.706965 0.616969
O O8 0.373847 0.766074 0.675192
O O9 0.953618 0.500000 0.939046
O O10 0.024352 0.281776 0.881807
O O11 0.000000 0.263201 0.000000
O O12 0.250000 0.259951 0.496098
O O13 0.333602 0.500000 0.494510
O O14 0.374671 0.263962 0.434189
O O15 0.445779 0.500000 0.802386
O O16 0.508671 0.260681 0.762667
O O17 0.371937 0.250352 0.797834
O O18 0.098802 0.500000 0.363011
O O19 0.115919 0.235667 0.315085
O O20 0.068087 0.000000 0.253985
O O21 0.750000 0.222928 0.263811
O O22 0.654647 0.000000 0.258684
#
# Coordination Sequence:
#
# PCOD8208565 Si02
#       8
#     8   8   8   8   8   8   8   8
#     4   9  19  35  54  79 111 146 184 221 258 308
#     4  10  19  33  54  75  98 133 177 220 262 314
#     4   9  19  36  58  84 112 142 178 220 264 309
#     4   9  18  32  49  71 100 134 174 220 267 315
#     4  10  19  34  56  79 104 136 174 212 252 307
#     4  10  19  31  50  76 102 132 174 220 263 314
#     4  10  19  32  52  76 105 139 172 213 263 311
#     4  11  23  36  52  77 108 138 170 215 267 312
#
# _framework density 18.29702
#
# number of rings (size 3 to 8) (size 9 to 14) (size 15 to 20)
#    0.000    2.250    1.250    1.875    0.000    5.000 
#    0.000    1.250    0.000    6.000    0.000    0.000 
#    0.000    0.000    0.000    0.000    0.000    0.000 
#
# Total GULP energy -793728.748835 kJ/mol
# GULP energy per Si atom -12402.011701 kJ/mol
# Density = 1.825538 g / cm^3
# Si number density = 18.297020 Si / 1000 Ang^3
#
#
#
# Elastic Constant Matrix: (Units=GPa)
#
#
# Indices 1 2 3 4 5 6 
#
# 1 124.7490 38.9473 68.3143 0.0000 0.0000 0.0000
# 2 38.9473 47.2122 33.8373 0.0000 0.0000 0.0000
# 3 68.3143 33.8373 133.2216 0.0000 0.0000 0.0000
# 4 0.0000 0.0000 0.0000 20.1691 0.0000 0.0000
# 5 0.0000 0.0000 0.0000 0.0000 24.4895 0.0000
# 6 0.0000 0.0000 0.0000 0.0000 0.0000 23.8268
#
#
#
# Elastic Compliance Matrix: (Units=1/GPa)
#
#
# Indices 1 2 3 4 5 6 
#
# 1 0.012880 -0.007203 -0.004775 0.000000 0.000000 0.000000
# 2 -0.007203 0.029923 -0.003907 0.000000 0.000000 0.000000
# 3 -0.004775 -0.003907 0.010947 0.000000 0.000000 0.000000
# 4 0.000000 0.000000 0.000000 0.049581 0.000000 0.000000
# 5 0.000000 0.000000 0.000000 0.000000 0.040834 0.000000
# 6 0.000000 0.000000 0.000000 0.000000 0.000000 0.041970
#
#
# Mechanical properties :
#
#
# Convention : Reuss Voigt Hill
#
# Bulk Modulus (GPa) = 45.49465 65.26453 55.37959
# Shear Modulus (GPa) = 22.19956 24.63600 23.41778
#
# Velocity S-wave (km/s) = 3.48701 3.67338 3.58141
# Velocity P-wave (km/s) = 6.41333 7.33066 6.88728
#
# Compressibility (1/GPa) = 0.02198061
#
# Stress axis : x y z
#
# Youngs Moduli (GPa) = 77.64138 33.41945 91.34747
#
# Poissons Ratio (x) = 0.24071 0.43620
# Poissons Ratio (y) = 0.55922 0.35687
# Poissons Ratio (z) = 0.37075 0.13056
#
# Static dielectric constant tensor:
#      x y z
#    x 3.544230 0.000000 0.000000 
#    y 0.000000 3.196510 0.000000 
#    z 0.000000 0.000000 3.506760 
# 
# 
# High freq. dielectric constant tensor:
#      x y z
#    x 1.708700 0.000000 0.000000 
#    y 0.000000 1.694460 0.000000 
#    z 0.000000 0.000000 1.711440 
# 
# From -- ./inp_files/33941.got.cif
#   From: 2010.03.12/outbox.cif.g09.slc.cpg/sg51_17_cif.got.tgz:33941.got - 2010.04.16 13:43:02.
