data_PCOD8208080
_publ_section_title
;
Structure prediction by ZEFSAII (Michael W. Deem and Ramdas Pophale) SiO2 
 PCOD8208080
Probable space group: P M M A
;
_chemical_formula_sum "Si O2"
_cell_formula_units_Z 48
_cell_length_a 19.943298
_cell_length_b 9.010365
_cell_length_c 16.857488
_cell_angle_alpha 90.000000
_cell_angle_beta 90.000000
_cell_angle_gamma 90.000000
_cell_volume 3029.229810
_symmetry_space_group_name_H-M "P M M A"
_symmetry_group_IT_number 51
_symmetry_cell_setting 'orthorhombic'
loop_
_space_group_symop_operation_xyz
x,y,z
1/2-x,-y,z
1/2+x,-y,-z
-x,y,-z
-x,-y,-z
1/2+x,y,-z
1/2-x,y,z
x,-y,z
loop_
_atom_site_type_symbol
_atom_site_label
_atom_site_fract_x
_atom_site_fract_y
_atom_site_fract_z
Si Si1 0.670736 0.329242 0.339293
Si Si2 0.325662 0.325407 0.345146
Si Si3 0.670352 0.832873 0.496323
Si Si4 0.074507 0.824792 0.776339
Si Si5 0.014485 0.669088 0.913456
Si Si6 0.054612 0.667974 0.238499
O O1 0.750000 0.311218 0.332166
O O2 0.648635 0.500000 0.338148
O O3 0.643205 0.256860 0.420546
O O4 0.639362 0.244091 0.264952
O O5 0.250000 0.272687 0.324470
O O6 0.326633 0.500000 0.361127
O O7 0.354359 0.246188 0.423481
O O8 0.373745 0.278047 0.272052
O O9 0.750000 0.832479 0.495152
O O10 0.641863 0.000000 0.493358
O O11 0.071539 0.764690 0.867636
O O12 0.006750 0.770947 0.730038
O O13 0.080000 0.000000 0.775566
O O14 0.040310 0.500000 0.923038
O O15 0.946781 0.674183 0.858419
O O16 0.000000 0.738669 0.000000
O O17 0.040676 0.500000 0.267679
#
# Coordination Sequence:
#
# PCOD8208080 Si02
#       6
#     8   8   8   8   8   8
#     4  10  19  32  50  69  91 122 159 193 227 271
#     4   9  16  28  47  68  91 121 157 194 230 270
#     4   9  17  28  43  65  93 123 155 189 227 272
#     4  10  19  30  47  71  97 121 151 191 235 279
#     4   8  15  30  51  70  91 121 155 189 226 274
#     4   8  16  30  46  67  93 121 155 191 230 274
#
# _framework density 15.845613
#
# number of rings (size 3 to 8) (size 9 to 14) (size 15 to 20)
#    1.000    2.000    0.000    2.000    0.000    4.000 
#    0.000    0.833    0.000    6.000    0.000    4.667 
#    0.000    0.000    0.000    0.000    0.000    0.000 
#
# Total GULP energy -594689.742405 kJ/mol
# GULP energy per Si atom -12389.369633 kJ/mol
# Density = 1.580955 g / cm^3
# Si number density = 15.845613 Si / 1000 Ang^3
#
#
#
# Elastic Constant Matrix: (Units=GPa)
#
#
# Indices 1 2 3 4 5 6 
#
# 1 43.4032 31.9006 38.0641 0.0000 0.0000 0.0000
# 2 31.9006 96.8739 48.4529 0.0000 0.0000 0.0000
# 3 38.0641 48.4529 114.8671 0.0000 0.0000 0.0000
# 4 0.0000 0.0000 0.0000 17.7116 0.0000 0.0000
# 5 0.0000 0.0000 0.0000 0.0000 24.2396 0.0000
# 6 0.0000 0.0000 0.0000 0.0000 0.0000 17.2985
#
#
#
# Elastic Compliance Matrix: (Units=1/GPa)
#
#
# Indices 1 2 3 4 5 6 
#
# 1 0.036357 -0.007536 -0.008869 0.000000 0.000000 0.000000
# 2 -0.007536 0.014645 -0.003680 0.000000 0.000000 0.000000
# 3 -0.008869 -0.003680 0.013197 0.000000 0.000000 0.000000
# 4 0.000000 0.000000 0.000000 0.056460 0.000000 0.000000
# 5 0.000000 0.000000 0.000000 0.000000 0.041255 0.000000
# 6 0.000000 0.000000 0.000000 0.000000 0.000000 0.057809
#
#
# Mechanical properties :
#
#
# Convention : Reuss Voigt Hill
#
# Bulk Modulus (GPa) = 41.61790 54.66440 48.14115
# Shear Modulus (GPa) = 18.66351 20.96504 19.81428
#
# Velocity S-wave (km/s) = 3.43568 3.64137 3.54002
# Velocity P-wave (km/s) = 6.48538 7.22858 6.86704
#
# Compressibility (1/GPa) = 0.02402812
#
# Stress axis : x y z
#
# Youngs Moduli (GPa) = 27.50520 68.28193 75.77513
#
# Poissons Ratio (x) = 0.51461 0.67203
# Poissons Ratio (y) = 0.20729 0.27887
# Poissons Ratio (z) = 0.24394 0.25129
#
# Static dielectric constant tensor:
#      x y z
#    x 2.766520 0.000000 0.000000 
#    y 0.000000 3.036830 0.000000 
#    z 0.000000 0.000000 3.006130 
# 
# 
# High freq. dielectric constant tensor:
#      x y z
#    x 1.572960 0.000000 0.000000 
#    y 0.000000 1.613570 0.000000 
#    z 0.000000 0.000000 1.597530 
# 
# From -- ./inp_files/30332.got.cif
#   From: 2010.03.12/outbox.cif.g09.slc.cpg/sg51_16_cif.got.tgz:30332.got - 2010.04.16 13:43:02.
