data_PCOD8208804
_publ_section_title
;
Structure prediction by ZEFSAII (Michael W. Deem and Ramdas Pophale) SiO2 
 PCOD8208804
Probable space group: P M M A
;
_chemical_formula_sum "Si O2"
_cell_formula_units_Z 64
_cell_length_a 9.331214
_cell_length_b 18.880468
_cell_length_c 19.544089
_cell_angle_alpha 90.000000
_cell_angle_beta 90.000000
_cell_angle_gamma 90.000000
_cell_volume 3443.232401
_symmetry_space_group_name_H-M "P M M A"
_symmetry_group_IT_number 51
_symmetry_cell_setting 'orthorhombic'
loop_
_space_group_symop_operation_xyz
x,y,z
1/2-x,-y,z
1/2+x,-y,-z
-x,y,-z
-x,-y,-z
1/2+x,y,-z
1/2-x,y,z
x,-y,z
loop_
_atom_site_type_symbol
_atom_site_label
_atom_site_fract_x
_atom_site_fract_y
_atom_site_fract_z
Si Si1 0.915524 0.420074 0.107795
Si Si2 0.405938 0.262572 0.558784
Si Si3 0.088611 0.194200 0.199415
Si Si4 0.589937 0.302054 0.680872
Si Si5 0.916483 0.918726 0.285713
Si Si6 0.578255 0.719097 0.933037
Si Si7 0.593572 0.100996 0.439291
Si Si8 0.092232 0.420651 0.732210
O O1 0.750000 0.402001 0.089994
O O2 0.952919 0.500000 0.081160
O O3 0.941583 0.418380 0.188199
O O4 0.019942 0.361203 0.076036
O O5 0.500000 0.301417 0.500000
O O6 0.250000 0.299999 0.564511
O O7 0.488454 0.260678 0.629713
O O8 0.383830 0.181610 0.538901
O O9 0.250000 0.164649 0.192430
O O10 0.084949 0.261926 0.247937
O O11 0.033619 0.225902 0.127145
O O12 0.993640 0.130537 0.229503
O O13 0.750000 0.306540 0.650889
O O14 0.529836 0.380517 0.690566
O O15 0.750000 0.897118 0.285022
O O16 0.977131 0.907997 0.363393
O O17 0.940188 0.000000 0.263249
O O18 0.750000 0.715482 0.940892
O O19 0.500000 0.750598 0.000000
O O20 0.500000 0.064757 0.500000
O O21 0.750000 0.063730 0.437510
O O22 0.250000 0.387278 0.718554
O O23 0.089070 0.500000 0.704294
#
# Coordination Sequence:
#
# PCOD8208804 Si02
#       8
#     8   8   8   8   8   8   8   8
#     4   9  18  33  53  79 112 149 186 222 263 317
#     4  10  19  32  50  75 106 143 181 225 274 321
#     4  10  22  38  56  81 111 139 178 224 269 320
#     4  11  20  32  53  80 107 140 181 229 273 319
#     4  10  21  37  57  82 111 144 183 224 270 323
#     4  11  23  39  57  82 111 145 183 225 273 324
#     4   9  18  31  48  74 109 146 181 217 257 308
#     4   9  18  32  51  77 108 142 181 223 269 321
#
# _framework density 18.587185000000002
#
# number of rings (size 3 to 8) (size 9 to 14) (size 15 to 20)
#    0.000    2.125    2.500    1.875    0.000    3.750 
#    0.000    1.250    0.000    0.750    0.000    0.000 
#    0.000    0.000    0.000    0.000    0.000    0.000 
#
# Total GULP energy -793158.530296 kJ/mol
# GULP energy per Si atom -12393.102036 kJ/mol
# Density = 1.854488 g / cm^3
# Si number density = 18.587185 Si / 1000 Ang^3
#
#
#
# Elastic Constant Matrix: (Units=GPa)
#
#
# Indices 1 2 3 4 5 6 
#
# 1 118.8905 42.3752 58.1202 0.0000 0.0000 0.0000
# 2 42.3752 74.7398 41.5311 0.0000 0.0000 0.0000
# 3 58.1202 41.5311 104.9369 0.0000 0.0000 0.0000
# 4 0.0000 0.0000 0.0000 -16.9958 0.0000 0.0000
# 5 0.0000 0.0000 0.0000 0.0000 32.5151 0.0000
# 6 0.0000 0.0000 0.0000 0.0000 0.0000 -47.9915
#
#
#
# Elastic Compliance Matrix: (Units=1/GPa)
#
#
# Indices 1 2 3 4 5 6 
#
# 1 0.012459 -0.004140 -0.005262 0.000000 0.000000 0.000000
# 2 -0.004140 0.018527 -0.005040 0.000000 0.000000 0.000000
# 3 -0.005262 -0.005040 0.014439 0.000000 0.000000 0.000000
# 4 0.000000 0.000000 0.000000 -0.058838 0.000000 0.000000
# 5 0.000000 0.000000 0.000000 0.000000 0.030755 0.000000
# 6 0.000000 0.000000 0.000000 0.000000 0.000000 -0.020837
#
#
# Mechanical properties :
#
#
# Convention : Reuss Voigt Hill
#
# Bulk Modulus (GPa) = 60.45360 64.73558 62.59459
# Shear Modulus (GPa) = 161.80074 3.94160 82.87117
#
# Velocity S-wave (km/s) = 9.34016 1.45781 6.68445
# Velocity P-wave (km/s) = 12.20299 6.14307 9.66050
#
# Compressibility (1/GPa) = 0.01654161
#
# Stress axis : x y z
#
# Youngs Moduli (GPa) = 80.26298 53.97418 69.25896
#
# Poissons Ratio (x) = 0.22345 0.36445
# Poissons Ratio (y) = 0.33228 0.34905
# Poissons Ratio (z) = 0.42235 0.27201
#
# Static dielectric constant tensor:
#      x y z
#    x 3.696840 0.000000 0.000000 
#    y 0.000000 3.241960 0.000000 
#    z 0.000000 0.000000 3.359850 
# 
# 
# High freq. dielectric constant tensor:
#      x y z
#    x 1.726130 0.000000 0.000000 
#    y 0.000000 1.700010 0.000000 
#    z 0.000000 0.000000 1.710190 
# 
# From -- ./inp_files/32298.got.cif
#   From: 2010.03.12/outbox.cif.g09.slc.cpg/sg51_17_cif.got.tgz:32298.got - 2010.04.16 13:43:02.
