data_PCOD8208913
_publ_section_title
;
Structure prediction by ZEFSAII (Michael W. Deem and Ramdas Pophale) SiO2 
 PCOD8208913
Probable space group: P M M A
;
_chemical_formula_sum "Si O2"
_cell_formula_units_Z 64
_cell_length_a 8.982239
_cell_length_b 14.089769
_cell_length_c 31.494043
_cell_angle_alpha 90.000000
_cell_angle_beta 90.000000
_cell_angle_gamma 90.000000
_cell_volume 3985.812783
_symmetry_space_group_name_H-M "P M M A"
_symmetry_group_IT_number 51
_symmetry_cell_setting 'orthorhombic'
loop_
_space_group_symop_operation_xyz
x,y,z
1/2-x,-y,z
1/2+x,-y,-z
-x,y,-z
-x,-y,-z
1/2+x,y,-z
1/2-x,y,z
x,-y,z
loop_
_atom_site_type_symbol
_atom_site_label
_atom_site_fract_x
_atom_site_fract_y
_atom_site_fract_z
Si Si1 0.421485 0.610533 0.381223
Si Si2 0.921560 0.107484 0.334012
Si Si3 0.074255 0.606924 0.215786
Si Si4 0.576008 0.892137 0.577015
Si Si5 0.582896 0.386838 0.132730
Si Si6 0.924839 0.391331 0.040713
Si Si7 0.075525 0.275879 0.296324
Si Si8 0.926468 0.715053 0.457606
O O1 0.250000 0.629166 0.393610
O O2 0.455451 0.500000 0.376020
O O3 0.461650 0.659611 0.336903
O O4 0.525975 0.652510 0.417579
O O5 0.750000 0.130103 0.345023
O O6 0.021077 0.124925 0.375351
O O7 0.983723 0.177770 0.298113
O O8 0.939137 0.000000 0.317338
O O9 0.250000 0.605458 0.215317
O O10 0.011924 0.500000 0.221695
O O11 0.016142 0.669960 0.254747
O O12 0.018763 0.651182 0.171177
O O13 0.750000 0.866687 0.575241
O O14 0.485005 0.823070 0.546280
O O15 0.545186 0.000000 0.562479
O O16 0.750000 0.351619 0.141664
O O17 0.578116 0.500000 0.130250
O O18 0.527580 0.346902 0.086637
O O19 0.750000 0.382724 0.035411
O O20 0.978178 0.500000 0.040667
O O21 0.000000 0.338910 0.000000
O O22 0.250000 0.253199 0.293205
O O23 0.750000 0.714580 0.461962
O O24 0.000000 0.670709 0.500000
#
# Coordination Sequence:
#
# PCOD8208913 Si02
#       8
#     8   8   8   8   8   8   8   8
#     4  10  21  38  58  77  98 125 156 191 229 266
#     4  10  20  33  51  76 102 125 149 180 219 263
#     4   9  17  28  42  63  89 118 153 190 227 267
#     4  10  20  36  58  81 104 128 152 180 219 266
#     4   8  14  24  35  49  74 108 144 185 231 274
#     4   8  13  20  30  45  66  95 136 184 231 274
#     4  10  19  32  52  74  97 123 152 186 225 268
#     4  12  25  40  58  78 102 128 156 188 223 267
#
# _framework density 16.056951000000002
#
# number of rings (size 3 to 8) (size 9 to 14) (size 15 to 20)
#    0.000    2.375    1.250    3.000    0.000    4.750 
#    0.000    2.500    0.000    2.250    0.000    0.000 
#    0.000    0.000    0.000    0.000    0.000    0.625 
#
# Total GULP energy -793394.516005 kJ/mol
# GULP energy per Si atom -12396.789313 kJ/mol
# Density = 1.602040 g / cm^3
# Si number density = 16.056951 Si / 1000 Ang^3
#
#
#
# Elastic Constant Matrix: (Units=GPa)
#
#
# Indices 1 2 3 4 5 6 
#
# 1 67.0350 27.7846 43.8496 0.0000 0.0000 0.0000
# 2 27.7846 60.4174 35.6820 0.0000 0.0000 0.0000
# 3 43.8496 35.6820 128.3525 0.0000 0.0000 0.0000
# 4 0.0000 0.0000 0.0000 7.3402 0.0000 0.0000
# 5 0.0000 0.0000 0.0000 0.0000 28.4093 0.0000
# 6 0.0000 0.0000 0.0000 0.0000 0.0000 19.2998
#
#
#
# Elastic Compliance Matrix: (Units=1/GPa)
#
#
# Indices 1 2 3 4 5 6 
#
# 1 0.021169 -0.006537 -0.005415 0.000000 0.000000 0.000000
# 2 -0.006537 0.021822 -0.003833 0.000000 0.000000 0.000000
# 3 -0.005415 -0.003833 0.010706 0.000000 0.000000 0.000000
# 4 0.000000 0.000000 0.000000 0.136236 0.000000 0.000000
# 5 0.000000 0.000000 0.000000 0.000000 0.035200 0.000000
# 6 0.000000 0.000000 0.000000 0.000000 0.000000 0.051814
#
#
# Mechanical properties :
#
#
# Convention : Reuss Voigt Hill
#
# Bulk Modulus (GPa) = 45.19347 52.27080 48.73213
# Shear Modulus (GPa) = 15.82816 20.90911 18.36863
#
# Velocity S-wave (km/s) = 3.14307 3.61249 3.38593
# Velocity P-wave (km/s) = 6.43263 7.07278 6.76029
#
# Compressibility (1/GPa) = 0.02212709
#
# Stress axis : x y z
#
# Youngs Moduli (GPa) = 47.23868 45.82603 93.40129
#
# Poissons Ratio (x) = 0.29958 0.50574
# Poissons Ratio (y) = 0.30881 0.35801
# Poissons Ratio (z) = 0.25578 0.17565
#
# Static dielectric constant tensor:
#      x y z
#    x 3.019060 0.000000 0.000000 
#    y 0.000000 2.871420 0.000000 
#    z 0.000000 0.000000 3.275100 
# 
# 
# High freq. dielectric constant tensor:
#      x y z
#    x 1.619560 0.000000 0.000000 
#    y 0.000000 1.575390 0.000000 
#    z 0.000000 0.000000 1.615350 
# 
# From -- ./inp_files/37653.got.cif
#   From: 2010.03.12/outbox.cif.g09.slc.cpg/sg51_19_cif.got.tgz:37653.got - 2010.04.16 13:43:02.
