data_PCOD8208511
_publ_section_title
;
Structure prediction by ZEFSAII (Michael W. Deem and Ramdas Pophale) SiO2 
 PCOD8208511
Probable space group: P M M A
;
_chemical_formula_sum "Si O2"
_cell_formula_units_Z 56
_cell_length_a 22.889078
_cell_length_b 9.657000
_cell_length_c 15.358216
_cell_angle_alpha 90.000000
_cell_angle_beta 90.000000
_cell_angle_gamma 90.000000
_cell_volume 3394.777396
_symmetry_space_group_name_H-M "P M M A"
_symmetry_group_IT_number 51
_symmetry_cell_setting 'orthorhombic'
loop_
_space_group_symop_operation_xyz
x,y,z
1/2-x,-y,z
1/2+x,-y,-z
-x,y,-z
-x,-y,-z
1/2+x,y,-z
1/2-x,y,z
x,-y,z
loop_
_atom_site_type_symbol
_atom_site_label
_atom_site_fract_x
_atom_site_fract_y
_atom_site_fract_z
Si Si1 0.684995 0.664531 0.812554
Si Si2 0.500132 0.160483 0.600765
Si Si3 0.130109 0.160394 0.656886
Si Si4 0.182232 0.840176 0.839622
Si Si5 0.816922 0.658064 0.489929
Si Si6 0.393940 0.663710 0.345183
Si Si7 0.680470 0.345977 0.003899
O O1 0.750000 0.726265 0.795712
O O2 0.689348 0.500000 0.808345
O O3 0.640732 0.718742 0.739305
O O4 0.661070 0.708663 0.908209
O O5 0.500000 0.204140 0.500000
O O6 0.437489 0.192943 0.641692
O O7 0.545278 0.255262 0.652954
O O8 0.517713 0.000000 0.611170
O O9 0.145808 0.203679 0.754924
O O10 0.170399 0.247290 0.592605
O O11 0.144646 0.000000 0.639944
O O12 0.250000 0.805797 0.822200
O O13 0.156497 0.754778 0.921116
O O14 0.173239 0.000000 0.862539
O O15 0.750000 0.675982 0.518855
O O16 0.830416 0.500000 0.463885
O O17 0.856571 0.704906 0.570444
O O18 0.405969 0.500000 0.340883
O O19 0.750000 0.349651 0.005096
O O20 0.655537 0.500000 0.021308
#
# Coordination Sequence:
#
# PCOD8208511 Si02
#       7
#     8   8   8   8   8   8   8
#     4   8  14  27  48  73  99 126 154 185 230 287
#     4  10  20  35  51  66  89 124 166 205 237 271
#     4  10  20  34  50  66  90 127 164 195 232 281
#     4   9  17  29  46  69  94 119 150 189 233 279
#     4  10  20  31  45  70 100 124 148 187 236 279
#     4  10  19  31  50  72  95 123 157 195 232 277
#     4   8  14  26  46  70  95 123 152 183 225 280
#
# _framework density 16.495926999999998
#
# number of rings (size 3 to 8) (size 9 to 14) (size 15 to 20)
#    0.000    2.714    1.429    1.714    0.000    4.000 
#    0.000    2.143    0.000    3.000    0.000    6.000 
#    0.000    0.000    0.000    0.000    0.000    0.000 
#
# Total GULP energy -694366.460000 kJ/mol
# GULP energy per Si atom -12399.401071 kJ/mol
# Density = 1.645838 g / cm^3
# Si number density = 16.495927 Si / 1000 Ang^3
#
#
#
# Elastic Constant Matrix: (Units=GPa)
#
#
# Indices 1 2 3 4 5 6 
#
# 1 65.5486 28.4028 45.1488 0.0000 0.0000 0.0000
# 2 28.4028 46.5842 47.0862 0.0000 0.0000 0.0000
# 3 45.1488 47.0862 132.3915 0.0000 0.0000 0.0000
# 4 0.0000 0.0000 0.0000 21.7582 0.0000 0.0000
# 5 0.0000 0.0000 0.0000 0.0000 14.9593 0.0000
# 6 0.0000 0.0000 0.0000 0.0000 0.0000 20.9739
#
#
#
# Elastic Compliance Matrix: (Units=1/GPa)
#
#
# Indices 1 2 3 4 5 6 
#
# 1 0.022201 -0.009185 -0.004304 0.000000 0.000000 0.000000
# 2 -0.009185 0.037315 -0.010139 0.000000 0.000000 0.000000
# 3 -0.004304 -0.010139 0.012627 0.000000 0.000000 0.000000
# 4 0.000000 0.000000 0.000000 0.045960 0.000000 0.000000
# 5 0.000000 0.000000 0.000000 0.000000 0.066848 0.000000
# 6 0.000000 0.000000 0.000000 0.000000 0.000000 0.047678
#
#
# Mechanical properties :
#
#
# Convention : Reuss Voigt Hill
#
# Bulk Modulus (GPa) = 40.18338 53.97779 47.08059
# Shear Modulus (GPa) = 17.35019 19.79737 18.57378
#
# Velocity S-wave (km/s) = 3.24664 3.46806 3.35918
# Velocity P-wave (km/s) = 6.20215 6.98781 6.60667
#
# Compressibility (1/GPa) = 0.02488591
#
# Stress axis : x y z
#
# Youngs Moduli (GPa) = 45.04394 26.79873 79.19422
#
# Poissons Ratio (x) = 0.24616 0.34086
# Poissons Ratio (y) = 0.41375 0.80295
# Poissons Ratio (z) = 0.19387 0.27171
#
# Static dielectric constant tensor:
#      x y z
#    x 2.964030 0.000000 0.000000 
#    y 0.000000 3.012570 0.000000 
#    z 0.000000 0.000000 3.338560 
# 
# 
# High freq. dielectric constant tensor:
#      x y z
#    x 1.613690 0.000000 0.000000 
#    y 0.000000 1.619930 0.000000 
#    z 0.000000 0.000000 1.640880 
# 
# From -- ./inp_files/18759.got.cif
#   From: 2010.03.12/outbox.cif.g09.slc.cpg/sg51_10_cif.got.tgz:18759.got - 2010.04.16 13:43:02.
