data_PCOD8208023
_publ_section_title
;
Structure prediction by ZEFSAII (Michael W. Deem and Ramdas Pophale) SiO2 
 PCOD8208023
Probable space group: P M M A
;
_chemical_formula_sum "Si O2"
_cell_formula_units_Z 48
_cell_length_a 18.944975
_cell_length_b 8.801965
_cell_length_c 15.456733
_cell_angle_alpha 90.000000
_cell_angle_beta 90.000000
_cell_angle_gamma 90.000000
_cell_volume 2577.456704
_symmetry_space_group_name_H-M "P M M A"
_symmetry_group_IT_number 51
_symmetry_cell_setting 'orthorhombic'
loop_
_space_group_symop_operation_xyz
x,y,z
1/2-x,-y,z
1/2+x,-y,-z
-x,y,-z
-x,-y,-z
1/2+x,y,-z
1/2-x,y,z
x,-y,z
loop_
_atom_site_type_symbol
_atom_site_label
_atom_site_fract_x
_atom_site_fract_y
_atom_site_fract_z
Si Si1 0.079605 0.319420 0.254397
Si Si2 0.831042 0.822360 0.595230
Si Si3 0.670745 0.319217 0.094979
Si Si4 0.079561 0.680967 0.747716
Si Si5 0.168664 0.324064 0.584589
Si Si6 0.829116 0.319360 0.903291
O O1 0.079764 0.500000 0.253047
O O2 0.119426 0.266235 0.339421
O O3 0.118166 0.252820 0.168974
O O4 0.999985 0.255855 0.255308
O O5 0.750000 0.776830 0.613883
O O6 0.852313 0.773437 0.498812
O O7 0.843508 0.000000 0.605948
O O8 0.750000 0.260638 0.114338
O O9 0.670213 0.500000 0.098755
O O10 0.617601 0.251967 0.166651
O O11 0.646742 0.264875 0.999035
O O12 0.080565 0.500000 0.751041
O O13 0.121180 0.737541 0.663141
O O14 0.250000 0.299843 0.610779
O O15 0.153173 0.500000 0.564193
O O16 0.750000 0.259779 0.883665
O O17 0.829524 0.500000 0.899870
#
# Coordination Sequence:
#
# PCOD8208023 Si02
#       6
#     8   8   8   8   8   8
#     4  10  19  30  46  70 100 128 153 187 231 278
#     4  10  21  36  52  69  89 117 156 197 234 276
#     4   8  13  23  40  64  96 128 156 191 232 270
#     4   9  17  27  42  68  98 126 155 188 230 278
#     4   9  17  31  51  71  91 119 156 196 235 274
#     4   8  14  24  40  64  93 125 158 190 227 270
#
# _framework density 18.623010000000001
#
# number of rings (size 3 to 8) (size 9 to 14) (size 15 to 20)
#    0.000    3.000    0.000    2.500    0.000    5.000 
#    0.000    7.500    0.000    0.000    0.000    3.500 
#    0.000    5.333    0.000    0.000    0.000    0.000 
#
# Total GULP energy -595061.784234 kJ/mol
# GULP energy per Si atom -12397.120505 kJ/mol
# Density = 1.858062 g / cm^3
# Si number density = 18.623010 Si / 1000 Ang^3
#
#
#
# Elastic Constant Matrix: (Units=GPa)
#
#
# Indices 1 2 3 4 5 6 
#
# 1 138.5732 12.4050 100.6845 0.0000 0.0000 0.0000
# 2 12.4050 9.0399 8.4199 0.0000 0.0000 0.0000
# 3 100.6845 8.4199 153.4418 0.0000 0.0000 0.0000
# 4 0.0000 0.0000 0.0000 -0.8801 0.0000 0.0000
# 5 0.0000 0.0000 0.0000 0.0000 17.5814 0.0000
# 6 0.0000 0.0000 0.0000 0.0000 0.0000 9.2390
#
#
#
# Elastic Compliance Matrix: (Units=1/GPa)
#
#
# Indices 1 2 3 4 5 6 
#
# 1 0.014928 -0.011973 -0.009138 0.000000 0.000000 0.000000
# 2 -0.011973 0.126183 0.000932 0.000000 0.000000 0.000000
# 3 -0.009138 0.000932 0.012462 0.000000 0.000000 0.000000
# 4 0.000000 0.000000 0.000000 -1.136243 0.000000 0.000000
# 5 0.000000 0.000000 0.000000 0.000000 0.056878 0.000000
# 6 0.000000 0.000000 0.000000 0.000000 0.000000 0.108237
#
#
# Mechanical properties :
#
#
# Convention : Reuss Voigt Hill
#
# Bulk Modulus (GPa) = 8.83278 60.45264 34.64271
# Shear Modulus (GPa) = -6.76170 17.15776 5.19803
#
# Velocity S-wave (km/s) = -1.90754 3.03862 1.67250
# Velocity P-wave (km/s) = 0.31367 6.69647 4.72992
#
# Compressibility (1/GPa) = 0.11321466
#
# Stress axis : x y z
#
# Youngs Moduli (GPa) = 66.98829 7.92501 80.24204
#
# Poissons Ratio (x) = 0.09489 0.73328
# Poissons Ratio (y) = 0.80207 -0.07482
# Poissons Ratio (z) = 0.61216 -0.00739
#
# Static dielectric constant tensor:
#      x y z
#    x 3.622810 0.000000 0.000000 
#    y 0.000000 2.808970 0.000000 
#    z 0.000000 0.000000 3.694190 
# 
# 
# High freq. dielectric constant tensor:
#      x y z
#    x 1.722190 0.000000 0.000000 
#    y 0.000000 1.659340 0.000000 
#    z 0.000000 0.000000 1.739420 
# 
# From -- ./inp_files/24794.got.cif
#   From: 2010.03.12/outbox.cif.g09.slc.cpg/sg51_13_cif.got.tgz:24794.got - 2010.04.16 13:43:02.
