data_PCOD8208938
_publ_section_title
;
Structure prediction by ZEFSAII (Michael W. Deem and Ramdas Pophale) SiO2 
 PCOD8208938
Probable space group: P M M A
;
_chemical_formula_sum "Si O2"
_cell_formula_units_Z 48
_cell_length_a 9.418533
_cell_length_b 13.901672
_cell_length_c 19.581019
_cell_angle_alpha 90.000000
_cell_angle_beta 90.000000
_cell_angle_gamma 90.000000
_cell_volume 2563.808541
_symmetry_space_group_name_H-M "P M M A"
_symmetry_group_IT_number 51
_symmetry_cell_setting 'orthorhombic'
loop_
_space_group_symop_operation_xyz
x,y,z
1/2-x,-y,z
1/2+x,-y,-z
-x,y,-z
-x,-y,-z
1/2+x,y,-z
1/2-x,y,z
x,-y,z
loop_
_atom_site_type_symbol
_atom_site_label
_atom_site_fract_x
_atom_site_fract_y
_atom_site_fract_z
Si Si1 0.415286 0.208326 0.704356
Si Si2 0.918008 0.393536 0.213490
Si Si3 0.586696 0.109379 0.434170
Si Si4 0.407763 0.613433 0.937718
Si Si5 0.090530 0.885986 0.936456
Si Si6 0.591743 0.887488 0.812869
O O1 0.250000 0.189028 0.722035
O O2 0.462140 0.315773 0.728456
O O3 0.444176 0.188169 0.624686
O O4 0.514617 0.131487 0.741661
O O5 0.750000 0.400808 0.208427
O O6 0.978207 0.500000 0.233568
O O7 0.973295 0.362252 0.137699
O O8 0.500000 0.142908 0.500000
O O9 0.750000 0.112086 0.455145
O O10 0.544800 0.000000 0.411527
O O11 0.250000 0.657676 0.944325
O O12 0.400271 0.500000 0.945572
O O13 0.500000 0.657995 0.000000
O O14 0.250000 0.843784 0.938953
O O15 0.009454 0.842507 0.871079
O O16 0.097407 0.000000 0.934312
O O17 0.000000 0.848919 0.000000
O O18 0.750000 0.841509 0.814802
O O19 0.606301 0.000000 0.825040
#
# Coordination Sequence:
#
# PCOD8208938 Si02
#       6
#     8   8   8   8   8   8
#     4  10  19  32  52  75  98 126 162 203 244 289
#     4   8  15  29  49  72  97 127 165 207 250 295
#     4   9  18  32  51  76 103 129 158 193 237 292
#     4   8  13  23  41  64  89 118 154 197 243 288
#     4   9  16  27  44  64  88 122 164 207 248 291
#     4  10  20  32  46  67  96 128 161 199 246 298
#
# _framework density 18.722148000000001
#
# number of rings (size 3 to 8) (size 9 to 14) (size 15 to 20)
#    0.000    3.000    0.000    2.500    0.000    4.333 
#    0.000    3.333    0.000    4.000    0.000    0.000 
#    0.000    0.000    0.000    0.000    0.000    0.000 
#
# Total GULP energy -594753.820816 kJ/mol
# GULP energy per Si atom -12390.704600 kJ/mol
# Density = 1.867954 g / cm^3
# Si number density = 18.722148 Si / 1000 Ang^3
#
#
#
# Elastic Constant Matrix: (Units=GPa)
#
#
# Indices 1 2 3 4 5 6 
#
# 1 107.2454 20.0685 66.4225 0.0000 0.0000 0.0000
# 2 20.0685 75.6395 47.6372 0.0000 0.0000 0.0000
# 3 66.4225 47.6372 146.5639 0.0000 0.0000 0.0000
# 4 0.0000 0.0000 0.0000 71.3125 0.0000 0.0000
# 5 0.0000 0.0000 0.0000 0.0000 33.2683 0.0000
# 6 0.0000 0.0000 0.0000 0.0000 0.0000 3.3505
#
#
#
# Elastic Compliance Matrix: (Units=1/GPa)
#
#
# Indices 1 2 3 4 5 6 
#
# 1 0.012969 0.000328 -0.005984 0.000000 0.000000 0.000000
# 2 0.000328 0.016632 -0.005554 0.000000 0.000000 0.000000
# 3 -0.005984 -0.005554 0.011340 0.000000 0.000000 0.000000
# 4 0.000000 0.000000 0.000000 0.014023 0.000000 0.000000
# 5 0.000000 0.000000 0.000000 0.000000 0.030059 0.000000
# 6 0.000000 0.000000 0.000000 0.000000 0.000000 0.298461
#
#
# Mechanical properties :
#
#
# Convention : Reuss Voigt Hill
#
# Bulk Modulus (GPa) = 53.99589 66.41169 60.20379
# Shear Modulus (GPa) = 12.13361 34.60765 23.37063
#
# Velocity S-wave (km/s) = 2.54852 4.30407 3.53694
# Velocity P-wave (km/s) = 6.12888 7.76204 6.99330
#
# Compressibility (1/GPa) = 0.01851993
#
# Stress axis : x y z
#
# Youngs Moduli (GPa) = 77.10440 60.12619 88.18080
#
# Poissons Ratio (x) = -0.01971 0.52770
# Poissons Ratio (y) = -0.02528 0.48978
# Poissons Ratio (z) = 0.46141 0.33396
#
# Static dielectric constant tensor:
#      x y z
#    x 3.526610 0.000000 0.000000 
#    y 0.000000 3.383220 0.000000 
#    z 0.000000 0.000000 3.371170 
# 
# 
# High freq. dielectric constant tensor:
#      x y z
#    x 1.712950 0.000000 0.000000 
#    y 0.000000 1.715590 0.000000 
#    z 0.000000 0.000000 1.709010 
# 
# From -- ./inp_files/27536.got.cif
#   From: 2010.03.12/outbox.cif.g09.slc.cpg/sg51_14_cif.got.tgz:27536.got - 2010.04.16 13:43:02.
