data_PCOD8208687
_publ_section_title
;
Structure prediction by ZEFSAII (Michael W. Deem and Ramdas Pophale) SiO2 
 PCOD8208687
Probable space group: P M M A
;
_chemical_formula_sum "Si O2"
_cell_formula_units_Z 52
_cell_length_a 9.466419
_cell_length_b 23.477865
_cell_length_c 14.526971
_cell_angle_alpha 90.000000
_cell_angle_beta 90.000000
_cell_angle_gamma 90.000000
_cell_volume 3228.638296
_symmetry_space_group_name_H-M "P M M A"
_symmetry_group_IT_number 51
_symmetry_cell_setting 'orthorhombic'
loop_
_space_group_symop_operation_xyz
x,y,z
1/2-x,-y,z
1/2+x,-y,-z
-x,y,-z
-x,-y,-z
1/2+x,y,-z
1/2-x,y,z
x,-y,z
loop_
_atom_site_type_symbol
_atom_site_label
_atom_site_fract_x
_atom_site_fract_y
_atom_site_fract_z
Si Si1 0.915295 0.376693 0.905237
Si Si2 0.081885 0.165623 0.094569
Si Si3 0.409972 0.500000 0.089788
Si Si4 0.582653 0.272526 0.784859
Si Si5 0.911443 0.891681 0.586440
Si Si6 0.588571 0.757011 0.586547
Si Si7 0.082505 0.936531 0.220784
O O1 0.750000 0.366236 0.926616
O O2 0.940002 0.439755 0.858391
O O3 0.972428 0.330260 0.832993
O O4 0.000000 0.370175 0.000000
O O5 0.250000 0.166443 0.077430
O O6 0.031049 0.218120 0.157461
O O7 0.029831 0.107526 0.143576
O O8 0.000000 0.170984 0.000000
O O9 0.250000 0.500000 0.055596
O O10 0.500000 0.500000 0.000000
O O11 0.750000 0.270625 0.779304
O O12 0.525092 0.270438 0.680202
O O13 0.750000 0.910101 0.570612
O O14 0.925204 0.824358 0.597563
O O15 0.975967 0.920008 0.678438
O O16 0.000000 0.914497 0.500000
O O17 0.500000 0.733952 0.500000
O O18 0.750000 0.738744 0.570241
O O19 0.250000 0.932619 0.226211
O O20 0.030686 0.000000 0.194060
#
# Coordination Sequence:
#
# PCOD8208687 Si02
#       7
#     8   8   4   8   8   8   8
#     4   9  16  26  41  62  88 117 145 174 206 244
#     4  10  19  32  47  63  83 109 141 175 208 244
#     4   8  14  24  38  58  85 114 144 174 205 240
#     4   9  16  28  46  64  85 113 142 170 206 251
#     4   9  16  28  46  65  84 106 133 166 206 252
#     4   9  16  28  45  64  84 108 136 168 207 250
#     4   9  17  30  47  63  81 110 143 168 200 254
#
# _framework density 16.105861000000001
#
# number of rings (size 3 to 8) (size 9 to 14) (size 15 to 20)
#    0.000    2.923    1.538    0.462    0.000    0.615 
#    0.000    2.308    0.000    0.923    0.000    0.538 
#    0.000    0.000    0.000    0.000    0.000    0.000 
#
# Total GULP energy -644408.760389 kJ/mol
# GULP energy per Si atom -12392.476161 kJ/mol
# Density = 1.606920 g / cm^3
# Si number density = 16.105861 Si / 1000 Ang^3
#
#
#
# Elastic Constant Matrix: (Units=GPa)
#
#
# Indices 1 2 3 4 5 6 
#
# 1 32.7231 24.3725 36.0439 0.0000 0.0000 0.0000
# 2 24.3725 117.0546 68.9976 0.0000 0.0000 0.0000
# 3 36.0439 68.9976 139.8481 0.0000 0.0000 0.0000
# 4 0.0000 0.0000 0.0000 21.8892 0.0000 0.0000
# 5 0.0000 0.0000 0.0000 0.0000 25.8185 0.0000
# 6 0.0000 0.0000 0.0000 0.0000 0.0000 9.3302
#
#
#
# Elastic Compliance Matrix: (Units=1/GPa)
#
#
# Indices 1 2 3 4 5 6 
#
# 1 0.043649 -0.003465 -0.009540 0.000000 0.000000 0.000000
# 2 -0.003465 0.012321 -0.005186 0.000000 0.000000 0.000000
# 3 -0.009540 -0.005186 0.012168 0.000000 0.000000 0.000000
# 4 0.000000 0.000000 0.000000 0.045685 0.000000 0.000000
# 5 0.000000 0.000000 0.000000 0.000000 0.038732 0.000000
# 6 0.000000 0.000000 0.000000 0.000000 0.000000 0.107178
#
#
# Mechanical properties :
#
#
# Convention : Reuss Voigt Hill
#
# Bulk Modulus (GPa) = 31.49035 60.93933 46.21484
# Shear Modulus (GPa) = 16.30254 22.08837 19.19545
#
# Velocity S-wave (km/s) = 3.18498 3.70733 3.45603
# Velocity P-wave (km/s) = 5.75500 7.49964 6.68448
#
# Compressibility (1/GPa) = 0.03175576
#
# Stress axis : x y z
#
# Youngs Moduli (GPa) = 22.91025 81.16003 82.18138
#
# Poissons Ratio (x) = 0.28119 0.78405
# Poissons Ratio (y) = 0.07938 0.42620
# Poissons Ratio (z) = 0.21857 0.42090
#
# Static dielectric constant tensor:
#      x y z
#    x 2.794560 0.000000 0.000000 
#    y 0.000000 3.420180 0.000000 
#    z 0.000000 0.000000 2.892100 
# 
# 
# High freq. dielectric constant tensor:
#      x y z
#    x 1.587880 0.000000 0.000000 
#    y 0.000000 1.616420 0.000000 
#    z 0.000000 0.000000 1.609960 
# 
# From -- ./inp_files/15611.got.cif
#   From: 2010.03.12/outbox.cif.g09.slc.cpg/sg51_8_cif.got.tgz:15611.got - 2010.04.16 13:43:02.
