data_PCOD8208748
_publ_section_title
;
Structure prediction by ZEFSAII (Michael W. Deem and Ramdas Pophale) SiO2 
 PCOD8208748
Probable space group: P M M A
;
_chemical_formula_sum "Si O2"
_cell_formula_units_Z 56
_cell_length_a 18.272978
_cell_length_b 9.590493
_cell_length_c 19.067027
_cell_angle_alpha 90.000000
_cell_angle_beta 90.000000
_cell_angle_gamma 90.000000
_cell_volume 3341.436756
_symmetry_space_group_name_H-M "P M M A"
_symmetry_group_IT_number 51
_symmetry_cell_setting 'orthorhombic'
loop_
_space_group_symop_operation_xyz
x,y,z
1/2-x,-y,z
1/2+x,-y,-z
-x,y,-z
-x,-y,-z
1/2+x,y,-z
1/2-x,y,z
x,-y,z
loop_
_atom_site_type_symbol
_atom_site_label
_atom_site_fract_x
_atom_site_fract_y
_atom_site_fract_z
Si Si1 0.542544 0.837221 0.429411
Si Si2 0.666905 0.340140 0.476646
Si Si3 0.562502 0.348126 0.056767
Si Si4 0.039832 0.162415 0.140363
Si Si5 0.835709 0.335929 0.935217
Si Si6 0.666494 0.346197 0.635311
Si Si7 0.556506 0.158065 0.699091
O O1 0.500000 0.792860 0.500000
O O2 0.618662 0.755270 0.426259
O O3 0.500636 0.789436 0.359394
O O4 0.559803 0.000000 0.429126
O O5 0.750000 0.323758 0.451574
O O6 0.641736 0.500000 0.470817
O O7 0.657967 0.287261 0.556610
O O8 0.572846 0.500000 0.094440
O O9 0.535254 0.228007 0.109470
O O10 0.500000 0.365927 0.000000
O O11 0.637251 0.306584 0.015407
O O12 0.113775 0.243854 0.117139
O O13 0.026327 0.176566 0.223059
O O14 0.046700 0.000000 0.117711
O O15 0.750000 0.293182 0.928325
O O16 0.846407 0.500000 0.917183
O O17 0.750000 0.354056 0.657593
O O18 0.631363 0.500000 0.639813
O O19 0.629595 0.247108 0.691897
O O20 0.578024 0.000000 0.682910
#
# Coordination Sequence:
#
# PCOD8208748 Si02
#       7
#     8   8   8   8   8   8   8
#     4  10  19  32  50  70  92 123 168 211 244 287
#     4   9  18  32  49  70  94 117 148 198 255 301
#     4   8  15  30  51  72  94 123 160 194 226 271
#     4  10  20  32  47  69 101 134 161 194 239 284
#     4   9  18  33  53  76 101 128 158 194 232 274
#     4   9  18  31  46  66  92 122 156 193 238 293
#     4  10  21  34  46  67  98 130 163 202 243 284
#
# _framework density 16.759257999999999
#
# number of rings (size 3 to 8) (size 9 to 14) (size 15 to 20)
#    0.000    2.714    1.429    2.143    0.000    6.000 
#    0.000    4.286    0.000    0.857    0.000    4.000 
#    0.000    0.000    0.000    0.000    0.000    0.000 
#
# Total GULP energy -694056.446181 kJ/mol
# GULP energy per Si atom -12393.865110 kJ/mol
# Density = 1.672111 g / cm^3
# Si number density = 16.759258 Si / 1000 Ang^3
#
#
#
# Elastic Constant Matrix: (Units=GPa)
#
#
# Indices 1 2 3 4 5 6 
#
# 1 63.4311 41.2455 38.6145 0.0000 0.0000 0.0000
# 2 41.2455 78.6232 46.4872 0.0000 0.0000 0.0000
# 3 38.6145 46.4872 81.5952 0.0000 0.0000 0.0000
# 4 0.0000 0.0000 0.0000 23.1891 0.0000 0.0000
# 5 0.0000 0.0000 0.0000 0.0000 21.6471 0.0000
# 6 0.0000 0.0000 0.0000 0.0000 0.0000 31.9739
#
#
#
# Elastic Compliance Matrix: (Units=1/GPa)
#
#
# Indices 1 2 3 4 5 6 
#
# 1 0.026279 -0.009700 -0.006910 0.000000 0.000000 0.000000
# 2 -0.009700 0.022761 -0.008377 0.000000 0.000000 0.000000
# 3 -0.006910 -0.008377 0.020298 0.000000 0.000000 0.000000
# 4 0.000000 0.000000 0.000000 0.043124 0.000000 0.000000
# 5 0.000000 0.000000 0.000000 0.000000 0.046196 0.000000
# 6 0.000000 0.000000 0.000000 0.000000 0.000000 0.031275
#
#
# Mechanical properties :
#
#
# Convention : Reuss Voigt Hill
#
# Bulk Modulus (GPa) = 51.64243 52.92709 52.28476
# Shear Modulus (GPa) = 20.29540 21.84885 21.07213
#
# Velocity S-wave (km/s) = 3.48371 3.61458 3.54975
# Velocity P-wave (km/s) = 6.86024 7.00497 6.93298
#
# Compressibility (1/GPa) = 0.01936392
#
# Stress axis : x y z
#
# Youngs Moduli (GPa) = 38.05289 43.93574 49.26555
#
# Poissons Ratio (x) = 0.42619 0.34042
# Poissons Ratio (y) = 0.36913 0.41268
# Poissons Ratio (z) = 0.26294 0.36804
#
# Static dielectric constant tensor:
#      x y z
#    x 3.190420 0.000000 0.000000 
#    y 0.000000 3.235060 0.000000 
#    z 0.000000 0.000000 3.029330 
# 
# 
# High freq. dielectric constant tensor:
#      x y z
#    x 1.632980 0.000000 0.000000 
#    y 0.000000 1.651300 0.000000 
#    z 0.000000 0.000000 1.621510 
# 
# From -- ./inp_files/33706.got.cif
#   From: 2010.03.12/outbox.cif.g09.slc.cpg/sg51_17_cif.got.tgz:33706.got - 2010.04.16 13:43:02.
