data_PCOD8208943
_publ_section_title
;
Structure prediction by ZEFSAII (Michael W. Deem and Ramdas Pophale) SiO2 
 PCOD8208943
Probable space group: P M M A
;
_chemical_formula_sum "Si O2"
_cell_formula_units_Z 56
_cell_length_a 13.908729
_cell_length_b 9.232662
_cell_length_c 23.485451
_cell_angle_alpha 90.000000
_cell_angle_beta 90.000000
_cell_angle_gamma 90.000000
_cell_volume 3015.874648
_symmetry_space_group_name_H-M "P M M A"
_symmetry_group_IT_number 51
_symmetry_cell_setting 'orthorhombic'
loop_
_space_group_symop_operation_xyz
x,y,z
1/2-x,-y,z
1/2+x,-y,-z
-x,y,-z
-x,-y,-z
1/2+x,y,-z
1/2-x,y,z
x,-y,z
loop_
_atom_site_type_symbol
_atom_site_label
_atom_site_fract_x
_atom_site_fract_y
_atom_site_fract_z
Si Si1 0.546575 0.332327 0.136432
Si Si2 0.360888 0.334981 0.526292
Si Si3 0.475499 0.670372 0.638807
Si Si4 0.141223 0.672061 0.747614
Si Si5 0.361169 0.169347 0.413308
Si Si6 0.141879 0.333496 0.077334
Si Si7 0.863774 0.163255 0.033047
O O1 0.574749 0.500000 0.129471
O O2 0.581857 0.273490 0.197404
O O3 0.430993 0.310187 0.130293
O O4 0.601018 0.245270 0.088311
O O5 0.250000 0.314568 0.541523
O O6 0.383965 0.500000 0.508510
O O7 0.417743 0.288607 0.582172
O O8 0.392703 0.234391 0.474165
O O9 0.495046 0.500000 0.644416
O O10 0.414553 0.729894 0.692154
O O11 0.577176 0.754058 0.636390
O O12 0.250000 0.734815 0.748969
O O13 0.145576 0.500000 0.745589
O O14 0.250000 0.203650 0.400706
O O15 0.382556 0.000000 0.414074
O O16 0.250000 0.285653 0.095643
O O17 0.141945 0.500000 0.057515
O O18 0.100419 0.240715 0.024681
O O19 0.750000 0.166737 0.033705
O O20 0.903782 0.000000 0.033227
#
# Coordination Sequence:
#
# PCOD8208943 Si02
#       7
#     8   8   8   8   8   8   8
#     4  10  19  32  52  75  99 132 169 202 242 291
#     4   9  17  30  50  76 104 132 163 202 248 297
#     4  10  19  32  52  76 100 130 168 206 245 290
#     4   9  18  33  53  77 103 129 160 200 244 291
#     4  10  21  35  50  71 101 134 166 203 249 298
#     4   9  18  32  49  71 100 131 164 203 245 291
#     4  10  20  32  48  73 103 132 163 203 251 298
#
# _framework density 18.56841
#
# number of rings (size 3 to 8) (size 9 to 14) (size 15 to 20)
#    0.000    2.429    0.000    2.571    0.000    8.571 
#    0.000    1.429    0.000    4.714    0.000    2.000 
#    0.000    0.000    0.000    0.000    0.000    0.000 
#
# Total GULP energy -694407.436732 kJ/mol
# GULP energy per Si atom -12400.132799 kJ/mol
# Density = 1.852615 g / cm^3
# Si number density = 18.568410 Si / 1000 Ang^3
#
#
#
# Elastic Constant Matrix: (Units=GPa)
#
#
# Indices 1 2 3 4 5 6 
#
# 1 96.1813 42.8941 90.5163 0.0000 0.0000 0.0000
# 2 42.8941 61.6885 46.6156 0.0000 0.0000 0.0000
# 3 90.5163 46.6156 124.1728 0.0000 0.0000 0.0000
# 4 0.0000 0.0000 0.0000 -1.4878 0.0000 0.0000
# 5 0.0000 0.0000 0.0000 0.0000 34.3621 0.0000
# 6 0.0000 0.0000 0.0000 0.0000 0.0000 22.3898
#
#
#
# Elastic Compliance Matrix: (Units=1/GPa)
#
#
# Indices 1 2 3 4 5 6 
#
# 1 0.035210 -0.007102 -0.023000 0.000000 0.000000 0.000000
# 2 -0.007102 0.024063 -0.003856 0.000000 0.000000 0.000000
# 3 -0.023000 -0.003856 0.026267 0.000000 0.000000 0.000000
# 4 0.000000 0.000000 0.000000 -0.672123 0.000000 0.000000
# 5 0.000000 0.000000 0.000000 0.000000 0.029102 0.000000
# 6 0.000000 0.000000 0.000000 0.000000 0.000000 0.044663
#
#
# Mechanical properties :
#
#
# Convention : Reuss Voigt Hill
#
# Bulk Modulus (GPa) = 56.74546 71.34384 64.04465
# Shear Modulus (GPa) = -11.38882 17.85393 3.23255
#
# Velocity S-wave (km/s) = -2.47927 3.10421 1.32086
# Velocity P-wave (km/s) = 4.73613 7.16615 6.07390
#
# Compressibility (1/GPa) = 0.01762255
#
# Stress axis : x y z
#
# Youngs Moduli (GPa) = 28.40113 41.55771 38.07062
#
# Poissons Ratio (x) = 0.29516 0.87563
# Poissons Ratio (y) = 0.20171 0.14681
# Poissons Ratio (z) = 0.65323 0.16025
#
# Static dielectric constant tensor:
#      x y z
#    x 3.701630 0.000000 0.000000 
#    y 0.000000 3.292630 0.000000 
#    z 0.000000 0.000000 3.367230 
# 
# 
# High freq. dielectric constant tensor:
#      x y z
#    x 1.738590 0.000000 0.000000 
#    y 0.000000 1.698650 0.000000 
#    z 0.000000 0.000000 1.701810 
# 
# From -- ./inp_files/33349.got.cif
#   From: 2010.03.12/outbox.cif.g09.slc.cpg/sg51_17_cif.got.tgz:33349.got - 2010.04.16 13:43:02.
