data_PCOD8208897
_publ_section_title
;
Structure prediction by ZEFSAII (Michael W. Deem and Ramdas Pophale) SiO2 
 PCOD8208897
Probable space group: P M M A
;
_chemical_formula_sum "Si O2"
_cell_formula_units_Z 56
_cell_length_a 19.365441
_cell_length_b 9.196006
_cell_length_c 17.321831
_cell_angle_alpha 90.000000
_cell_angle_beta 90.000000
_cell_angle_gamma 90.000000
_cell_volume 3084.753279
_symmetry_space_group_name_H-M "P M M A"
_symmetry_group_IT_number 51
_symmetry_cell_setting 'orthorhombic'
loop_
_space_group_symop_operation_xyz
x,y,z
1/2-x,-y,z
1/2+x,-y,-z
-x,y,-z
-x,-y,-z
1/2+x,y,-z
1/2-x,y,z
x,-y,z
loop_
_atom_site_type_symbol
_atom_site_label
_atom_site_fract_x
_atom_site_fract_y
_atom_site_fract_z
Si Si1 0.328445 0.833109 0.827672
Si Si2 0.169449 0.668565 0.384037
Si Si3 0.951205 0.668812 0.885034
Si Si4 0.329776 0.169177 0.540280
Si Si5 0.932177 0.172277 0.728249
Si Si6 0.085125 0.171698 0.686139
Si Si7 0.400011 0.332728 0.951398
O O1 0.250000 0.812771 0.801054
O O2 0.376372 0.761953 0.761063
O O3 0.339926 0.757043 0.910001
O O4 0.347974 0.000000 0.839563
O O5 0.250000 0.689338 0.366330
O O6 0.148375 0.500000 0.385458
O O7 0.149719 0.738788 0.465648
O O8 0.128892 0.750918 0.317302
O O9 0.946080 0.500000 0.860178
O O10 0.928962 0.772464 0.815743
O O11 0.027883 0.709390 0.911645
O O12 0.900760 0.701520 0.957319
O O13 0.250000 0.193198 0.563830
O O14 0.378542 0.230237 0.608529
O O15 0.344245 0.000000 0.522426
O O16 0.004880 0.216045 0.688415
O O17 0.921208 0.000000 0.727512
O O18 0.095510 0.000000 0.688157
O O19 0.383888 0.500000 0.937921
#
# Coordination Sequence:
#
# PCOD8208897 Si02
#       7
#     8   8   8   8   8   8   8
#     4  10  19  32  51  77 112 148 181 219 264 315
#     4  10  22  40  58  76 103 138 175 220 275 326
#     4   9  18  34  54  76 104 139 177 218 266 315
#     4   9  17  33  57  79 103 141 184 218 252 307
#     4  11  21  34  56  84 110 137 175 223 267 317
#     4   9  18  32  51  80 112 141 175 215 264 312
#     4   9  18  33  53  75 102 139 181 220 260 314
#
# _framework density 18.153801999999999
#
# number of rings (size 3 to 8) (size 9 to 14) (size 15 to 20)
#    0.000    2.429    1.429    2.143    0.000    4.000 
#    0.000    7.143    0.000    2.571    0.000    0.000 
#    0.000    0.000    0.000    0.000    0.000    0.000 
#
# Total GULP energy -694417.645545 kJ/mol
# GULP energy per Si atom -12400.315099 kJ/mol
# Density = 1.811248 g / cm^3
# Si number density = 18.153802 Si / 1000 Ang^3
#
#
#
# Elastic Constant Matrix: (Units=GPa)
#
#
# Indices 1 2 3 4 5 6 
#
# 1 65.0364 43.2801 57.1056 0.0000 0.0000 0.0000
# 2 43.2801 76.8764 63.2458 0.0000 0.0000 0.0000
# 3 57.1056 63.2458 135.0831 0.0000 0.0000 0.0000
# 4 0.0000 0.0000 0.0000 24.7919 0.0000 0.0000
# 5 0.0000 0.0000 0.0000 0.0000 31.7420 0.0000
# 6 0.0000 0.0000 0.0000 0.0000 0.0000 21.7797
#
#
#
# Elastic Compliance Matrix: (Units=1/GPa)
#
#
# Indices 1 2 3 4 5 6 
#
# 1 0.028486 -0.009970 -0.007374 0.000000 0.000000 0.000000
# 2 -0.009970 0.024647 -0.007325 0.000000 0.000000 0.000000
# 3 -0.007374 -0.007325 0.013950 0.000000 0.000000 0.000000
# 4 0.000000 0.000000 0.000000 0.040336 0.000000 0.000000
# 5 0.000000 0.000000 0.000000 0.000000 0.031504 0.000000
# 6 0.000000 0.000000 0.000000 0.000000 0.000000 0.045914
#
#
# Mechanical properties :
#
#
# Convention : Reuss Voigt Hill
#
# Bulk Modulus (GPa) = 56.35696 67.13987 61.74842
# Shear Modulus (GPa) = 20.82548 23.22035 22.02292
#
# Velocity S-wave (km/s) = 3.39066 3.58032 3.48678
# Velocity P-wave (km/s) = 6.81472 7.35906 7.09211
#
# Compressibility (1/GPa) = 0.01774404
#
# Stress axis : x y z
#
# Youngs Moduli (GPa) = 35.10500 40.57254 71.68606
#
# Poissons Ratio (x) = 0.40453 0.52862
# Poissons Ratio (y) = 0.35001 0.52509
# Poissons Ratio (z) = 0.25887 0.29719
#
# Static dielectric constant tensor:
#      x y z
#    x 3.254510 0.000000 0.000000 
#    y 0.000000 3.201120 0.000000 
#    z 0.000000 0.000000 3.470960 
# 
# 
# High freq. dielectric constant tensor:
#      x y z
#    x 1.692470 0.000000 0.000000 
#    y 0.000000 1.689010 0.000000 
#    z 0.000000 0.000000 1.710600 
# 
# From -- ./inp_files/25615.got.cif
#   From: 2010.03.12/outbox.cif.g09.slc.cpg/sg51_13_cif.got.tgz:25615.got - 2010.04.16 13:43:02.
