data_PCOD8208807
_publ_section_title
;
Structure prediction by ZEFSAII (Michael W. Deem and Ramdas Pophale) SiO2 
 PCOD8208807
Probable space group: P M M A
;
_chemical_formula_sum "Si O2"
_cell_formula_units_Z 40
_cell_length_a 15.559676
_cell_length_b 9.192764
_cell_length_c 14.666909
_cell_angle_alpha 90.000000
_cell_angle_beta 90.000000
_cell_angle_gamma 90.000000
_cell_volume 2097.902293
_symmetry_space_group_name_H-M "P M M A"
_symmetry_group_IT_number 51
_symmetry_cell_setting 'orthorhombic'
loop_
_space_group_symop_operation_xyz
x,y,z
1/2-x,-y,z
1/2+x,-y,-z
-x,y,-z
-x,-y,-z
1/2+x,y,-z
1/2-x,y,z
x,-y,z
loop_
_atom_site_type_symbol
_atom_site_label
_atom_site_fract_x
_atom_site_fract_y
_atom_site_fract_z
Si Si1 0.350600 0.330794 0.594415
Si Si2 0.648325 0.834859 0.583767
Si Si3 0.403113 0.169537 0.221619
Si Si4 0.905366 0.830233 0.229447
Si Si5 0.250000 0.825949 0.098577
Si Si6 0.250000 0.827272 0.894395
O O1 0.250000 0.299612 0.607236
O O2 0.372187 0.500000 0.593905
O O3 0.384409 0.262566 0.500092
O O4 0.400461 0.255474 0.676482
O O5 0.750000 0.828375 0.593348
O O6 0.608976 0.766485 0.676534
O O7 0.616849 0.000000 0.567006
O O8 0.500128 0.197672 0.186686
O O9 0.334917 0.235666 0.149810
O O10 0.382043 0.000000 0.229774
O O11 0.834932 0.771198 0.158034
O O12 0.890308 0.000000 0.250496
O O13 0.250000 0.000000 0.094505
O O14 0.250000 0.761804 0.996164
O O15 0.250000 0.000000 0.898663
#
# Coordination Sequence:
#
# PCOD8208807 Si02
#       6
#     8   8   8   8   4   4
#     4  10  20  33  50  73 100 135 171 206 248 294
#     4   9  16  29  50  73  97 131 170 208 246 290
#     4   9  17  29  49  75 104 134 166 204 250 298
#     4  10  19  32  50  76 105 134 167 204 247 298
#     4   9  16  30  49  75 106 130 161 211 258 295
#     4   9  18  30  48  73 104 134 163 205 256 297
#
# _framework density 19.066665
#
# number of rings (size 3 to 8) (size 9 to 14) (size 15 to 20)
#    0.000    2.600    2.000    0.600    0.000    2.400 
#    0.000    9.000    0.000    0.000    0.000    7.000 
#    0.000    0.000    0.000    0.000    0.000    0.000 
#
# Total GULP energy -495943.144373 kJ/mol
# GULP energy per Si atom -12398.578609 kJ/mol
# Density = 1.902327 g / cm^3
# Si number density = 19.066665 Si / 1000 Ang^3
#
#
#
# Elastic Constant Matrix: (Units=GPa)
#
#
# Indices 1 2 3 4 5 6 
#
# 1 118.4821 25.3658 77.8554 0.0000 0.0000 0.0000
# 2 25.3658 41.8860 29.4617 0.0000 0.0000 0.0000
# 3 77.8554 29.4617 162.3056 0.0000 0.0000 0.0000
# 4 0.0000 0.0000 0.0000 -0.2174 0.0000 0.0000
# 5 0.0000 0.0000 0.0000 0.0000 14.6714 0.0000
# 6 0.0000 0.0000 0.0000 0.0000 0.0000 10.8272
#
#
#
# Elastic Compliance Matrix: (Units=1/GPa)
#
#
# Indices 1 2 3 4 5 6 
#
# 1 0.012873 -0.003958 -0.005457 0.000000 0.000000 0.000000
# 2 -0.003958 0.028585 -0.003290 0.000000 0.000000 0.000000
# 3 -0.005457 -0.003290 0.009376 0.000000 0.000000 0.000000
# 4 0.000000 0.000000 0.000000 -4.600355 0.000000 0.000000
# 5 0.000000 0.000000 0.000000 0.000000 0.068160 0.000000
# 6 0.000000 0.000000 0.000000 0.000000 0.000000 0.092360
#
#
# Mechanical properties :
#
#
# Convention : Reuss Voigt Hill
#
# Bulk Modulus (GPa) = 39.33136 65.33774 52.33455
# Shear Modulus (GPa) = -1.14808 17.72228 8.28710
#
# Velocity S-wave (km/s) = -0.77682 3.05206 2.08706
# Velocity P-wave (km/s) = 4.45741 6.83831 5.77196
#
# Compressibility (1/GPa) = 0.02542501
#
# Stress axis : x y z
#
# Youngs Moduli (GPa) = 77.68240 34.98285 106.65637
#
# Poissons Ratio (x) = 0.13845 0.58197
# Poissons Ratio (y) = 0.30744 0.35094
# Poissons Ratio (z) = 0.42388 0.11511
#
# Static dielectric constant tensor:
#      x y z
#    x 3.506090 0.000000 0.000000 
#    y 0.000000 2.987800 0.000000 
#    z 0.000000 0.000000 3.642750 
# 
# 
# High freq. dielectric constant tensor:
#      x y z
#    x 1.746340 0.000000 0.000000 
#    y 0.000000 1.681910 0.000000 
#    z 0.000000 0.000000 1.742740 
# 
# From -- ./inp_files/23742.got.cif
#   From: 2010.03.12/outbox.cif.g09.slc.cpg/sg51_12_cif.got.tgz:23742.got - 2010.04.16 13:43:02.
