data_PCOD8208147
_publ_section_title
;
Structure prediction by ZEFSAII (Michael W. Deem and Ramdas Pophale) SiO2 
 PCOD8208147
Probable space group: P M M A
;
_chemical_formula_sum "Si O2"
_cell_formula_units_Z 40
_cell_length_a 25.369197
_cell_length_b 17.472297
_cell_length_c 4.950116
_cell_angle_alpha 90.000000
_cell_angle_beta 90.000000
_cell_angle_gamma 90.000000
_cell_volume 2194.179234
_symmetry_space_group_name_H-M "P M M A"
_symmetry_group_IT_number 51
_symmetry_cell_setting 'orthorhombic'
loop_
_space_group_symop_operation_xyz
x,y,z
1/2-x,-y,z
1/2+x,-y,-z
-x,y,-z
-x,-y,-z
1/2+x,y,-z
1/2-x,y,z
x,-y,z
loop_
_atom_site_type_symbol
_atom_site_label
_atom_site_fract_x
_atom_site_fract_y
_atom_site_fract_z
Si Si1 0.964187 0.916009 0.255118
Si Si2 0.190763 0.676547 0.940903
Si Si3 0.093678 0.229998 0.876807
Si Si4 0.556182 0.316492 0.624531
Si Si5 0.847129 0.589388 0.570543
O O1 0.000000 0.881192 0.500000
O O2 0.941530 0.000000 0.342156
O O3 0.917076 0.860272 0.158912
O O4 0.000000 0.928027 0.000000
O O5 0.250000 0.701750 0.865168
O O6 0.154157 0.752780 0.962099
O O7 0.191689 0.633787 0.227398
O O8 0.166209 0.616598 0.730366
O O9 0.053350 0.271209 0.088817
O O10 0.086160 0.261292 0.578224
O O11 0.500000 0.339649 0.500000
O O12 0.591849 0.392842 0.651733
O O13 0.836872 0.500000 0.592387
#
# Coordination Sequence:
#
# PCOD8208147 Si02
#       5
#     8   8   8   8   8
#     4  10  19  30  48  75 103 128 153 186 231 279
#     4  10  21  35  51  70  92 124 163 203 245 283
#     4  10  19  32  49  70  97 126 161 197 231 282
#     4  10  19  31  49  70  95 129 160 191 235 287
#     4  10  21  34  49  72  96 121 159 202 246 293
#
# _framework density 18.230052000000001
#
# number of rings (size 3 to 8) (size 9 to 14) (size 15 to 20)
#    0.000    2.000    0.000    4.800    0.000    2.800 
#    0.000    0.000    0.000    7.800    0.000    0.000 
#    0.000   14.400    0.000    0.000    0.000    3.200 
#
# Total GULP energy -495767.212868 kJ/mol
# GULP energy per Si atom -12394.180322 kJ/mol
# Density = 1.818856 g / cm^3
# Si number density = 18.230052 Si / 1000 Ang^3
#
#
#
# Elastic Constant Matrix: (Units=GPa)
#
#
# Indices 1 2 3 4 5 6 
#
# 1 116.3674 52.7061 8.3964 0.0000 0.0000 0.0000
# 2 52.7061 101.4913 17.4394 0.0000 0.0000 0.0000
# 3 8.3964 17.4394 76.0208 0.0000 0.0000 0.0000
# 4 0.0000 0.0000 0.0000 22.2593 0.0000 0.0000
# 5 0.0000 0.0000 0.0000 0.0000 21.9001 0.0000
# 6 0.0000 0.0000 0.0000 0.0000 0.0000 15.2619
#
#
#
# Elastic Compliance Matrix: (Units=1/GPa)
#
#
# Indices 1 2 3 4 5 6 
#
# 1 0.011237 -0.005853 0.000102 0.000000 0.000000 0.000000
# 2 -0.005853 0.013306 -0.002406 0.000000 0.000000 0.000000
# 3 0.000102 -0.002406 0.013695 0.000000 0.000000 0.000000
# 4 0.000000 0.000000 0.000000 0.044925 0.000000 0.000000
# 5 0.000000 0.000000 0.000000 0.000000 0.045662 0.000000
# 6 0.000000 0.000000 0.000000 0.000000 0.000000 0.065523
#
#
# Mechanical properties :
#
#
# Convention : Reuss Voigt Hill
#
# Bulk Modulus (GPa) = 45.61362 50.10704 47.86033
# Shear Modulus (GPa) = 22.93888 26.24011 24.58949
#
# Velocity S-wave (km/s) = 3.55110 3.79804 3.67665
# Velocity P-wave (km/s) = 6.47219 6.83953 6.65839
#
# Compressibility (1/GPa) = 0.02192327
#
# Stress axis : x y z
#
# Youngs Moduli (GPa) = 88.99025 75.15343 73.01927
#
# Poissons Ratio (x) = 0.43988 -0.00742
# Poissons Ratio (y) = 0.52087 0.17568
# Poissons Ratio (z) = -0.00904 0.18082
#
# Static dielectric constant tensor:
#      x y z
#    x 3.286210 0.000000 0.000000 
#    y 0.000000 3.413450 0.000000 
#    z 0.000000 0.000000 3.556450 
# 
# 
# High freq. dielectric constant tensor:
#      x y z
#    x 1.683120 0.000000 0.000000 
#    y 0.000000 1.681880 0.000000 
#    z 0.000000 0.000000 1.732560 
# 
# From -- ./inp_files/3917.got.cif
#   From: 2010.03.12/outbox.cif.g09.slc.cpg/sg51_2_cif.got.tgz:3917.got - 2010.04.16 13:43:02.
