data_PCOD8208767
_publ_section_title
;
Structure prediction by ZEFSAII (Michael W. Deem and Ramdas Pophale) SiO2 
 PCOD8208767
Probable space group: P M M A
;
_chemical_formula_sum "Si O2"
_cell_formula_units_Z 64
_cell_length_a 19.019828
_cell_length_b 9.330324
_cell_length_c 20.239847
_cell_angle_alpha 90.000000
_cell_angle_beta 90.000000
_cell_angle_gamma 90.000000
_cell_volume 3591.786680
_symmetry_space_group_name_H-M "P M M A"
_symmetry_group_IT_number 51
_symmetry_cell_setting 'orthorhombic'
loop_
_space_group_symop_operation_xyz
x,y,z
1/2-x,-y,z
1/2+x,-y,-z
-x,y,-z
-x,-y,-z
1/2+x,y,-z
1/2-x,y,z
x,-y,z
loop_
_atom_site_type_symbol
_atom_site_label
_atom_site_fract_x
_atom_site_fract_y
_atom_site_fract_z
Si Si1 0.669617 0.161562 0.646279
Si Si2 0.102095 0.331249 0.458726
Si Si3 0.170258 0.829766 0.986362
Si Si4 0.563443 0.340590 0.259895
Si Si5 0.952891 0.668281 0.403764
Si Si6 0.899093 0.340035 0.760900
Si Si7 0.084508 0.831944 0.113778
Si Si8 0.577291 0.167739 0.134400
O O1 0.750000 0.158227 0.667561
O O2 0.663036 0.236899 0.574473
O O3 0.628020 0.256695 0.697825
O O4 0.639131 0.000000 0.644193
O O5 0.114519 0.500000 0.446789
O O6 0.101632 0.296922 0.537251
O O7 0.029698 0.276486 0.425039
O O8 0.250000 0.768751 0.990095
O O9 0.132016 0.774136 0.920124
O O10 0.171717 0.000000 0.985974
O O11 0.123709 0.777007 0.048126
O O12 0.597122 0.500000 0.256627
O O13 0.573732 0.269184 0.333166
O O14 0.481802 0.351065 0.244947
O O15 0.598123 0.242415 0.203572
O O16 0.960744 0.500000 0.393511
O O17 0.866158 0.500000 0.763721
O O18 0.878655 0.252841 0.826511
O O19 0.001511 0.796690 0.109138
O O20 0.096720 0.000000 0.125891
O O21 0.585799 0.000000 0.146198
#
# Coordination Sequence:
#
# PCOD8208767 Si02
#       8
#     8   8   8   8   8   8   8   8
#     4  11  23  35  46  64  97 136 167 198 236 280
#     4   9  16  30  51  72  93 122 160 198 237 282
#     4   9  17  30  49  70  93 125 164 201 241 293
#     4   9  16  29  49  73  99 124 150 190 244 292
#     4   8  14  27  50  75  97 119 149 195 244 285
#     4  10  19  32  50  71  95 125 161 197 235 285
#     4   9  17  30  49  72  98 125 155 200 250 291
#     4   9  17  29  47  72  97 124 161 202 239 286
#
# _framework density 17.818429999999999
#
# number of rings (size 3 to 8) (size 9 to 14) (size 15 to 20)
#    0.000    2.750    1.250    1.875    0.000    3.500 
#    0.000    3.750    0.000    4.875    0.000    3.500 
#    0.000    0.000    0.000    0.000    0.000    0.000 
#
# Total GULP energy -793250.562953 kJ/mol
# GULP energy per Si atom -12394.540046 kJ/mol
# Density = 1.777787 g / cm^3
# Si number density = 17.818430 Si / 1000 Ang^3
#
#
#
# Elastic Constant Matrix: (Units=GPa)
#
#
# Indices 1 2 3 4 5 6 
#
# 1 40.7610 20.1544 31.9424 0.0000 0.0000 0.0000
# 2 20.1544 69.4293 47.3766 0.0000 0.0000 0.0000
# 3 31.9424 47.3766 162.3960 0.0000 0.0000 0.0000
# 4 0.0000 0.0000 0.0000 29.5359 0.0000 0.0000
# 5 0.0000 0.0000 0.0000 0.0000 8.7204 0.0000
# 6 0.0000 0.0000 0.0000 0.0000 0.0000 13.8457
#
#
#
# Elastic Compliance Matrix: (Units=1/GPa)
#
#
# Indices 1 2 3 4 5 6 
#
# 1 0.030896 -0.006020 -0.004321 0.000000 0.000000 0.000000
# 2 -0.006020 0.019156 -0.004404 0.000000 0.000000 0.000000
# 3 -0.004321 -0.004404 0.008293 0.000000 0.000000 0.000000
# 4 0.000000 0.000000 0.000000 0.033857 0.000000 0.000000
# 5 0.000000 0.000000 0.000000 0.000000 0.114674 0.000000
# 6 0.000000 0.000000 0.000000 0.000000 0.000000 0.072225
#
#
# Mechanical properties :
#
#
# Convention : Reuss Voigt Hill
#
# Bulk Modulus (GPa) = 34.65743 52.39257 43.52500
# Shear Modulus (GPa) = 15.71294 21.96125 18.83710
#
# Velocity S-wave (km/s) = 2.97279 3.51451 3.25494
# Velocity P-wave (km/s) = 5.59249 6.77764 6.21339
#
# Compressibility (1/GPa) = 0.02885385
#
# Stress axis : x y z
#
# Youngs Moduli (GPa) = 32.36666 52.20247 120.59013
#
# Poissons Ratio (x) = 0.31428 0.52104
# Poissons Ratio (y) = 0.19486 0.53112
# Poissons Ratio (z) = 0.13985 0.22992
#
# Static dielectric constant tensor:
#      x y z
#    x 3.050740 0.000000 0.000000 
#    y 0.000000 3.229230 0.000000 
#    z 0.000000 0.000000 3.697780 
# 
# 
# High freq. dielectric constant tensor:
#      x y z
#    x 1.650190 0.000000 0.000000 
#    y 0.000000 1.663830 0.000000 
#    z 0.000000 0.000000 1.705390 
# 
# From -- ./inp_files/34177.got.cif
#   From: 2010.03.12/outbox.cif.g09.slc.cpg/sg51_18_cif.got.tgz:34177.got - 2010.04.16 13:43:02.
