data_PCOD8208993
_publ_section_title
;
Structure prediction by ZEFSAII (Michael W. Deem and Ramdas Pophale) SiO2 
 PCOD8208993
Probable space group: P M M A
;
_chemical_formula_sum "Si O2"
_cell_formula_units_Z 56
_cell_length_a 20.876525
_cell_length_b 9.243012
_cell_length_c 16.748288
_cell_angle_alpha 90.000000
_cell_angle_beta 90.000000
_cell_angle_gamma 90.000000
_cell_volume 3231.782665
_symmetry_space_group_name_H-M "P M M A"
_symmetry_group_IT_number 51
_symmetry_cell_setting 'orthorhombic'
loop_
_space_group_symop_operation_xyz
x,y,z
1/2-x,-y,z
1/2+x,-y,-z
-x,y,-z
-x,-y,-z
1/2+x,y,-z
1/2-x,y,z
x,-y,z
loop_
_atom_site_type_symbol
_atom_site_label
_atom_site_fract_x
_atom_site_fract_y
_atom_site_fract_z
Si Si1 0.099170 0.829822 0.970543
Si Si2 0.061063 0.669886 0.448890
Si Si3 0.973903 0.830023 0.878015
Si Si4 0.478328 0.833652 0.298913
Si Si5 0.175561 0.333553 0.854066
Si Si6 0.822201 0.333799 0.440968
Si Si7 0.373496 0.166711 0.704790
O O1 0.159973 0.738154 0.940214
O O2 0.038851 0.772970 0.918647
O O3 0.111603 0.000000 0.958786
O O4 0.086161 0.794441 0.064094
O O5 0.056516 0.500000 0.434480
O O6 0.126983 0.715041 0.492260
O O7 0.000000 0.724273 0.500000
O O8 0.062642 0.745590 0.363036
O O9 0.963647 0.766411 0.789128
O O10 0.983296 0.000000 0.868977
O O11 0.552882 0.816866 0.320243
O O12 0.456730 0.000000 0.303458
O O13 0.250000 0.317353 0.836027
O O14 0.154194 0.500000 0.853796
O O15 0.136131 0.246987 0.788029
O O16 0.750000 0.313712 0.474447
O O17 0.835065 0.500000 0.416364
O O18 0.829294 0.237473 0.362408
O O19 0.353781 0.000000 0.715281
#
# Coordination Sequence:
#
# PCOD8208993 Si02
#       7
#     8   8   8   8   8   8   8
#     4   9  16  31  54  74  96 129 169 205 242 295
#     4  10  20  34  52  75 101 134 175 212 250 304
#     4   8  15  30  52  76 100 126 158 203 256 298
#     4  10  19  32  52  78 106 133 163 207 261 304
#     4  11  23  35  47  69 106 144 172 204 249 298
#     4  10  21  37  54  72 101 138 172 211 259 306
#     4  11  21  33  52  77 104 135 172 208 250 308
#
# _framework density 17.327897
#
# number of rings (size 3 to 8) (size 9 to 14) (size 15 to 20)
#    0.000    2.143    2.857    2.143    0.000    4.571 
#    0.000    2.143    0.000    0.857    0.000    4.000 
#    0.000    0.000    0.000    0.000    0.000    0.000 
#
# Total GULP energy -694345.832330 kJ/mol
# GULP energy per Si atom -12399.032720 kJ/mol
# Density = 1.728846 g / cm^3
# Si number density = 17.327897 Si / 1000 Ang^3
#
#
#
# Elastic Constant Matrix: (Units=GPa)
#
#
# Indices 1 2 3 4 5 6 
#
# 1 68.1343 32.4987 39.4289 0.0000 0.0000 0.0000
# 2 32.4987 68.6365 40.2222 0.0000 0.0000 0.0000
# 3 39.4289 40.2222 121.0962 0.0000 0.0000 0.0000
# 4 0.0000 0.0000 0.0000 14.7521 0.0000 0.0000
# 5 0.0000 0.0000 0.0000 0.0000 27.2381 0.0000
# 6 0.0000 0.0000 0.0000 0.0000 0.0000 22.0813
#
#
#
# Elastic Compliance Matrix: (Units=1/GPa)
#
#
# Indices 1 2 3 4 5 6 
#
# 1 0.020625 -0.007239 -0.004311 0.000000 0.000000 0.000000
# 2 -0.007239 0.020632 -0.004496 0.000000 0.000000 0.000000
# 3 -0.004311 -0.004496 0.011155 0.000000 0.000000 0.000000
# 4 0.000000 0.000000 0.000000 0.067787 0.000000 0.000000
# 5 0.000000 0.000000 0.000000 0.000000 0.036713 0.000000
# 6 0.000000 0.000000 0.000000 0.000000 0.000000 0.045287
#
#
# Mechanical properties :
#
#
# Convention : Reuss Voigt Hill
#
# Bulk Modulus (GPa) = 49.21406 53.57407 51.39406
# Shear Modulus (GPa) = 20.74143 22.52879 21.63511
#
# Velocity S-wave (km/s) = 3.46352 3.60966 3.53735
# Velocity P-wave (km/s) = 6.66768 6.95398 6.81233
#
# Compressibility (1/GPa) = 0.02031940
#
# Stress axis : x y z
#
# Youngs Moduli (GPa) = 48.48596 48.46879 89.64775
#
# Poissons Ratio (x) = 0.35088 0.38645
# Poissons Ratio (y) = 0.35100 0.40304
# Poissons Ratio (z) = 0.20901 0.21790
#
# Static dielectric constant tensor:
#      x y z
#    x 3.072810 0.000000 0.000000 
#    y 0.000000 3.100510 0.000000 
#    z 0.000000 0.000000 3.364920 
# 
# 
# High freq. dielectric constant tensor:
#      x y z
#    x 1.646830 0.000000 0.000000 
#    y 0.000000 1.657050 0.000000 
#    z 0.000000 0.000000 1.669440 
# 
# From -- ./inp_files/30393.got.cif
#   From: 2010.03.12/outbox.cif.g09.slc.cpg/sg51_16_cif.got.tgz:30393.got - 2010.04.16 13:43:02.
