data_PCOD8208852
_publ_section_title
;
Structure prediction by ZEFSAII (Michael W. Deem and Ramdas Pophale) SiO2 
 PCOD8208852
Probable space group: P M M A
;
_chemical_formula_sum "Si O2"
_cell_formula_units_Z 64
_cell_length_a 9.250199
_cell_length_b 20.105220
_cell_length_c 19.652165
_cell_angle_alpha 90.000000
_cell_angle_beta 90.000000
_cell_angle_gamma 90.000000
_cell_volume 3654.856310
_symmetry_space_group_name_H-M "P M M A"
_symmetry_group_IT_number 51
_symmetry_cell_setting 'orthorhombic'
loop_
_space_group_symop_operation_xyz
x,y,z
1/2-x,-y,z
1/2+x,-y,-z
-x,y,-z
-x,-y,-z
1/2+x,y,-z
1/2-x,y,z
x,-y,z
loop_
_atom_site_type_symbol
_atom_site_label
_atom_site_fract_x
_atom_site_fract_y
_atom_site_fract_z
Si Si1 0.082347 0.077433 0.432210
Si Si2 0.086246 0.378724 0.065089
Si Si3 0.914568 0.778317 0.194135
Si Si4 0.587233 0.220143 0.935408
Si Si5 0.417410 0.622787 0.803085
Si Si6 0.419504 0.305105 0.570074
Si Si7 0.082959 0.823934 0.657552
Si Si8 0.421282 0.426022 0.659024
O O1 0.250000 0.094815 0.441675
O O2 0.000000 0.100704 0.500000
O O3 0.017840 0.117048 0.368826
O O4 0.057137 0.000000 0.417759
O O5 0.250000 0.405634 0.062977
O O6 0.083451 0.299413 0.063732
O O7 0.008877 0.404766 0.133364
O O8 0.000000 0.407003 0.000000
O O9 0.750000 0.790567 0.171608
O O10 0.940528 0.700847 0.207617
O O11 0.952179 0.817317 0.262861
O O12 0.015316 0.806243 0.134083
O O13 0.750000 0.192954 0.939165
O O14 0.500000 0.191720 0.000000
O O15 0.250000 0.605628 0.816736
O O16 0.478541 0.587575 0.735250
O O17 0.500000 0.292469 0.500000
O O18 0.250000 0.310879 0.555239
O O19 0.455200 0.244656 0.620183
O O20 0.481400 0.372499 0.604990
O O21 0.250000 0.842607 0.645451
O O22 0.250000 0.418089 0.661790
O O23 0.469057 0.500000 0.635906
#
# Coordination Sequence:
#
# PCOD8208852 Si02
#       8
#     8   8   8   8   8   8   8   8
#     4  10  21  36  53  74 101 133 168 204 242 287
#     4   9  16  25  39  62  89 117 149 187 232 283
#     4   9  16  27  44  66  93 125 158 197 241 285
#     4   9  16  25  38  60  91 126 160 195 236 285
#     4   9  15  27  46  65  87 117 153 194 238 285
#     4  10  20  34  50  72  97 123 157 198 243 290
#     4  10  19  32  51  74 102 132 164 201 243 289
#     4   9  17  31  51  70  89 119 159 199 242 295
#
# _framework density 17.510947999999999
#
# number of rings (size 3 to 8) (size 9 to 14) (size 15 to 20)
#    0.000    2.625    1.250    1.500    0.000    6.000 
#    0.000    0.625    0.000    1.500    0.000    0.000 
#    0.000    0.500    0.000    1.625    0.000    2.375 
#
# Total GULP energy -793606.096844 kJ/mol
# GULP energy per Si atom -12400.095263 kJ/mol
# Density = 1.747109 g / cm^3
# Si number density = 17.510948 Si / 1000 Ang^3
#
#
#
# Elastic Constant Matrix: (Units=GPa)
#
#
# Indices 1 2 3 4 5 6 
#
# 1 96.5346 32.7334 61.1364 0.0000 0.0000 0.0000
# 2 32.7334 48.2558 33.5875 0.0000 0.0000 0.0000
# 3 61.1364 33.5875 114.0734 0.0000 0.0000 0.0000
# 4 0.0000 0.0000 0.0000 16.0451 0.0000 0.0000
# 5 0.0000 0.0000 0.0000 0.0000 32.9799 0.0000
# 6 0.0000 0.0000 0.0000 0.0000 0.0000 11.0398
#
#
#
# Elastic Compliance Matrix: (Units=1/GPa)
#
#
# Indices 1 2 3 4 5 6 
#
# 1 0.017208 -0.006608 -0.007277 0.000000 0.000000 0.000000
# 2 -0.006608 0.028602 -0.004880 0.000000 0.000000 0.000000
# 3 -0.007277 -0.004880 0.014103 0.000000 0.000000 0.000000
# 4 0.000000 0.000000 0.000000 0.062324 0.000000 0.000000
# 5 0.000000 0.000000 0.000000 0.000000 0.030322 0.000000
# 6 0.000000 0.000000 0.000000 0.000000 0.000000 0.090581
#
#
# Mechanical properties :
#
#
# Convention : Reuss Voigt Hill
#
# Bulk Modulus (GPa) = 44.67574 57.08649 50.88112
# Shear Modulus (GPa) = 17.35319 20.77338 19.06328
#
# Velocity S-wave (km/s) = 3.15142 3.44802 3.30305
# Velocity P-wave (km/s) = 6.22979 6.96585 6.60808
#
# Compressibility (1/GPa) = 0.02238351
#
# Stress axis : x y z
#
# Youngs Moduli (GPa) = 58.11192 34.96269 70.90613
#
# Poissons Ratio (x) = 0.23103 0.51598
# Poissons Ratio (y) = 0.38400 0.34603
# Poissons Ratio (z) = 0.42288 0.17062
#
# Static dielectric constant tensor:
#      x y z
#    x 3.205230 0.000000 0.000000 
#    y 0.000000 2.898190 0.000000 
#    z 0.000000 0.000000 3.381400 
# 
# 
# High freq. dielectric constant tensor:
#      x y z
#    x 1.666690 0.000000 0.000000 
#    y 0.000000 1.632160 0.000000 
#    z 0.000000 0.000000 1.686790 
# 
# From -- ./inp_files/32581.got.cif
#   From: 2010.03.12/outbox.cif.g09.slc.cpg/sg51_17_cif.got.tgz:32581.got - 2010.04.16 13:43:02.
