data_PCOD8208570
_publ_section_title
;
Structure prediction by ZEFSAII (Michael W. Deem and Ramdas Pophale) SiO2 
 PCOD8208570
Probable space group: P M M A
;
_chemical_formula_sum "Si O2"
_cell_formula_units_Z 40
_cell_length_a 18.352385
_cell_length_b 8.984907
_cell_length_c 12.915488
_cell_angle_alpha 90.000000
_cell_angle_beta 90.000000
_cell_angle_gamma 90.000000
_cell_volume 2129.692580
_symmetry_space_group_name_H-M "P M M A"
_symmetry_group_IT_number 51
_symmetry_cell_setting 'orthorhombic'
loop_
_space_group_symop_operation_xyz
x,y,z
1/2-x,-y,z
1/2+x,-y,-z
-x,y,-z
-x,-y,-z
1/2+x,y,-z
1/2-x,y,z
x,-y,z
loop_
_atom_site_type_symbol
_atom_site_label
_atom_site_fract_x
_atom_site_fract_y
_atom_site_fract_z
Si Si1 0.167693 0.322638 0.998147
Si Si2 0.418393 0.676749 0.196025
Si Si3 0.415871 0.676651 0.795227
Si Si4 0.166180 0.825287 0.608692
Si Si5 0.165583 0.327758 0.397190
O O1 0.250000 0.261059 0.000476
O O2 0.167170 0.500000 0.000543
O O3 0.129029 0.265039 0.894039
O O4 0.124363 0.257822 0.096885
O O5 0.414066 0.500000 0.192484
O O6 0.501371 0.731767 0.191766
O O7 0.380681 0.734664 0.300839
O O8 0.411324 0.500000 0.784718
O O9 0.383636 0.747364 0.692687
O O10 0.250000 0.782059 0.630195
O O11 0.141933 0.766577 0.496626
O O12 0.153536 0.000000 0.612784
O O13 0.250000 0.304859 0.369509
O O14 0.148175 0.500000 0.419941
#
# Coordination Sequence:
#
# PCOD8208570 Si02
#       5
#     8   8   8   8   8
#     4   9  16  27  47  75 103 130 163 202 242 286
#     4   9  17  29  47  74 105 131 158 200 250 291
#     4  10  19  31  50  76 104 131 161 199 243 292
#     4  10  21  36  52  70  96 130 166 205 247 290
#     4   9  17  31  52  74  96 127 168 208 243 285
#
# _framework density 18.782055
#
# number of rings (size 3 to 8) (size 9 to 14) (size 15 to 20)
#    0.000    2.600    0.000    2.400    0.000    7.600 
#    0.000    5.000    0.000    3.600    0.000    2.800 
#    0.000    0.000    0.000    0.000    0.000    0.000 
#
# Total GULP energy -496064.182681 kJ/mol
# GULP energy per Si atom -12401.604567 kJ/mol
# Density = 1.873931 g / cm^3
# Si number density = 18.782055 Si / 1000 Ang^3
#
#
#
# Elastic Constant Matrix: (Units=GPa)
#
#
# Indices 1 2 3 4 5 6 
#
# 1 156.1858 27.5395 105.1088 0.0000 0.0000 0.0000
# 2 27.5395 24.2555 26.3207 0.0000 0.0000 0.0000
# 3 105.1088 26.3207 167.1343 0.0000 0.0000 0.0000
# 4 0.0000 0.0000 0.0000 -2.8020 0.0000 0.0000
# 5 0.0000 0.0000 0.0000 0.0000 28.7559 0.0000
# 6 0.0000 0.0000 0.0000 0.0000 0.0000 11.4419
#
#
#
# Elastic Compliance Matrix: (Units=1/GPa)
#
#
# Indices 1 2 3 4 5 6 
#
# 1 0.011893 -0.006497 -0.006456 0.000000 0.000000 0.000000
# 2 -0.006497 0.053275 -0.004304 0.000000 0.000000 0.000000
# 3 -0.006456 -0.004304 0.010721 0.000000 0.000000 0.000000
# 4 0.000000 0.000000 0.000000 -0.356892 0.000000 0.000000
# 5 0.000000 0.000000 0.000000 0.000000 0.034775 0.000000
# 6 0.000000 0.000000 0.000000 0.000000 0.000000 0.087398
#
#
# Mechanical properties :
#
#
# Convention : Reuss Voigt Hill
#
# Bulk Modulus (GPa) = 24.16939 73.94598 49.05769
# Shear Modulus (GPa) = -45.23986 20.05294 -12.59346
#
# Velocity S-wave (km/s) = -4.91315 3.27106 -2.59222
# Velocity P-wave (km/s) = 4.39194 7.32956 4.14930
#
# Compressibility (1/GPa) = 0.04137465
#
# Stress axis : x y z
#
# Youngs Moduli (GPa) = 84.08188 18.77049 93.27297
#
# Poissons Ratio (x) = 0.12196 0.60219
# Poissons Ratio (y) = 0.54632 0.40142
# Poissons Ratio (z) = 0.54285 0.08078
#
# Static dielectric constant tensor:
#      x y z
#    x 3.619720 0.000000 0.000000 
#    y 0.000000 2.934500 0.000000 
#    z 0.000000 0.000000 3.615410 
# 
# 
# High freq. dielectric constant tensor:
#      x y z
#    x 1.737470 0.000000 0.000000 
#    y 0.000000 1.675390 0.000000 
#    z 0.000000 0.000000 1.747130 
# 
# From -- ./inp_files/17049.got.cif
#   From: 2010.03.12/outbox.cif.g09.slc.cpg/sg51_9_cif.got.tgz:17049.got - 2010.04.16 13:43:02.
