data_PCOD8208831
_publ_section_title
;
Structure prediction by ZEFSAII (Michael W. Deem and Ramdas Pophale) SiO2 
 PCOD8208831
Probable space group: P M M A
;
_chemical_formula_sum "Si O2"
_cell_formula_units_Z 52
_cell_length_a 9.217266
_cell_length_b 19.754804
_cell_length_c 15.429563
_cell_angle_alpha 90.000000
_cell_angle_beta 90.000000
_cell_angle_gamma 90.000000
_cell_volume 2809.496349
_symmetry_space_group_name_H-M "P M M A"
_symmetry_group_IT_number 51
_symmetry_cell_setting 'orthorhombic'
loop_
_space_group_symop_operation_xyz
x,y,z
1/2-x,-y,z
1/2+x,-y,-z
-x,y,-z
-x,-y,-z
1/2+x,y,-z
1/2-x,y,z
x,-y,z
loop_
_atom_site_type_symbol
_atom_site_label
_atom_site_fract_x
_atom_site_fract_y
_atom_site_fract_z
Si Si1 0.591496 0.312439 0.180644
Si Si2 0.091535 0.352379 0.627481
Si Si3 0.920727 0.774179 0.583304
Si Si4 0.081119 0.922948 0.085712
Si Si5 0.418926 0.812315 0.223054
Si Si6 0.416364 0.423862 0.088572
Si Si7 0.580278 0.500000 0.411056
O O1 0.750000 0.311549 0.133101
O O2 0.619957 0.320680 0.280511
O O3 0.507323 0.242337 0.166387
O O4 0.490626 0.374468 0.155399
O O5 0.250000 0.350460 0.579174
O O6 0.034287 0.430083 0.636779
O O7 0.972410 0.304508 0.582212
O O8 0.750000 0.776861 0.567561
O O9 0.961922 0.812408 0.674161
O O10 0.000000 0.809650 0.500000
O O11 0.250000 0.917264 0.064513
O O12 0.044300 0.882798 0.174802
O O13 0.032553 0.000000 0.103510
O O14 0.000000 0.894351 0.000000
O O15 0.250000 0.793653 0.215770
O O16 0.250000 0.403409 0.074159
O O17 0.430267 0.500000 0.124862
O O18 0.500000 0.415663 0.000000
O O19 0.750000 0.500000 0.426397
O O20 0.500000 0.500000 0.500000
#
# Coordination Sequence:
#
# PCOD8208831 Si02
#       7
#     8   8   8   8   8   8   4
#     4  10  20  33  52  74  98 129 166 211 259 307
#     4   9  19  33  48  67  92 124 163 205 254 310
#     4  10  19  32  51  72  98 133 173 217 264 309
#     4   9  18  34  57  84 112 143 175 207 250 305
#     4   9  19  35  53  76 108 141 175 215 257 310
#     4  10  21  36  52  70  93 125 167 214 262 315
#     4  10  20  32  44  62  87 116 151 194 245 298
#
# _framework density 18.508655999999998
#
# number of rings (size 3 to 8) (size 9 to 14) (size 15 to 20)
#    0.000    2.462    0.000    1.846    1.077    5.231 
#    0.000    1.538    0.000    0.462    0.000    0.000 
#    0.000    0.000    0.000    0.000    0.000    0.462 
#
# Total GULP energy -644245.876060 kJ/mol
# GULP energy per Si atom -12389.343770 kJ/mol
# Density = 1.846653 g / cm^3
# Si number density = 18.508656 Si / 1000 Ang^3
#
#
#
# Elastic Constant Matrix: (Units=GPa)
#
#
# Indices 1 2 3 4 5 6 
#
# 1 99.8080 39.1225 46.2035 0.0000 0.0000 0.0000
# 2 39.1225 82.9183 51.5852 0.0000 0.0000 0.0000
# 3 46.2035 51.5852 86.7094 0.0000 0.0000 0.0000
# 4 0.0000 0.0000 0.0000 31.4520 0.0000 0.0000
# 5 0.0000 0.0000 0.0000 0.0000 26.2771 0.0000
# 6 0.0000 0.0000 0.0000 0.0000 0.0000 22.8062
#
#
#
# Elastic Compliance Matrix: (Units=1/GPa)
#
#
# Indices 1 2 3 4 5 6 
#
# 1 0.013775 -0.003069 -0.005514 0.000000 0.000000 0.000000
# 2 -0.003069 0.019830 -0.010162 0.000000 0.000000 0.000000
# 3 -0.005514 -0.010162 0.020517 0.000000 0.000000 0.000000
# 4 0.000000 0.000000 0.000000 0.031795 0.000000 0.000000
# 5 0.000000 0.000000 0.000000 0.000000 0.038056 0.000000
# 6 0.000000 0.000000 0.000000 0.000000 0.000000 0.043848
#
#
# Mechanical properties :
#
#
# Convention : Reuss Voigt Hill
#
# Bulk Modulus (GPa) = 60.12753 60.36200 60.24477
# Shear Modulus (GPa) = 23.71312 24.94203 24.32757
#
# Velocity S-wave (km/s) = 3.58326 3.67493 3.62938
# Velocity P-wave (km/s) = 7.04814 7.11972 7.08402
#
# Compressibility (1/GPa) = 0.01663132
#
# Stress axis : x y z
#
# Youngs Moduli (GPa) = 72.59628 50.42875 48.74053
#
# Poissons Ratio (x) = 0.15475 0.26877
# Poissons Ratio (y) = 0.22277 0.49531
# Poissons Ratio (z) = 0.40032 0.51246
#
# Static dielectric constant tensor:
#      x y z
#    x 4.008740 0.000000 0.000000 
#    y 0.000000 3.262520 0.000000 
#    z 0.000000 0.000000 3.428500 
# 
# 
# High freq. dielectric constant tensor:
#      x y z
#    x 1.727890 0.000000 0.000000 
#    y 0.000000 1.693540 0.000000 
#    z 0.000000 0.000000 1.710530 
# 
# From -- ./inp_files/21612.got.cif
#   From: 2010.03.12/outbox.cif.g09.slc.cpg/sg51_11_cif.got.tgz:21612.got - 2010.04.16 13:43:02.
