data_PCOD8208439
_publ_section_title
;
Structure prediction by ZEFSAII (Michael W. Deem and Ramdas Pophale) SiO2 
 PCOD8208439
Probable space group: P M M A
;
_chemical_formula_sum "Si O2"
_cell_formula_units_Z 64
_cell_length_a 9.210043
_cell_length_b 17.238142
_cell_length_c 20.809938
_cell_angle_alpha 90.000000
_cell_angle_beta 90.000000
_cell_angle_gamma 90.000000
_cell_volume 3303.869601
_symmetry_space_group_name_H-M "P M M A"
_symmetry_group_IT_number 51
_symmetry_cell_setting 'orthorhombic'
loop_
_space_group_symop_operation_xyz
x,y,z
1/2-x,-y,z
1/2+x,-y,-z
-x,y,-z
-x,-y,-z
1/2+x,y,-z
1/2-x,y,z
x,-y,z
loop_
_atom_site_type_symbol
_atom_site_label
_atom_site_fract_x
_atom_site_fract_y
_atom_site_fract_z
Si Si1 0.917523 0.746425 0.937966
Si Si2 0.414857 0.365755 0.562819
Si Si3 0.586503 0.817809 0.439379
Si Si4 0.414346 0.880769 0.777251
Si Si5 0.585610 0.914190 0.657567
Si Si6 0.412128 0.915255 0.101755
Si Si7 0.583181 0.293287 0.190793
Si Si8 0.920709 0.412125 0.297981
O O1 0.750000 0.720703 0.939961
O O2 0.932932 0.840232 0.943343
O O3 0.987491 0.709694 0.873773
O O4 0.000000 0.711712 0.000000
O O5 0.500000 0.397596 0.500000
O O6 0.250000 0.395583 0.555870
O O7 0.422411 0.273744 0.564871
O O8 0.484766 0.395433 0.630274
O O9 0.500000 0.850803 0.500000
O O10 0.750000 0.847653 0.445459
O O11 0.516991 0.852780 0.376286
O O12 0.250000 0.908011 0.763249
O O13 0.526800 0.920333 0.729385
O O14 0.460878 0.911573 0.846344
O O15 0.425831 0.788073 0.772540
O O16 0.750000 0.882998 0.656895
O O17 0.577710 0.000000 0.626210
O O18 0.250000 0.909160 0.132650
O O19 0.426808 0.000000 0.066309
O O20 0.750000 0.312589 0.171780
O O21 0.518220 0.356610 0.241295
O O22 0.750000 0.396594 0.302932
O O23 0.958648 0.500000 0.278408
#
# Coordination Sequence:
#
# PCOD8208439 Si02
#       8
#     8   8   8   8   8   8   8   8
#     4  10  20  34  53  77 104 137 176 217 262 310
#     4   9  18  33  53  79 109 140 174 209 246 295
#     4  10  20  35  53  70  91 122 162 207 252 301
#     4  10  19  31  49  72  97 128 168 210 251 299
#     4  11  23  35  47  66  93 125 163 210 261 308
#     4   9  18  32  48  69 101 137 170 208 255 303
#     4   9  18  34  55  78 104 135 173 216 259 307
#     4   9  17  31  54  82 110 140 172 207 251 303
#
# _framework density 19.371226
#
# number of rings (size 3 to 8) (size 9 to 14) (size 15 to 20)
#    0.000    2.375    0.000    2.625    0.000    7.000 
#    0.000    0.625    0.000    1.500    0.000    0.000 
#    0.000    0.000    0.000    0.000    0.000    0.000 
#
# Total GULP energy -793246.906513 kJ/mol
# GULP energy per Si atom -12394.482914 kJ/mol
# Density = 1.932714 g / cm^3
# Si number density = 19.371226 Si / 1000 Ang^3
#
#
#
# Elastic Constant Matrix: (Units=GPa)
#
#
# Indices 1 2 3 4 5 6 
#
# 1 109.8460 31.2580 50.2664 0.0000 0.0000 0.0000
# 2 31.2580 57.5936 41.2966 0.0000 0.0000 0.0000
# 3 50.2664 41.2966 112.9047 0.0000 0.0000 0.0000
# 4 0.0000 0.0000 0.0000 9.3620 0.0000 0.0000
# 5 0.0000 0.0000 0.0000 0.0000 33.9353 0.0000
# 6 0.0000 0.0000 0.0000 0.0000 0.0000 14.9995
#
#
#
# Elastic Compliance Matrix: (Units=1/GPa)
#
#
# Indices 1 2 3 4 5 6 
#
# 1 0.011966 -0.003625 -0.004002 0.000000 0.000000 0.000000
# 2 -0.003625 0.024634 -0.007396 0.000000 0.000000 0.000000
# 3 -0.004002 -0.007396 0.013344 0.000000 0.000000 0.000000
# 4 0.000000 0.000000 0.000000 0.106815 0.000000 0.000000
# 5 0.000000 0.000000 0.000000 0.000000 0.029468 0.000000
# 6 0.000000 0.000000 0.000000 0.000000 0.000000 0.066669
#
#
# Mechanical properties :
#
#
# Convention : Reuss Voigt Hill
#
# Bulk Modulus (GPa) = 50.25621 58.44292 54.34956
# Shear Modulus (GPa) = 17.26667 22.16090 19.71378
#
# Velocity S-wave (km/s) = 2.98880 3.38599 3.19358
# Velocity P-wave (km/s) = 6.15716 6.74700 6.45882
#
# Compressibility (1/GPa) = 0.01989804
#
# Stress axis : x y z
#
# Youngs Moduli (GPa) = 83.56714 40.59435 74.94091
#
# Poissons Ratio (x) = 0.14717 0.29988
# Poissons Ratio (y) = 0.30296 0.55428
# Poissons Ratio (z) = 0.33440 0.30024
#
# Static dielectric constant tensor:
#      x y z
#    x 3.573040 0.000000 0.000000 
#    y 0.000000 3.384910 0.000000 
#    z 0.000000 0.000000 3.428780 
# 
# 
# High freq. dielectric constant tensor:
#      x y z
#    x 1.746170 0.000000 0.000000 
#    y 0.000000 1.736060 0.000000 
#    z 0.000000 0.000000 1.746540 
# 
# From -- ./inp_files/32332.got.cif
#   From: 2010.03.12/outbox.cif.g09.slc.cpg/sg51_17_cif.got.tgz:32332.got - 2010.04.16 13:43:02.
