data_PCOD8208954
_publ_section_title
;
Structure prediction by ZEFSAII (Michael W. Deem and Ramdas Pophale) SiO2 
 PCOD8208954
Probable space group: P M M A
;
_chemical_formula_sum "Si O2"
_cell_formula_units_Z 64
_cell_length_a 16.912122
_cell_length_b 23.608333
_cell_length_c 8.803729
_cell_angle_alpha 90.000000
_cell_angle_beta 90.000000
_cell_angle_gamma 90.000000
_cell_volume 3515.038536
_symmetry_space_group_name_H-M "P M M A"
_symmetry_group_IT_number 51
_symmetry_cell_setting 'orthorhombic'
loop_
_space_group_symop_operation_xyz
x,y,z
1/2-x,-y,z
1/2+x,-y,-z
-x,y,-z
-x,-y,-z
1/2+x,y,-z
1/2-x,y,z
x,-y,z
loop_
_atom_site_type_symbol
_atom_site_label
_atom_site_fract_x
_atom_site_fract_y
_atom_site_fract_z
Si Si1 0.482353 0.367820 0.674412
Si Si2 0.603531 0.935879 0.345656
Si Si3 0.660367 0.566528 0.184221
Si Si4 0.074240 0.159875 0.100149
Si Si5 0.575884 0.438137 0.894394
Si Si6 0.519153 0.763094 0.324768
Si Si7 0.839142 0.172699 0.193387
Si Si8 0.082094 0.936218 0.314603
O O1 0.500000 0.376874 0.500000
O O2 0.399585 0.398113 0.711814
O O3 0.558273 0.393374 0.762288
O O4 0.476705 0.302420 0.719302
O O5 0.652061 0.893385 0.239157
O O6 0.624275 0.926104 0.523325
O O7 0.510971 0.924459 0.326799
O O8 0.625506 0.000000 0.298014
O O9 0.750000 0.582834 0.228380
O O10 0.643790 0.500000 0.211224
O O11 0.647500 0.581120 0.005019
O O12 0.114490 0.107816 0.190617
O O13 0.047130 0.208462 0.217640
O O14 0.139987 0.182960 0.983857
O O15 0.000000 0.138175 0.000000
O O16 0.593990 0.500000 0.821904
O O17 0.500000 0.442714 0.000000
O O18 0.500000 0.773638 0.500000
O O19 0.605211 0.789616 0.299472
O O20 0.750000 0.192797 0.220567
O O21 0.098759 0.000000 0.258373
#
# Coordination Sequence:
#
# PCOD8208954 Si02
#       8
#     8   8   8   8   8   8   8   8
#     4  10  20  33  54  81 105 133 173 224 266 302
#     4   9  17  31  53  78 104 134 169 206 249 307
#     4   9  18  33  53  78 110 146 178 208 249 305
#     4  10  19  32  52  76 102 130 167 212 256 308
#     4   8  15  29  50  76 105 137 173 205 242 297
#     4  10  21  39  58  74  98 136 182 218 256 309
#     4  11  23  36  52  78 107 133 166 215 270 312
#     4   9  16  29  53  80 100 129 174 211 242 300
#
# _framework density 18.207481999999999
#
# number of rings (size 3 to 8) (size 9 to 14) (size 15 to 20)
#    0.000    2.500    2.500    2.625    0.000    7.000 
#    0.000    3.125    0.000    3.750    0.000    0.000 
#    0.000    0.000    0.000    0.000    0.000    0.000 
#
# Total GULP energy -793378.989151 kJ/mol
# GULP energy per Si atom -12396.546705 kJ/mol
# Density = 1.816604 g / cm^3
# Si number density = 18.207482 Si / 1000 Ang^3
#
#
#
# Elastic Constant Matrix: (Units=GPa)
#
#
# Indices 1 2 3 4 5 6 
#
# 1 80.9707 45.0500 36.5393 0.0000 0.0000 0.0000
# 2 45.0500 118.1630 65.6537 0.0000 0.0000 0.0000
# 3 36.5393 65.6537 94.3979 0.0000 0.0000 0.0000
# 4 0.0000 0.0000 0.0000 19.2688 0.0000 0.0000
# 5 0.0000 0.0000 0.0000 0.0000 16.2803 0.0000
# 6 0.0000 0.0000 0.0000 0.0000 0.0000 10.1501
#
#
#
# Elastic Compliance Matrix: (Units=1/GPa)
#
#
# Indices 1 2 3 4 5 6 
#
# 1 0.016258 -0.004403 -0.003230 0.000000 0.000000 0.000000
# 2 -0.004403 0.014986 -0.008718 0.000000 0.000000 0.000000
# 3 -0.003230 -0.008718 0.017907 0.000000 0.000000 0.000000
# 4 0.000000 0.000000 0.000000 0.051897 0.000000 0.000000
# 5 0.000000 0.000000 0.000000 0.000000 0.061424 0.000000
# 6 0.000000 0.000000 0.000000 0.000000 0.000000 0.098521
#
#
# Mechanical properties :
#
#
# Convention : Reuss Voigt Hill
#
# Bulk Modulus (GPa) = 60.80164 65.33527 63.06846
# Shear Modulus (GPa) = 16.71238 18.89242 17.80240
#
# Velocity S-wave (km/s) = 3.03295 3.22470 3.13029
# Velocity P-wave (km/s) = 6.76249 7.05880 6.91223
#
# Compressibility (1/GPa) = 0.01644692
#
# Stress axis : x y z
#
# Youngs Moduli (GPa) = 61.50850 66.73062 55.84326
#
# Poissons Ratio (x) = 0.29385 0.18040
# Poissons Ratio (y) = 0.27085 0.48684
# Poissons Ratio (z) = 0.19870 0.58176
#
# Static dielectric constant tensor:
#      x y z
#    x 3.274670 0.000000 0.000000 
#    y 0.000000 3.440640 0.000000 
#    z 0.000000 0.000000 3.555470 
# 
# 
# High freq. dielectric constant tensor:
#      x y z
#    x 1.670200 0.000000 0.000000 
#    y 0.000000 1.705150 0.000000 
#    z 0.000000 0.000000 1.706000 
# 
# From -- ./inp_files/10100.got.cif
#   From: 2010.03.12/outbox.cif.g09.slc.cpg/sg51_6_cif.got.tgz:10100.got - 2010.04.16 13:43:02.
