data_PCOD8208830
_publ_section_title
;
Structure prediction by ZEFSAII (Michael W. Deem and Ramdas Pophale) SiO2 
 PCOD8208830
Probable space group: P M M A
;
_chemical_formula_sum "Si O2"
_cell_formula_units_Z 64
_cell_length_a 8.872300
_cell_length_b 17.461301
_cell_length_c 21.094696
_cell_angle_alpha 90.000000
_cell_angle_beta 90.000000
_cell_angle_gamma 90.000000
_cell_volume 3268.030402
_symmetry_space_group_name_H-M "P M M A"
_symmetry_group_IT_number 51
_symmetry_cell_setting 'orthorhombic'
loop_
_space_group_symop_operation_xyz
x,y,z
1/2-x,-y,z
1/2+x,-y,-z
-x,y,-z
-x,-y,-z
1/2+x,y,-z
1/2-x,y,z
x,-y,z
loop_
_atom_site_type_symbol
_atom_site_label
_atom_site_fract_x
_atom_site_fract_y
_atom_site_fract_z
Si Si1 0.430976 0.761620 0.062358
Si Si2 0.574216 0.085358 0.098760
Si Si3 0.077164 0.290393 0.198677
Si Si4 0.427241 0.414077 0.297013
Si Si5 0.080362 0.915653 0.649756
Si Si6 0.571856 0.631623 0.564906
Si Si7 0.576195 0.882193 0.771879
Si Si8 0.575994 0.194583 0.561174
O O1 0.250000 0.766091 0.060673
O O2 0.499365 0.847510 0.057389
O O3 0.487523 0.717021 0.126314
O O4 0.500000 0.718843 0.000000
O O5 0.750000 0.104390 0.110717
O O6 0.478892 0.084231 0.162611
O O7 0.557478 0.000000 0.067812
O O8 0.250000 0.313429 0.190948
O O9 0.000817 0.355295 0.244595
O O10 0.056828 0.209441 0.233038
O O11 0.250000 0.397265 0.301142
O O12 0.463069 0.500000 0.273479
O O13 0.489704 0.405655 0.369413
O O14 0.250000 0.884214 0.643117
O O15 0.032790 0.922617 0.722246
O O16 0.963379 0.856386 0.620866
O O17 0.068049 0.000000 0.618575
O O18 0.500000 0.596164 0.500000
O O19 0.750000 0.620656 0.558751
O O20 0.519036 0.719337 0.571221
O O21 0.750000 0.905061 0.761023
O O22 0.500000 0.156575 0.500000
O O23 0.750000 0.193601 0.548947
#
# Coordination Sequence:
#
# PCOD8208830 Si02
#       8
#     8   8   8   8   8   8   8   8
#     4  10  20  34  53  75 101 134 174 219 263 311
#     4  10  20  33  49  72 104 137 169 210 258 306
#     4   8  16  31  50  74 101 130 168 212 254 299
#     4   9  16  28  50  79 108 136 167 205 248 295
#     4  11  23  35  47  67  95 125 162 211 262 310
#     4   9  18  32  51  77 106 136 170 206 246 296
#     4  10  19  32  51  72  97 131 171 212 252 300
#     4  10  20  35  53  69  90 122 162 208 254 305
#
# _framework density 19.583660999999999
#
# number of rings (size 3 to 8) (size 9 to 14) (size 15 to 20)
#    0.000    2.375    0.000    3.750    0.000    6.750 
#    0.000    0.000    0.000    1.875    0.000    0.000 
#    0.000    0.000    0.000    0.000    0.000    0.500 
#
# Total GULP energy -793012.898861 kJ/mol
# GULP energy per Si atom -12390.826545 kJ/mol
# Density = 1.953909 g / cm^3
# Si number density = 19.583661 Si / 1000 Ang^3
#
#
#
# Elastic Constant Matrix: (Units=GPa)
#
#
# Indices 1 2 3 4 5 6 
#
# 1 46.7596 26.7837 16.5916 0.0000 0.0000 0.0000
# 2 26.7837 78.1328 49.4715 0.0000 0.0000 0.0000
# 3 16.5916 49.4715 116.6917 0.0000 0.0000 0.0000
# 4 0.0000 0.0000 0.0000 10.2420 0.0000 0.0000
# 5 0.0000 0.0000 0.0000 0.0000 32.8191 0.0000
# 6 0.0000 0.0000 0.0000 0.0000 0.0000 12.2621
#
#
#
# Elastic Compliance Matrix: (Units=1/GPa)
#
#
# Indices 1 2 3 4 5 6 
#
# 1 0.026612 -0.009195 0.000114 0.000000 0.000000 0.000000
# 2 -0.009195 0.020672 -0.007457 0.000000 0.000000 0.000000
# 3 0.000114 -0.007457 0.011715 0.000000 0.000000 0.000000
# 4 0.000000 0.000000 0.000000 0.097638 0.000000 0.000000
# 5 0.000000 0.000000 0.000000 0.000000 0.030470 0.000000
# 6 0.000000 0.000000 0.000000 0.000000 0.000000 0.081552
#
#
# Mechanical properties :
#
#
# Convention : Reuss Voigt Hill
#
# Bulk Modulus (GPa) = 38.57354 47.47530 43.02442
# Shear Modulus (GPa) = 16.10958 20.98045 18.54502
#
# Velocity S-wave (km/s) = 2.87122 3.27666 3.08062
# Velocity P-wave (km/s) = 5.54359 6.21372 5.88819
#
# Compressibility (1/GPa) = 0.02592451
#
# Stress axis : x y z
#
# Youngs Moduli (GPa) = 37.57665 48.37454 85.36413
#
# Poissons Ratio (x) = 0.44481 -0.00977
# Poissons Ratio (y) = 0.34552 0.63652
# Poissons Ratio (z) = -0.00430 0.36071
#
# Static dielectric constant tensor:
#      x y z
#    x 3.344800 0.000000 0.000000 
#    y 0.000000 3.559650 0.000000 
#    z 0.000000 0.000000 4.048910 
# 
# 
# High freq. dielectric constant tensor:
#      x y z
#    x 1.738770 0.000000 0.000000 
#    y 0.000000 1.741910 0.000000 
#    z 0.000000 0.000000 1.770990 
# 
# From -- ./inp_files/32329.got.cif
#   From: 2010.03.12/outbox.cif.g09.slc.cpg/sg51_17_cif.got.tgz:32329.got - 2010.04.16 13:43:02.
