data_PCOD8208378
_publ_section_title
;
Structure prediction by ZEFSAII (Michael W. Deem and Ramdas Pophale) SiO2 
 PCOD8208378
Probable space group: P M M A
;
_chemical_formula_sum "Si O2"
_cell_formula_units_Z 64
_cell_length_a 18.951994
_cell_length_b 9.661128
_cell_length_c 18.904706
_cell_angle_alpha 90.000000
_cell_angle_beta 90.000000
_cell_angle_gamma 90.000000
_cell_volume 3461.407051
_symmetry_space_group_name_H-M "P M M A"
_symmetry_group_IT_number 51
_symmetry_cell_setting 'orthorhombic'
loop_
_space_group_symop_operation_xyz
x,y,z
1/2-x,-y,z
1/2+x,-y,-z
-x,y,-z
-x,-y,-z
1/2+x,y,-z
1/2-x,y,z
x,-y,z
loop_
_atom_site_type_symbol
_atom_site_label
_atom_site_fract_x
_atom_site_fract_y
_atom_site_fract_z
Si Si1 0.169918 0.836105 0.534605
Si Si2 0.564471 0.838574 0.345790
Si Si3 0.169133 0.159639 0.992031
Si Si4 0.051374 0.662267 0.937067
Si Si5 0.532600 0.651656 0.222221
Si Si6 0.875207 0.346727 0.731495
Si Si7 0.668443 0.149075 0.851811
Si Si8 0.093918 0.161229 0.391990
O O1 0.250000 0.774584 0.533197
O O2 0.127611 0.784971 0.603829
O O3 0.123386 0.788780 0.467491
O O4 0.174239 0.000000 0.535218
O O5 0.574900 0.760585 0.270734
O O6 0.489793 0.809459 0.385148
O O7 0.571572 0.000000 0.328912
O O8 0.250000 0.206249 0.984942
O O9 0.124974 0.256924 0.940228
O O10 0.159769 0.000000 0.969985
O O11 0.137760 0.184959 0.070953
O O12 0.065620 0.500000 0.945720
O O13 0.021475 0.699590 0.859012
O O14 0.000000 0.714005 0.000000
O O15 0.569779 0.500000 0.224204
O O16 0.457533 0.638768 0.258221
O O17 0.841527 0.500000 0.721426
O O18 0.842220 0.275439 0.799672
O O19 0.860770 0.250159 0.663990
O O20 0.750000 0.124908 0.864796
O O21 0.636537 0.000000 0.824533
O O22 0.110219 0.000000 0.378394
#
# Coordination Sequence:
#
# PCOD8208378 Si02
#       8
#     8   8   8   8   8   8   8   8
#     4   9  17  30  50  75  99 124 159 204 249 289
#     4   9  17  31  52  74  95 124 165 204 237 285
#     4   9  19  35  52  72  99 130 167 211 256 303
#     4  10  20  34  53  77 104 134 169 210 255 304
#     4   9  19  34  50  71 100 130 161 200 248 298
#     4  10  19  31  48  71  99 129 162 202 243 286
#     4   9  18  32  48  66  93 130 166 199 241 295
#     4   9  17  30  49  72  98 128 160 196 242 295
#
# _framework density 18.489591000000001
#
# number of rings (size 3 to 8) (size 9 to 14) (size 15 to 20)
#    0.000    2.750    0.000    2.250    0.000    5.250 
#    0.000    3.750    0.000    6.375    0.000    0.000 
#    0.000    0.000    0.000    0.000    0.000    0.000 
#
# Total GULP energy -793149.634098 kJ/mol
# GULP energy per Si atom -12392.963033 kJ/mol
# Density = 1.844751 g / cm^3
# Si number density = 18.489591 Si / 1000 Ang^3
#
#
#
# Elastic Constant Matrix: (Units=GPa)
#
#
# Indices 1 2 3 4 5 6 
#
# 1 59.6424 25.8192 33.9602 0.0000 0.0000 0.0000
# 2 25.8192 66.6363 49.6435 0.0000 0.0000 0.0000
# 3 33.9602 49.6435 120.1278 0.0000 0.0000 0.0000
# 4 0.0000 0.0000 0.0000 25.6405 0.0000 0.0000
# 5 0.0000 0.0000 0.0000 0.0000 23.9908 0.0000
# 6 0.0000 0.0000 0.0000 0.0000 0.0000 19.7510
#
#
#
# Elastic Compliance Matrix: (Units=1/GPa)
#
#
# Indices 1 2 3 4 5 6 
#
# 1 0.021263 -0.005433 -0.003766 0.000000 0.000000 0.000000
# 2 -0.005433 0.023070 -0.007998 0.000000 0.000000 0.000000
# 3 -0.003766 -0.007998 0.012694 0.000000 0.000000 0.000000
# 4 0.000000 0.000000 0.000000 0.039001 0.000000 0.000000
# 5 0.000000 0.000000 0.000000 0.000000 0.041683 0.000000
# 6 0.000000 0.000000 0.000000 0.000000 0.000000 0.050630
#
#
# Mechanical properties :
#
#
# Convention : Reuss Voigt Hill
#
# Bulk Modulus (GPa) = 44.18189 51.69469 47.93829
# Shear Modulus (GPa) = 21.71273 23.00870 22.36071
#
# Velocity S-wave (km/s) = 3.43056 3.53145 3.48137
# Velocity P-wave (km/s) = 6.29595 6.68189 6.49179
#
# Compressibility (1/GPa) = 0.02263371
#
# Stress axis : x y z
#
# Youngs Moduli (GPa) = 47.03043 43.34548 78.77561
#
# Poissons Ratio (x) = 0.23550 0.29665
# Poissons Ratio (y) = 0.25552 0.63005
# Poissons Ratio (z) = 0.17710 0.34668
#
# Static dielectric constant tensor:
#      x y z
#    x 3.301760 0.000000 0.000000 
#    y 0.000000 3.583760 0.000000 
#    z 0.000000 0.000000 3.444010 
# 
# 
# High freq. dielectric constant tensor:
#      x y z
#    x 1.694990 0.000000 0.000000 
#    y 0.000000 1.704620 0.000000 
#    z 0.000000 0.000000 1.716750 
# 
# From -- ./inp_files/30693.got.cif
#   From: 2010.03.12/outbox.cif.g09.slc.cpg/sg51_16_cif.got.tgz:30693.got - 2010.04.16 13:43:02.
