data_PCOD8208488
_publ_section_title
;
Structure prediction by ZEFSAII (Michael W. Deem and Ramdas Pophale) SiO2 
 PCOD8208488
Probable space group: P M M A
;
_chemical_formula_sum "Si O2"
_cell_formula_units_Z 52
_cell_length_a 9.479069
_cell_length_b 15.806992
_cell_length_c 19.135384
_cell_angle_alpha 90.000000
_cell_angle_beta 90.000000
_cell_angle_gamma 90.000000
_cell_volume 2867.161128
_symmetry_space_group_name_H-M "P M M A"
_symmetry_group_IT_number 51
_symmetry_cell_setting 'orthorhombic'
loop_
_space_group_symop_operation_xyz
x,y,z
1/2-x,-y,z
1/2+x,-y,-z
-x,y,-z
-x,-y,-z
1/2+x,y,-z
1/2-x,y,z
x,-y,z
loop_
_atom_site_type_symbol
_atom_site_label
_atom_site_fract_x
_atom_site_fract_y
_atom_site_fract_z
Si Si1 0.410311 0.188405 0.801816
Si Si2 0.912689 0.651749 0.663185
Si Si3 0.084622 0.500000 0.073047
Si Si4 0.584528 0.000000 0.571968
Si Si5 0.083101 0.158045 0.329909
Si Si6 0.413554 0.650372 0.177864
Si Si7 0.419963 0.500000 0.428391
Si Si8 0.906280 0.905507 0.057193
O O1 0.250000 0.209034 0.777223
O O2 0.497319 0.141498 0.740896
O O3 0.485004 0.270846 0.833273
O O4 0.412155 0.124827 0.864661
O O5 0.750000 0.652368 0.646494
O O6 0.967405 0.747382 0.646492
O O7 0.940467 0.620246 0.742441
O O8 0.979818 0.582660 0.611902
O O9 0.250000 0.500000 0.054936
O O10 0.044221 0.419516 0.120636
O O11 0.000000 0.500000 0.000000
O O12 0.500000 0.000000 0.500000
O O13 0.543289 0.085240 0.614432
O O14 0.750000 0.000000 0.554887
O O15 0.250000 0.156470 0.313541
O O16 0.250000 0.676815 0.169146
O O17 0.250000 0.500000 0.436597
O O18 0.500000 0.500000 0.500000
O O19 0.750000 0.900092 0.026967
O O20 0.964952 0.000000 0.062000
O O21 0.000000 0.854479 0.000000
#
# Coordination Sequence:
#
# PCOD8208488 Si02
#       8
#     8   8   4   4   8   8   4   8
#     4  10  20  33  53  80 106 133 170 219 271 313
#     4   8  15  31  54  73  95 129 170 211 247 295
#     4  10  21  35  53  77 105 142 182 224 274 326
#     4  10  22  38  56  80 109 142 181 220 269 326
#     4   9  19  36  55  77 104 138 179 219 260 318
#     4   9  18  35  56  75  98 134 180 218 255 310
#     4  10  19  31  49  75 101 128 160 198 248 300
#     4   9  19  34  49  69  99 134 170 208 254 309
#
# _framework density 18.136406000000001
#
# number of rings (size 3 to 8) (size 9 to 14) (size 15 to 20)
#    0.000    2.769    0.000    1.846    1.077    5.538 
#    0.000    6.154    0.000    0.923    0.000    0.000 
#    0.000    0.000    0.000    0.000    0.000    0.000 
#
# Total GULP energy -644258.091076 kJ/mol
# GULP energy per Si atom -12389.578675 kJ/mol
# Density = 1.809513 g / cm^3
# Si number density = 18.136406 Si / 1000 Ang^3
#
#
#
# Elastic Constant Matrix: (Units=GPa)
#
#
# Indices 1 2 3 4 5 6 
#
# 1 73.9051 46.2404 56.5404 0.0000 0.0000 0.0000
# 2 46.2404 107.0029 75.0487 0.0000 0.0000 0.0000
# 3 56.5404 75.0487 123.9547 0.0000 0.0000 0.0000
# 4 0.0000 0.0000 0.0000 6.2083 0.0000 0.0000
# 5 0.0000 0.0000 0.0000 0.0000 37.3189 0.0000
# 6 0.0000 0.0000 0.0000 0.0000 0.0000 15.6751
#
#
#
# Elastic Compliance Matrix: (Units=1/GPa)
#
#
# Indices 1 2 3 4 5 6 
#
# 1 0.021847 -0.004261 -0.007385 0.000000 0.000000 0.000000
# 2 -0.004261 0.017074 -0.008394 0.000000 0.000000 0.000000
# 3 -0.007385 -0.008394 0.016518 0.000000 0.000000 0.000000
# 4 0.000000 0.000000 0.000000 0.161075 0.000000 0.000000
# 5 0.000000 0.000000 0.000000 0.000000 0.026796 0.000000
# 6 0.000000 0.000000 0.000000 0.000000 0.000000 0.063795
#
#
# Mechanical properties :
#
#
# Convention : Reuss Voigt Hill
#
# Bulk Modulus (GPa) = 65.10965 73.39132 69.25048
# Shear Modulus (GPa) = 14.19216 20.30934 17.25075
#
# Velocity S-wave (km/s) = 2.80040 3.34999 3.08745
# Velocity P-wave (km/s) = 6.81426 7.45100 7.13973
#
# Compressibility (1/GPa) = 0.01535871
#
# Stress axis : x y z
#
# Youngs Moduli (GPa) = 45.77279 58.56768 60.53874
#
# Poissons Ratio (x) = 0.24957 0.44710
# Poissons Ratio (y) = 0.19505 0.50816
# Poissons Ratio (z) = 0.33805 0.49162
#
# Static dielectric constant tensor:
#      x y z
#    x 3.390530 0.000000 0.000000 
#    y 0.000000 3.749070 0.000000 
#    z 0.000000 0.000000 3.337870 
# 
# 
# High freq. dielectric constant tensor:
#      x y z
#    x 1.687880 0.000000 0.000000 
#    y 0.000000 1.705090 0.000000 
#    z 0.000000 0.000000 1.701760 
# 
# From -- ./inp_files/31832.got.cif
#   From: 2010.03.12/outbox.cif.g09.slc.cpg/sg51_16_cif.got.tgz:31832.got - 2010.04.16 13:43:02.
