data_PCOD8208014
_publ_section_title
;
Structure prediction by ZEFSAII (Michael W. Deem and Ramdas Pophale) SiO2 
 PCOD8208014
Probable space group: P M M A
;
_chemical_formula_sum "Si O2"
_cell_formula_units_Z 64
_cell_length_a 8.991143
_cell_length_b 18.830403
_cell_length_c 23.333019
_cell_angle_alpha 90.000000
_cell_angle_beta 90.000000
_cell_angle_gamma 90.000000
_cell_volume 3950.439857
_symmetry_space_group_name_H-M "P M M A"
_symmetry_group_IT_number 51
_symmetry_cell_setting 'orthorhombic'
loop_
_space_group_symop_operation_xyz
x,y,z
1/2-x,-y,z
1/2+x,-y,-z
-x,y,-z
-x,-y,-z
1/2+x,y,-z
1/2-x,y,z
x,-y,z
loop_
_atom_site_type_symbol
_atom_site_label
_atom_site_fract_x
_atom_site_fract_y
_atom_site_fract_z
Si Si1 0.076553 0.081409 0.781578
Si Si2 0.423009 0.295632 0.057400
Si Si3 0.920835 0.849376 0.337497
Si Si4 0.077232 0.711111 0.728750
Si Si5 0.078195 0.580857 0.879632
Si Si6 0.923289 0.579601 0.758149
Si Si7 0.077792 0.208841 0.169568
Si Si8 0.424412 0.081080 0.441754
O O1 0.250000 0.096759 0.791970
O O2 0.034314 0.102262 0.716653
O O3 0.981993 0.128231 0.826111
O O4 0.034512 0.000000 0.792268
O O5 0.250000 0.309959 0.046527
O O6 0.498797 0.369970 0.073956
O O7 0.448318 0.235696 0.105330
O O8 0.500000 0.266394 0.000000
O O9 0.750000 0.863036 0.354459
O O10 0.949354 0.766730 0.322613
O O11 0.024494 0.869014 0.390246
O O12 0.250000 0.696087 0.737546
O O13 0.994230 0.636806 0.714146
O O14 0.013917 0.741274 0.788001
O O15 0.250000 0.602537 0.873153
O O16 0.061245 0.500000 0.900850
O O17 0.999745 0.591350 0.818944
O O18 0.750000 0.594935 0.765843
O O19 0.952202 0.500000 0.734607
O O20 0.250000 0.211611 0.187151
O O21 0.500000 0.108099 0.500000
O O22 0.250000 0.088398 0.449591
O O23 0.472189 0.000000 0.428617
#
# Coordination Sequence:
#
# PCOD8208014 Si02
#       8
#     8   8   8   8   8   8   8   8
#     4   9  18  32  51  74  98 125 154 188 235 286
#     4  11  23  36  51  69  90 119 154 194 237 283
#     4   9  18  31  47  70  99 129 162 200 236 275
#     4  10  19  31  49  70  95 128 161 195 238 285
#     4  10  20  33  50  70  92 121 155 190 230 279
#     4  10  19  30  46  69  97 127 158 194 236 282
#     4  10  20  33  49  70  94 119 150 190 237 285
#     4  10  20  32  47  68  96 134 174 207 240 278
#
# _framework density 16.200728000000002
#
# number of rings (size 3 to 8) (size 9 to 14) (size 15 to 20)
#    0.000    2.125    1.250    3.375    0.000    7.250 
#    0.000    0.000    0.000    0.375    0.000    0.000 
#    0.000    0.500    0.000    1.625    0.000    2.375 
#
# Total GULP energy -793712.981630 kJ/mol
# GULP energy per Si atom -12401.765338 kJ/mol
# Density = 1.616385 g / cm^3
# Si number density = 16.200728 Si / 1000 Ang^3
#
#
#
# Elastic Constant Matrix: (Units=GPa)
#
#
# Indices 1 2 3 4 5 6 
#
# 1 107.2415 57.9044 50.5700 0.0000 0.0000 0.0000
# 2 57.9044 108.0259 46.6212 0.0000 0.0000 0.0000
# 3 50.5700 46.6212 75.9931 0.0000 0.0000 0.0000
# 4 0.0000 0.0000 0.0000 18.6894 0.0000 0.0000
# 5 0.0000 0.0000 0.0000 0.0000 27.8880 0.0000
# 6 0.0000 0.0000 0.0000 0.0000 0.0000 29.5603
#
#
#
# Elastic Compliance Matrix: (Units=1/GPa)
#
#
# Indices 1 2 3 4 5 6 
#
# 1 0.015506 -0.005248 -0.007099 0.000000 0.000000 0.000000
# 2 -0.005248 0.014367 -0.005322 0.000000 0.000000 0.000000
# 3 -0.007099 -0.005322 0.021148 0.000000 0.000000 0.000000
# 4 0.000000 0.000000 0.000000 0.053506 0.000000 0.000000
# 5 0.000000 0.000000 0.000000 0.000000 0.035858 0.000000
# 6 0.000000 0.000000 0.000000 0.000000 0.000000 0.033829
#
#
# Mechanical properties :
#
#
# Convention : Reuss Voigt Hill
#
# Bulk Modulus (GPa) = 63.76088 66.82797 65.29443
# Shear Modulus (GPa) = 23.27983 24.30519 23.79251
#
# Velocity S-wave (km/s) = 3.79484 3.87751 3.83640
# Velocity P-wave (km/s) = 7.65789 7.83494 7.74692
#
# Compressibility (1/GPa) = 0.01568360
#
# Stress axis : x y z
#
# Youngs Moduli (GPa) = 64.49212 69.60569 47.28595
#
# Poissons Ratio (x) = 0.36527 0.33568
# Poissons Ratio (y) = 0.33844 0.25164
# Poissons Ratio (z) = 0.45783 0.37042
#
# Static dielectric constant tensor:
#      x y z
#    x 3.203780 0.000000 0.000000 
#    y 0.000000 3.301570 0.000000 
#    z 0.000000 0.000000 2.781450 
# 
# 
# High freq. dielectric constant tensor:
#      x y z
#    x 1.640320 0.000000 0.000000 
#    y 0.000000 1.623430 0.000000 
#    z 0.000000 0.000000 1.584660 
# 
# From -- ./inp_files/32619.got.cif
#   From: 2010.03.12/outbox.cif.g09.slc.cpg/sg51_17_cif.got.tgz:32619.got - 2010.04.16 13:43:02.
