data_PCOD8208585
_publ_section_title
;
Structure prediction by ZEFSAII (Michael W. Deem and Ramdas Pophale) SiO2 
 PCOD8208585
Probable space group: P M M A
;
_chemical_formula_sum "Si O2"
_cell_formula_units_Z 64
_cell_length_a 17.831079
_cell_length_b 9.095972
_cell_length_c 20.618532
_cell_angle_alpha 90.000000
_cell_angle_beta 90.000000
_cell_angle_gamma 90.000000
_cell_volume 3344.140227
_symmetry_space_group_name_H-M "P M M A"
_symmetry_group_IT_number 51
_symmetry_cell_setting 'orthorhombic'
loop_
_space_group_symop_operation_xyz
x,y,z
1/2-x,-y,z
1/2+x,-y,-z
-x,y,-z
-x,-y,-z
1/2+x,y,-z
1/2-x,y,z
x,-y,z
loop_
_atom_site_type_symbol
_atom_site_label
_atom_site_fract_x
_atom_site_fract_y
_atom_site_fract_z
Si Si1 0.163324 0.831950 0.512116
Si Si2 0.919110 0.824792 0.867256
Si Si3 0.165471 0.824943 0.259881
Si Si4 0.911334 0.174615 0.125236
Si Si5 0.084262 0.326659 0.625135
Si Si6 0.663510 0.330447 0.243110
Si Si7 0.834665 0.175103 0.994053
Si Si8 0.926081 0.173268 0.615901
O O1 0.250000 0.812206 0.494755
O O2 0.142731 0.728161 0.571645
O O3 0.117304 0.783478 0.449070
O O4 0.144663 0.000000 0.530868
O O5 0.877077 0.764210 0.803607
O O6 0.876630 0.763208 0.930541
O O7 0.004122 0.765517 0.867168
O O8 0.918705 0.000000 0.867978
O O9 0.250000 0.761989 0.260682
O O10 0.121767 0.768131 0.323154
O O11 0.167729 0.000000 0.259007
O O12 0.859632 0.233642 0.182257
O O13 0.909436 0.000000 0.127960
O O14 0.878436 0.232698 0.057230
O O15 0.076211 0.500000 0.618692
O O16 0.115087 0.280106 0.695268
O O17 0.004959 0.252634 0.613756
O O18 0.750000 0.301019 0.259578
O O19 0.648922 0.500000 0.226249
O O20 0.750000 0.236593 0.994988
O O21 0.834061 0.000000 0.992757
O O22 0.939686 0.000000 0.621346
#
# Coordination Sequence:
#
# PCOD8208585 Si02
#       8
#     8   8   8   8   8   8   8   8
#     4  10  21  37  57  81 109 141 175 213 259 307
#     4   9  16  26  43  70 104 137 167 205 255 304
#     4   9  16  27  46  72 101 135 174 212 252 304
#     4  10  19  31  50  77 104 130 166 213 259 303
#     4  11  23  38  56  78 105 138 176 216 258 308
#     4  10  22  39  55  72  99 135 171 209 256 307
#     4   9  16  26  42  68 103 138 170 207 252 301
#     4  10  20  35  55  80 109 137 169 213 261 307
#
# _framework density 19.137953
#
# number of rings (size 3 to 8) (size 9 to 14) (size 15 to 20)
#    0.000    2.250    0.000    3.375    0.000   10.000 
#    0.000    0.000    0.000    2.625    0.000    0.000 
#    0.000    3.000    0.000    0.000    0.000    0.000 
#
# Total GULP energy -793780.819204 kJ/mol
# GULP energy per Si atom -12402.825300 kJ/mol
# Density = 1.909439 g / cm^3
# Si number density = 19.137953 Si / 1000 Ang^3
#
#
#
# Elastic Constant Matrix: (Units=GPa)
#
#
# Indices 1 2 3 4 5 6 
#
# 1 107.0095 18.1751 32.5607 0.0000 0.0000 0.0000
# 2 18.1751 22.5392 26.2808 0.0000 0.0000 0.0000
# 3 32.5607 26.2808 128.2876 0.0000 0.0000 0.0000
# 4 0.0000 0.0000 0.0000 11.6290 0.0000 0.0000
# 5 0.0000 0.0000 0.0000 0.0000 45.4950 0.0000
# 6 0.0000 0.0000 0.0000 0.0000 0.0000 11.2023
#
#
#
# Elastic Compliance Matrix: (Units=1/GPa)
#
#
# Indices 1 2 3 4 5 6 
#
# 1 0.010985 -0.007367 -0.001279 0.000000 0.000000 0.000000
# 2 -0.007367 0.063231 -0.011084 0.000000 0.000000 0.000000
# 3 -0.001279 -0.011084 0.010390 0.000000 0.000000 0.000000
# 4 0.000000 0.000000 0.000000 0.085992 0.000000 0.000000
# 5 0.000000 0.000000 0.000000 0.000000 0.021980 0.000000
# 6 0.000000 0.000000 0.000000 0.000000 0.000000 0.089267
#
#
# Mechanical properties :
#
#
# Convention : Reuss Voigt Hill
#
# Bulk Modulus (GPa) = 22.14962 45.76328 33.95645
# Shear Modulus (GPa) = 14.86525 25.71992 20.29258
#
# Velocity S-wave (km/s) = 2.79003 3.66993 3.25981
# Velocity P-wave (km/s) = 4.68805 6.47473 5.65243
#
# Compressibility (1/GPa) = 0.04514750
#
# Stress axis : x y z
#
# Youngs Moduli (GPa) = 91.02994 15.81498 96.24476
#
# Poissons Ratio (x) = 0.11651 0.12310
# Poissons Ratio (y) = 0.67062 1.06674
# Poissons Ratio (z) = 0.11643 0.17529
#
# Static dielectric constant tensor:
#      x y z
#    x 3.695780 0.000000 0.000000 
#    y 0.000000 3.021560 0.000000 
#    z 0.000000 0.000000 3.699270 
# 
# 
# High freq. dielectric constant tensor:
#      x y z
#    x 1.764580 0.000000 0.000000 
#    y 0.000000 1.689670 0.000000 
#    z 0.000000 0.000000 1.762540 
# 
# From -- ./inp_files/33875.got.cif
#   From: 2010.03.12/outbox.cif.g09.slc.cpg/sg51_17_cif.got.tgz:33875.got - 2010.04.16 13:43:02.
