data_PCOD8208896
_publ_section_title
;
Structure prediction by ZEFSAII (Michael W. Deem and Ramdas Pophale) SiO2 
 PCOD8208896
Probable space group: P M M A
;
_chemical_formula_sum "Si O2"
_cell_formula_units_Z 64
_cell_length_a 22.390406
_cell_length_b 8.889796
_cell_length_c 17.578229
_cell_angle_alpha 90.000000
_cell_angle_beta 90.000000
_cell_angle_gamma 90.000000
_cell_volume 3498.878660
_symmetry_space_group_name_H-M "P M M A"
_symmetry_group_IT_number 51
_symmetry_cell_setting 'orthorhombic'
loop_
_space_group_symop_operation_xyz
x,y,z
1/2-x,-y,z
1/2+x,-y,-z
-x,y,-z
-x,-y,-z
1/2+x,y,-z
1/2-x,y,z
x,-y,z
loop_
_atom_site_type_symbol
_atom_site_label
_atom_site_fract_x
_atom_site_fract_y
_atom_site_fract_z
Si Si1 0.978675 0.170882 0.918638
Si Si2 0.583144 0.677580 0.646029
Si Si3 0.455551 0.821789 0.667452
Si Si4 0.183421 0.322442 0.936733
Si Si5 0.359176 0.677530 0.100710
Si Si6 0.070642 0.834086 0.505266
Si Si7 0.096479 0.169726 0.823231
Si Si8 0.682281 0.825869 0.751254
O O1 0.927922 0.279216 0.885760
O O2 0.031967 0.180175 0.860159
O O3 0.954497 0.000000 0.926864
O O4 0.000000 0.233019 0.000000
O O5 0.581605 0.500000 0.653524
O O6 0.519691 0.741626 0.673556
O O7 0.596617 0.721927 0.558123
O O8 0.636770 0.739065 0.697018
O O9 0.418165 0.775565 0.591526
O O10 0.412553 0.773900 0.736823
O O11 0.468712 0.000000 0.668410
O O12 0.250000 0.260127 0.923695
O O13 0.182717 0.500000 0.939740
O O14 0.143344 0.272984 0.866221
O O15 0.159458 0.260745 0.017434
O O16 0.350030 0.500000 0.108319
O O17 0.319299 0.758489 0.163888
O O18 0.000000 0.846413 0.500000
O O19 0.099013 0.000000 0.492178
O O20 0.121017 0.000000 0.825993
O O21 0.750000 0.806624 0.720589
O O22 0.663520 0.000000 0.753916
#
# Coordination Sequence:
#
# PCOD8208896 Si02
#       8
#     8   8   8   8   8   8   8   8
#     4  10  19  32  51  77 109 141 175 216 264 315
#     4  11  21  33  54  83 112 141 172 213 267 320
#     4   9  18  33  54  81 112 145 178 217 265 316
#     4  10  22  38  53  71 100 138 175 215 265 315
#     4  11  22  36  56  79 106 138 176 222 269 318
#     4   8  15  30  52  77 108 143 174 205 249 307
#     4  10  20  34  53  77 104 136 177 222 260 301
#     4  11  24  40  57  76 102 141 185 225 267 320
#
# _framework density 18.291575000000002
#
# number of rings (size 3 to 8) (size 9 to 14) (size 15 to 20)
#    0.000    2.000    1.250    3.750    0.000    6.750 
#    0.000    0.000    0.000    0.750    0.000    1.750 
#    0.000    0.000    0.000    0.000    0.000    0.000 
#
# Total GULP energy -793538.661367 kJ/mol
# GULP energy per Si atom -12399.041584 kJ/mol
# Density = 1.824994 g / cm^3
# Si number density = 18.291575 Si / 1000 Ang^3
#
#
#
# Elastic Constant Matrix: (Units=GPa)
#
#
# Indices 1 2 3 4 5 6 
#
# 1 81.6406 38.5350 45.0837 0.0000 0.0000 0.0000
# 2 38.5350 82.0356 41.7544 0.0000 0.0000 0.0000
# 3 45.0837 41.7544 143.1255 0.0000 0.0000 0.0000
# 4 0.0000 0.0000 0.0000 26.0037 0.0000 0.0000
# 5 0.0000 0.0000 0.0000 0.0000 18.9196 0.0000
# 6 0.0000 0.0000 0.0000 0.0000 0.0000 -18.6704
#
#
#
# Elastic Compliance Matrix: (Units=1/GPa)
#
#
# Indices 1 2 3 4 5 6 
#
# 1 0.017177 -0.006242 -0.003590 0.000000 0.000000 0.000000
# 2 -0.006242 0.016583 -0.002872 0.000000 0.000000 0.000000
# 3 -0.003590 -0.002872 0.008955 0.000000 0.000000 0.000000
# 4 0.000000 0.000000 0.000000 0.038456 0.000000 0.000000
# 5 0.000000 0.000000 0.000000 0.000000 0.052855 0.000000
# 6 0.000000 0.000000 0.000000 0.000000 0.000000 -0.053561
#
#
# Mechanical properties :
#
#
# Convention : Reuss Voigt Hill
#
# Bulk Modulus (GPa) = 57.77159 61.94976 59.86068
# Shear Modulus (GPa) = 44.78546 17.34582 31.06564
#
# Velocity S-wave (km/s) = 4.95352 3.08278 4.12558
# Velocity P-wave (km/s) = 8.02301 6.82736 7.44921
#
# Compressibility (1/GPa) = 0.01730954
#
# Stress axis : x y z
#
# Youngs Moduli (GPa) = 58.21644 60.30111 111.66352
#
# Poissons Ratio (x) = 0.37638 0.40086
# Poissons Ratio (y) = 0.36336 0.32068
# Poissons Ratio (z) = 0.20899 0.17318
#
# Static dielectric constant tensor:
#      x y z
#    x 3.148860 0.000000 0.000000 
#    y 0.000000 3.315860 0.000000 
#    z 0.000000 0.000000 3.978880 
# 
# 
# High freq. dielectric constant tensor:
#      x y z
#    x 1.682030 0.000000 0.000000 
#    y 0.000000 1.703210 0.000000 
#    z 0.000000 0.000000 1.721180 
# 
# From -- ./inp_files/30583.got.cif
#   From: 2010.03.12/outbox.cif.g09.slc.cpg/sg51_16_cif.got.tgz:30583.got - 2010.04.16 13:43:02.
