data_PCOD8208388
_publ_section_title
;
Structure prediction by ZEFSAII (Michael W. Deem and Ramdas Pophale) SiO2 
 PCOD8208388
Probable space group: P M M A
;
_chemical_formula_sum "Si O2"
_cell_formula_units_Z 64
_cell_length_a 8.994041
_cell_length_b 23.346612
_cell_length_c 19.065479
_cell_angle_alpha 90.000000
_cell_angle_beta 90.000000
_cell_angle_gamma 90.000000
_cell_volume 4003.376631
_symmetry_space_group_name_H-M "P M M A"
_symmetry_group_IT_number 51
_symmetry_cell_setting 'orthorhombic'
loop_
_space_group_symop_operation_xyz
x,y,z
1/2-x,-y,z
1/2+x,-y,-z
-x,y,-z
-x,-y,-z
1/2+x,y,-z
1/2-x,y,z
x,-y,z
loop_
_atom_site_type_symbol
_atom_site_label
_atom_site_fract_x
_atom_site_fract_y
_atom_site_fract_z
Si Si1 0.925715 0.105105 0.428851
Si Si2 0.573839 0.219016 0.924716
Si Si3 0.923384 0.237992 0.430824
Si Si4 0.576257 0.669501 0.838082
Si Si5 0.922910 0.271159 0.281200
Si Si6 0.079854 0.934199 0.290441
Si Si7 0.574826 0.157125 0.197347
Si Si8 0.075408 0.435645 0.072773
O O1 0.750000 0.093878 0.430593
O O2 0.964917 0.171805 0.420165
O O3 0.000000 0.081285 0.500000
O O4 0.996858 0.071718 0.364341
O O5 0.750000 0.210726 0.930447
O O6 0.530656 0.280529 0.892054
O O7 0.504427 0.169066 0.876798
O O8 0.500000 0.214592 0.000000
O O9 0.750000 0.245583 0.441274
O O10 0.978346 0.272252 0.361871
O O11 0.000000 0.263905 0.500000
O O12 0.750000 0.668833 0.825545
O O13 0.503394 0.679040 0.762225
O O14 0.519157 0.608823 0.868426
O O15 0.750000 0.283889 0.276596
O O16 0.959965 0.208915 0.250225
O O17 0.250000 0.912557 0.297425
O O18 0.994828 0.899732 0.230011
O O19 0.075027 0.000000 0.267260
O O20 0.750000 0.148615 0.185747
O O21 0.250000 0.429220 0.060943
O O22 0.032125 0.500000 0.096612
O O23 0.000000 0.419251 0.000000
#
# Coordination Sequence:
#
# PCOD8208388 Si02
#       8
#     8   8   8   8   8   8   8   8
#     4  10  19  33  50  69  92 120 154 190 227 271
#     4  10  19  31  48  72  97 121 150 187 229 275
#     4   9  17  29  44  66  91 118 150 183 222 272
#     4   9  18  29  43  67  95 124 160 194 228 268
#     4   9  17  30  46  66  92 119 150 188 230 272
#     4  11  23  36  50  69  92 119 152 189 228 274
#     4  10  19  34  52  69  91 118 149 186 229 277
#     4   9  17  29  44  63  92 129 166 200 229 263
#
# _framework density 15.986504
#
# number of rings (size 3 to 8) (size 9 to 14) (size 15 to 20)
#    0.000    2.375    1.250    1.875    0.000    3.750 
#    0.000    0.000    0.000    0.375    0.000    0.000 
#    0.000    0.500    0.000    1.125    0.000    1.750 
#
# Total GULP energy -793630.393890 kJ/mol
# GULP energy per Si atom -12400.474905 kJ/mol
# Density = 1.595012 g / cm^3
# Si number density = 15.986504 Si / 1000 Ang^3
#
#
#
# Elastic Constant Matrix: (Units=GPa)
#
#
# Indices 1 2 3 4 5 6 
#
# 1 66.6356 35.6574 49.6088 0.0000 0.0000 0.0000
# 2 35.6574 76.0401 56.6564 0.0000 0.0000 0.0000
# 3 49.6088 56.6564 134.7374 0.0000 0.0000 0.0000
# 4 0.0000 0.0000 0.0000 25.4391 0.0000 0.0000
# 5 0.0000 0.0000 0.0000 0.0000 33.6509 0.0000
# 6 0.0000 0.0000 0.0000 0.0000 0.0000 18.4608
#
#
#
# Elastic Compliance Matrix: (Units=1/GPa)
#
#
# Indices 1 2 3 4 5 6 
#
# 1 0.022636 -0.006415 -0.005637 0.000000 0.000000 0.000000
# 2 -0.006415 0.020969 -0.006455 0.000000 0.000000 0.000000
# 3 -0.005637 -0.006455 0.012212 0.000000 0.000000 0.000000
# 4 0.000000 0.000000 0.000000 0.039310 0.000000 0.000000
# 5 0.000000 0.000000 0.000000 0.000000 0.029717 0.000000
# 6 0.000000 0.000000 0.000000 0.000000 0.000000 0.054169
#
#
# Mechanical properties :
#
#
# Convention : Reuss Voigt Hill
#
# Bulk Modulus (GPa) = 53.18449 62.36204 57.77327
# Shear Modulus (GPa) = 22.49273 24.54287 23.51780
#
# Velocity S-wave (km/s) = 3.75505 3.92244 3.83966
# Velocity P-wave (km/s) = 7.22088 7.72062 7.47493
#
# Compressibility (1/GPa) = 0.01880247
#
# Stress axis : x y z
#
# Youngs Moduli (GPa) = 44.17698 47.68974 81.88765
#
# Poissons Ratio (x) = 0.30591 0.46161
# Poissons Ratio (y) = 0.28338 0.52863
# Poissons Ratio (z) = 0.24903 0.30786
#
# Static dielectric constant tensor:
#      x y z
#    x 3.087990 0.000000 0.000000 
#    y 0.000000 2.909980 0.000000 
#    z 0.000000 0.000000 3.189570 
# 
# 
# High freq. dielectric constant tensor:
#      x y z
#    x 1.623870 0.000000 0.000000 
#    y 0.000000 1.580180 0.000000 
#    z 0.000000 0.000000 1.613330 
# 
# From -- ./inp_files/28491.got.cif
#   From: 2010.03.12/outbox.cif.g09.slc.cpg/sg51_15_cif.got.tgz:28491.got - 2010.04.16 13:43:02.
