data_PCOD8208688
_publ_section_title
;
Structure prediction by ZEFSAII (Michael W. Deem and Ramdas Pophale) SiO2 
 PCOD8208688
Probable space group: P M M A
;
_chemical_formula_sum "Si O2"
_cell_formula_units_Z 52
_cell_length_a 8.659942
_cell_length_b 26.619626
_cell_length_c 13.788184
_cell_angle_alpha 90.000000
_cell_angle_beta 90.000000
_cell_angle_gamma 90.000000
_cell_volume 3178.513081
_symmetry_space_group_name_H-M "P M M A"
_symmetry_group_IT_number 51
_symmetry_cell_setting 'orthorhombic'
loop_
_space_group_symop_operation_xyz
x,y,z
1/2-x,-y,z
1/2+x,-y,-z
-x,y,-z
-x,-y,-z
1/2+x,y,-z
1/2-x,y,z
x,-y,z
loop_
_atom_site_type_symbol
_atom_site_label
_atom_site_fract_x
_atom_site_fract_y
_atom_site_fract_z
Si Si1 0.067649 0.353871 0.787042
Si Si2 0.933329 0.108145 0.607070
Si Si3 0.430969 0.000000 0.394973
Si Si4 0.567067 0.304461 0.604180
Si Si5 0.566657 0.261912 0.897059
Si Si6 0.067557 0.794487 0.289664
Si Si7 0.929780 0.557952 0.896224
O O1 0.250000 0.348173 0.785757
O O2 0.000783 0.343897 0.680501
O O3 0.998131 0.315968 0.866655
O O4 0.017968 0.409989 0.815153
O O5 0.750000 0.113003 0.598997
O O6 0.001887 0.151780 0.676735
O O7 0.000000 0.115025 0.500000
O O8 0.981034 0.053343 0.653934
O O9 0.500000 0.000000 0.500000
O O10 0.250000 0.000000 0.406774
O O11 0.500000 0.317825 0.500000
O O12 0.750000 0.309496 0.603569
O O13 0.513746 0.248409 0.634901
O O14 0.750000 0.265768 0.901755
O O15 0.511351 0.220159 0.818442
O O16 0.500000 0.244915 0.000000
O O17 0.250000 0.797583 0.289468
O O18 0.750000 0.571729 0.897398
O O19 0.958115 0.500000 0.869974
O O20 0.000000 0.571502 0.000000
#
# Coordination Sequence:
#
# PCOD8208688 Si02
#       7
#     8   8   4   8   8   8   8
#     4  11  21  33  50  71  95 124 154 185 222 267
#     4   9  15  25  39  59  85 114 144 177 217 260
#     4   8  14  22  36  56  81 110 142 176 213 260
#     4  10  19  32  48  68  93 122 155 190 226 266
#     4  10  19  32  47  65  89 117 148 185 226 270
#     4   8  16  28  43  62  87 116 147 183 222 264
#     4  10  20  34  52  74  99 125 153 187 226 268
#
# _framework density 16.359850000000002
#
# number of rings (size 3 to 8) (size 9 to 14) (size 15 to 20)
#    0.000    2.462    0.000    4.615    0.000    0.923 
#    0.000    3.846    0.000    0.462    0.000    0.538 
#    0.000    0.000    0.000    0.000    0.000    0.000 
#
# Total GULP energy -644511.673315 kJ/mol
# GULP energy per Si atom -12394.455256 kJ/mol
# Density = 1.632261 g / cm^3
# Si number density = 16.359850 Si / 1000 Ang^3
#
#
#
# Elastic Constant Matrix: (Units=GPa)
#
#
# Indices 1 2 3 4 5 6 
#
# 1 74.0475 36.5128 38.5301 0.0000 0.0000 0.0000
# 2 36.5128 122.5559 66.9989 0.0000 0.0000 0.0000
# 3 38.5301 66.9989 117.8948 0.0000 0.0000 0.0000
# 4 0.0000 0.0000 0.0000 27.6226 0.0000 0.0000
# 5 0.0000 0.0000 0.0000 0.0000 26.3191 0.0000
# 6 0.0000 0.0000 0.0000 0.0000 0.0000 16.1551
#
#
#
# Elastic Compliance Matrix: (Units=1/GPa)
#
#
# Indices 1 2 3 4 5 6 
#
# 1 0.016970 -0.002936 -0.003878 0.000000 0.000000 0.000000
# 2 -0.002936 0.012345 -0.006056 0.000000 0.000000 0.000000
# 3 -0.003878 -0.006056 0.013191 0.000000 0.000000 0.000000
# 4 0.000000 0.000000 0.000000 0.036202 0.000000 0.000000
# 5 0.000000 0.000000 0.000000 0.000000 0.037995 0.000000
# 6 0.000000 0.000000 0.000000 0.000000 0.000000 0.061900
#
#
# Mechanical properties :
#
#
# Convention : Reuss Voigt Hill
#
# Bulk Modulus (GPa) = 59.64152 66.50907 63.07530
# Shear Modulus (GPa) = 23.81721 25.51645 24.66683
#
# Velocity S-wave (km/s) = 3.81968 3.95359 3.88721
# Velocity P-wave (km/s) = 7.48254 7.84750 7.66719
#
# Compressibility (1/GPa) = 0.01676684
#
# Stress axis : x y z
#
# Youngs Moduli (GPa) = 58.92633 81.00450 75.80919
#
# Poissons Ratio (x) = 0.23784 0.29396
# Poissons Ratio (y) = 0.17301 0.45910
# Poissons Ratio (z) = 0.22849 0.49056
#
# Static dielectric constant tensor:
#      x y z
#    x 2.845910 0.000000 0.000000 
#    y 0.000000 3.503850 0.000000 
#    z 0.000000 0.000000 2.983670 
# 
# 
# High freq. dielectric constant tensor:
#      x y z
#    x 1.631180 0.000000 0.000000 
#    y 0.000000 1.629240 0.000000 
#    z 0.000000 0.000000 1.607650 
# 
# From -- ./inp_files/14735.got.cif
#   From: 2010.03.12/outbox.cif.g09.slc.cpg/sg51_8_cif.got.tgz:14735.got - 2010.04.16 13:43:02.
