data_PCOD8208611
_publ_section_title
;
Structure prediction by ZEFSAII (Michael W. Deem and Ramdas Pophale) SiO2 
 PCOD8208611
Probable space group: P M M A
;
_chemical_formula_sum "Si O2"
_cell_formula_units_Z 64
_cell_length_a 27.846160
_cell_length_b 9.284543
_cell_length_c 14.179491
_cell_angle_alpha 90.000000
_cell_angle_beta 90.000000
_cell_angle_gamma 90.000000
_cell_volume 3665.949579
_symmetry_space_group_name_H-M "P M M A"
_symmetry_group_IT_number 51
_symmetry_cell_setting 'orthorhombic'
loop_
_space_group_symop_operation_xyz
x,y,z
1/2-x,-y,z
1/2+x,-y,-z
-x,y,-z
-x,-y,-z
1/2+x,y,-z
1/2-x,y,z
x,-y,z
loop_
_atom_site_type_symbol
_atom_site_label
_atom_site_fract_x
_atom_site_fract_y
_atom_site_fract_z
Si Si1 0.803182 0.670779 0.469791
Si Si2 0.536176 0.836208 0.274855
Si Si3 0.104695 0.334606 0.851865
Si Si4 0.696181 0.671283 0.258514
Si Si5 0.570963 0.832289 0.772396
Si Si6 0.117340 0.670121 0.387599
Si Si7 0.052280 0.665759 0.039036
Si Si8 0.944927 0.157132 0.482030
O O1 0.750000 0.727625 0.492250
O O2 0.805112 0.500000 0.470334
O O3 0.818412 0.723585 0.364521
O O4 0.836633 0.728742 0.554059
O O5 0.559050 0.736876 0.196359
O O6 0.479240 0.806681 0.281558
O O7 0.562351 0.800894 0.372978
O O8 0.544972 0.000000 0.244076
O O9 0.103280 0.500000 0.822096
O O10 0.156191 0.269901 0.816298
O O11 0.095293 0.314819 0.962990
O O12 0.750000 0.729533 0.232799
O O13 0.698062 0.500000 0.255495
O O14 0.612539 0.751404 0.712483
O O15 0.584214 0.000000 0.779889
O O16 0.568037 0.767232 0.876197
O O17 0.118202 0.500000 0.369367
O O18 0.073153 0.712481 0.454288
O O19 0.049147 0.500000 0.072759
O O20 0.000000 0.713903 0.000000
O O21 0.000000 0.134969 0.500000
O O22 0.920310 0.000000 0.504255
#
# Coordination Sequence:
#
# PCOD8208611 Si02
#       8
#     8   8   8   8   8   8   8   8
#     4   8  15  29  49  75 106 133 160 202 256 309
#     4  10  20  32  47  67  96 134 172 203 238 294
#     4  10  19  31  51  75 101 128 160 208 260 303
#     4   8  14  27  49  77 105 130 158 196 247 308
#     4  11  22  36  51  68  97 139 177 207 248 304
#     4  11  21  32  51  77 101 130 171 214 256 300
#     4  10  20  34  50  73 102 131 166 216 264 296
#     4  10  19  33  46  63  99 140 169 197 239 293
#
# _framework density 17.45796
#
# number of rings (size 3 to 8) (size 9 to 14) (size 15 to 20)
#    0.000    2.250    2.500    2.250    0.000    3.000 
#    0.000    0.000    0.000    2.625    0.000    8.750 
#    0.000    0.000    0.000    0.000    0.000    0.000 
#
# Total GULP energy -793132.526262 kJ/mol
# GULP energy per Si atom -12392.695723 kJ/mol
# Density = 1.741822 g / cm^3
# Si number density = 17.457960 Si / 1000 Ang^3
#
#
#
# Elastic Constant Matrix: (Units=GPa)
#
#
# Indices 1 2 3 4 5 6 
#
# 1 87.4254 27.7909 51.3015 0.0000 0.0000 0.0000
# 2 27.7909 56.4149 45.8707 0.0000 0.0000 0.0000
# 3 51.3015 45.8707 106.3744 0.0000 0.0000 0.0000
# 4 0.0000 0.0000 0.0000 93.3669 0.0000 0.0000
# 5 0.0000 0.0000 0.0000 0.0000 30.9453 0.0000
# 6 0.0000 0.0000 0.0000 0.0000 0.0000 7.8440
#
#
#
# Elastic Compliance Matrix: (Units=1/GPa)
#
#
# Indices 1 2 3 4 5 6 
#
# 1 0.016179 -0.002504 -0.006723 0.000000 0.000000 0.000000
# 2 -0.002504 0.027684 -0.010731 0.000000 0.000000 0.000000
# 3 -0.006723 -0.010731 0.017270 0.000000 0.000000 0.000000
# 4 0.000000 0.000000 0.000000 0.010710 0.000000 0.000000
# 5 0.000000 0.000000 0.000000 0.000000 0.032315 0.000000
# 6 0.000000 0.000000 0.000000 0.000000 0.000000 0.127486
#
#
# Mechanical properties :
#
#
# Convention : Reuss Voigt Hill
#
# Bulk Modulus (GPa) = 47.12721 55.57120 51.34920
# Shear Modulus (GPa) = 17.94471 34.78134 26.36303
#
# Velocity S-wave (km/s) = 3.20954 4.46835 3.89020
# Velocity P-wave (km/s) = 6.38656 7.64997 7.04664
#
# Compressibility (1/GPa) = 0.02121916
#
# Stress axis : x y z
#
# Youngs Moduli (GPa) = 61.80687 36.12190 57.90236
#
# Poissons Ratio (x) = 0.09043 0.38930
# Poissons Ratio (y) = 0.15474 0.62132
# Poissons Ratio (z) = 0.41555 0.38761
#
# Static dielectric constant tensor:
#      x y z
#    x 3.437230 0.000000 0.000000 
#    y 0.000000 3.067810 0.000000 
#    z 0.000000 0.000000 3.385870 
# 
# 
# High freq. dielectric constant tensor:
#      x y z
#    x 1.656010 0.000000 0.000000 
#    y 0.000000 1.653260 0.000000 
#    z 0.000000 0.000000 1.673100 
# 
# From -- ./inp_files/26666.got.cif
#   From: 2010.03.12/outbox.cif.g09.slc.cpg/sg51_14_cif.got.tgz:26666.got - 2010.04.16 13:43:02.
