data_PCOD8208533
_publ_section_title
;
Structure prediction by ZEFSAII (Michael W. Deem and Ramdas Pophale) SiO2 
 PCOD8208533
Probable space group: P M M A
;
_chemical_formula_sum "Si O2"
_cell_formula_units_Z 64
_cell_length_a 17.609791
_cell_length_b 9.118106
_cell_length_c 22.664257
_cell_angle_alpha 90.000000
_cell_angle_beta 90.000000
_cell_angle_gamma 90.000000
_cell_volume 3639.153080
_symmetry_space_group_name_H-M "P M M A"
_symmetry_group_IT_number 51
_symmetry_cell_setting 'orthorhombic'
loop_
_space_group_symop_operation_xyz
x,y,z
1/2-x,-y,z
1/2+x,-y,-z
-x,y,-z
-x,-y,-z
1/2+x,y,-z
1/2-x,y,z
x,-y,z
loop_
_atom_site_type_symbol
_atom_site_label
_atom_site_fract_x
_atom_site_fract_y
_atom_site_fract_z
Si Si1 0.665497 0.666013 0.829766
Si Si2 0.663095 0.828535 0.553988
Si Si3 0.950285 0.328856 0.126126
Si Si4 0.025991 0.331842 0.247388
Si Si5 0.409779 0.172152 0.070337
Si Si6 0.426559 0.664487 0.540330
Si Si7 0.520591 0.172435 0.632068
Si Si8 0.336673 0.170684 0.946619
O O1 0.750000 0.683453 0.804828
O O2 0.648600 0.500000 0.851817
O O3 0.610008 0.704123 0.776204
O O4 0.654892 0.775114 0.884442
O O5 0.750000 0.789274 0.572779
O O6 0.642500 0.743026 0.493879
O O7 0.603514 0.782461 0.605554
O O8 0.655092 0.000000 0.540336
O O9 0.951952 0.500000 0.112771
O O10 0.869057 0.261238 0.108972
O O11 0.966083 0.298111 0.195162
O O12 0.012162 0.253247 0.084239
O O13 0.019269 0.500000 0.268847
O O14 0.012333 0.223191 0.300966
O O15 0.422542 0.000000 0.077698
O O16 0.383424 0.212764 0.004902
O O17 0.500000 0.660126 0.500000
O O18 0.400894 0.500000 0.557643
O O19 0.449834 0.754288 0.598316
O O20 0.509444 0.000000 0.628239
O O21 0.250000 0.217207 0.956302
O O22 0.344044 0.000000 0.932042
#
# Coordination Sequence:
#
# PCOD8208533 Si02
#       8
#     8   8   8   8   8   8   8   8
#     4   9  18  32  48  68  98 134 168 204 247 293
#     4   9  18  32  49  73 107 137 159 193 240 285
#     4  10  21  36  53  73  98 130 168 208 250 296
#     4   9  19  34  49  68  96 129 166 208 248 286
#     4  10  19  32  51  74 100 130 163 200 246 301
#     4   9  17  30  49  72  98 129 164 199 234 275
#     4  10  19  31  50  74  98 130 170 205 240 285
#     4  10  21  35  51  74 102 128 157 200 255 309
#
# _framework density 17.586509
#
# number of rings (size 3 to 8) (size 9 to 14) (size 15 to 20)
#    0.000    2.500    0.000    3.000    0.000    8.750 
#    0.000    0.000    0.000    0.750    0.000    3.500 
#    0.000    0.000    0.000    0.000    0.000    0.000 
#
# Total GULP energy -793547.865058 kJ/mol
# GULP energy per Si atom -12399.185392 kJ/mol
# Density = 1.754648 g / cm^3
# Si number density = 17.586509 Si / 1000 Ang^3
#
#
#
# Elastic Constant Matrix: (Units=GPa)
#
#
# Indices 1 2 3 4 5 6 
#
# 1 55.9616 39.3250 43.1357 0.0000 0.0000 0.0000
# 2 39.3250 82.1780 55.6212 0.0000 0.0000 0.0000
# 3 43.1357 55.6212 103.5482 0.0000 0.0000 0.0000
# 4 0.0000 0.0000 0.0000 33.5802 0.0000 0.0000
# 5 0.0000 0.0000 0.0000 0.0000 13.9996 0.0000
# 6 0.0000 0.0000 0.0000 0.0000 0.0000 26.6859
#
#
#
# Elastic Compliance Matrix: (Units=1/GPa)
#
#
# Indices 1 2 3 4 5 6 
#
# 1 0.030301 -0.009359 -0.007595 0.000000 0.000000 0.000000
# 2 -0.009359 0.022011 -0.007924 0.000000 0.000000 0.000000
# 3 -0.007595 -0.007924 0.017078 0.000000 0.000000 0.000000
# 4 0.000000 0.000000 0.000000 0.029779 0.000000 0.000000
# 5 0.000000 0.000000 0.000000 0.000000 0.071430 0.000000
# 6 0.000000 0.000000 0.000000 0.000000 0.000000 0.037473
#
#
# Mechanical properties :
#
#
# Convention : Reuss Voigt Hill
#
# Bulk Modulus (GPa) = 50.93744 57.53906 54.23825
# Shear Modulus (GPa) = 18.91260 21.76022 20.33641
#
# Velocity S-wave (km/s) = 3.28289 3.52138 3.40422
# Velocity P-wave (km/s) = 6.58761 7.02298 6.80878
#
# Compressibility (1/GPa) = 0.01963192
#
# Stress axis : x y z
#
# Youngs Moduli (GPa) = 33.00256 45.43194 58.55500
#
# Poissons Ratio (x) = 0.42520 0.44474
# Poissons Ratio (y) = 0.30888 0.46402
# Poissons Ratio (z) = 0.25066 0.36002
#
# Static dielectric constant tensor:
#      x y z
#    x 3.300910 0.000000 0.000000 
#    y 0.000000 3.368970 0.000000 
#    z 0.000000 0.000000 3.126870 
# 
# 
# High freq. dielectric constant tensor:
#      x y z
#    x 1.667360 0.000000 0.000000 
#    y 0.000000 1.687420 0.000000 
#    z 0.000000 0.000000 1.663720 
# 
# From -- ./inp_files/33922.got.cif
#   From: 2010.03.12/outbox.cif.g09.slc.cpg/sg51_17_cif.got.tgz:33922.got - 2010.04.16 13:43:02.
