data_PCOD8208250
_publ_section_title
;
Structure prediction by ZEFSAII (Michael W. Deem and Ramdas Pophale) SiO2 
 PCOD8208250
Probable space group: P M M A
;
_chemical_formula_sum "Si O2"
_cell_formula_units_Z 48
_cell_length_a 9.442568
_cell_length_b 15.986023
_cell_length_c 18.536719
_cell_angle_alpha 90.000000
_cell_angle_beta 90.000000
_cell_angle_gamma 90.000000
_cell_volume 2798.101221
_symmetry_space_group_name_H-M "P M M A"
_symmetry_group_IT_number 51
_symmetry_cell_setting 'orthorhombic'
loop_
_space_group_symop_operation_xyz
x,y,z
1/2-x,-y,z
1/2+x,-y,-z
-x,y,-z
-x,-y,-z
1/2+x,y,-z
1/2-x,y,z
x,-y,z
loop_
_atom_site_type_symbol
_atom_site_label
_atom_site_fract_x
_atom_site_fract_y
_atom_site_fract_z
Si Si1 0.586974 0.825611 0.572322
Si Si2 0.411486 0.906817 0.687951
Si Si3 0.085417 0.182350 0.926706
Si Si4 0.910423 0.000000 0.070125
Si Si5 0.585483 0.252520 0.220350
Si Si6 0.410862 0.339726 0.334659
Si Si7 0.418133 0.500000 0.424651
O O1 0.500000 0.816682 0.500000
O O2 0.750000 0.848591 0.556568
O O3 0.516129 0.898262 0.619972
O O4 0.572479 0.738102 0.612721
O O5 0.250000 0.893622 0.661385
O O6 0.451369 0.838682 0.747722
O O7 0.430673 0.000000 0.721029
O O8 0.250000 0.192668 0.946117
O O9 0.057364 0.089151 0.891318
O O10 0.041979 0.248531 0.864329
O O11 0.000000 0.199870 0.000000
O O12 0.750000 0.000000 0.044510
O O13 0.000000 0.000000 0.000000
O O14 0.750000 0.273461 0.229250
O O15 0.500311 0.325294 0.261529
O O16 0.250000 0.353252 0.309907
O O17 0.466352 0.420041 0.378089
O O18 0.250000 0.500000 0.440283
O O19 0.500000 0.500000 0.500000
#
# Coordination Sequence:
#
# PCOD8208250 Si02
#       7
#     8   8   8   4   8   8   4
#     4  10  19  31  47  65  88 117 149 188 231 273
#     4   9  18  31  46  63  84 116 158 197 233 272
#     4   9  17  28  44  67  94 125 161 200 240 282
#     4   8  14  24  38  58  88 120 153 194 237 276
#     4   9  18  31  48  69  94 125 160 197 235 278
#     4   9  19  34  50  71  98 125 152 185 230 284
#     4  10  20  34  54  80 105 128 155 188 231 286
#
# _framework density 17.154489999999999
#
# number of rings (size 3 to 8) (size 9 to 14) (size 15 to 20)
#    0.000    2.833    0.000    1.000    1.167    2.667 
#    0.000    0.000    0.000    0.000    0.000    0.583 
#    0.000    0.000    0.000    0.000    0.000    0.000 
#
# Total GULP energy -594800.242959 kJ/mol
# GULP energy per Si atom -12391.671728 kJ/mol
# Density = 1.711545 g / cm^3
# Si number density = 17.154490 Si / 1000 Ang^3
#
#
#
# Elastic Constant Matrix: (Units=GPa)
#
#
# Indices 1 2 3 4 5 6 
#
# 1 73.4482 28.6324 57.8883 0.0000 0.0000 0.0000
# 2 28.6324 76.0320 39.9969 0.0000 0.0000 0.0000
# 3 57.8883 39.9969 115.3223 0.0000 0.0000 0.0000
# 4 0.0000 0.0000 0.0000 21.6398 0.0000 0.0000
# 5 0.0000 0.0000 0.0000 0.0000 29.2621 0.0000
# 6 0.0000 0.0000 0.0000 0.0000 0.0000 20.9764
#
#
#
# Elastic Compliance Matrix: (Units=1/GPa)
#
#
# Indices 1 2 3 4 5 6 
#
# 1 0.023141 -0.003185 -0.010512 0.000000 0.000000 0.000000
# 2 -0.003185 0.016526 -0.004133 0.000000 0.000000 0.000000
# 3 -0.010512 -0.004133 0.015381 0.000000 0.000000 0.000000
# 4 0.000000 0.000000 0.000000 0.046211 0.000000 0.000000
# 5 0.000000 0.000000 0.000000 0.000000 0.034174 0.000000
# 6 0.000000 0.000000 0.000000 0.000000 0.000000 0.047673
#
#
# Mechanical properties :
#
#
# Convention : Reuss Voigt Hill
#
# Bulk Modulus (GPa) = 51.57411 57.53751 54.55581
# Shear Modulus (GPa) = 22.19970 23.59466 22.89718
#
# Velocity S-wave (km/s) = 3.60127 3.71269 3.65740
# Velocity P-wave (km/s) = 6.88636 7.21057 7.05033
#
# Compressibility (1/GPa) = 0.01938958
#
# Stress axis : x y z
#
# Youngs Moduli (GPa) = 43.21265 60.51118 65.01421
#
# Poissons Ratio (x) = 0.19273 0.68341
# Poissons Ratio (y) = 0.13763 0.26869
# Poissons Ratio (z) = 0.45424 0.25008
#
# Static dielectric constant tensor:
#      x y z
#    x 3.270000 0.000000 0.000000 
#    y 0.000000 2.935900 0.000000 
#    z 0.000000 0.000000 3.072990 
# 
# 
# High freq. dielectric constant tensor:
#      x y z
#    x 1.661990 0.000000 0.000000 
#    y 0.000000 1.637990 0.000000 
#    z 0.000000 0.000000 1.652290 
# 
# From -- ./inp_files/27637.got.cif
#   From: 2010.03.12/outbox.cif.g09.slc.cpg/sg51_14_cif.got.tgz:27637.got - 2010.04.16 13:43:02.
