data_PCOD8208231
_publ_section_title
;
Structure prediction by ZEFSAII (Michael W. Deem and Ramdas Pophale) SiO2 
 PCOD8208231
Probable space group: P M M A
;
_chemical_formula_sum "Si O2"
_cell_formula_units_Z 36
_cell_length_a 9.320024
_cell_length_b 12.613827
_cell_length_c 20.290757
_cell_angle_alpha 90.000000
_cell_angle_beta 90.000000
_cell_angle_gamma 90.000000
_cell_volume 2385.405141
_symmetry_space_group_name_H-M "P M M A"
_symmetry_group_IT_number 51
_symmetry_cell_setting 'orthorhombic'
loop_
_space_group_symop_operation_xyz
x,y,z
1/2-x,-y,z
1/2+x,-y,-z
-x,y,-z
-x,-y,-z
1/2+x,y,-z
1/2-x,y,z
x,-y,z
loop_
_atom_site_type_symbol
_atom_site_label
_atom_site_fract_x
_atom_site_fract_y
_atom_site_fract_z
Si Si1 0.918424 0.770015 0.569287
Si Si2 0.087702 0.000000 0.434829
Si Si3 0.588806 0.626495 0.937562
Si Si4 0.584170 0.375949 0.331934
Si Si5 0.590956 0.625822 0.184160
O O1 0.750000 0.747348 0.558009
O O2 0.000000 0.759473 0.500000
O O3 0.980204 0.684951 0.619268
O O4 0.943668 0.888024 0.602064
O O5 0.000000 0.000000 0.500000
O O6 0.250000 0.000000 0.458868
O O7 0.750000 0.670871 0.942168
O O8 0.588913 0.500000 0.937260
O O9 0.518219 0.671374 0.870340
O O10 0.500000 0.669465 0.000000
O O11 0.750000 0.347492 0.345950
O O12 0.557742 0.500000 0.342595
O O13 0.541867 0.341477 0.257561
O O14 0.750000 0.670968 0.169362
O O15 0.596969 0.500000 0.179630
#
# Coordination Sequence:
#
# PCOD8208231 Si02
#       5
#     8   4   8   8   8
#     4  10  19  31  47  64  82 104 133 169 207 247
#     4   8  16  30  46  64  82 100 125 162 207 248
#     4   9  15  21  31  48  69  94 127 165 199 231
#     4   9  18  31  44  59  82 111 140 169 203 243
#     4   8  14  25  38  50  69  99 131 162 196 233
#
# _framework density 15.091775999999999
#
# number of rings (size 3 to 8) (size 9 to 14) (size 15 to 20)
#    0.000    3.111    0.000    2.667    0.000    5.333 
#    0.000    2.222    0.000    0.000    0.000    0.000 
#    0.000    0.000    0.000    1.000    0.000   13.333 
#
# Total GULP energy -446014.436226 kJ/mol
# GULP energy per Si atom -12389.289895 kJ/mol
# Density = 1.505743 g / cm^3
# Si number density = 15.091776 Si / 1000 Ang^3
#
#
#
# Elastic Constant Matrix: (Units=GPa)
#
#
# Indices 1 2 3 4 5 6 
#
# 1 112.8958 36.4912 70.9823 0.0000 0.0000 0.0000
# 2 36.4912 42.3261 35.9469 0.0000 0.0000 0.0000
# 3 70.9823 35.9469 109.9361 0.0000 0.0000 0.0000
# 4 0.0000 0.0000 0.0000 -1.0574 0.0000 0.0000
# 5 0.0000 0.0000 0.0000 0.0000 32.0124 0.0000
# 6 0.0000 0.0000 0.0000 0.0000 0.0000 13.1271
#
#
#
# Elastic Compliance Matrix: (Units=1/GPa)
#
#
# Indices 1 2 3 4 5 6 
#
# 1 0.016315 -0.007087 -0.008216 0.000000 0.000000 0.000000
# 2 -0.007087 0.035789 -0.007126 0.000000 0.000000 0.000000
# 3 -0.008216 -0.007126 0.016731 0.000000 0.000000 0.000000
# 4 0.000000 0.000000 0.000000 -0.945710 0.000000 0.000000
# 5 0.000000 0.000000 0.000000 0.000000 0.031238 0.000000
# 6 0.000000 0.000000 0.000000 0.000000 0.000000 0.076178
#
#
# Mechanical properties :
#
#
# Convention : Reuss Voigt Hill
#
# Bulk Modulus (GPa) = 41.71049 61.33316 51.52182
# Shear Modulus (GPa) = -6.97731 16.93225 4.97747
#
# Velocity S-wave (km/s) = -2.15251 3.35319 1.81805
# Velocity P-wave (km/s) = 4.63898 7.46460 6.21451
#
# Compressibility (1/GPa) = 0.02397479
#
# Stress axis : x y z
#
# Youngs Moduli (GPa) = 61.29493 27.94193 59.76834
#
# Poissons Ratio (x) = 0.19804 0.49108
# Poissons Ratio (y) = 0.43443 0.42591
# Poissons Ratio (z) = 0.50362 0.19911
#
# Static dielectric constant tensor:
#      x y z
#    x 3.125130 0.000000 0.000000 
#    y 0.000000 2.747630 0.000000 
#    z 0.000000 0.000000 2.925780 
# 
# 
# High freq. dielectric constant tensor:
#      x y z
#    x 1.592230 0.000000 0.000000 
#    y 0.000000 1.520510 0.000000 
#    z 0.000000 0.000000 1.572130 
# 
# From -- ./inp_files/27223.got.cif
#   From: 2010.03.12/outbox.cif.g09.slc.cpg/sg51_14_cif.got.tgz:27223.got - 2010.04.16 13:43:02.
