data_PCOD8208805
_publ_section_title
;
Structure prediction by ZEFSAII (Michael W. Deem and Ramdas Pophale) SiO2 
 PCOD8208805
Probable space group: P M M A
;
_chemical_formula_sum "Si O2"
_cell_formula_units_Z 64
_cell_length_a 24.057999
_cell_length_b 8.902700
_cell_length_c 16.442322
_cell_angle_alpha 90.000000
_cell_angle_beta 90.000000
_cell_angle_gamma 90.000000
_cell_volume 3521.635397
_symmetry_space_group_name_H-M "P M M A"
_symmetry_group_IT_number 51
_symmetry_cell_setting 'orthorhombic'
loop_
_space_group_symop_operation_xyz
x,y,z
1/2-x,-y,z
1/2+x,-y,-z
-x,y,-z
-x,-y,-z
1/2+x,y,-z
1/2-x,y,z
x,-y,z
loop_
_atom_site_type_symbol
_atom_site_label
_atom_site_fract_x
_atom_site_fract_y
_atom_site_fract_z
Si Si1 0.437905 0.826620 0.468441
Si Si2 0.523206 0.179128 0.237027
Si Si3 0.687304 0.674633 0.805280
Si Si4 0.187905 0.668054 0.741915
Si Si5 0.878664 0.175998 0.126298
Si Si6 0.081432 0.676882 0.295432
Si Si7 0.408082 0.671582 0.623291
Si Si8 0.313002 0.178194 0.026420
O O1 0.500000 0.804138 0.500000
O O2 0.428295 0.751363 0.382040
O O3 0.400102 0.742195 0.534348
O O4 0.421061 0.000000 0.462121
O O5 0.561556 0.235545 0.160538
O O6 0.462479 0.254278 0.230228
O O7 0.549351 0.231965 0.322407
O O8 0.517811 0.000000 0.238722
O O9 0.750000 0.720555 0.777742
O O10 0.684491 0.500000 0.826408
O O11 0.643810 0.715939 0.734362
O O12 0.669015 0.761634 0.886115
O O13 0.250000 0.708427 0.716681
O O14 0.182460 0.500000 0.778742
O O15 0.168502 0.786035 0.808793
O O16 0.153071 0.681111 0.659984
O O17 0.883352 0.000000 0.118430
O O18 0.857910 0.241917 0.039512
O O19 0.071825 0.500000 0.301787
O O20 0.429927 0.500000 0.618603
O O21 0.250000 0.232022 0.004744
O O22 0.315098 0.000000 0.028188
#
# Coordination Sequence:
#
# PCOD8208805 Si02
#       8
#     8   8   8   8   8   8   8   8
#     4  11  22  35  54  79 105 132 167 211 255 304
#     4  10  19  32  50  75 108 141 170 209 257 304
#     4   9  20  39  59  79 103 132 170 216 264 310
#     4   9  18  31  47  71 104 140 175 210 252 301
#     4   9  18  31  49  75 107 140 176 214 255 302
#     4  11  22  36  57  80 102 133 171 212 260 313
#     4  10  19  32  51  74 102 136 173 212 251 298
#     4   9  17  31  53  79 104 134 176 220 258 301
#
# _framework density 18.173375
#
# number of rings (size 3 to 8) (size 9 to 14) (size 15 to 20)
#    0.000    2.250    1.250    1.875    0.000    3.750 
#    0.000    2.500    0.000    7.500    0.000    0.000 
#    0.000    0.000    0.000    0.000    0.000    0.000 
#
# Total GULP energy -793356.846397 kJ/mol
# GULP energy per Si atom -12396.200725 kJ/mol
# Density = 1.813201 g / cm^3
# Si number density = 18.173375 Si / 1000 Ang^3
#
#
#
# Elastic Constant Matrix: (Units=GPa)
#
#
# Indices 1 2 3 4 5 6 
#
# 1 106.8984 33.0388 51.5735 0.0000 0.0000 0.0000
# 2 33.0388 55.2543 36.4290 0.0000 0.0000 0.0000
# 3 51.5735 36.4290 100.2960 0.0000 0.0000 0.0000
# 4 0.0000 0.0000 0.0000 28.3251 0.0000 0.0000
# 5 0.0000 0.0000 0.0000 0.0000 25.6874 0.0000
# 6 0.0000 0.0000 0.0000 0.0000 0.0000 23.4996
#
#
#
# Elastic Compliance Matrix: (Units=1/GPa)
#
#
# Indices 1 2 3 4 5 6 
#
# 1 0.013244 -0.004509 -0.005172 0.000000 0.000000 0.000000
# 2 -0.004509 0.025332 -0.006882 0.000000 0.000000 0.000000
# 3 -0.005172 -0.006882 0.015130 0.000000 0.000000 0.000000
# 4 0.000000 0.000000 0.000000 0.035304 0.000000 0.000000
# 5 0.000000 0.000000 0.000000 0.000000 0.038930 0.000000
# 6 0.000000 0.000000 0.000000 0.000000 0.000000 0.042554
#
#
# Mechanical properties :
#
#
# Convention : Reuss Voigt Hill
#
# Bulk Modulus (GPa) = 48.59511 56.05902 52.32706
# Shear Modulus (GPa) = 23.75527 24.92957 24.34242
#
# Velocity S-wave (km/s) = 3.61937 3.70775 3.66383
# Velocity P-wave (km/s) = 6.65314 7.01738 6.83768
#
# Compressibility (1/GPa) = 0.02057820
#
# Stress axis : x y z
#
# Youngs Moduli (GPa) = 75.50796 39.47640 66.09395
#
# Poissons Ratio (x) = 0.17799 0.34187
# Poissons Ratio (y) = 0.34045 0.45488
# Poissons Ratio (z) = 0.39056 0.27169
#
# Static dielectric constant tensor:
#      x y z
#    x 3.571890 0.000000 0.000000 
#    y 0.000000 3.401380 0.000000 
#    z 0.000000 0.000000 3.346250 
# 
# 
# High freq. dielectric constant tensor:
#      x y z
#    x 1.698490 0.000000 0.000000 
#    y 0.000000 1.706860 0.000000 
#    z 0.000000 0.000000 1.692130 
# 
# From -- ./inp_files/30502.got.cif
#   From: 2010.03.12/outbox.cif.g09.slc.cpg/sg51_16_cif.got.tgz:30502.got - 2010.04.16 13:43:02.
