data_PCOD8208991
_publ_section_title
;
Structure prediction by ZEFSAII (Michael W. Deem and Ramdas Pophale) SiO2 
 PCOD8208991
Probable space group: P M M A
;
_chemical_formula_sum "Si O2"
_cell_formula_units_Z 64
_cell_length_a 9.222483
_cell_length_b 22.507388
_cell_length_c 16.135623
_cell_angle_alpha 90.000000
_cell_angle_beta 90.000000
_cell_angle_gamma 90.000000
_cell_volume 3349.335860
_symmetry_space_group_name_H-M "P M M A"
_symmetry_group_IT_number 51
_symmetry_cell_setting 'orthorhombic'
loop_
_space_group_symop_operation_xyz
x,y,z
1/2-x,-y,z
1/2+x,-y,-z
-x,y,-z
-x,-y,-z
1/2+x,y,-z
1/2-x,y,z
x,-y,z
loop_
_atom_site_type_symbol
_atom_site_label
_atom_site_fract_x
_atom_site_fract_y
_atom_site_fract_z
Si Si1 0.588214 0.676017 0.723934
Si Si2 0.083740 0.267867 0.870568
Si Si3 0.080225 0.567032 0.744854
Si Si4 0.406982 0.760291 0.429266
Si Si5 0.579417 0.066711 0.763278
Si Si6 0.411386 0.603091 0.924800
Si Si7 0.424897 0.149114 0.083693
Si Si8 0.578049 0.893258 0.583569
O O1 0.750000 0.665781 0.762024
O O2 0.480691 0.710753 0.783831
O O3 0.516931 0.613617 0.693386
O O4 0.602922 0.717240 0.646328
O O5 0.250000 0.245563 0.859108
O O6 0.080597 0.325241 0.929825
O O7 0.982853 0.216159 0.906816
O O8 0.250000 0.582455 0.735448
O O9 0.047483 0.500000 0.715629
O O10 0.027191 0.577011 0.839171
O O11 0.500000 0.728782 0.500000
O O12 0.250000 0.771266 0.468250
O O13 0.468935 0.824740 0.404833
O O14 0.750000 0.075602 0.758293
O O15 0.523053 0.111131 0.835756
O O16 0.518879 0.078035 0.669881
O O17 0.536272 0.000000 0.790013
O O18 0.250000 0.579526 0.935468
O O19 0.500000 0.575107 0.000000
O O20 0.250000 0.149433 0.074045
O O21 0.500000 0.122630 0.000000
O O22 0.500000 0.919176 0.500000
O O23 0.750000 0.904095 0.574170
#
# Coordination Sequence:
#
# PCOD8208991 Si02
#       8
#     8   8   8   8   8   8   8   8
#     4  10  19  32  52  78 105 132 168 215 261 306
#     4  10  20  34  52  75 103 135 170 208 259 319
#     4   9  19  35  50  66  94 133 174 212 253 304
#     4   9  18  31  49  76 107 135 162 199 250 309
#     4   9  19  36  56  76 103 143 184 218 260 319
#     4   9  18  30  45  67  94 124 157 196 242 294
#     4  11  22  36  55  78 104 137 180 228 275 321
#     4   9  17  32  54  80 109 139 171 208 257 317
#
# _framework density 19.108264999999999
#
# number of rings (size 3 to 8) (size 9 to 14) (size 15 to 20)
#    0.000    2.500    0.000    3.000    0.000    7.500 
#    0.000    3.750    0.000    3.000    0.000    0.000 
#    0.000    0.000    0.000    0.000    0.000    0.000 
#
# Total GULP energy -793034.065259 kJ/mol
# GULP energy per Si atom -12391.157270 kJ/mol
# Density = 1.906477 g / cm^3
# Si number density = 19.108265 Si / 1000 Ang^3
#
#
#
# Elastic Constant Matrix: (Units=GPa)
#
#
# Indices 1 2 3 4 5 6 
#
# 1 70.4309 20.9262 30.1327 0.0000 0.0000 0.0000
# 2 20.9262 65.7064 20.1099 0.0000 0.0000 0.0000
# 3 30.1327 20.1099 80.2682 0.0000 0.0000 0.0000
# 4 0.0000 0.0000 0.0000 12.8064 0.0000 0.0000
# 5 0.0000 0.0000 0.0000 0.0000 30.2173 0.0000
# 6 0.0000 0.0000 0.0000 0.0000 0.0000 19.4007
#
#
#
# Elastic Compliance Matrix: (Units=1/GPa)
#
#
# Indices 1 2 3 4 5 6 
#
# 1 0.017803 -0.003925 -0.005700 0.000000 0.000000 0.000000
# 2 -0.003925 0.017349 -0.002873 0.000000 0.000000 0.000000
# 3 -0.005700 -0.002873 0.015318 0.000000 0.000000 0.000000
# 4 0.000000 0.000000 0.000000 0.078086 0.000000 0.000000
# 5 0.000000 0.000000 0.000000 0.000000 0.033094 0.000000
# 6 0.000000 0.000000 0.000000 0.000000 0.000000 0.051544
#
#
# Mechanical properties :
#
#
# Convention : Reuss Voigt Hill
#
# Bulk Modulus (GPa) = 39.25684 39.86035 39.55860
# Shear Modulus (GPa) = 20.26907 22.16732 21.21820
#
# Velocity S-wave (km/s) = 3.26045 3.40971 3.33591
# Velocity P-wave (km/s) = 5.89602 6.03382 5.96532
#
# Compressibility (1/GPa) = 0.02547327
#
# Stress axis : x y z
#
# Youngs Moduli (GPa) = 56.16950 57.64136 65.28395
#
# Poissons Ratio (x) = 0.22627 0.37211
# Poissons Ratio (y) = 0.22049 0.18755
# Poissons Ratio (z) = 0.32016 0.16559
#
# Static dielectric constant tensor:
#      x y z
#    x 3.673330 0.000000 0.000000 
#    y 0.000000 3.532290 0.000000 
#    z 0.000000 0.000000 3.467690 
# 
# 
# High freq. dielectric constant tensor:
#      x y z
#    x 1.733780 0.000000 0.000000 
#    y 0.000000 1.736830 0.000000 
#    z 0.000000 0.000000 1.728830 
# 
# From -- ./inp_files/28455.got.cif
#   From: 2010.03.12/outbox.cif.g09.slc.cpg/sg51_15_cif.got.tgz:28455.got - 2010.04.16 13:43:02.
