data_PCOD8208176
_publ_section_title
;
Structure prediction by ZEFSAII (Michael W. Deem and Ramdas Pophale) SiO2 
 PCOD8208176
Probable space group: P M M A
;
_chemical_formula_sum "Si O2"
_cell_formula_units_Z 64
_cell_length_a 8.964023
_cell_length_b 14.526765
_cell_length_c 25.879201
_cell_angle_alpha 90.000000
_cell_angle_beta 90.000000
_cell_angle_gamma 90.000000
_cell_volume 3369.944410
_symmetry_space_group_name_H-M "P M M A"
_symmetry_group_IT_number 51
_symmetry_cell_setting 'orthorhombic'
loop_
_space_group_symop_operation_xyz
x,y,z
1/2-x,-y,z
1/2+x,-y,-z
-x,y,-z
-x,-y,-z
1/2+x,y,-z
1/2-x,y,z
x,-y,z
loop_
_atom_site_type_symbol
_atom_site_label
_atom_site_fract_x
_atom_site_fract_y
_atom_site_fract_z
Si Si1 0.426964 0.100620 0.690250
Si Si2 0.923634 0.605657 0.743812
Si Si3 0.426264 0.724720 0.948457
Si Si4 0.085694 0.891816 0.803566
Si Si5 0.074503 0.394142 0.552198
Si Si6 0.926311 0.710819 0.348207
Si Si7 0.924151 0.893352 0.904791
Si Si8 0.422215 0.392260 0.138693
O O1 0.250000 0.091996 0.693523
O O2 0.482428 0.132148 0.747249
O O3 0.474092 0.180948 0.650360
O O4 0.493312 0.000000 0.673942
O O5 0.750000 0.619909 0.732841
O O6 0.969009 0.500000 0.735354
O O7 0.962844 0.635533 0.802409
O O8 0.015749 0.665962 0.704011
O O9 0.250000 0.723763 0.954175
O O10 0.483707 0.830123 0.944146
O O11 0.473066 0.664890 0.899196
O O12 0.500000 0.681515 0.000000
O O13 0.250000 0.846158 0.812699
O O14 0.969480 0.859957 0.847169
O O15 0.106628 0.000000 0.806544
O O16 0.250000 0.380981 0.546680
O O17 0.030325 0.500000 0.561453
O O18 0.008191 0.337026 0.600497
O O19 0.000000 0.356107 0.500000
O O20 0.750000 0.699264 0.347765
O O21 0.750000 0.875266 0.912184
O O22 0.965597 0.000000 0.914924
O O23 0.250000 0.368703 0.127074
O O24 0.452057 0.500000 0.130176
#
# Coordination Sequence:
#
# PCOD8208176 Si02
#       8
#     8   8   8   8   8   8   8   8
#     4   8  15  28  46  71 105 141 176 214 259 312
#     4   9  19  35  54  79 112 145 172 205 259 323
#     4  12  26  42  61  83 108 139 180 227 273 325
#     4   8  14  27  47  71 100 134 172 211 252 306
#     4   9  18  32  49  71 101 137 178 227 276 322
#     4  10  19  30  50  80 109 139 180 226 268 310
#     4  10  21  37  57  81 110 143 178 219 269 324
#     4   9  20  41  64  84 111 144 177 218 267 322
#
# _framework density 18.991412
#
# number of rings (size 3 to 8) (size 9 to 14) (size 15 to 20)
#    0.000    2.625    0.000    3.375    1.750    3.250 
#    0.000    2.500    0.000    0.750    0.000    0.000 
#    0.000    0.000    0.000    0.000    0.000    0.000 
#
# Total GULP energy -793346.612899 kJ/mol
# GULP energy per Si atom -12396.040827 kJ/mol
# Density = 1.894819 g / cm^3
# Si number density = 18.991412 Si / 1000 Ang^3
#
#
#
# Elastic Constant Matrix: (Units=GPa)
#
#
# Indices 1 2 3 4 5 6 
#
# 1 70.3704 33.3919 42.4034 0.0000 0.0000 0.0000
# 2 33.3919 84.5699 66.1738 0.0000 0.0000 0.0000
# 3 42.4034 66.1738 124.2441 0.0000 0.0000 0.0000
# 4 0.0000 0.0000 0.0000 29.1115 0.0000 0.0000
# 5 0.0000 0.0000 0.0000 0.0000 28.5270 0.0000
# 6 0.0000 0.0000 0.0000 0.0000 0.0000 22.7775
#
#
#
# Elastic Compliance Matrix: (Units=1/GPa)
#
#
# Indices 1 2 3 4 5 6 
#
# 1 0.018681 -0.004093 -0.004196 0.000000 0.000000 0.000000
# 2 -0.004093 0.021171 -0.009879 0.000000 0.000000 0.000000
# 3 -0.004196 -0.009879 0.014742 0.000000 0.000000 0.000000
# 4 0.000000 0.000000 0.000000 0.034351 0.000000 0.000000
# 5 0.000000 0.000000 0.000000 0.000000 0.035055 0.000000
# 6 0.000000 0.000000 0.000000 0.000000 0.000000 0.043903
#
#
# Mechanical properties :
#
#
# Convention : Reuss Voigt Hill
#
# Bulk Modulus (GPa) = 54.76838 62.56918 58.66878
# Shear Modulus (GPa) = 23.77297 25.23087 24.50192
#
# Velocity S-wave (km/s) = 3.54188 3.64887 3.59577
# Velocity P-wave (km/s) = 6.75483 7.12530 6.94253
#
# Compressibility (1/GPa) = 0.01825871
#
# Stress axis : x y z
#
# Youngs Moduli (GPa) = 53.53059 47.23549 67.83290
#
# Poissons Ratio (x) = 0.19334 0.28460
# Poissons Ratio (y) = 0.21911 0.67010
# Poissons Ratio (z) = 0.22459 0.46663
#
# Static dielectric constant tensor:
#      x y z
#    x 3.299350 0.000000 0.000000 
#    y 0.000000 3.606370 0.000000 
#    z 0.000000 0.000000 3.635630 
# 
# 
# High freq. dielectric constant tensor:
#      x y z
#    x 1.718060 0.000000 0.000000 
#    y 0.000000 1.736930 0.000000 
#    z 0.000000 0.000000 1.727720 
# 
# From -- ./inp_files/34834.got.cif
#   From: 2010.03.12/outbox.cif.g09.slc.cpg/sg51_18_cif.got.tgz:34834.got - 2010.04.16 13:43:02.
