data_PCOD8208646
_publ_section_title
;
Structure prediction by ZEFSAII (Michael W. Deem and Ramdas Pophale) SiO2 
 PCOD8208646
Probable space group: P M M A
;
_chemical_formula_sum "Si O2"
_cell_formula_units_Z 56
_cell_length_a 8.935994
_cell_length_b 14.613658
_cell_length_c 23.389407
_cell_angle_alpha 90.000000
_cell_angle_beta 90.000000
_cell_angle_gamma 90.000000
_cell_volume 3054.365595
_symmetry_space_group_name_H-M "P M M A"
_symmetry_group_IT_number 51
_symmetry_cell_setting 'orthorhombic'
loop_
_space_group_symop_operation_xyz
x,y,z
1/2-x,-y,z
1/2+x,-y,-z
-x,y,-z
-x,-y,-z
1/2+x,y,-z
1/2-x,y,z
x,-y,z
loop_
_atom_site_type_symbol
_atom_site_label
_atom_site_fract_x
_atom_site_fract_y
_atom_site_fract_z
Si Si1 0.425910 0.000000 0.437514
Si Si2 0.572308 0.396216 0.939647
Si Si3 0.574454 0.500000 0.440101
Si Si4 0.924040 0.105401 0.225551
Si Si5 0.915093 0.399526 0.743747
Si Si6 0.079965 0.257260 0.156248
Si Si7 0.425959 0.849918 0.346874
Si Si8 0.423593 0.337007 0.638749
O O1 0.500000 0.000000 0.500000
O O2 0.477246 0.085973 0.399211
O O3 0.250000 0.000000 0.448234
O O4 0.750000 0.390803 0.944304
O O5 0.525706 0.500000 0.920414
O O6 0.513748 0.316782 0.896539
O O7 0.500000 0.372228 0.000000
O O8 0.750000 0.500000 0.445983
O O9 0.500000 0.500000 0.500000
O O10 0.522209 0.408384 0.408576
O O11 0.750000 0.127527 0.232391
O O12 0.987142 0.166516 0.172989
O O13 0.998639 0.125740 0.286643
O O14 0.952826 0.000000 0.208894
O O15 0.750000 0.391091 0.714663
O O16 0.933242 0.500000 0.771698
O O17 0.929690 0.323655 0.790733
O O18 0.048140 0.384859 0.699312
O O19 0.250000 0.226924 0.143455
O O20 0.250000 0.857208 0.336273
O O21 0.472092 0.750431 0.367914
O O22 0.250000 0.310095 0.633429
#
# Coordination Sequence:
#
# PCOD8208646 Si02
#       8
#     4   8   4   8   8   8   8   8
#     4  10  24  42  62  84 110 140 179 228 283 344
#     4   9  18  34  56  84 121 161 199 237 277 329
#     4  10  24  42  58  76 106 144 187 230 275 330
#     4  11  23  37  56  84 115 148 184 231 289 343
#     4  10  19  31  51  80 111 145 181 219 271 333
#     4  10  20  34  55  84 116 151 192 235 279 332
#     4  11  22  39  60  84 110 143 183 225 278 343
#     4  11  22  37  55  80 110 141 178 228 279 326
#
# _framework density 18.334412
#
# number of rings (size 3 to 8) (size 9 to 14) (size 15 to 20)
#    0.000    1.714    2.857    1.714    0.000    6.000 
#    0.000    2.857    0.000    3.000    0.000    0.000 
#    0.000    0.000    0.000    0.000    0.000    0.000 
#
# Total GULP energy -694166.481819 kJ/mol
# GULP energy per Si atom -12395.830032 kJ/mol
# Density = 1.829268 g / cm^3
# Si number density = 18.334412 Si / 1000 Ang^3
#
#
#
# Elastic Constant Matrix: (Units=GPa)
#
#
# Indices 1 2 3 4 5 6 
#
# 1 58.9685 49.4419 42.3272 0.0000 0.0000 0.0000
# 2 49.4419 141.9210 62.1778 0.0000 0.0000 0.0000
# 3 42.3272 62.1778 111.7969 0.0000 0.0000 0.0000
# 4 0.0000 0.0000 0.0000 33.1717 0.0000 0.0000
# 5 0.0000 0.0000 0.0000 0.0000 31.3618 0.0000
# 6 0.0000 0.0000 0.0000 0.0000 0.0000 156.8077
#
#
#
# Elastic Compliance Matrix: (Units=1/GPa)
#
#
# Indices 1 2 3 4 5 6 
#
# 1 0.027253 -0.006576 -0.006661 0.000000 0.000000 0.000000
# 2 -0.006576 0.010903 -0.003574 0.000000 0.000000 0.000000
# 3 -0.006661 -0.003574 0.013454 0.000000 0.000000 0.000000
# 4 0.000000 0.000000 0.000000 0.030146 0.000000 0.000000
# 5 0.000000 0.000000 0.000000 0.000000 0.031886 0.000000
# 6 0.000000 0.000000 0.000000 0.000000 0.000000 0.006377
#
#
# Mechanical properties :
#
#
# Convention : Reuss Voigt Hill
#
# Bulk Modulus (GPa) = 55.59138 68.95334 62.27236
# Shear Modulus (GPa) = 31.32087 54.85088 43.08588
#
# Velocity S-wave (km/s) = 4.13766 5.47557 4.85294
# Velocity P-wave (km/s) = 7.29476 8.81284 8.08949
#
# Compressibility (1/GPa) = 0.01798840
#
# Stress axis : x y z
#
# Youngs Moduli (GPa) = 36.69324 91.71775 74.32487
#
# Poissons Ratio (x) = 0.60314 0.49506
# Poissons Ratio (y) = 0.24130 0.26565
# Poissons Ratio (z) = 0.24441 0.32781
#
# Static dielectric constant tensor:
#      x y z
#    x 3.292900 0.000000 0.000000 
#    y 0.000000 3.679380 0.000000 
#    z 0.000000 0.000000 3.372450 
# 
# 
# High freq. dielectric constant tensor:
#      x y z
#    x 1.709490 0.000000 0.000000 
#    y 0.000000 1.723600 0.000000 
#    z 0.000000 0.000000 1.694110 
# 
# From -- ./inp_files/32055.got.cif
#   From: 2010.03.12/outbox.cif.g09.slc.cpg/sg51_17_cif.got.tgz:32055.got - 2010.04.16 13:43:02.
