data_PCOD8208660
_publ_section_title
;
Structure prediction by ZEFSAII (Michael W. Deem and Ramdas Pophale) SiO2 
 PCOD8208660
Probable space group: P M M A
;
_chemical_formula_sum "Si O2"
_cell_formula_units_Z 64
_cell_length_a 9.214027
_cell_length_b 15.022618
_cell_length_c 24.554396
_cell_angle_alpha 90.000000
_cell_angle_beta 90.000000
_cell_angle_gamma 90.000000
_cell_volume 3398.790222
_symmetry_space_group_name_H-M "P M M A"
_symmetry_group_IT_number 51
_symmetry_cell_setting 'orthorhombic'
loop_
_space_group_symop_operation_xyz
x,y,z
1/2-x,-y,z
1/2+x,-y,-z
-x,y,-z
-x,-y,-z
1/2+x,y,-z
1/2-x,y,z
x,-y,z
loop_
_atom_site_type_symbol
_atom_site_label
_atom_site_fract_x
_atom_site_fract_y
_atom_site_fract_z
Si Si1 0.082900 0.594035 0.555772
Si Si2 0.921292 0.229890 0.864483
Si Si3 0.917861 0.102879 0.646357
Si Si4 0.917348 0.764285 0.739369
Si Si5 0.912851 0.401590 0.134248
Si Si6 0.081714 0.895507 0.945375
Si Si7 0.421214 0.212674 0.557809
Si Si8 0.587596 0.403515 0.263614
O O1 0.250000 0.597043 0.539891
O O2 0.049495 0.500000 0.588632
O O3 0.044945 0.688677 0.584390
O O4 0.000000 0.589943 0.500000
O O5 0.750000 0.222374 0.874693
O O6 0.964493 0.216744 0.801334
O O7 0.976307 0.326002 0.886771
O O8 0.005155 0.151959 0.894990
O O9 0.750000 0.118881 0.631096
O O10 0.957825 0.150514 0.703190
O O11 0.016867 0.138918 0.598044
O O12 0.953470 0.000000 0.655042
O O13 0.750000 0.740872 0.737534
O O14 0.993845 0.677585 0.713416
O O15 0.750000 0.380785 0.112896
O O16 0.962205 0.500000 0.113487
O O17 0.912268 0.401147 0.198913
O O18 0.250000 0.867638 0.949577
O O19 0.064380 0.000000 0.935567
O O20 0.000000 0.865214 0.000000
O O21 0.500000 0.202297 0.500000
O O22 0.250000 0.196475 0.549975
O O23 0.750000 0.391846 0.286629
O O24 0.526067 0.500000 0.282869
#
# Coordination Sequence:
#
# PCOD8208660 Si02
#       8
#     8   8   8   8   8   8   8   8
#     4   8  14  26  46  73 103 131 157 188 232 288
#     4  10  19  31  52  81 109 139 175 215 260 313
#     4  10  22  40  57  72  97 134 173 216 264 308
#     4   9  19  34  52  76 105 138 175 213 256 306
#     4   8  14  26  45  70 102 140 179 216 254 299
#     4  10  21  37  56  78 105 137 174 218 266 314
#     4  10  20  35  57  82 105 131 166 208 252 302
#     4   8  14  26  46  72 102 136 171 208 252 300
#
# _framework density 18.830228999999999
#
# number of rings (size 3 to 8) (size 9 to 14) (size 15 to 20)
#    0.000    2.875    0.000    1.875    0.000    3.750 
#    0.000    4.375    0.000    2.625    0.000    0.000 
#    0.000    0.000    0.000    0.000    0.000    0.000 
#
# Total GULP energy -793002.484722 kJ/mol
# GULP energy per Si atom -12390.663824 kJ/mol
# Density = 1.878737 g / cm^3
# Si number density = 18.830229 Si / 1000 Ang^3
#
#
#
# Elastic Constant Matrix: (Units=GPa)
#
#
# Indices 1 2 3 4 5 6 
#
# 1 93.1362 66.3490 47.2797 0.0000 0.0000 0.0000
# 2 66.3490 148.0302 57.0496 0.0000 0.0000 0.0000
# 3 47.2797 57.0496 69.6991 0.0000 0.0000 0.0000
# 4 0.0000 0.0000 0.0000 -11.0962 0.0000 0.0000
# 5 0.0000 0.0000 0.0000 0.0000 23.1334 0.0000
# 6 0.0000 0.0000 0.0000 0.0000 0.0000 34.0498
#
#
#
# Elastic Compliance Matrix: (Units=1/GPa)
#
#
# Indices 1 2 3 4 5 6 
#
# 1 0.018685 -0.005098 -0.008502 0.000000 0.000000 0.000000
# 2 -0.005098 0.011259 -0.005758 0.000000 0.000000 0.000000
# 3 -0.008502 -0.005758 0.024827 0.000000 0.000000 0.000000
# 4 0.000000 0.000000 0.000000 -0.090121 0.000000 0.000000
# 5 0.000000 0.000000 0.000000 0.000000 0.043227 0.000000
# 6 0.000000 0.000000 0.000000 0.000000 0.000000 0.029369
#
#
# Mechanical properties :
#
#
# Convention : Reuss Voigt Hill
#
# Bulk Modulus (GPa) = 62.28121 72.46911 67.37516
# Shear Modulus (GPa) = 61.49049 18.56321 40.02685
#
# Velocity S-wave (km/s) = 5.72067 3.14318 4.61550
# Velocity P-wave (km/s) = 8.76252 7.19318 8.01634
#
# Compressibility (1/GPa) = 0.01605621
#
# Stress axis : x y z
#
# Youngs Moduli (GPa) = 53.52001 88.81450 40.27879
#
# Poissons Ratio (x) = 0.45280 0.34243
# Poissons Ratio (y) = 0.27286 0.23191
# Poissons Ratio (z) = 0.45500 0.51136
#
# Static dielectric constant tensor:
#      x y z
#    x 3.514030 0.000000 0.000000 
#    y 0.000000 3.905330 0.000000 
#    z 0.000000 0.000000 3.086380 
# 
# 
# High freq. dielectric constant tensor:
#      x y z
#    x 1.731790 0.000000 0.000000 
#    y 0.000000 1.745720 0.000000 
#    z 0.000000 0.000000 1.696120 
# 
# From -- ./inp_files/34971.got.cif
#   From: 2010.03.12/outbox.cif.g09.slc.cpg/sg51_18_cif.got.tgz:34971.got - 2010.04.16 13:43:02.
