data_PCOD8208685
_publ_section_title
;
Structure prediction by ZEFSAII (Michael W. Deem and Ramdas Pophale) SiO2 
 PCOD8208685
Probable space group: P M M A
;
_chemical_formula_sum "Si O2"
_cell_formula_units_Z 64
_cell_length_a 8.897333
_cell_length_b 31.037043
_cell_length_c 14.325438
_cell_angle_alpha 90.000000
_cell_angle_beta 90.000000
_cell_angle_gamma 90.000000
_cell_volume 3955.925394
_symmetry_space_group_name_H-M "P M M A"
_symmetry_group_IT_number 51
_symmetry_cell_setting 'orthorhombic'
loop_
_space_group_symop_operation_xyz
x,y,z
1/2-x,-y,z
1/2+x,-y,-z
-x,y,-z
-x,-y,-z
1/2+x,y,-z
1/2-x,y,z
x,-y,z
loop_
_atom_site_type_symbol
_atom_site_label
_atom_site_fract_x
_atom_site_fract_y
_atom_site_fract_z
Si Si1 0.924097 0.050406 0.096590
Si Si2 0.425907 0.545464 0.099672
Si Si3 0.427034 0.152147 0.596398
Si Si4 0.073767 0.748320 0.595960
Si Si5 0.428187 0.881571 0.221704
Si Si6 0.573154 0.799955 0.899474
Si Si7 0.572124 0.281380 0.778889
Si Si8 0.072940 0.638626 0.100698
O O1 0.750000 0.063724 0.092806
O O2 0.007855 0.074266 0.180363
O O3 0.945297 0.000000 0.114626
O O4 0.000000 0.064747 0.000000
O O5 0.250000 0.546046 0.083177
O O6 0.470269 0.500000 0.153311
O O7 0.471442 0.591490 0.145914
O O8 0.500000 0.544198 0.000000
O O9 0.500000 0.136437 0.500000
O O10 0.250000 0.144381 0.592675
O O11 0.467859 0.201956 0.614713
O O12 0.499812 0.123691 0.677036
O O13 0.250000 0.741003 0.588821
O O14 0.000000 0.732235 0.500000
O O15 0.007316 0.719838 0.679044
O O16 0.250000 0.884052 0.231505
O O17 0.479361 0.842347 0.155585
O O18 0.750000 0.798965 0.913150
O O19 0.517519 0.758506 0.841968
O O20 0.500000 0.799664 0.000000
O O21 0.750000 0.280081 0.763391
O O22 0.515878 0.325112 0.828164
O O23 0.250000 0.643236 0.086258
O O24 0.000000 0.645763 0.000000
#
# Coordination Sequence:
#
# PCOD8208685 Si02
#       8
#     8   8   8   8   8   8   8   8
#     4  10  21  37  56  78 104 133 165 201 241 284
#     4   8  13  22  36  55  79 109 150 195 235 274
#     4  10  20  34  53  76 100 126 158 198 239 284
#     4  10  20  33  51  71  91 120 155 195 237 278
#     4  11  21  34  53  76 101 130 163 199 238 280
#     4  10  21  32  44  64  93 127 159 193 227 265
#     4  10  19  32  45  62  92 125 158 193 230 277
#     4   9  17  27  41  60  86 124 160 194 234 275
#
# _framework density 16.178263000000001
#
# number of rings (size 3 to 8) (size 9 to 14) (size 15 to 20)
#    0.000    2.250    1.250    2.250    0.000    4.750 
#    0.000    0.000    0.000    0.375    0.000    0.000 
#    0.000    0.500    0.000    0.875    0.000    1.500 
#
# Total GULP energy -793368.011627 kJ/mol
# GULP energy per Si atom -12396.375182 kJ/mol
# Density = 1.614144 g / cm^3
# Si number density = 16.178263 Si / 1000 Ang^3
#
#
#
# Elastic Constant Matrix: (Units=GPa)
#
#
# Indices 1 2 3 4 5 6 
#
# 1 55.4780 35.1136 44.7124 0.0000 0.0000 0.0000
# 2 35.1136 94.0071 57.9719 0.0000 0.0000 0.0000
# 3 44.7124 57.9719 126.2402 0.0000 0.0000 0.0000
# 4 0.0000 0.0000 0.0000 14.0506 0.0000 0.0000
# 5 0.0000 0.0000 0.0000 0.0000 31.2651 0.0000
# 6 0.0000 0.0000 0.0000 0.0000 0.0000 15.0659
#
#
#
# Elastic Compliance Matrix: (Units=1/GPa)
#
#
# Indices 1 2 3 4 5 6 
#
# 1 0.027407 -0.005930 -0.006984 0.000000 0.000000 0.000000
# 2 -0.005930 0.016123 -0.005304 0.000000 0.000000 0.000000
# 3 -0.006984 -0.005304 0.012831 0.000000 0.000000 0.000000
# 4 0.000000 0.000000 0.000000 0.071171 0.000000 0.000000
# 5 0.000000 0.000000 0.000000 0.000000 0.031985 0.000000
# 6 0.000000 0.000000 0.000000 0.000000 0.000000 0.066375
#
#
# Mechanical properties :
#
#
# Convention : Reuss Voigt Hill
#
# Bulk Modulus (GPa) = 50.18768 61.25790 55.72279
# Shear Modulus (GPa) = 18.58944 21.27147 19.93046
#
# Velocity S-wave (km/s) = 3.39342 3.62998 3.51369
# Velocity P-wave (km/s) = 6.81489 7.45087 7.13997
#
# Compressibility (1/GPa) = 0.01992521
#
# Stress axis : x y z
#
# Youngs Moduli (GPa) = 36.48650 62.02220 77.93896
#
# Poissons Ratio (x) = 0.36782 0.54432
# Poissons Ratio (y) = 0.21638 0.41336
# Poissons Ratio (z) = 0.25482 0.32894
#
# Static dielectric constant tensor:
#      x y z
#    x 3.053950 0.000000 0.000000 
#    y 0.000000 3.416120 0.000000 
#    z 0.000000 0.000000 2.888180 
# 
# 
# High freq. dielectric constant tensor:
#      x y z
#    x 1.630150 0.000000 0.000000 
#    y 0.000000 1.618400 0.000000 
#    z 0.000000 0.000000 1.600410 
# 
# From -- ./inp_files/14841.got.cif
#   From: 2010.03.12/outbox.cif.g09.slc.cpg/sg51_8_cif.got.tgz:14841.got - 2010.04.16 13:43:02.
