data_PCOD8208229
_publ_section_title
;
Structure prediction by ZEFSAII (Michael W. Deem and Ramdas Pophale) SiO2 
 PCOD8208229
Probable space group: P M M A
;
_chemical_formula_sum "Si O2"
_cell_formula_units_Z 52
_cell_length_a 9.405372
_cell_length_b 15.340618
_cell_length_c 23.145696
_cell_angle_alpha 90.000000
_cell_angle_beta 90.000000
_cell_angle_gamma 90.000000
_cell_volume 3339.558671
_symmetry_space_group_name_H-M "P M M A"
_symmetry_group_IT_number 51
_symmetry_cell_setting 'orthorhombic'
loop_
_space_group_symop_operation_xyz
x,y,z
1/2-x,-y,z
1/2+x,-y,-z
-x,y,-z
-x,-y,-z
1/2+x,y,-z
1/2-x,y,z
x,-y,z
loop_
_atom_site_type_symbol
_atom_site_label
_atom_site_fract_x
_atom_site_fract_y
_atom_site_fract_z
Si Si1 0.416318 0.228726 0.775518
Si Si2 0.593382 0.897193 0.448658
Si Si3 0.586428 0.403045 0.169624
Si Si4 0.588021 0.000000 0.943630
Si Si5 0.080287 0.901791 0.678874
Si Si6 0.415109 0.649394 0.057774
Si Si7 0.910285 0.175640 0.882895
O O1 0.250000 0.212520 0.775180
O O2 0.452635 0.332900 0.779441
O O3 0.480185 0.174729 0.721012
O O4 0.477490 0.188322 0.833064
O O5 0.500000 0.855051 0.500000
O O6 0.750000 0.854944 0.452887
O O7 0.524703 0.878354 0.385568
O O8 0.605403 0.000000 0.457575
O O9 0.750000 0.387538 0.149871
O O10 0.566622 0.500000 0.195834
O O11 0.485590 0.395380 0.113762
O O12 0.547304 0.083106 0.906915
O O13 0.750000 0.000000 0.962695
O O14 0.500000 0.000000 0.000000
O O15 0.250000 0.902440 0.677347
O O16 0.028228 0.000000 0.697180
O O17 0.250000 0.619526 0.052501
O O18 0.426138 0.753288 0.066261
O O19 0.500000 0.621783 0.000000
O O20 0.750000 0.178307 0.857796
#
# Coordination Sequence:
#
# PCOD8208229 Si02
#       7
#     8   8   8   4   8   8   8
#     4   9  17  29  46  64  81 106 139 169 199 241
#     4   8  13  22  36  54  80 112 141 169 198 228
#     4   9  18  32  47  63  83 105 130 164 206 249
#     4  10  20  32  44  58  78 104 135 168 203 240
#     4   8  14  24  39  61  87 112 139 171 202 232
#     4  10  19  31  47  64  82 103 129 162 203 251
#     4   9  19  32  43  58  82 108 131 165 208 243
#
# _framework density 15.570919999999999
#
# number of rings (size 3 to 8) (size 9 to 14) (size 15 to 20)
#    0.000    3.077    0.000    1.846    1.077    1.846 
#    0.000    0.769    0.000    0.923    0.000    0.000 
#    0.000    0.615    0.000    0.462    0.000    0.923 
#
# Total GULP energy -644247.555005 kJ/mol
# GULP energy per Si atom -12389.376058 kJ/mol
# Density = 1.553548 g / cm^3
# Si number density = 15.570920 Si / 1000 Ang^3
#
#
#
# Elastic Constant Matrix: (Units=GPa)
#
#
# Indices 1 2 3 4 5 6 
#
# 1 37.6635 25.0914 30.5553 0.0000 0.0000 0.0000
# 2 25.0914 104.6071 47.0895 0.0000 0.0000 0.0000
# 3 30.5553 47.0895 92.3940 0.0000 0.0000 0.0000
# 4 0.0000 0.0000 0.0000 12.3103 0.0000 0.0000
# 5 0.0000 0.0000 0.0000 0.0000 20.6704 0.0000
# 6 0.0000 0.0000 0.0000 0.0000 0.0000 12.7479
#
#
#
# Elastic Compliance Matrix: (Units=1/GPa)
#
#
# Indices 1 2 3 4 5 6 
#
# 1 0.037829 -0.004467 -0.010234 0.000000 0.000000 0.000000
# 2 -0.004467 0.012933 -0.005114 0.000000 0.000000 0.000000
# 3 -0.010234 -0.005114 0.016814 0.000000 0.000000 0.000000
# 4 0.000000 0.000000 0.000000 0.081233 0.000000 0.000000
# 5 0.000000 0.000000 0.000000 0.000000 0.048378 0.000000
# 6 0.000000 0.000000 0.000000 0.000000 0.000000 0.078444
#
#
# Mechanical properties :
#
#
# Convention : Reuss Voigt Hill
#
# Bulk Modulus (GPa) = 35.78271 48.90414 42.34342
# Shear Modulus (GPa) = 15.40462 17.94093 16.67278
#
# Velocity S-wave (km/s) = 3.14876 3.39810 3.27580
# Velocity P-wave (km/s) = 6.02079 6.84629 6.44677
#
# Compressibility (1/GPa) = 0.02794646
#
# Stress axis : x y z
#
# Youngs Moduli (GPa) = 26.43466 77.31980 59.47386
#
# Poissons Ratio (x) = 0.34539 0.60864
# Poissons Ratio (y) = 0.11809 0.30417
# Poissons Ratio (z) = 0.27052 0.39544
#
# Static dielectric constant tensor:
#      x y z
#    x 2.993740 0.000000 0.000000 
#    y 0.000000 3.133050 0.000000 
#    z 0.000000 0.000000 2.976290 
# 
# 
# High freq. dielectric constant tensor:
#      x y z
#    x 1.588450 0.000000 0.000000 
#    y 0.000000 1.582980 0.000000 
#    z 0.000000 0.000000 1.575560 
# 
# From -- ./inp_files/34670.got.cif
#   From: 2010.03.12/outbox.cif.g09.slc.cpg/sg51_18_cif.got.tgz:34670.got - 2010.04.16 13:43:02.
