data_PCOD8208704
_publ_section_title
;
Structure prediction by ZEFSAII (Michael W. Deem and Ramdas Pophale) SiO2 
 PCOD8208704
Probable space group: P M M A
;
_chemical_formula_sum "Si O2"
_cell_formula_units_Z 52
_cell_length_a 27.085891
_cell_length_b 7.512653
_cell_length_c 13.556638
_cell_angle_alpha 90.000000
_cell_angle_beta 90.000000
_cell_angle_gamma 90.000000
_cell_volume 2758.598245
_symmetry_space_group_name_H-M "P M M A"
_symmetry_group_IT_number 51
_symmetry_cell_setting 'orthorhombic'
loop_
_space_group_symop_operation_xyz
x,y,z
1/2-x,-y,z
1/2+x,-y,-z
-x,y,-z
-x,-y,-z
1/2+x,y,-z
1/2-x,y,z
x,-y,z
loop_
_atom_site_type_symbol
_atom_site_label
_atom_site_fract_x
_atom_site_fract_y
_atom_site_fract_z
Si Si1 0.947080 0.500000 0.955544
Si Si2 0.574975 0.208510 0.253585
Si Si3 0.112975 0.801680 0.345144
Si Si4 0.807236 0.500000 0.963298
Si Si5 0.374314 0.500000 0.865086
Si Si6 0.554584 0.788118 0.475806
Si Si7 0.532805 0.196724 0.816668
Si Si8 0.807665 0.208944 0.807403
O O1 0.939095 0.675312 0.891001
O O2 0.907763 0.500000 0.039251
O O3 0.000000 0.500000 0.000000
O O4 0.617550 0.323597 0.200721
O O5 0.571652 0.267865 0.367084
O O6 0.523260 0.258236 0.202097
O O7 0.587527 0.000000 0.243034
O O8 0.096434 0.709266 0.448465
O O9 0.061872 0.801648 0.285276
O O10 0.158753 0.716192 0.284109
O O11 0.130945 0.000000 0.368715
O O12 0.750000 0.500000 0.967616
O O13 0.823980 0.322114 0.903553
O O14 0.821833 0.500000 0.079602
O O15 0.500000 0.710326 0.500000
O O16 0.552449 0.000000 0.487369
O O17 0.533083 0.000000 0.863530
O O18 0.750000 0.238552 0.780794
O O19 0.819107 0.000000 0.828563
#
# Coordination Sequence:
#
# PCOD8208704 Si02
#       8
#     4   8   8   4   4   8   8   8
#     4  12  22  32  45  69 101 134 164 206 256 302
#     4  10  20  34  51  72 104 142 174 212 250 291
#     4   9  16  28  51  78 104 137 170 206 256 309
#     4  10  22  40  61  77  97 135 176 218 268 316
#     4  12  24  38  51  73 103 132 174 222 261 308
#     4   9  15  28  51  76 104 143 183 209 241 300
#     4  10  19  32  48  69 100 136 172 203 245 304
#     4   9  18  34  56  83 108 128 163 216 269 320
#
# _framework density 18.850152999999999
#
# number of rings (size 3 to 8) (size 9 to 14) (size 15 to 20)
#    0.000    2.154    3.077    0.923    0.000    1.538 
#    0.000    1.923    0.000    0.923    0.000    2.154 
#    0.000    0.000    0.000    0.000    0.000    0.000 
#
# Total GULP energy -644327.426655 kJ/mol
# GULP energy per Si atom -12390.912051 kJ/mol
# Density = 1.880725 g / cm^3
# Si number density = 18.850153 Si / 1000 Ang^3
#
#
#
# Elastic Constant Matrix: (Units=GPa)
#
#
# Indices 1 2 3 4 5 6 
#
# 1 48.2929 20.4906 32.4843 0.0000 0.0000 0.0000
# 2 20.4906 82.6120 48.6915 0.0000 0.0000 0.0000
# 3 32.4843 48.6915 129.6614 0.0000 0.0000 0.0000
# 4 0.0000 0.0000 0.0000 -54.6696 0.0000 0.0000
# 5 0.0000 0.0000 0.0000 0.0000 30.9259 0.0000
# 6 0.0000 0.0000 0.0000 0.0000 0.0000 12.3559
#
#
#
# Elastic Compliance Matrix: (Units=1/GPa)
#
#
# Indices 1 2 3 4 5 6 
#
# 1 0.025585 -0.003298 -0.005171 0.000000 0.000000 0.000000
# 2 -0.003298 0.015971 -0.005171 0.000000 0.000000 0.000000
# 3 -0.005171 -0.005171 0.010950 0.000000 0.000000 0.000000
# 4 0.000000 0.000000 0.000000 -0.018292 0.000000 0.000000
# 5 0.000000 0.000000 0.000000 0.000000 0.032335 0.000000
# 6 0.000000 0.000000 0.000000 0.000000 0.000000 0.080933
#
#
# Mechanical properties :
#
#
# Convention : Reuss Voigt Hill
#
# Bulk Modulus (GPa) = 39.64405 51.54434 45.59420
# Shear Modulus (GPa) = 27.29690 8.31577 17.80633
#
# Velocity S-wave (km/s) = 3.80952 2.10264 3.07681
# Velocity P-wave (km/s) = 6.35820 5.77048 6.07145
#
# Compressibility (1/GPa) = 0.02522446
#
# Stress axis : x y z
#
# Youngs Moduli (GPa) = 39.08568 62.61470 91.32484
#
# Poissons Ratio (x) = 0.20650 0.47227
# Poissons Ratio (y) = 0.12890 0.47226
# Poissons Ratio (z) = 0.20213 0.32379
#
# Static dielectric constant tensor:
#      x y z
#    x 3.204390 0.000000 0.000000 
#    y 0.000000 3.675510 0.000000 
#    z 0.000000 0.000000 3.687130 
# 
# 
# High freq. dielectric constant tensor:
#      x y z
#    x 1.705560 0.000000 0.000000 
#    y 0.000000 1.727160 0.000000 
#    z 0.000000 0.000000 1.728380 
# 
# From -- ./inp_files/19100.got.cif
#   From: 2010.03.12/outbox.cif.g09.slc.cpg/sg51_10_cif.got.tgz:19100.got - 2010.04.16 13:43:02.
