data_PCOD8208552
_publ_section_title
;
Structure prediction by ZEFSAII (Michael W. Deem and Ramdas Pophale) SiO2 
 PCOD8208552
Probable space group: P M M A
;
_chemical_formula_sum "Si O2"
_cell_formula_units_Z 56
_cell_length_a 9.367843
_cell_length_b 14.398699
_cell_length_c 23.095670
_cell_angle_alpha 90.000000
_cell_angle_beta 90.000000
_cell_angle_gamma 90.000000
_cell_volume 3115.253712
_symmetry_space_group_name_H-M "P M M A"
_symmetry_group_IT_number 51
_symmetry_cell_setting 'orthorhombic'
loop_
_space_group_symop_operation_xyz
x,y,z
1/2-x,-y,z
1/2+x,-y,-z
-x,y,-z
-x,-y,-z
1/2+x,y,-z
1/2-x,y,z
x,-y,z
loop_
_atom_site_type_symbol
_atom_site_label
_atom_site_fract_x
_atom_site_fract_y
_atom_site_fract_z
Si Si1 0.914360 0.107977 0.168579
Si Si2 0.914883 0.396413 0.120032
Si Si3 0.915430 0.715689 0.654436
Si Si4 0.414148 0.393442 0.231071
Si Si5 0.084918 0.895369 0.281580
Si Si6 0.584644 0.782920 0.056296
Si Si7 0.417170 0.606238 0.559182
O O1 0.750000 0.133224 0.179867
O O2 0.972112 0.161577 0.112221
O O3 0.999995 0.139476 0.225339
O O4 0.937557 0.000000 0.156413
O O5 0.750000 0.396521 0.137276
O O6 0.966960 0.500000 0.102219
O O7 0.943095 0.326860 0.066801
O O8 0.996628 0.358611 0.176212
O O9 0.750000 0.695965 0.638061
O O10 0.958797 0.664994 0.713399
O O11 0.943608 0.825800 0.664533
O O12 0.018561 0.678237 0.604895
O O13 0.250000 0.378204 0.215217
O O14 0.449177 0.500000 0.245255
O O15 0.250000 0.891610 0.263982
O O16 0.039083 0.000000 0.300113
O O17 0.750000 0.804974 0.045463
O O18 0.500000 0.816207 0.000000
O O19 0.500000 0.623879 0.500000
O O20 0.250000 0.627298 0.550216
O O21 0.440791 0.500000 0.580200
#
# Coordination Sequence:
#
# PCOD8208552 Si02
#       7
#     8   8   8   8   8   8   8
#     4   9  18  33  51  70  94 123 154 193 244 297
#     4   9  18  32  47  63  87 118 150 188 235 284
#     4  10  19  31  50  75 105 138 168 204 248 291
#     4   9  17  28  44  69  97 123 154 192 236 288
#     4   9  18  32  51  77 105 132 165 204 246 293
#     4  10  21  34  47  65  88 115 151 194 237 285
#     4  10  21  36  54  77 106 140 176 211 246 287
#
# _framework density 17.976063
#
# number of rings (size 3 to 8) (size 9 to 14) (size 15 to 20)
#    0.000    2.571    0.000    1.714    0.000    4.286 
#    0.000    1.429    0.000    0.429    0.000    0.000 
#    0.000    0.000    0.000    0.000    0.000    0.000 
#
# Total GULP energy -694387.604824 kJ/mol
# GULP energy per Si atom -12399.778658 kJ/mol
# Density = 1.793515 g / cm^3
# Si number density = 17.976063 Si / 1000 Ang^3
#
#
#
# Elastic Constant Matrix: (Units=GPa)
#
#
# Indices 1 2 3 4 5 6 
#
# 1 71.0526 37.3131 56.0564 0.0000 0.0000 0.0000
# 2 37.3131 76.7788 50.8616 0.0000 0.0000 0.0000
# 3 56.0564 50.8616 93.3628 0.0000 0.0000 0.0000
# 4 0.0000 0.0000 0.0000 25.4484 0.0000 0.0000
# 5 0.0000 0.0000 0.0000 0.0000 37.0939 0.0000
# 6 0.0000 0.0000 0.0000 0.0000 0.0000 21.9599
#
#
#
# Elastic Compliance Matrix: (Units=1/GPa)
#
#
# Indices 1 2 3 4 5 6 
#
# 1 0.027427 -0.003787 -0.014405 0.000000 0.000000 0.000000
# 2 -0.003787 0.020902 -0.009113 0.000000 0.000000 0.000000
# 3 -0.014405 -0.009113 0.024324 0.000000 0.000000 0.000000
# 4 0.000000 0.000000 0.000000 0.039295 0.000000 0.000000
# 5 0.000000 0.000000 0.000000 0.000000 0.026959 0.000000
# 6 0.000000 0.000000 0.000000 0.000000 0.000000 0.045537
#
#
# Mechanical properties :
#
#
# Convention : Reuss Voigt Hill
#
# Bulk Modulus (GPa) = 55.42018 58.85072 57.13545
# Shear Modulus (GPa) = 20.40247 23.36464 21.88356
#
# Velocity S-wave (km/s) = 3.37260 3.60914 3.49287
# Velocity P-wave (km/s) = 6.78696 7.08359 6.93686
#
# Compressibility (1/GPa) = 0.01804397
#
# Stress axis : x y z
#
# Youngs Moduli (GPa) = 36.46004 47.84330 41.11114
#
# Poissons Ratio (x) = 0.18117 0.59220
# Poissons Ratio (y) = 0.13807 0.37465
# Poissons Ratio (z) = 0.52520 0.43600
#
# Static dielectric constant tensor:
#      x y z
#    x 3.303910 0.000000 0.000000 
#    y 0.000000 3.557160 0.000000 
#    z 0.000000 0.000000 3.147360 
# 
# 
# High freq. dielectric constant tensor:
#      x y z
#    x 1.692720 0.000000 0.000000 
#    y 0.000000 1.703260 0.000000 
#    z 0.000000 0.000000 1.673820 
# 
# From -- ./inp_files/31868.got.cif
#   From: 2010.03.12/outbox.cif.g09.slc.cpg/sg51_16_cif.got.tgz:31868.got - 2010.04.16 13:43:02.
