data_PCOD8208553
_publ_section_title
;
Structure prediction by ZEFSAII (Michael W. Deem and Ramdas Pophale) SiO2 
 PCOD8208553
Probable space group: P M M A
;
_chemical_formula_sum "Si O2"
_cell_formula_units_Z 64
_cell_length_a 15.945599
_cell_length_b 18.493921
_cell_length_c 12.204527
_cell_angle_alpha 90.000000
_cell_angle_beta 90.000000
_cell_angle_gamma 90.000000
_cell_volume 3599.074105
_symmetry_space_group_name_H-M "P M M A"
_symmetry_group_IT_number 51
_symmetry_cell_setting 'orthorhombic'
loop_
_space_group_symop_operation_xyz
x,y,z
1/2-x,-y,z
1/2+x,-y,-z
-x,y,-z
-x,-y,-z
1/2+x,y,-z
1/2-x,y,z
x,-y,z
loop_
_atom_site_type_symbol
_atom_site_label
_atom_site_fract_x
_atom_site_fract_y
_atom_site_fract_z
Si Si1 0.903606 0.820896 0.186541
Si Si2 0.344654 0.678399 0.133777
Si Si3 0.499162 0.580792 0.129984
Si Si4 0.843461 0.080449 0.363820
Si Si5 0.420851 0.081790 0.421552
Si Si6 0.592134 0.825321 0.793944
Si Si7 0.656235 0.326301 0.121662
Si Si8 0.599598 0.080081 0.992294
O O1 0.901572 0.861623 0.302993
O O2 0.850400 0.747592 0.190424
O O3 0.000236 0.801470 0.163860
O O4 0.865458 0.873105 0.093389
O O5 0.250000 0.647707 0.153203
O O6 0.415591 0.621618 0.173811
O O7 0.352544 0.752671 0.202446
O O8 0.359805 0.693641 0.005238
O O9 0.497357 0.500000 0.179725
O O10 0.586058 0.618640 0.167574
O O11 0.500000 0.577127 0.000000
O O12 0.750000 0.089987 0.319333
O O13 0.842929 0.091275 0.495260
O O14 0.878398 0.000000 0.336431
O O15 0.500000 0.097531 0.500000
O O16 0.409690 0.140285 0.326415
O O17 0.425213 0.000000 0.372573
O O18 0.629306 0.883899 0.878548
O O19 0.750000 0.358957 0.138550
O O20 0.639162 0.000000 0.998448
O O21 0.500000 0.074920 0.000000
#
# Coordination Sequence:
#
# PCOD8208553 Si02
#       8
#     8   8   8   8   8   8   8   8
#     4  11  18  30  51  72 100 135 171 212 259 311
#     4  10  20  33  50  74 105 139 173 208 255 307
#     4   9  18  32  51  74 103 139 175 206 241 295
#     4  10  21  35  50  70  97 130 172 224 273 311
#     4  10  20  34  51  70  93 130 181 229 272 315
#     4  11  19  31  52  71  99 134 174 219 261 310
#     4  10  19  31  50  75 106 139 171 209 256 306
#     4   9  18  27  43  72  98 128 170 214 260 306
#
# _framework density 17.782350999999998
#
# number of rings (size 3 to 8) (size 9 to 14) (size 15 to 20)
#    0.000    2.000    3.750    1.125    0.000    2.000 
#    0.000    2.500    0.000    1.875    0.000    0.000 
#    0.000    4.500    0.000    5.000    0.000    0.500 
#
# Total GULP energy -793357.782356 kJ/mol
# GULP energy per Si atom -12396.215349 kJ/mol
# Density = 1.774188 g / cm^3
# Si number density = 17.782351 Si / 1000 Ang^3
#
#
#
# Elastic Constant Matrix: (Units=GPa)
#
#
# Indices 1 2 3 4 5 6 
#
# 1 97.5074 50.1420 14.7253 0.0000 0.0000 0.0000
# 2 50.1420 131.0001 35.5819 0.0000 0.0000 0.0000
# 3 14.7253 35.5819 62.3869 0.0000 0.0000 0.0000
# 4 0.0000 0.0000 0.0000 16.3111 0.0000 0.0000
# 5 0.0000 0.0000 0.0000 0.0000 14.2854 0.0000
# 6 0.0000 0.0000 0.0000 0.0000 0.0000 16.0464
#
#
#
# Elastic Compliance Matrix: (Units=1/GPa)
#
#
# Indices 1 2 3 4 5 6 
#
# 1 0.012773 -0.004816 -0.000268 0.000000 0.000000 0.000000
# 2 -0.004816 0.010849 -0.005051 0.000000 0.000000 0.000000
# 3 -0.000268 -0.005051 0.018973 0.000000 0.000000 0.000000
# 4 0.000000 0.000000 0.000000 0.061308 0.000000 0.000000
# 5 0.000000 0.000000 0.000000 0.000000 0.070001 0.000000
# 6 0.000000 0.000000 0.000000 0.000000 0.000000 0.062319
#
#
# Mechanical properties :
#
#
# Convention : Reuss Voigt Hill
#
# Bulk Modulus (GPa) = 44.79326 54.64364 49.71845
# Shear Modulus (GPa) = 18.94409 22.02493 20.48451
#
# Velocity S-wave (km/s) = 3.26748 3.52317 3.39773
# Velocity P-wave (km/s) = 6.28328 6.88085 6.58885
#
# Compressibility (1/GPa) = 0.02232479
#
# Stress axis : x y z
#
# Youngs Moduli (GPa) = 78.29168 92.17502 52.70663
#
# Poissons Ratio (x) = 0.44393 0.01412
# Poissons Ratio (y) = 0.37707 0.26621
# Poissons Ratio (z) = 0.02098 0.46556
#
# Static dielectric constant tensor:
#      x y z
#    x 3.344100 0.000000 0.000000 
#    y 0.000000 3.245700 0.000000 
#    z 0.000000 0.000000 2.987990 
# 
# 
# High freq. dielectric constant tensor:
#      x y z
#    x 1.691320 0.000000 0.000000 
#    y 0.000000 1.671240 0.000000 
#    z 0.000000 0.000000 1.644390 
# 
# From -- ./inp_files/25366.got.cif
#   From: 2010.03.12/outbox.cif.g09.slc.cpg/sg51_13_cif.got.tgz:25366.got - 2010.04.16 13:43:02.
