data_PCOD8208976
_publ_section_title
;
Structure prediction by ZEFSAII (Michael W. Deem and Ramdas Pophale) SiO2 
 PCOD8208976
Probable space group: P M M A
;
_chemical_formula_sum "Si O2"
_cell_formula_units_Z 64
_cell_length_a 9.184090
_cell_length_b 15.325807
_cell_length_c 23.856490
_cell_angle_alpha 90.000000
_cell_angle_beta 90.000000
_cell_angle_gamma 90.000000
_cell_volume 3357.886632
_symmetry_space_group_name_H-M "P M M A"
_symmetry_group_IT_number 51
_symmetry_cell_setting 'orthorhombic'
loop_
_space_group_symop_operation_xyz
x,y,z
1/2-x,-y,z
1/2+x,-y,-z
-x,y,-z
-x,-y,-z
1/2+x,y,-z
1/2-x,y,z
x,-y,z
loop_
_atom_site_type_symbol
_atom_site_label
_atom_site_fract_x
_atom_site_fract_y
_atom_site_fract_z
Si Si1 0.577928 0.599464 0.058187
Si Si2 0.413265 0.898501 0.446132
Si Si3 0.585287 0.404450 0.248649
Si Si4 0.415507 0.681575 0.333870
Si Si5 0.077749 0.095755 0.791386
Si Si6 0.413865 0.403467 0.448909
Si Si7 0.078279 0.146987 0.668314
Si Si8 0.577809 0.272322 0.154635
O O1 0.750000 0.608293 0.050040
O O2 0.541444 0.500000 0.079295
O O3 0.518871 0.676716 0.099517
O O4 0.500000 0.618165 0.000000
O O5 0.500000 0.858030 0.500000
O O6 0.250000 0.856487 0.442734
O O7 0.494589 0.886137 0.386796
O O8 0.396255 0.000000 0.457239
O O9 0.750000 0.384780 0.268616
O O10 0.577499 0.500000 0.220630
O O11 0.472889 0.402897 0.300559
O O12 0.529068 0.332888 0.205536
O O13 0.250000 0.705322 0.317074
O O14 0.428016 0.664346 0.399238
O O15 0.531266 0.755120 0.318414
O O16 0.250000 0.106071 0.793196
O O17 0.031419 0.097731 0.725623
O O18 0.014041 0.174456 0.831264
O O19 0.028997 0.000000 0.814815
O O20 0.500000 0.360800 0.500000
O O21 0.250000 0.413517 0.468642
O O22 0.475760 0.500000 0.433273
O O23 0.250000 0.138750 0.656804
O O24 0.750000 0.267553 0.149616
#
# Coordination Sequence:
#
# PCOD8208976 Si02
#       8
#     8   8   8   8   8   8   8   8
#     4   9  17  30  51  79 112 150 186 223 265 311
#     4  10  21  37  56  78 103 132 170 218 277 344
#     4  10  19  32  52  77 104 136 174 216 264 320
#     4  11  22  35  50  71 103 135 168 212 267 325
#     4   9  17  30  52  80 106 134 175 227 276 322
#     4   9  19  35  52  68  88 119 161 207 253 307
#     4  11  21  35  54  76 104 135 175 224 275 331
#     4   9  16  30  51  78 109 140 180 223 265 315
#
# _framework density 19.059608000000001
#
# number of rings (size 3 to 8) (size 9 to 14) (size 15 to 20)
#    0.000    2.250    1.250    2.250    0.000    5.000 
#    0.000    3.125    0.000    1.875    0.000    0.000 
#    0.000    0.000    0.000    0.000    0.000    0.000 
#
# Total GULP energy -792835.812272 kJ/mol
# GULP energy per Si atom -12388.059567 kJ/mol
# Density = 1.901623 g / cm^3
# Si number density = 19.059608 Si / 1000 Ang^3
#
#
#
# Elastic Constant Matrix: (Units=GPa)
#
#
# Indices 1 2 3 4 5 6 
#
# 1 57.8613 27.0135 40.6547 0.0000 0.0000 0.0000
# 2 27.0135 117.4128 54.6277 0.0000 0.0000 0.0000
# 3 40.6547 54.6277 111.4038 0.0000 0.0000 0.0000
# 4 0.0000 0.0000 0.0000 21.0978 0.0000 0.0000
# 5 0.0000 0.0000 0.0000 0.0000 25.0843 0.0000
# 6 0.0000 0.0000 0.0000 0.0000 0.0000 17.9866
#
#
#
# Elastic Compliance Matrix: (Units=1/GPa)
#
#
# Indices 1 2 3 4 5 6 
#
# 1 0.023545 -0.001839 -0.007690 0.000000 0.000000 0.000000
# 2 -0.001839 0.011178 -0.004810 0.000000 0.000000 0.000000
# 3 -0.007690 -0.004810 0.014142 0.000000 0.000000 0.000000
# 4 0.000000 0.000000 0.000000 0.047398 0.000000 0.000000
# 5 0.000000 0.000000 0.000000 0.000000 0.039866 0.000000
# 6 0.000000 0.000000 0.000000 0.000000 0.000000 0.055597
#
#
# Mechanical properties :
#
#
# Convention : Reuss Voigt Hill
#
# Bulk Modulus (GPa) = 49.54123 59.02997 54.28560
# Shear Modulus (GPa) = 22.01358 23.79254 22.90306
#
# Velocity S-wave (km/s) = 3.40220 3.53699 3.47025
# Velocity P-wave (km/s) = 6.44069 6.90789 6.67837
#
# Compressibility (1/GPa) = 0.02018521
#
# Stress axis : x y z
#
# Youngs Moduli (GPa) = 42.47233 89.46120 70.71365
#
# Poissons Ratio (x) = 0.16451 0.54382
# Poissons Ratio (y) = 0.07810 0.34014
# Poissons Ratio (z) = 0.32663 0.43032
#
# Static dielectric constant tensor:
#      x y z
#    x 3.321540 0.000000 0.000000 
#    y 0.000000 3.720380 0.000000 
#    z 0.000000 0.000000 3.444270 
# 
# 
# High freq. dielectric constant tensor:
#      x y z
#    x 1.715030 0.000000 0.000000 
#    y 0.000000 1.746160 0.000000 
#    z 0.000000 0.000000 1.723320 
# 
# From -- ./inp_files/34955.got.cif
#   From: 2010.03.12/outbox.cif.g09.slc.cpg/sg51_18_cif.got.tgz:34955.got - 2010.04.16 13:43:02.
