data_PCOD8208216
_publ_section_title
;
Structure prediction by ZEFSAII (Michael W. Deem and Ramdas Pophale) SiO2 
 PCOD8208216
Probable space group: P M M A
;
_chemical_formula_sum "Si O2"
_cell_formula_units_Z 64
_cell_length_a 8.666065
_cell_length_b 31.283491
_cell_length_c 14.422001
_cell_angle_alpha 90.000000
_cell_angle_beta 90.000000
_cell_angle_gamma 90.000000
_cell_volume 3909.873213
_symmetry_space_group_name_H-M "P M M A"
_symmetry_group_IT_number 51
_symmetry_cell_setting 'orthorhombic'
loop_
_space_group_symop_operation_xyz
x,y,z
1/2-x,-y,z
1/2+x,-y,-z
-x,y,-z
-x,-y,-z
1/2+x,y,-z
1/2-x,y,z
x,-y,z
loop_
_atom_site_type_symbol
_atom_site_label
_atom_site_fract_x
_atom_site_fract_y
_atom_site_fract_z
Si Si1 0.068903 0.161065 0.595073
Si Si2 0.067991 0.714605 0.216208
Si Si3 0.569423 0.454938 0.100577
Si Si4 0.432572 0.047789 0.901541
Si Si5 0.932555 0.208237 0.101142
Si Si6 0.933525 0.361962 0.103171
Si Si7 0.432551 0.259785 0.596839
Si Si8 0.933586 0.126889 0.213264
O O1 0.250000 0.156270 0.588159
O O2 0.021138 0.210209 0.609515
O O3 0.002718 0.134274 0.682542
O O4 0.000000 0.142261 0.500000
O O5 0.250000 0.720775 0.208618
O O6 0.983322 0.753232 0.165690
O O7 0.018049 0.670375 0.170808
O O8 0.014335 0.713309 0.322700
O O9 0.750000 0.454631 0.087444
O O10 0.520072 0.500000 0.152948
O O11 0.523580 0.409261 0.145711
O O12 0.500000 0.456115 0.000000
O O13 0.250000 0.049724 0.909756
O O14 0.492890 0.081034 0.824018
O O15 0.488465 0.000000 0.874242
O O16 0.500000 0.061828 0.000000
O O17 0.750000 0.208326 0.094561
O O18 0.994844 0.164039 0.145138
O O19 0.000000 0.214623 0.000000
O O20 0.750000 0.353553 0.101346
O O21 0.000000 0.356191 0.000000
O O22 0.500000 0.277013 0.500000
O O23 0.250000 0.266662 0.600553
O O24 0.750000 0.128814 0.215489
#
# Coordination Sequence:
#
# PCOD8208216 Si02
#       8
#     8   8   8   8   8   8   8   8
#     4   9  17  31  49  69  91 117 147 186 229 273
#     4  12  23  34  47  66  93 127 163 196 232 280
#     4   8  14  25  42  63  86 115 154 198 240 280
#     4   9  17  30  49  71  94 121 152 186 227 275
#     4  11  21  34  47  64  91 124 158 195 234 276
#     4  10  19  31  46  65  93 129 165 200 239 284
#     4  10  19  34  53  72  93 120 153 195 238 280
#     4   9  17  31  49  68  93 121 151 188 231 276
#
# _framework density 16.368817
#
# number of rings (size 3 to 8) (size 9 to 14) (size 15 to 20)
#    0.000    2.250    1.250    3.000    0.000    1.000 
#    0.000    1.250    0.000    0.375    0.000    0.000 
#    0.000    0.500    0.000    1.375    0.000    2.250 
#
# Total GULP energy -793151.369427 kJ/mol
# GULP energy per Si atom -12392.990147 kJ/mol
# Density = 1.633156 g / cm^3
# Si number density = 16.368817 Si / 1000 Ang^3
#
#
#
# Elastic Constant Matrix: (Units=GPa)
#
#
# Indices 1 2 3 4 5 6 
#
# 1 37.1699 19.2027 22.0298 0.0000 0.0000 0.0000
# 2 19.2027 109.9745 53.5167 0.0000 0.0000 0.0000
# 3 22.0298 53.5167 113.1416 0.0000 0.0000 0.0000
# 4 0.0000 0.0000 0.0000 10.1100 0.0000 0.0000
# 5 0.0000 0.0000 0.0000 0.0000 26.0079 0.0000
# 6 0.0000 0.0000 0.0000 0.0000 0.0000 10.9070
#
#
#
# Elastic Compliance Matrix: (Units=1/GPa)
#
#
# Indices 1 2 3 4 5 6 
#
# 1 0.031280 -0.003245 -0.004556 0.000000 0.000000 0.000000
# 2 -0.003245 0.012148 -0.005114 0.000000 0.000000 0.000000
# 3 -0.004556 -0.005114 0.012145 0.000000 0.000000 0.000000
# 4 0.000000 0.000000 0.000000 0.098912 0.000000 0.000000
# 5 0.000000 0.000000 0.000000 0.000000 0.038450 0.000000
# 6 0.000000 0.000000 0.000000 0.000000 0.000000 0.091684
#
#
# Mechanical properties :
#
#
# Convention : Reuss Voigt Hill
#
# Bulk Modulus (GPa) = 33.62133 49.97604 41.79869
# Shear Modulus (GPa) = 15.60725 20.44076 18.02400
#
# Velocity S-wave (km/s) = 3.09119 3.53762 3.32191
# Velocity P-wave (km/s) = 5.77279 6.87632 6.34858
#
# Compressibility (1/GPa) = 0.02974302
#
# Stress axis : x y z
#
# Youngs Moduli (GPa) = 31.96937 82.31489 82.34045
#
# Poissons Ratio (x) = 0.26710 0.37511
# Poissons Ratio (y) = 0.10374 0.42113
# Poissons Ratio (z) = 0.14564 0.42100
#
# Static dielectric constant tensor:
#      x y z
#    x 3.031020 0.000000 0.000000 
#    y 0.000000 3.525290 0.000000 
#    z 0.000000 0.000000 3.170330 
# 
# 
# High freq. dielectric constant tensor:
#      x y z
#    x 1.628740 0.000000 0.000000 
#    y 0.000000 1.625710 0.000000 
#    z 0.000000 0.000000 1.610480 
# 
# From -- ./inp_files/22597.got.cif
#   From: 2010.03.12/outbox.cif.g09.slc.cpg/sg51_12_cif.got.tgz:22597.got - 2010.04.16 13:43:02.
