data_PCOD8208540
_publ_section_title
;
Structure prediction by ZEFSAII (Michael W. Deem and Ramdas Pophale) SiO2 
 PCOD8208540
Probable space group: P M M A
;
_chemical_formula_sum "Si O2"
_cell_formula_units_Z 64
_cell_length_a 8.967362
_cell_length_b 15.967960
_cell_length_c 23.297673
_cell_angle_alpha 90.000000
_cell_angle_beta 90.000000
_cell_angle_gamma 90.000000
_cell_volume 3336.004927
_symmetry_space_group_name_H-M "P M M A"
_symmetry_group_IT_number 51
_symmetry_cell_setting 'orthorhombic'
loop_
_space_group_symop_operation_xyz
x,y,z
1/2-x,-y,z
1/2+x,-y,-z
-x,y,-z
-x,-y,-z
1/2+x,y,-z
1/2-x,y,z
x,-y,z
loop_
_atom_site_type_symbol
_atom_site_label
_atom_site_fract_x
_atom_site_fract_y
_atom_site_fract_z
Si Si1 0.072060 0.757951 0.058221
Si Si2 0.915791 0.403113 0.722427
Si Si3 0.574243 0.594426 0.392270
Si Si4 0.417590 0.692342 0.175106
Si Si5 0.573540 0.769791 0.441288
Si Si6 0.581883 0.907767 0.112370
Si Si7 0.423144 0.095535 0.654444
Si Si8 0.580610 0.872664 0.774475
O O1 0.250000 0.756423 0.053935
O O2 0.008366 0.703286 0.112192
O O3 0.020122 0.852527 0.070206
O O4 0.000000 0.722376 0.000000
O O5 0.750000 0.361450 0.715655
O O6 0.894389 0.500000 0.723478
O O7 0.992666 0.376323 0.783101
O O8 0.021341 0.377398 0.670473
O O9 0.750000 0.589014 0.391464
O O10 0.512245 0.500000 0.409958
O O11 0.520817 0.672340 0.431568
O O12 0.250000 0.664341 0.161777
O O13 0.424335 0.774808 0.213438
O O14 0.500000 0.800953 0.500000
O O15 0.750000 0.773131 0.447496
O O16 0.521597 0.835354 0.392079
O O17 0.750000 0.870769 0.115153
O O18 0.516557 0.916563 0.176429
O O19 0.583990 0.000000 0.085083
O O20 0.250000 0.110740 0.668352
O O21 0.515109 0.107899 0.712334
O O22 0.448507 0.000000 0.631599
O O23 0.750000 0.906500 0.777060
#
# Coordination Sequence:
#
# PCOD8208540 Si02
#       8
#     8   8   8   8   8   8   8   8
#     4  10  20  34  50  67  91 125 166 208 245 286
#     4   9  16  28  50  78 103 127 157 192 233 286
#     4   9  18  33  52  76 106 133 156 191 243 299
#     4   8  16  30  47  70  99 127 156 196 243 286
#     4  10  22  38  54  73  98 131 170 209 249 293
#     4  10  20  33  49  70  97 127 158 196 244 296
#     4  10  21  36  52  71  98 131 166 207 254 300
#     4  10  19  31  50  75 101 128 161 202 246 294
#
# _framework density 19.184623999999999
#
# number of rings (size 3 to 8) (size 9 to 14) (size 15 to 20)
#    0.000    2.500    0.000    3.000    0.000    4.500 
#    0.000    3.125    0.000    0.375    0.000    0.000 
#    0.000    0.000    0.000    0.000    0.000    0.500 
#
# Total GULP energy -792866.836242 kJ/mol
# GULP energy per Si atom -12388.544316 kJ/mol
# Density = 1.914096 g / cm^3
# Si number density = 19.184624 Si / 1000 Ang^3
#
#
#
# Elastic Constant Matrix: (Units=GPa)
#
#
# Indices 1 2 3 4 5 6 
#
# 1 44.3650 17.6215 18.0128 0.0000 0.0000 0.0000
# 2 17.6215 29.4153 37.5585 0.0000 0.0000 0.0000
# 3 18.0128 37.5585 98.3186 0.0000 0.0000 0.0000
# 4 0.0000 0.0000 0.0000 10.8259 0.0000 0.0000
# 5 0.0000 0.0000 0.0000 0.0000 34.3481 0.0000
# 6 0.0000 0.0000 0.0000 0.0000 0.0000 16.8282
#
#
#
# Elastic Compliance Matrix: (Units=1/GPa)
#
#
# Indices 1 2 3 4 5 6 
#
# 1 0.029932 -0.021336 0.002667 0.000000 0.000000 0.000000
# 2 -0.021336 0.081576 -0.027254 0.000000 0.000000 0.000000
# 3 0.002667 -0.027254 0.020094 0.000000 0.000000 0.000000
# 4 0.000000 0.000000 0.000000 0.092371 0.000000 0.000000
# 5 0.000000 0.000000 0.000000 0.000000 0.029114 0.000000
# 6 0.000000 0.000000 0.000000 0.000000 0.000000 0.059424
#
#
# Mechanical properties :
#
#
# Convention : Reuss Voigt Hill
#
# Bulk Modulus (GPa) = 25.15373 35.38715 30.27044
# Shear Modulus (GPa) = 11.97297 18.99419 15.48358
#
# Velocity S-wave (km/s) = 2.50089 3.14996 2.84400
# Velocity P-wave (km/s) = 4.63456 5.63163 5.15725
#
# Compressibility (1/GPa) = 0.03975553
#
# Stress axis : x y z
#
# Youngs Moduli (GPa) = 33.40904 12.25858 49.76727
#
# Poissons Ratio (x) = 0.26155 -0.13271
# Poissons Ratio (y) = 0.71281 1.35634
# Poissons Ratio (z) = -0.08909 0.33409
#
# Static dielectric constant tensor:
#      x y z
#    x 4.030170 0.000000 0.000000 
#    y 0.000000 3.695990 0.000000 
#    z 0.000000 0.000000 3.593820 
# 
# 
# High freq. dielectric constant tensor:
#      x y z
#    x 1.731570 0.000000 0.000000 
#    y 0.000000 1.738290 0.000000 
#    z 0.000000 0.000000 1.743340 
# 
# From -- ./inp_files/32349.got.cif
#   From: 2010.03.12/outbox.cif.g09.slc.cpg/sg51_17_cif.got.tgz:32349.got - 2010.04.16 13:43:02.
