data_PCOD8208022
_publ_section_title
;
Structure prediction by ZEFSAII (Michael W. Deem and Ramdas Pophale) SiO2 
 PCOD8208022
Probable space group: P M M A
;
_chemical_formula_sum "Si O2"
_cell_formula_units_Z 64
_cell_length_a 27.602632
_cell_length_b 9.059425
_cell_length_c 14.098479
_cell_angle_alpha 90.000000
_cell_angle_beta 90.000000
_cell_angle_gamma 90.000000
_cell_volume 3525.521692
_symmetry_space_group_name_H-M "P M M A"
_symmetry_group_IT_number 51
_symmetry_cell_setting 'orthorhombic'
loop_
_space_group_symop_operation_xyz
x,y,z
1/2-x,-y,z
1/2+x,-y,-z
-x,y,-z
-x,-y,-z
1/2+x,y,-z
1/2-x,y,z
x,-y,z
loop_
_atom_site_type_symbol
_atom_site_label
_atom_site_fract_x
_atom_site_fract_y
_atom_site_fract_z
Si Si1 0.052816 0.329968 0.965383
Si Si2 0.463501 0.170000 0.278159
Si Si3 0.571913 0.828389 0.227742
Si Si4 0.551766 0.337169 0.542663
Si Si5 0.871526 0.668849 0.382359
Si Si6 0.806410 0.174726 0.738314
Si Si7 0.806565 0.667989 0.546278
Si Si8 0.889635 0.329825 0.849214
O O1 0.046145 0.500000 0.936213
O O2 0.071555 0.239941 0.875982
O O3 0.096549 0.310890 0.040628
O O4 0.000000 0.269531 0.000000
O O5 0.520674 0.205187 0.278357
O O6 0.440343 0.212165 0.378812
O O7 0.437617 0.269763 0.200856
O O8 0.452616 0.000000 0.255929
O O9 0.616560 0.763012 0.288920
O O10 0.581660 0.000000 0.217128
O O11 0.500000 0.321588 0.500000
O O12 0.560080 0.500000 0.587610
O O13 0.586090 0.307203 0.456062
O O14 0.865248 0.500000 0.349295
O O15 0.825165 0.725597 0.443396
O O16 0.750000 0.217932 0.757730
O O17 0.824571 0.236628 0.636312
O O18 0.840657 0.241772 0.820722
O O19 0.813045 0.000000 0.737260
O O20 0.750000 0.676892 0.540739
O O21 0.825412 0.500000 0.561572
O O22 0.881125 0.500000 0.822622
#
# Coordination Sequence:
#
# PCOD8208022 Si02
#       8
#     8   8   8   8   8   8   8   8
#     4  10  21  38  58  79 105 141 184 227 270 322
#     4  11  22  33  48  74 108 143 178 219 269 323
#     4  11  23  35  51  76 107 143 180 223 271 323
#     4  10  19  30  46  69  99 139 180 214 254 312
#     4  10  20  34  52  73 103 143 182 224 271 317
#     4  10  21  37  58  86 118 148 177 218 275 331
#     4   9  18  34  57  84 111 143 186 229 268 320
#     4  11  22  36  58  82 106 141 183 227 274 325
#
# _framework density 18.153343
#
# number of rings (size 3 to 8) (size 9 to 14) (size 15 to 20)
#    0.000    1.750    2.500    2.250    0.000    5.250 
#    0.000    0.000    0.000    0.750    0.000    1.750 
#    0.000    0.000    0.000    0.000    0.000    0.000 
#
# Total GULP energy -793328.107667 kJ/mol
# GULP energy per Si atom -12395.751682 kJ/mol
# Density = 1.811202 g / cm^3
# Si number density = 18.153343 Si / 1000 Ang^3
#
#
#
# Elastic Constant Matrix: (Units=GPa)
#
#
# Indices 1 2 3 4 5 6 
#
# 1 61.1941 37.8749 34.5003 0.0000 0.0000 0.0000
# 2 37.8749 94.6902 58.2273 0.0000 0.0000 0.0000
# 3 34.5003 58.2273 105.5438 0.0000 0.0000 0.0000
# 4 0.0000 0.0000 0.0000 1.7624 0.0000 0.0000
# 5 0.0000 0.0000 0.0000 0.0000 32.2030 0.0000
# 6 0.0000 0.0000 0.0000 0.0000 0.0000 24.2740
#
#
#
# Elastic Compliance Matrix: (Units=1/GPa)
#
#
# Indices 1 2 3 4 5 6 
#
# 1 0.022603 -0.006807 -0.003633 0.000000 0.000000 0.000000
# 2 -0.006807 0.018033 -0.007723 0.000000 0.000000 0.000000
# 3 -0.003633 -0.007723 0.014923 0.000000 0.000000 0.000000
# 4 0.000000 0.000000 0.000000 0.567417 0.000000 0.000000
# 5 0.000000 0.000000 0.000000 0.000000 0.031053 0.000000
# 6 0.000000 0.000000 0.000000 0.000000 0.000000 0.041196
#
#
# Mechanical properties :
#
#
# Convention : Reuss Voigt Hill
#
# Bulk Modulus (GPa) = 51.99670 58.07036 55.03353
# Shear Modulus (GPa) = 6.77541 20.36957 13.57249
#
# Velocity S-wave (km/s) = 1.93402 3.35339 2.73730
# Velocity P-wave (km/s) = 5.80452 6.85943 6.35391
#
# Compressibility (1/GPa) = 0.01923199
#
# Stress axis : x y z
#
# Youngs Moduli (GPa) = 44.24259 55.45494 67.00915
#
# Poissons Ratio (x) = 0.37746 0.24346
# Poissons Ratio (y) = 0.30114 0.51754
# Poissons Ratio (z) = 0.16074 0.42830
#
# Static dielectric constant tensor:
#      x y z
#    x 3.312430 0.000000 0.000000 
#    y 0.000000 3.427730 0.000000 
#    z 0.000000 0.000000 3.409460 
# 
# 
# High freq. dielectric constant tensor:
#      x y z
#    x 1.694590 0.000000 0.000000 
#    y 0.000000 1.704370 0.000000 
#    z 0.000000 0.000000 1.694390 
# 
# From -- ./inp_files/19515.got.cif
#   From: 2010.03.12/outbox.cif.g09.slc.cpg/sg51_10_cif.got.tgz:19515.got - 2010.04.16 13:43:02.
