data_PCOD8208151
_publ_section_title
;
Structure prediction by ZEFSAII (Michael W. Deem and Ramdas Pophale) SiO2 
 PCOD8208151
Probable space group: P M M A
;
_chemical_formula_sum "Si O2"
_cell_formula_units_Z 52
_cell_length_a 8.736693
_cell_length_b 15.843188
_cell_length_c 21.957703
_cell_angle_alpha 90.000000
_cell_angle_beta 90.000000
_cell_angle_gamma 90.000000
_cell_volume 3039.320907
_symmetry_space_group_name_H-M "P M M A"
_symmetry_group_IT_number 51
_symmetry_cell_setting 'orthorhombic'
loop_
_space_group_symop_operation_xyz
x,y,z
1/2-x,-y,z
1/2+x,-y,-z
-x,y,-z
-x,-y,-z
1/2+x,y,-z
1/2-x,y,z
x,-y,z
loop_
_atom_site_type_symbol
_atom_site_label
_atom_site_fract_x
_atom_site_fract_y
_atom_site_fract_z
Si Si1 0.567577 0.500000 0.723806
Si Si2 0.578275 0.905828 0.218244
Si Si3 0.070847 0.345588 0.934019
Si Si4 0.072548 0.242663 0.163838
Si Si5 0.430364 0.683157 0.293244
Si Si6 0.429207 0.000000 0.434097
Si Si7 0.068924 0.500000 0.137150
Si Si8 0.068531 0.140933 0.340371
O O1 0.750000 0.500000 0.722058
O O2 0.506051 0.587675 0.691768
O O3 0.509883 0.500000 0.793511
O O4 0.750000 0.867388 0.215992
O O5 0.460182 0.855099 0.176243
O O6 0.519220 0.906386 0.287107
O O7 0.579067 0.000000 0.192728
O O8 0.250000 0.361428 0.940238
O O9 0.032393 0.263745 0.894085
O O10 0.991545 0.420126 0.898046
O O11 0.000000 0.335096 0.000000
O O12 0.250000 0.258550 0.148722
O O13 0.020430 0.294222 0.224199
O O14 0.250000 0.678396 0.295983
O O15 0.482842 0.758599 0.339986
O O16 0.500000 0.000000 0.500000
O O17 0.478483 0.912260 0.400453
O O18 0.250000 0.000000 0.441566
O O19 0.250000 0.500000 0.135429
O O20 0.250000 0.135216 0.328560
#
# Coordination Sequence:
#
# PCOD8208151 Si02
#       8
#     4   8   8   8   8   4   4   8
#     4   9  14  24  46  73  98 123 155 198 248 297
#     4  10  19  30  48  75 104 131 160 198 244 298
#     4  12  24  37  51  69  94 127 167 210 258 310
#     4  10  19  33  51  71  95 126 163 206 252 301
#     4   8  14  25  45  70  95 123 156 200 247 293
#     4  10  20  32  48  72 104 140 175 214 251 298
#     4  11  20  34  51  71  98 127 165 204 250 308
#     4   9  17  30  47  70  99 132 171 206 245 297
#
# _framework density 17.109086000000001
#
# number of rings (size 3 to 8) (size 9 to 14) (size 15 to 20)
#    0.000    2.154    2.308    3.692    0.000    1.538 
#    0.000    0.000    0.000    0.462    0.000    0.538 
#    0.000    0.000    0.000    0.000    0.000    0.000 
#
# Total GULP energy -644213.246660 kJ/mol
# GULP energy per Si atom -12388.716282 kJ/mol
# Density = 1.707015 g / cm^3
# Si number density = 17.109086 Si / 1000 Ang^3
#
#
#
# Elastic Constant Matrix: (Units=GPa)
#
#
# Indices 1 2 3 4 5 6 
#
# 1 44.6118 19.0438 19.7966 0.0000 0.0000 0.0000
# 2 19.0438 142.0742 55.1622 0.0000 0.0000 0.0000
# 3 19.7966 55.1622 82.1845 0.0000 0.0000 0.0000
# 4 0.0000 0.0000 0.0000 23.5307 0.0000 0.0000
# 5 0.0000 0.0000 0.0000 0.0000 22.9253 0.0000
# 6 0.0000 0.0000 0.0000 0.0000 0.0000 21.7886
#
#
#
# Elastic Compliance Matrix: (Units=1/GPa)
#
#
# Indices 1 2 3 4 5 6 
#
# 1 0.025299 -0.001386 -0.005163 0.000000 0.000000 0.000000
# 2 -0.001386 0.009595 -0.006106 0.000000 0.000000 0.000000
# 3 -0.005163 -0.006106 0.017510 0.000000 0.000000 0.000000
# 4 0.000000 0.000000 0.000000 0.042498 0.000000 0.000000
# 5 0.000000 0.000000 0.000000 0.000000 0.043620 0.000000
# 6 0.000000 0.000000 0.000000 0.000000 0.000000 0.045896
#
#
# Mechanical properties :
#
#
# Convention : Reuss Voigt Hill
#
# Bulk Modulus (GPa) = 36.91158 50.76396 43.83777
# Shear Modulus (GPa) = 22.85606 25.30677 24.08142
#
# Velocity S-wave (km/s) = 3.65896 3.85013 3.75577
# Velocity P-wave (km/s) = 6.28266 7.03562 6.66977
#
# Compressibility (1/GPa) = 0.02709177
#
# Stress axis : x y z
#
# Youngs Moduli (GPa) = 39.52776 104.21775 57.10975
#
# Poissons Ratio (x) = 0.14447 0.29488
# Poissons Ratio (y) = 0.05480 0.34874
# Poissons Ratio (z) = 0.20410 0.63640
#
# Static dielectric constant tensor:
#      x y z
#    x 3.128170 0.000000 0.000000 
#    y 0.000000 3.627740 0.000000 
#    z 0.000000 0.000000 2.769540 
# 
# 
# High freq. dielectric constant tensor:
#      x y z
#    x 1.648380 0.000000 0.000000 
#    y 0.000000 1.674890 0.000000 
#    z 0.000000 0.000000 1.614830 
# 
# From -- ./inp_files/31810.got.cif
#   From: 2010.03.12/outbox.cif.g09.slc.cpg/sg51_16_cif.got.tgz:31810.got - 2010.04.16 13:43:02.
