data_PCOD8208043
_publ_section_title
;
Structure prediction by ZEFSAII (Michael W. Deem and Ramdas Pophale) SiO2 
 PCOD8208043
Probable space group: P M M A
;
_chemical_formula_sum "Si O2"
_cell_formula_units_Z 56
_cell_length_a 9.338993
_cell_length_b 22.319680
_cell_length_c 14.789003
_cell_angle_alpha 90.000000
_cell_angle_beta 90.000000
_cell_angle_gamma 90.000000
_cell_volume 3082.669111
_symmetry_space_group_name_H-M "P M M A"
_symmetry_group_IT_number 51
_symmetry_cell_setting 'orthorhombic'
loop_
_space_group_symop_operation_xyz
x,y,z
1/2-x,-y,z
1/2+x,-y,-z
-x,y,-z
-x,-y,-z
1/2+x,y,-z
1/2-x,y,z
x,-y,z
loop_
_atom_site_type_symbol
_atom_site_label
_atom_site_fract_x
_atom_site_fract_y
_atom_site_fract_z
Si Si1 0.916064 0.827029 0.218457
Si Si2 0.084291 0.067746 0.912265
Si Si3 0.917899 0.255170 0.911522
Si Si4 0.585804 0.210858 0.413457
Si Si5 0.085801 0.567662 0.280083
Si Si6 0.081784 0.349020 0.589328
Si Si7 0.413121 0.606109 0.084463
O O1 0.750000 0.808754 0.203173
O O2 0.950673 0.891604 0.174849
O O3 0.950357 0.829313 0.325548
O O4 0.018527 0.777529 0.175518
O O5 0.250000 0.071047 0.937924
O O6 0.037176 0.000000 0.887989
O O7 0.000000 0.091665 0.000000
O O8 0.750000 0.241173 0.921455
O O9 0.950850 0.324756 0.897094
O O10 0.000000 0.230707 0.000000
O O11 0.500000 0.186453 0.500000
O O12 0.750000 0.205380 0.440877
O O13 0.546545 0.279684 0.390966
O O14 0.250000 0.588838 0.296181
O O15 0.063698 0.500000 0.315465
O O16 0.049636 0.568803 0.173764
O O17 0.976648 0.611951 0.328418
O O18 0.250000 0.360660 0.577474
O O19 0.000000 0.370942 0.500000
O O20 0.250000 0.598675 0.056440
O O21 0.500000 0.579830 0.000000
#
# Coordination Sequence:
#
# PCOD8208043 Si02
#       7
#     8   8   8   8   8   8   8
#     4  10  19  31  49  73 100 128 162 203 243 284
#     4   9  18  32  49  70  99 135 170 202 237 278
#     4  10  19  30  46  70  99 128 158 194 240 292
#     4   9  19  34  52  75 100 126 157 197 243 291
#     4  10  21  36  52  71  96 125 159 199 240 284
#     4  10  20  35  55  76  98 124 155 193 241 294
#     4   9  19  34  50  69  95 127 160 196 239 286
#
# _framework density 18.166074999999999
#
# number of rings (size 3 to 8) (size 9 to 14) (size 15 to 20)
#    0.000    2.429    0.000    2.143    0.000    4.857 
#    0.000    0.000    0.000    0.429    0.000    0.000 
#    0.000    0.000    0.000    0.000    0.000    0.000 
#
# Total GULP energy -694498.320765 kJ/mol
# GULP energy per Si atom -12401.755728 kJ/mol
# Density = 1.812473 g / cm^3
# Si number density = 18.166075 Si / 1000 Ang^3
#
#
#
# Elastic Constant Matrix: (Units=GPa)
#
#
# Indices 1 2 3 4 5 6 
#
# 1 76.5510 34.2092 55.2923 0.0000 0.0000 0.0000
# 2 34.2092 58.7869 48.0919 0.0000 0.0000 0.0000
# 3 55.2923 48.0919 118.9361 0.0000 0.0000 0.0000
# 4 0.0000 0.0000 0.0000 18.3814 0.0000 0.0000
# 5 0.0000 0.0000 0.0000 0.0000 37.0436 0.0000
# 6 0.0000 0.0000 0.0000 0.0000 0.0000 15.0344
#
#
#
# Elastic Compliance Matrix: (Units=1/GPa)
#
#
# Indices 1 2 3 4 5 6 
#
# 1 0.021153 -0.006372 -0.007257 0.000000 0.000000 0.000000
# 2 -0.006372 0.027339 -0.008092 0.000000 0.000000 0.000000
# 3 -0.007257 -0.008092 0.015054 0.000000 0.000000 0.000000
# 4 0.000000 0.000000 0.000000 0.054403 0.000000 0.000000
# 5 0.000000 0.000000 0.000000 0.000000 0.026995 0.000000
# 6 0.000000 0.000000 0.000000 0.000000 0.000000 0.066514
#
#
# Mechanical properties :
#
#
# Convention : Reuss Voigt Hill
#
# Bulk Modulus (GPa) = 49.74581 58.82896 54.28739
# Shear Modulus (GPa) = 19.11314 21.87057 20.49185
#
# Velocity S-wave (km/s) = 3.24718 3.47353 3.36226
# Velocity P-wave (km/s) = 6.44222 6.96717 6.70983
#
# Compressibility (1/GPa) = 0.02010219
#
# Stress axis : x y z
#
# Youngs Moduli (GPa) = 47.27570 36.57836 66.42962
#
# Poissons Ratio (x) = 0.23309 0.48208
# Poissons Ratio (y) = 0.30126 0.53754
# Poissons Ratio (z) = 0.34308 0.29599
#
# Static dielectric constant tensor:
#      x y z
#    x 3.366500 0.000000 0.000000 
#    y 0.000000 3.266320 0.000000 
#    z 0.000000 0.000000 3.376960 
# 
# 
# High freq. dielectric constant tensor:
#      x y z
#    x 1.705260 0.000000 0.000000 
#    y 0.000000 1.685440 0.000000 
#    z 0.000000 0.000000 1.702020 
# 
# From -- ./inp_files/21724.got.cif
#   From: 2010.03.12/outbox.cif.g09.slc.cpg/sg51_11_cif.got.tgz:21724.got - 2010.04.16 13:43:02.
