data_PCOD8208525
_publ_section_title
;
Structure prediction by ZEFSAII (Michael W. Deem and Ramdas Pophale) SiO2 
 PCOD8208525
Probable space group: P M M A
;
_chemical_formula_sum "Si O2"
_cell_formula_units_Z 40
_cell_length_a 9.100173
_cell_length_b 7.699394
_cell_length_c 29.351871
_cell_angle_alpha 90.000000
_cell_angle_beta 90.000000
_cell_angle_gamma 90.000000
_cell_volume 2056.562834
_symmetry_space_group_name_H-M "P M M A"
_symmetry_group_IT_number 51
_symmetry_cell_setting 'orthorhombic'
loop_
_space_group_symop_operation_xyz
x,y,z
1/2-x,-y,z
1/2+x,-y,-z
-x,y,-z
-x,-y,-z
1/2+x,y,-z
1/2-x,y,z
x,-y,z
loop_
_atom_site_type_symbol
_atom_site_label
_atom_site_fract_x
_atom_site_fract_y
_atom_site_fract_z
Si Si1 0.075661 0.000000 0.213376
Si Si2 0.915934 0.793147 0.544146
Si Si3 0.579698 0.796319 0.365974
Si Si4 0.075450 0.000000 0.111867
Si Si5 0.577582 0.696751 0.953222
Si Si6 0.418091 0.306153 0.277349
O O1 0.007004 0.000000 0.162670
O O2 0.020383 0.171529 0.239914
O O3 0.250000 0.000000 0.209699
O O4 0.750000 0.721348 0.544128
O O5 0.000000 0.718836 0.500000
O O6 0.998056 0.725525 0.589183
O O7 0.917121 0.000000 0.542974
O O8 0.750000 0.750258 0.370978
O O9 0.514801 0.699363 0.322561
O O10 0.552952 0.000000 0.359547
O O11 0.020685 0.173097 0.085917
O O12 0.250000 0.000000 0.114727
O O13 0.750000 0.718357 0.961269
O O14 0.537367 0.500000 0.938516
O O15 0.500000 0.748829 0.000000
O O16 0.250000 0.258744 0.290103
O O17 0.428647 0.500000 0.256601
#
# Coordination Sequence:
#
# PCOD8208525 Si02
#       6
#     4   8   8   4   8   8
#     4   9  18  33  52  76 105 131 166 218 265 308
#     4   9  16  26  43  70 104 138 172 211 255 307
#     4  10  19  31  50  74 101 135 173 213 258 308
#     4   9  17  29  48  74 102 133 169 212 259 304
#     4   9  17  29  47  72 102 136 174 213 253 300
#     4  10  20  34  54  77 100 131 170 212 262 315
#
# _framework density 19.449928
#
# number of rings (size 3 to 8) (size 9 to 14) (size 15 to 20)
#    0.000    2.600    1.000    1.500    0.000    4.400 
#    0.000    4.000    0.000    3.000    0.000    2.800 
#    0.000    0.000    0.000    0.000    0.000    0.000 
#
# Total GULP energy -496009.794628 kJ/mol
# GULP energy per Si atom -12400.244866 kJ/mol
# Density = 1.940566 g / cm^3
# Si number density = 19.449928 Si / 1000 Ang^3
#
#
#
# Elastic Constant Matrix: (Units=GPa)
#
#
# Indices 1 2 3 4 5 6 
#
# 1 78.0166 29.7845 48.6349 0.0000 0.0000 0.0000
# 2 29.7845 103.3581 74.1501 0.0000 0.0000 0.0000
# 3 48.6349 74.1501 178.1324 0.0000 0.0000 0.0000
# 4 0.0000 0.0000 0.0000 3.3972 0.0000 0.0000
# 5 0.0000 0.0000 0.0000 0.0000 24.8520 0.0000
# 6 0.0000 0.0000 0.0000 0.0000 0.0000 12.8248
#
#
#
# Elastic Compliance Matrix: (Units=1/GPa)
#
#
# Indices 1 2 3 4 5 6 
#
# 1 0.015752 -0.002073 -0.003438 0.000000 0.000000 0.000000
# 2 -0.002073 0.014067 -0.005290 0.000000 0.000000 0.000000
# 3 -0.003438 -0.005290 0.008754 0.000000 0.000000 0.000000
# 4 0.000000 0.000000 0.000000 0.294358 0.000000 0.000000
# 5 0.000000 0.000000 0.000000 0.000000 0.040238 0.000000
# 6 0.000000 0.000000 0.000000 0.000000 0.000000 0.077974
#
#
# Mechanical properties :
#
#
# Convention : Reuss Voigt Hill
#
# Bulk Modulus (GPa) = 58.91756 73.84957 66.38357
# Shear Modulus (GPa) = 10.45143 22.01064 16.23104
#
# Velocity S-wave (km/s) = 2.32060 3.36766 2.89191
# Velocity P-wave (km/s) = 6.12682 7.29198 6.73465
#
# Compressibility (1/GPa) = 0.01697287
#
# Stress axis : x y z
#
# Youngs Moduli (GPa) = 63.48262 71.08633 114.22828
#
# Poissons Ratio (x) = 0.14736 0.39271
# Poissons Ratio (y) = 0.13159 0.60424
# Poissons Ratio (z) = 0.21825 0.37603
#
# Static dielectric constant tensor:
#      x y z
#    x 3.353740 0.000000 0.000000 
#    y 0.000000 3.490310 0.000000 
#    z 0.000000 0.000000 3.668640 
# 
# 
# High freq. dielectric constant tensor:
#      x y z
#    x 1.732870 0.000000 0.000000 
#    y 0.000000 1.752850 0.000000 
#    z 0.000000 0.000000 1.753050 
# 
# From -- ./inp_files/36056.got.cif
#   From: 2010.03.12/outbox.cif.g09.slc.cpg/sg51_19_cif.got.tgz:36056.got - 2010.04.16 13:43:02.
