data_PCOD8208721
_publ_section_title
;
Structure prediction by ZEFSAII (Michael W. Deem and Ramdas Pophale) SiO2 
 PCOD8208721
Probable space group: P M M A
;
_chemical_formula_sum "Si O2"
_cell_formula_units_Z 52
_cell_length_a 8.974378
_cell_length_b 21.667740
_cell_length_c 15.389263
_cell_angle_alpha 90.000000
_cell_angle_beta 90.000000
_cell_angle_gamma 90.000000
_cell_volume 2992.511275
_symmetry_space_group_name_H-M "P M M A"
_symmetry_group_IT_number 51
_symmetry_cell_setting 'orthorhombic'
loop_
_space_group_symop_operation_xyz
x,y,z
1/2-x,-y,z
1/2+x,-y,-z
-x,y,-z
-x,-y,-z
1/2+x,y,-z
1/2-x,y,z
x,-y,z
loop_
_atom_site_type_symbol
_atom_site_label
_atom_site_fract_x
_atom_site_fract_y
_atom_site_fract_z
Si Si1 0.081758 0.856880 0.414740
Si Si2 0.424355 0.929007 0.089326
Si Si3 0.925713 0.633856 0.905659
Si Si4 0.920674 0.500000 0.910120
Si Si5 0.418132 0.709912 0.414344
Si Si6 0.420708 0.289084 0.759577
Si Si7 0.920580 0.142863 0.241666
O O1 0.250000 0.882617 0.411499
O O2 0.082691 0.783370 0.417174
O O3 0.000000 0.883236 0.500000
O O4 0.992014 0.880946 0.331344
O O5 0.250000 0.917175 0.080612
O O6 0.488430 0.886692 0.164180
O O7 0.461304 0.000000 0.110653
O O8 0.500000 0.908294 0.000000
O O9 0.750000 0.646181 0.914848
O O10 0.958965 0.565316 0.863326
O O11 0.994851 0.683944 0.842159
O O12 0.000000 0.640780 0.000000
O O13 0.750000 0.500000 0.934917
O O14 0.000000 0.500000 0.000000
O O15 0.500000 0.683664 0.500000
O O16 0.250000 0.684051 0.412153
O O17 0.504138 0.686325 0.328962
O O18 0.250000 0.310883 0.759730
O O19 0.433899 0.215944 0.766191
O O20 0.750000 0.120927 0.238443
#
# Coordination Sequence:
#
# PCOD8208721 Si02
#       7
#     8   8   8   4   8   8   8
#     4   9  16  27  45  69  97 127 159 193 232 280
#     4  10  21  37  56  75  94 120 158 201 241 284
#     4  10  19  32  49  69  95 127 161 198 239 283
#     4   8  16  30  48  68  89 118 159 200 236 278
#     4   9  16  27  44  66  93 126 160 196 236 278
#     4  10  20  32  46  70 101 130 161 196 236 283
#     4  10  20  33  50  72  99 129 160 196 238 283
#
# _framework density 17.376709999999999
#
# number of rings (size 3 to 8) (size 9 to 14) (size 15 to 20)
#    0.000    2.462    0.000    2.769    0.000    7.692 
#    0.000    0.000    0.000    0.462    0.000    0.538 
#    0.000    0.000    0.000    0.000    0.000    0.000 
#
# Total GULP energy -644636.926594 kJ/mol
# GULP energy per Si atom -12396.863973 kJ/mol
# Density = 1.733716 g / cm^3
# Si number density = 17.376710 Si / 1000 Ang^3
#
#
#
# Elastic Constant Matrix: (Units=GPa)
#
#
# Indices 1 2 3 4 5 6 
#
# 1 126.8872 26.2322 67.7963 0.0000 0.0000 0.0000
# 2 26.2322 21.6343 30.2352 0.0000 0.0000 0.0000
# 3 67.7963 30.2352 138.8049 0.0000 0.0000 0.0000
# 4 0.0000 0.0000 0.0000 -1.6610 0.0000 0.0000
# 5 0.0000 0.0000 0.0000 0.0000 39.2280 0.0000
# 6 0.0000 0.0000 0.0000 0.0000 0.0000 14.8021
#
#
#
# Elastic Compliance Matrix: (Units=1/GPa)
#
#
# Indices 1 2 3 4 5 6 
#
# 1 0.011759 -0.008959 -0.003792 0.000000 0.000000 0.000000
# 2 -0.008959 0.073278 -0.011586 0.000000 0.000000 0.000000
# 3 -0.003792 -0.011586 0.011580 0.000000 0.000000 0.000000
# 4 0.000000 0.000000 0.000000 -0.602052 0.000000 0.000000
# 5 0.000000 0.000000 0.000000 0.000000 0.025492 0.000000
# 6 0.000000 0.000000 0.000000 0.000000 0.000000 0.067558
#
#
# Mechanical properties :
#
#
# Convention : Reuss Voigt Hill
#
# Bulk Modulus (GPa) = 20.85789 59.53932 40.19861
# Shear Modulus (GPa) = -14.37897 21.34466 3.48285
#
# Velocity S-wave (km/s) = -2.87973 3.50858 1.41728
# Velocity P-wave (km/s) = 0.98607 7.12403 5.08548
#
# Compressibility (1/GPa) = 0.04794348
#
# Stress axis : x y z
#
# Youngs Moduli (GPa) = 85.03939 13.64671 86.35366
#
# Poissons Ratio (x) = 0.12226 0.32746
# Poissons Ratio (y) = 0.76184 1.00050
# Poissons Ratio (z) = 0.32248 0.15811
#
# Static dielectric constant tensor:
#      x y z
#    x 3.565000 0.000000 0.000000 
#    y 0.000000 3.131750 0.000000 
#    z 0.000000 0.000000 14.116460 
# 
# 
# High freq. dielectric constant tensor:
#      x y z
#    x 1.694700 0.000000 0.000000 
#    y 0.000000 1.628440 0.000000 
#    z 0.000000 0.000000 1.672630 
# 
# From -- ./inp_files/21555.got.cif
#   From: 2010.03.12/outbox.cif.g09.slc.cpg/sg51_11_cif.got.tgz:21555.got - 2010.04.16 13:43:02.
