data_PCOD8208676
_publ_section_title
;
Structure prediction by ZEFSAII (Michael W. Deem and Ramdas Pophale) SiO2 
 PCOD8208676
Probable space group: P M M A
;
_chemical_formula_sum "Si O2"
_cell_formula_units_Z 64
_cell_length_a 8.921021
_cell_length_b 14.321395
_cell_length_c 25.918051
_cell_angle_alpha 90.000000
_cell_angle_beta 90.000000
_cell_angle_gamma 90.000000
_cell_volume 3311.328180
_symmetry_space_group_name_H-M "P M M A"
_symmetry_group_IT_number 51
_symmetry_cell_setting 'orthorhombic'
loop_
_space_group_symop_operation_xyz
x,y,z
1/2-x,-y,z
1/2+x,-y,-z
-x,y,-z
-x,-y,-z
1/2+x,y,-z
1/2-x,y,z
x,-y,z
loop_
_atom_site_type_symbol
_atom_site_label
_atom_site_fract_x
_atom_site_fract_y
_atom_site_fract_z
Si Si1 0.422348 0.604503 0.695686
Si Si2 0.078350 0.110762 0.858836
Si Si3 0.072943 0.223356 0.051818
Si Si4 0.917316 0.389271 0.797895
Si Si5 0.072198 0.103405 0.744678
Si Si6 0.073818 0.607560 0.901020
Si Si7 0.574014 0.106269 0.553104
Si Si8 0.576761 0.211904 0.355428
O O1 0.250000 0.603921 0.713484
O O2 0.473078 0.500000 0.678748
O O3 0.515464 0.644888 0.743777
O O4 0.445124 0.675790 0.648009
O O5 0.250000 0.142779 0.868120
O O6 0.021636 0.140456 0.801258
O O7 0.972049 0.159950 0.899898
O O8 0.064578 0.000000 0.864872
O O9 0.250000 0.224824 0.046035
O O10 0.011906 0.329186 0.057531
O O11 0.000000 0.180494 0.000000
O O12 0.750000 0.348360 0.805337
O O13 0.913612 0.500000 0.796837
O O14 0.022728 0.356248 0.844629
O O15 0.250000 0.097858 0.745558
O O16 0.016442 0.169276 0.698457
O O17 0.005688 0.000000 0.734693
O O18 0.250000 0.622397 0.906268
O O19 0.027897 0.500000 0.910409
O O20 0.500000 0.139802 0.500000
O O21 0.750000 0.115121 0.546581
O O22 0.521187 0.174312 0.598031
O O23 0.525501 0.000000 0.566116
O O24 0.750000 0.184884 0.364872
#
# Coordination Sequence:
#
# PCOD8208676 Si02
#       8
#     8   8   8   8   8   8   8   8
#     4   9  18  31  47  74 113 155 196 233 272 321
#     4   9  19  38  62  85 112 147 185 228 277 332
#     4  12  26  42  60  83 109 141 182 231 282 338
#     4   9  17  30  49  75 107 142 181 225 272 323
#     4   8  15  29  51  80 111 142 177 218 269 329
#     4  10  21  38  60  83 109 143 181 224 275 334
#     4  10  21  37  57  82 113 148 185 231 283 336
#     4  10  19  31  53  83 113 152 193 232 275 324
#
# _framework density 19.327591000000002
#
# number of rings (size 3 to 8) (size 9 to 14) (size 15 to 20)
#    0.000    2.375    0.000    3.375    1.750    4.750 
#    0.000    0.625    0.000    1.125    0.000    0.000 
#    0.000    0.000    0.000    0.000    0.000    0.000 
#
# Total GULP energy -793534.806569 kJ/mol
# GULP energy per Si atom -12398.981353 kJ/mol
# Density = 1.928360 g / cm^3
# Si number density = 19.327591 Si / 1000 Ang^3
#
#
#
# Elastic Constant Matrix: (Units=GPa)
#
#
# Indices 1 2 3 4 5 6 
#
# 1 92.1672 26.4403 47.7656 0.0000 0.0000 0.0000
# 2 26.4403 68.2339 53.6923 0.0000 0.0000 0.0000
# 3 47.7656 53.6923 128.5062 0.0000 0.0000 0.0000
# 4 0.0000 0.0000 0.0000 26.9846 0.0000 0.0000
# 5 0.0000 0.0000 0.0000 0.0000 33.9975 0.0000
# 6 0.0000 0.0000 0.0000 0.0000 0.0000 24.1469
#
#
#
# Elastic Compliance Matrix: (Units=1/GPa)
#
#
# Indices 1 2 3 4 5 6 
#
# 1 0.013606 -0.001926 -0.004253 0.000000 0.000000 0.000000
# 2 -0.001926 0.022107 -0.008521 0.000000 0.000000 0.000000
# 3 -0.004253 -0.008521 0.012923 0.000000 0.000000 0.000000
# 4 0.000000 0.000000 0.000000 0.037058 0.000000 0.000000
# 5 0.000000 0.000000 0.000000 0.000000 0.029414 0.000000
# 6 0.000000 0.000000 0.000000 0.000000 0.000000 0.041413
#
#
# Mechanical properties :
#
#
# Convention : Reuss Voigt Hill
#
# Bulk Modulus (GPa) = 51.98389 60.52261 56.25325
# Shear Modulus (GPa) = 25.99674 27.75973 26.87824
#
# Velocity S-wave (km/s) = 3.67148 3.79393 3.73321
# Velocity P-wave (km/s) = 6.70281 7.11154 6.91020
#
# Compressibility (1/GPa) = 0.01923673
#
# Stress axis : x y z
#
# Youngs Moduli (GPa) = 73.49509 45.23544 77.38397
#
# Poissons Ratio (x) = 0.08712 0.32910
# Poissons Ratio (y) = 0.14155 0.65936
# Poissons Ratio (z) = 0.31256 0.38544
#
# Static dielectric constant tensor:
#      x y z
#    x 3.411650 0.000000 0.000000 
#    y 0.000000 3.589930 0.000000 
#    z 0.000000 0.000000 3.484940 
# 
# 
# High freq. dielectric constant tensor:
#      x y z
#    x 1.738680 0.000000 0.000000 
#    y 0.000000 1.750540 0.000000 
#    z 0.000000 0.000000 1.738770 
# 
# From -- ./inp_files/34909.got.cif
#   From: 2010.03.12/outbox.cif.g09.slc.cpg/sg51_18_cif.got.tgz:34909.got - 2010.04.16 13:43:02.
