data_PCOD8208501
_publ_section_title
;
Structure prediction by ZEFSAII (Michael W. Deem and Ramdas Pophale) SiO2 
 PCOD8208501
Probable space group: P M M A
;
_chemical_formula_sum "Si O2"
_cell_formula_units_Z 56
_cell_length_a 23.892839
_cell_length_b 11.678606
_cell_length_c 11.325518
_cell_angle_alpha 90.000000
_cell_angle_beta 90.000000
_cell_angle_gamma 90.000000
_cell_volume 3160.216514
_symmetry_space_group_name_H-M "P M M A"
_symmetry_group_IT_number 51
_symmetry_cell_setting 'orthorhombic'
loop_
_space_group_symop_operation_xyz
x,y,z
1/2-x,-y,z
1/2+x,-y,-z
-x,y,-z
-x,-y,-z
1/2+x,y,-z
1/2-x,y,z
x,-y,z
loop_
_atom_site_type_symbol
_atom_site_label
_atom_site_fract_x
_atom_site_fract_y
_atom_site_fract_z
Si Si1 0.405804 0.230203 0.835751
Si Si2 0.583557 0.626802 0.699922
Si Si3 0.062895 0.366339 0.037803
Si Si4 0.975345 0.000000 0.135668
Si Si5 0.459349 0.000000 0.386107
Si Si6 0.458167 0.369845 0.641624
Si Si7 0.814179 0.866785 0.325189
Si Si8 0.609869 0.207052 0.526785
O O1 0.442755 0.329393 0.773280
O O2 0.346992 0.208406 0.770855
O O3 0.438045 0.111556 0.848551
O O4 0.394334 0.287489 0.962930
O O5 0.608326 0.500000 0.707031
O O6 0.572380 0.675440 0.829246
O O7 0.525161 0.628449 0.625983
O O8 0.628618 0.702415 0.627820
O O9 0.075953 0.500000 0.021479
O O10 0.000000 0.335791 0.000000
O O11 0.015858 0.000000 0.252157
O O12 0.000000 0.000000 0.000000
O O13 0.500000 0.000000 0.500000
O O14 0.421548 0.888952 0.398953
O O15 0.435265 0.500000 0.619189
O O16 0.431608 0.271384 0.562033
O O17 0.750000 0.828425 0.321471
O O18 0.837380 0.842974 0.456734
O O19 0.821551 0.000000 0.295489
#
# Coordination Sequence:
#
# PCOD8208501 Si02
#       8
#     8   8   8   4   4   8   8   8
#     4  11  20  35  54  79 110 146 187 228 273 325
#     4  10  19  31  49  77 111 149 179 207 256 324
#     4  10  19  32  52  78 113 154 187 211 251 327
#     4  12  26  34  50  87 128 161 178 212 282 347
#     4  12  22  34  50  79 118 153 182 218 270 335
#     4  10  19  31  51  77 110 149 183 218 261 326
#     4  10  21  41  60  76  99 135 191 244 289 331
#     4  11  21  33  52  77 105 139 181 229 278 325
#
# _framework density 17.720305
#
# number of rings (size 3 to 8) (size 9 to 14) (size 15 to 20)
#    0.000    1.429    2.857    5.143    2.000    1.143 
#    0.000    0.000    0.000   16.286    0.000    5.000 
#    0.000    0.000    0.000    0.000    0.000    0.000 
#
# Total GULP energy -693952.304815 kJ/mol
# GULP energy per Si atom -12392.005443 kJ/mol
# Density = 1.767997 g / cm^3
# Si number density = 17.720305 Si / 1000 Ang^3
#
#
#
# Elastic Constant Matrix: (Units=GPa)
#
#
# Indices 1 2 3 4 5 6 
#
# 1 66.7496 22.2475 33.2178 0.0000 0.0000 0.0000
# 2 22.2475 71.6500 28.5100 0.0000 0.0000 0.0000
# 3 33.2178 28.5100 100.1944 0.0000 0.0000 0.0000
# 4 0.0000 0.0000 0.0000 36.4374 0.0000 0.0000
# 5 0.0000 0.0000 0.0000 0.0000 14.2509 0.0000
# 6 0.0000 0.0000 0.0000 0.0000 0.0000 17.6723
#
#
#
# Elastic Compliance Matrix: (Units=1/GPa)
#
#
# Indices 1 2 3 4 5 6 
#
# 1 0.018811 -0.003788 -0.005159 0.000000 0.000000 0.000000
# 2 -0.003788 0.016502 -0.003440 0.000000 0.000000 0.000000
# 3 -0.005159 -0.003440 0.012670 0.000000 0.000000 0.000000
# 4 0.000000 0.000000 0.000000 0.027444 0.000000 0.000000
# 5 0.000000 0.000000 0.000000 0.000000 0.070171 0.000000
# 6 0.000000 0.000000 0.000000 0.000000 0.000000 0.056586
#
#
# Mechanical properties :
#
#
# Convention : Reuss Voigt Hill
#
# Bulk Modulus (GPa) = 43.08580 45.17164 44.12872
# Shear Modulus (GPa) = 21.30445 23.98004 22.64224
#
# Velocity S-wave (km/s) = 3.47113 3.68265 3.57845
# Velocity P-wave (km/s) = 6.35862 6.60525 6.48311
#
# Compressibility (1/GPa) = 0.02320950
#
# Stress axis : x y z
#
# Youngs Moduli (GPa) = 53.15995 60.60011 78.92941
#
# Poissons Ratio (x) = 0.22957 0.40716
# Poissons Ratio (y) = 0.20138 0.27148
# Poissons Ratio (z) = 0.27423 0.20844
#
# Static dielectric constant tensor:
#      x y z
#    x 2.826460 0.000000 0.000000 
#    y 0.000000 3.592950 0.000000 
#    z 0.000000 0.000000 3.712150 
# 
# 
# High freq. dielectric constant tensor:
#      x y z
#    x 1.614820 0.000000 0.000000 
#    y 0.000000 1.708200 0.000000 
#    z 0.000000 0.000000 1.706430 
# 
# From -- ./inp_files/18796.got.cif
#   From: 2010.03.12/outbox.cif.g09.slc.cpg/sg51_10_cif.got.tgz:18796.got - 2010.04.16 13:43:02.
