data_PCOD8208380
_publ_section_title
;
Structure prediction by ZEFSAII (Michael W. Deem and Ramdas Pophale) SiO2 
 PCOD8208380
Probable space group: P M M A
;
_chemical_formula_sum "Si O2"
_cell_formula_units_Z 64
_cell_length_a 8.800374
_cell_length_b 29.113384
_cell_length_c 13.849669
_cell_angle_alpha 90.000000
_cell_angle_beta 90.000000
_cell_angle_gamma 90.000000
_cell_volume 3548.405241
_symmetry_space_group_name_H-M "P M M A"
_symmetry_group_IT_number 51
_symmetry_cell_setting 'orthorhombic'
loop_
_space_group_symop_operation_xyz
x,y,z
1/2-x,-y,z
1/2+x,-y,-z
-x,y,-z
-x,-y,-z
1/2+x,y,-z
1/2-x,y,z
x,-y,z
loop_
_atom_site_type_symbol
_atom_site_label
_atom_site_fract_x
_atom_site_fract_y
_atom_site_fract_z
Si Si1 0.428042 0.134616 0.898458
Si Si2 0.930059 0.362217 0.396498
Si Si3 0.413602 0.446422 0.088367
Si Si4 0.931128 0.271317 0.606706
Si Si5 0.569614 0.551852 0.700052
Si Si6 0.073388 0.052087 0.205788
Si Si7 0.570278 0.814297 0.295653
Si Si8 0.928393 0.101873 0.599582
O O1 0.250000 0.132896 0.913121
O O2 0.482535 0.083900 0.868485
O O3 0.473105 0.170327 0.813481
O O4 0.500000 0.150461 0.000000
O O5 0.750000 0.358877 0.396214
O O6 0.000000 0.355773 0.500000
O O7 0.003549 0.318267 0.342589
O O8 0.979212 0.412333 0.362933
O O9 0.250000 0.422455 0.092633
O O10 0.393899 0.500000 0.066232
O O11 0.493891 0.440090 0.191538
O O12 0.500000 0.422059 0.000000
O O13 0.750000 0.273712 0.598509
O O14 0.000000 0.262096 0.500000
O O15 0.981945 0.232325 0.681355
O O16 0.750000 0.559836 0.694702
O O17 0.531307 0.500000 0.665569
O O18 0.250000 0.058720 0.182778
O O19 0.039853 0.064502 0.317295
O O20 0.020043 0.000000 0.188714
O O21 0.750000 0.807514 0.307594
O O22 0.513516 0.851346 0.372950
O O23 0.750000 0.111530 0.586758
O O24 0.000000 0.083015 0.500000
#
# Coordination Sequence:
#
# PCOD8208380 Si02
#       8
#     8   8   8   8   8   8   8   8
#     4  10  21  36  56  79 104 134 169 212 258 306
#     4  11  22  36  53  74 102 135 172 212 252 298
#     4   8  14  25  43  67  94 123 156 197 243 288
#     4  11  21  35  56  80 106 135 165 201 248 300
#     4   9  18  33  51  72 101 137 175 214 256 301
#     4   9  19  35  52  71  99 136 178 220 259 302
#     4  10  20  35  54  78 104 130 164 205 250 301
#     4  10  19  31  48  72 102 135 170 209 255 305
#
# _framework density 18.036270999999999
#
# number of rings (size 3 to 8) (size 9 to 14) (size 15 to 20)
#    0.000    2.250    0.000    5.250    0.000    3.750 
#    0.000    1.250    0.000    0.750    0.000    5.250 
#    0.000    0.000    0.000    0.000    0.000    0.000 
#
# Total GULP energy -793253.804847 kJ/mol
# GULP energy per Si atom -12394.590701 kJ/mol
# Density = 1.799522 g / cm^3
# Si number density = 18.036271 Si / 1000 Ang^3
#
#
#
# Elastic Constant Matrix: (Units=GPa)
#
#
# Indices 1 2 3 4 5 6 
#
# 1 100.8451 51.6321 30.7283 0.0000 0.0000 0.0000
# 2 51.6321 114.2889 37.0867 0.0000 0.0000 0.0000
# 3 30.7283 37.0867 67.8159 0.0000 0.0000 0.0000
# 4 0.0000 0.0000 0.0000 17.8287 0.0000 0.0000
# 5 0.0000 0.0000 0.0000 0.0000 31.8808 0.0000
# 6 0.0000 0.0000 0.0000 0.0000 0.0000 25.9685
#
#
#
# Elastic Compliance Matrix: (Units=1/GPa)
#
#
# Indices 1 2 3 4 5 6 
#
# 1 0.013510 -0.005005 -0.003384 0.000000 0.000000 0.000000
# 2 -0.005005 0.012492 -0.004564 0.000000 0.000000 0.000000
# 3 -0.003384 -0.004564 0.018775 0.000000 0.000000 0.000000
# 4 0.000000 0.000000 0.000000 0.056089 0.000000 0.000000
# 5 0.000000 0.000000 0.000000 0.000000 0.031367 0.000000
# 6 0.000000 0.000000 0.000000 0.000000 0.000000 0.038508
#
#
# Mechanical properties :
#
#
# Convention : Reuss Voigt Hill
#
# Bulk Modulus (GPa) = 52.99229 57.98267 55.48748
# Shear Modulus (GPa) = 24.63811 26.03579 25.33695
#
# Velocity S-wave (km/s) = 3.70000 3.80350 3.75210
# Velocity P-wave (km/s) = 6.90638 7.17679 7.04288
#
# Compressibility (1/GPa) = 0.01887067
#
# Stress axis : x y z
#
# Youngs Moduli (GPa) = 74.01886 80.05249 53.26238
#
# Poissons Ratio (x) = 0.40068 0.18026
# Poissons Ratio (y) = 0.37048 0.24306
# Poissons Ratio (z) = 0.25051 0.36532
#
# Static dielectric constant tensor:
#      x y z
#    x 3.529920 0.000000 0.000000 
#    y 0.000000 3.423110 0.000000 
#    z 0.000000 0.000000 3.355320 
# 
# 
# High freq. dielectric constant tensor:
#      x y z
#    x 1.707350 0.000000 0.000000 
#    y 0.000000 1.682200 0.000000 
#    z 0.000000 0.000000 1.690310 
# 
# From -- ./inp_files/14856.got.cif
#   From: 2010.03.12/outbox.cif.g09.slc.cpg/sg51_8_cif.got.tgz:14856.got - 2010.04.16 13:43:02.
