data_PCOD8208425
_publ_section_title
;
Structure prediction by ZEFSAII (Michael W. Deem and Ramdas Pophale) SiO2 
 PCOD8208425
Probable space group: P M M A
;
_chemical_formula_sum "Si O2"
_cell_formula_units_Z 40
_cell_length_a 14.972395
_cell_length_b 9.677507
_cell_length_c 14.449005
_cell_angle_alpha 90.000000
_cell_angle_beta 90.000000
_cell_angle_gamma 90.000000
_cell_volume 2093.595189
_symmetry_space_group_name_H-M "P M M A"
_symmetry_group_IT_number 51
_symmetry_cell_setting 'orthorhombic'
loop_
_space_group_symop_operation_xyz
x,y,z
1/2-x,-y,z
1/2+x,-y,-z
-x,y,-z
-x,-y,-z
1/2+x,y,-z
1/2-x,y,z
x,-y,z
loop_
_atom_site_type_symbol
_atom_site_label
_atom_site_fract_x
_atom_site_fract_y
_atom_site_fract_z
Si Si1 0.148875 0.163007 0.752978
Si Si2 0.006191 0.162065 0.897840
Si Si3 0.595370 0.843280 0.451500
Si Si4 0.353777 0.157824 0.238859
Si Si5 0.849850 0.349243 0.600659
O O1 0.250000 0.225122 0.756020
O O2 0.087800 0.225037 0.836276
O O3 0.098753 0.197952 0.656419
O O4 0.154878 0.000000 0.764196
O O5 0.910402 0.192517 0.851971
O O6 0.023800 0.000000 0.907063
O O7 0.000000 0.230108 0.000000
O O8 0.500000 0.826143 0.500000
O O9 0.656092 0.732059 0.503803
O O10 0.631504 0.000000 0.464483
O O11 0.250000 0.183874 0.215849
O O12 0.393945 0.252763 0.320764
O O13 0.369981 0.000000 0.271097
O O14 0.750000 0.376534 0.633675
O O15 0.898386 0.500000 0.592001
#
# Coordination Sequence:
#
# PCOD8208425 Si02
#       5
#     8   8   8   8   8
#     4   9  17  28  43  66  96 128 160 196 242 293
#     4   9  17  29  46  69  96 124 158 203 249 293
#     4  10  19  31  49  71  97 131 168 203 240 289
#     4   9  17  30  49  72  98 129 164 202 247 298
#     4  10  20  32  47  70  99 129 161 199 243 290
#
# _framework density 19.105889000000001
#
# number of rings (size 3 to 8) (size 9 to 14) (size 15 to 20)
#    0.000    2.600    0.000    2.400    0.000    6.400 
#    0.000    4.000    0.000    0.600    0.000    0.000 
#    0.000    3.200    0.000    0.000    0.000    0.000 
#
# Total GULP energy -495594.122169 kJ/mol
# GULP energy per Si atom -12389.853054 kJ/mol
# Density = 1.906240 g / cm^3
# Si number density = 19.105889 Si / 1000 Ang^3
#
#
#
# Elastic Constant Matrix: (Units=GPa)
#
#
# Indices 1 2 3 4 5 6 
#
# 1 101.0989 20.7676 64.3908 0.0000 0.0000 0.0000
# 2 20.7676 73.8185 50.0008 0.0000 0.0000 0.0000
# 3 64.3908 50.0008 179.2651 0.0000 0.0000 0.0000
# 4 0.0000 0.0000 0.0000 2.3547 0.0000 0.0000
# 5 0.0000 0.0000 0.0000 0.0000 30.0055 0.0000
# 6 0.0000 0.0000 0.0000 0.0000 0.0000 8.6919
#
#
#
# Elastic Compliance Matrix: (Units=1/GPa)
#
#
# Indices 1 2 3 4 5 6 
#
# 1 0.012847 -0.000602 -0.004447 0.000000 0.000000 0.000000
# 2 -0.000602 0.016730 -0.004450 0.000000 0.000000 0.000000
# 3 -0.004447 -0.004450 0.008417 0.000000 0.000000 0.000000
# 4 0.000000 0.000000 0.000000 0.424690 0.000000 0.000000
# 5 0.000000 0.000000 0.000000 0.000000 0.033327 0.000000
# 6 0.000000 0.000000 0.000000 0.000000 0.000000 0.115050
#
#
# Mechanical properties :
#
#
# Convention : Reuss Voigt Hill
#
# Bulk Modulus (GPa) = 52.64228 69.38900 61.01564
# Shear Modulus (GPa) = 7.85679 22.81197 15.33438
#
# Velocity S-wave (km/s) = 2.03006 3.45914 2.83609
# Velocity P-wave (km/s) = 5.75392 7.23541 6.53677
#
# Compressibility (1/GPa) = 0.01899614
#
# Stress axis : x y z
#
# Youngs Moduli (GPa) = 77.83849 59.77108 118.81096
#
# Poissons Ratio (x) = 0.03601 0.52830
# Poissons Ratio (y) = 0.04689 0.52872
# Poissons Ratio (z) = 0.34611 0.26599
#
# Static dielectric constant tensor:
#      x y z
#    x 3.594020 0.000000 0.000000 
#    y 0.000000 3.335020 0.000000 
#    z 0.000000 0.000000 3.647510 
# 
# 
# High freq. dielectric constant tensor:
#      x y z
#    x 1.744220 0.000000 0.000000 
#    y 0.000000 1.688240 0.000000 
#    z 0.000000 0.000000 1.740300 
# 
# From -- ./inp_files/23680.got.cif
#   From: 2010.03.12/outbox.cif.g09.slc.cpg/sg51_12_cif.got.tgz:23680.got - 2010.04.16 13:43:02.
