data_PCOD8208042
_publ_section_title
;
Structure prediction by ZEFSAII (Michael W. Deem and Ramdas Pophale) SiO2 
 PCOD8208042
Probable space group: P M M A
;
_chemical_formula_sum "Si O2"
_cell_formula_units_Z 56
_cell_length_a 8.902043
_cell_length_b 19.062342
_cell_length_c 18.736302
_cell_angle_alpha 90.000000
_cell_angle_beta 90.000000
_cell_angle_gamma 90.000000
_cell_volume 3179.434063
_symmetry_space_group_name_H-M "P M M A"
_symmetry_group_IT_number 51
_symmetry_cell_setting 'orthorhombic'
loop_
_space_group_symop_operation_xyz
x,y,z
1/2-x,-y,z
1/2+x,-y,-z
-x,y,-z
-x,-y,-z
1/2+x,y,-z
1/2-x,y,z
x,-y,z
loop_
_atom_site_type_symbol
_atom_site_label
_atom_site_fract_x
_atom_site_fract_y
_atom_site_fract_z
Si Si1 0.072917 0.286614 0.342319
Si Si2 0.575413 0.288320 0.075695
Si Si3 0.925939 0.575636 0.922990
Si Si4 0.074393 0.786998 0.784216
Si Si5 0.925992 0.076705 0.290537
Si Si6 0.574225 0.421537 0.574012
Si Si7 0.573695 0.836142 0.426527
O O1 0.250000 0.273780 0.342626
O O2 0.031510 0.366707 0.363461
O O3 0.010002 0.271052 0.263383
O O4 0.997887 0.236470 0.400714
O O5 0.750000 0.300805 0.061869
O O6 0.505715 0.358023 0.114097
O O7 0.546011 0.225841 0.131813
O O8 0.500000 0.269434 0.000000
O O9 0.750000 0.590739 0.930044
O O10 0.953446 0.500000 0.884037
O O11 0.000000 0.572038 0.000000
O O12 0.250000 0.781216 0.764559
O O13 0.012912 0.865091 0.765617
O O14 0.750000 0.069079 0.279435
O O15 0.962465 0.102389 0.370294
O O16 0.001651 0.000000 0.277706
O O17 0.500000 0.398024 0.500000
O O18 0.750000 0.420339 0.560043
O O19 0.520889 0.500000 0.596862
O O20 0.500000 0.860549 0.500000
O O21 0.750000 0.824424 0.436390
#
# Coordination Sequence:
#
# PCOD8208042 Si02
#       7
#     8   8   8   8   8   8   8
#     4  10  19  31  49  69  92 125 160 196 240 285
#     4  10  19  31  49  72  97 125 157 195 238 282
#     4   9  16  26  42  65  92 121 152 186 225 269
#     4   9  19  34  51  72  96 121 153 193 234 281
#     4   8  15  30  51  71  92 122 157 191 230 276
#     4   9  18  31  46  66  91 121 160 202 239 274
#     4  10  19  30  46  70  99 127 158 195 232 274
#
# _framework density 17.613198000000001
#
# number of rings (size 3 to 8) (size 9 to 14) (size 15 to 20)
#    0.000    2.714    0.000    3.857    0.000    4.571 
#    0.000    0.714    0.000   13.286    0.000    0.000 
#    0.000    0.000    0.000    0.000    0.000    0.571 
#
# Total GULP energy -693953.256631 kJ/mol
# GULP energy per Si atom -12392.022440 kJ/mol
# Density = 1.757311 g / cm^3
# Si number density = 17.613198 Si / 1000 Ang^3
#
#
#
# Elastic Constant Matrix: (Units=GPa)
#
#
# Indices 1 2 3 4 5 6 
#
# 1 76.2506 44.4762 40.0412 0.0000 0.0000 0.0000
# 2 44.4762 134.5466 66.0197 0.0000 0.0000 0.0000
# 3 40.0412 66.0197 95.9779 0.0000 0.0000 0.0000
# 4 0.0000 0.0000 0.0000 34.6573 0.0000 0.0000
# 5 0.0000 0.0000 0.0000 0.0000 24.3444 0.0000
# 6 0.0000 0.0000 0.0000 0.0000 0.0000 17.5787
#
#
#
# Elastic Compliance Matrix: (Units=1/GPa)
#
#
# Indices 1 2 3 4 5 6 
#
# 1 0.017753 -0.003373 -0.005086 0.000000 0.000000 0.000000
# 2 -0.003373 0.011860 -0.006751 0.000000 0.000000 0.000000
# 3 -0.005086 -0.006751 0.017185 0.000000 0.000000 0.000000
# 4 0.000000 0.000000 0.000000 0.028854 0.000000 0.000000
# 5 0.000000 0.000000 0.000000 0.000000 0.041077 0.000000
# 6 0.000000 0.000000 0.000000 0.000000 0.000000 0.056887
#
#
# Mechanical properties :
#
#
# Convention : Reuss Voigt Hill
#
# Bulk Modulus (GPa) = 61.05926 67.53883 64.29904
# Shear Modulus (GPa) = 23.86693 25.73193 24.79943
#
# Velocity S-wave (km/s) = 3.68511 3.82638 3.75641
# Velocity P-wave (km/s) = 7.26971 7.61252 7.44309
#
# Compressibility (1/GPa) = 0.01637753
#
# Stress axis : x y z
#
# Youngs Moduli (GPa) = 56.32879 84.31858 58.19103
#
# Poissons Ratio (x) = 0.28438 0.29599
# Poissons Ratio (y) = 0.18998 0.39284
# Poissons Ratio (z) = 0.28651 0.56922
#
# Static dielectric constant tensor:
#      x y z
#    x 3.267000 0.000000 0.000000 
#    y 0.000000 3.831430 0.000000 
#    z 0.000000 0.000000 3.041760 
# 
# 
# High freq. dielectric constant tensor:
#      x y z
#    x 1.677660 0.000000 0.000000 
#    y 0.000000 1.682120 0.000000 
#    z 0.000000 0.000000 1.653450 
# 
# From -- ./inp_files/32258.got.cif
#   From: 2010.03.12/outbox.cif.g09.slc.cpg/sg51_17_cif.got.tgz:32258.got - 2010.04.16 13:43:02.
