data_PCOD8208953
_publ_section_title
;
Structure prediction by ZEFSAII (Michael W. Deem and Ramdas Pophale) SiO2 
 PCOD8208953
Probable space group: P M M A
;
_chemical_formula_sum "Si O2"
_cell_formula_units_Z 64
_cell_length_a 9.005198
_cell_length_b 17.608623
_cell_length_c 20.693716
_cell_angle_alpha 90.000000
_cell_angle_beta 90.000000
_cell_angle_gamma 90.000000
_cell_volume 3281.384680
_symmetry_space_group_name_H-M "P M M A"
_symmetry_group_IT_number 51
_symmetry_cell_setting 'orthorhombic'
loop_
_space_group_symop_operation_xyz
x,y,z
1/2-x,-y,z
1/2+x,-y,-z
-x,y,-z
-x,-y,-z
1/2+x,y,-z
1/2-x,y,z
x,-y,z
loop_
_atom_site_type_symbol
_atom_site_label
_atom_site_fract_x
_atom_site_fract_y
_atom_site_fract_z
Si Si1 0.920911 0.586374 0.206906
Si Si2 0.577736 0.753367 0.562708
Si Si3 0.079083 0.083100 0.395517
Si Si4 0.424144 0.202803 0.063151
Si Si5 0.074007 0.289110 0.294315
Si Si6 0.084458 0.137707 0.723645
Si Si7 0.085398 0.915579 0.862095
Si Si8 0.926205 0.362998 0.065911
O O1 0.750000 0.611512 0.213224
O O2 0.945707 0.500000 0.229228
O O3 0.967754 0.591057 0.130995
O O4 0.014913 0.637818 0.255878
O O5 0.500000 0.716010 0.500000
O O6 0.750000 0.740351 0.553094
O O7 0.535406 0.843506 0.561922
O O8 0.526123 0.712530 0.629495
O O9 0.250000 0.091664 0.375293
O O10 0.983728 0.084856 0.331063
O O11 0.051092 0.000000 0.429400
O O12 0.250000 0.218214 0.054997
O O13 0.455302 0.141636 0.118081
O O14 0.508720 0.280154 0.079064
O O15 0.500000 0.166722 0.000000
O O16 0.250000 0.288199 0.287815
O O17 0.010223 0.213495 0.261563
O O18 0.250000 0.163517 0.703537
O O19 0.087582 0.083977 0.785238
O O20 0.250000 0.891119 0.887807
O O21 0.047217 0.000000 0.886800
O O22 0.750000 0.360109 0.054647
O O23 0.000000 0.397774 0.000000
#
# Coordination Sequence:
#
# PCOD8208953 Si02
#       8
#     8   8   8   8   8   8   8   8
#     4  10  22  39  59  86 118 148 178 215 261 313
#     4   9  19  34  52  77 107 141 184 230 276 326
#     4   9  18  32  48  70 106 145 178 221 274 321
#     4  11  22  36  54  73  95 127 170 216 261 313
#     4  10  21  37  57  82 111 143 180 223 270 322
#     4  10  19  32  52  76 101 134 177 220 263 316
#     4  10  21  35  49  68  97 130 167 217 271 318
#     4  10  20  36  58  83 113 147 181 217 257 307
#
# _framework density 19.503961
#
# number of rings (size 3 to 8) (size 9 to 14) (size 15 to 20)
#    0.000    2.125    0.000    4.875    0.000    9.500 
#    0.000    0.000    0.000    0.375    0.000    0.000 
#    0.000    0.000    0.000    0.000    0.000    0.000 
#
# Total GULP energy -793138.810835 kJ/mol
# GULP energy per Si atom -12392.793919 kJ/mol
# Density = 1.945957 g / cm^3
# Si number density = 19.503961 Si / 1000 Ang^3
#
#
#
# Elastic Constant Matrix: (Units=GPa)
#
#
# Indices 1 2 3 4 5 6 
#
# 1 85.6002 31.9427 44.9048 0.0000 0.0000 0.0000
# 2 31.9427 70.8586 36.8344 0.0000 0.0000 0.0000
# 3 44.9048 36.8344 93.4148 0.0000 0.0000 0.0000
# 4 0.0000 0.0000 0.0000 11.5089 0.0000 0.0000
# 5 0.0000 0.0000 0.0000 0.0000 33.7496 0.0000
# 6 0.0000 0.0000 0.0000 0.0000 0.0000 20.0557
#
#
#
# Elastic Compliance Matrix: (Units=1/GPa)
#
#
# Indices 1 2 3 4 5 6 
#
# 1 0.016552 -0.004183 -0.006307 0.000000 0.000000 0.000000
# 2 -0.004183 0.018808 -0.005406 0.000000 0.000000 0.000000
# 3 -0.006307 -0.005406 0.015868 0.000000 0.000000 0.000000
# 4 0.000000 0.000000 0.000000 0.086889 0.000000 0.000000
# 5 0.000000 0.000000 0.000000 0.000000 0.029630 0.000000
# 6 0.000000 0.000000 0.000000 0.000000 0.000000 0.049861
#
#
# Mechanical properties :
#
#
# Convention : Reuss Voigt Hill
#
# Bulk Modulus (GPa) = 51.44789 53.02640 52.23715
# Shear Modulus (GPa) = 19.54053 22.14229 20.84141
#
# Velocity S-wave (km/s) = 3.16867 3.37303 3.27245
# Velocity P-wave (km/s) = 6.31053 6.51278 6.41245
#
# Compressibility (1/GPa) = 0.01943714
#
# Stress axis : x y z
#
# Youngs Moduli (GPa) = 60.41659 53.16843 63.01879
#
# Poissons Ratio (x) = 0.22239 0.39747
# Poissons Ratio (y) = 0.25271 0.34065
# Poissons Ratio (z) = 0.38106 0.28740
#
# Static dielectric constant tensor:
#      x y z
#    x 3.618270 0.000000 0.000000 
#    y 0.000000 3.344230 0.000000 
#    z 0.000000 0.000000 3.704470 
# 
# 
# High freq. dielectric constant tensor:
#      x y z
#    x 1.763660 0.000000 0.000000 
#    y 0.000000 1.739180 0.000000 
#    z 0.000000 0.000000 1.755500 
# 
# From -- ./inp_files/32322.got.cif
#   From: 2010.03.12/outbox.cif.g09.slc.cpg/sg51_17_cif.got.tgz:32322.got - 2010.04.16 13:43:02.
