data_PCOD8208833
_publ_section_title
;
Structure prediction by ZEFSAII (Michael W. Deem and Ramdas Pophale) SiO2 
 PCOD8208833
Probable space group: P M M A
;
_chemical_formula_sum "Si O2"
_cell_formula_units_Z 64
_cell_length_a 9.045178
_cell_length_b 14.099342
_cell_length_c 31.101553
_cell_angle_alpha 90.000000
_cell_angle_beta 90.000000
_cell_angle_gamma 90.000000
_cell_volume 3966.413962
_symmetry_space_group_name_H-M "P M M A"
_symmetry_group_IT_number 51
_symmetry_cell_setting 'orthorhombic'
loop_
_space_group_symop_operation_xyz
x,y,z
1/2-x,-y,z
1/2+x,-y,-z
-x,y,-z
-x,-y,-z
1/2+x,y,-z
1/2-x,y,z
x,-y,z
loop_
_atom_site_type_symbol
_atom_site_label
_atom_site_fract_x
_atom_site_fract_y
_atom_site_fract_z
Si Si1 0.576920 0.391476 0.957174
Si Si2 0.912488 0.387600 0.459966
Si Si3 0.581784 0.105259 0.829516
Si Si4 0.078399 0.701512 0.130283
Si Si5 0.577630 0.389364 0.364687
Si Si6 0.078009 0.611194 0.789703
Si Si7 0.925174 0.283434 0.711145
Si Si8 0.578025 0.107824 0.258446
O O1 0.750000 0.382507 0.964347
O O2 0.529208 0.500000 0.948492
O O3 0.523707 0.328595 0.916908
O O4 0.500000 0.351516 0.000000
O O5 0.750000 0.343574 0.462714
O O6 0.905116 0.500000 0.465058
O O7 0.978594 0.363400 0.412932
O O8 0.000000 0.341857 0.500000
O O9 0.750000 0.113078 0.812083
O O10 0.553161 0.185061 0.865567
O O11 0.471732 0.125262 0.790448
O O12 0.553320 0.000000 0.849130
O O13 0.250000 0.674097 0.137016
O O14 0.982908 0.644290 0.164586
O O15 0.750000 0.362576 0.358753
O O16 0.555587 0.500000 0.355232
O O17 0.475028 0.331841 0.332721
O O18 0.250000 0.637634 0.786122
O O19 0.051764 0.500000 0.784586
O O20 0.990947 0.662902 0.751990
O O21 0.750000 0.284373 0.714453
O O22 0.985079 0.175744 0.710264
O O23 0.750000 0.133105 0.261772
O O24 0.546167 0.000000 0.272599
#
# Coordination Sequence:
#
# PCOD8208833 Si02
#       8
#     8   8   8   8   8   8   8   8
#     4   9  18  32  49  69  93 121 155 193 234 281
#     4   8  14  25  42  63  87 118 157 201 245 284
#     4   9  17  30  49  73  97 120 150 189 234 282
#     4  10  19  32  51  73  95 122 154 193 238 281
#     4   9  18  32  47  64  92 131 169 203 241 285
#     4  11  23  35  47  66  94 128 162 195 232 278
#     4  12  23  33  47  68  95 128 162 198 238 282
#     4  10  20  34  52  71  92 121 157 197 239 282
#
# _framework density 16.135480999999999
#
# number of rings (size 3 to 8) (size 9 to 14) (size 15 to 20)
#    0.000    2.250    1.250    3.375    0.000    5.000 
#    0.000    2.500    0.000    0.375    0.000    0.000 
#    0.000    0.500    0.000    1.625    0.000    2.000 
#
# Total GULP energy -793475.965822 kJ/mol
# GULP energy per Si atom -12398.061966 kJ/mol
# Density = 1.609876 g / cm^3
# Si number density = 16.135481 Si / 1000 Ang^3
#
#
#
# Elastic Constant Matrix: (Units=GPa)
#
#
# Indices 1 2 3 4 5 6 
#
# 1 93.0206 50.9950 60.6497 0.0000 0.0000 0.0000
# 2 50.9950 80.7501 52.5225 0.0000 0.0000 0.0000
# 3 60.6497 52.5225 123.7824 0.0000 0.0000 0.0000
# 4 0.0000 0.0000 0.0000 5.5772 0.0000 0.0000
# 5 0.0000 0.0000 0.0000 0.0000 29.7455 0.0000
# 6 0.0000 0.0000 0.0000 0.0000 0.0000 21.1173
#
#
#
# Elastic Compliance Matrix: (Units=1/GPa)
#
#
# Indices 1 2 3 4 5 6 
#
# 1 0.019088 -0.008247 -0.005853 0.000000 0.000000 0.000000
# 2 -0.008247 0.020668 -0.004729 0.000000 0.000000 0.000000
# 3 -0.005853 -0.004729 0.012953 0.000000 0.000000 0.000000
# 4 0.000000 0.000000 0.000000 0.179301 0.000000 0.000000
# 5 0.000000 0.000000 0.000000 0.000000 0.033619 0.000000
# 6 0.000000 0.000000 0.000000 0.000000 0.000000 0.047355
#
#
# Mechanical properties :
#
#
# Convention : Reuss Voigt Hill
#
# Bulk Modulus (GPa) = 66.44258 69.54304 67.99281
# Shear Modulus (GPa) = 14.05845 20.18039 17.11942
#
# Velocity S-wave (km/s) = 2.95494 3.54034 3.26080
# Velocity P-wave (km/s) = 7.27390 7.73983 7.51048
#
# Compressibility (1/GPa) = 0.01505059
#
# Stress axis : x y z
#
# Youngs Moduli (GPa) = 52.38970 48.38422 77.20237
#
# Poissons Ratio (x) = 0.39904 0.45187
# Poissons Ratio (y) = 0.43207 0.36507
# Poissons Ratio (z) = 0.30664 0.22880
#
# Static dielectric constant tensor:
#      x y z
#    x 3.159940 0.000000 0.000000 
#    y 0.000000 3.112280 0.000000 
#    z 0.000000 0.000000 3.075040 
# 
# 
# High freq. dielectric constant tensor:
#      x y z
#    x 1.625150 0.000000 0.000000 
#    y 0.000000 1.603760 0.000000 
#    z 0.000000 0.000000 1.607230 
# 
# From -- ./inp_files/37641.got.cif
#   From: 2010.03.12/outbox.cif.g09.slc.cpg/sg51_19_cif.got.tgz:37641.got - 2010.04.16 13:43:02.
