data_PCOD8208628
_publ_section_title
;
Structure prediction by ZEFSAII (Michael W. Deem and Ramdas Pophale) SiO2 
 PCOD8208628
Probable space group: P M M A
;
_chemical_formula_sum "Si O2"
_cell_formula_units_Z 64
_cell_length_a 9.035224
_cell_length_b 28.192933
_cell_length_c 13.762897
_cell_angle_alpha 90.000000
_cell_angle_beta 90.000000
_cell_angle_gamma 90.000000
_cell_volume 3505.815388
_symmetry_space_group_name_H-M "P M M A"
_symmetry_group_IT_number 51
_symmetry_cell_setting 'orthorhombic'
loop_
_space_group_symop_operation_xyz
x,y,z
1/2-x,-y,z
1/2+x,-y,-z
-x,y,-z
-x,-y,-z
1/2+x,y,-z
1/2-x,y,z
x,-y,z
loop_
_atom_site_type_symbol
_atom_site_label
_atom_site_fract_x
_atom_site_fract_y
_atom_site_fract_z
Si Si1 0.420848 0.777586 0.726842
Si Si2 0.916292 0.943708 0.093790
Si Si3 0.076605 0.133641 0.597562
Si Si4 0.422892 0.730961 0.102935
Si Si5 0.422383 0.360195 0.227295
Si Si6 0.576999 0.446624 0.901028
Si Si7 0.576648 0.687372 0.397336
Si Si8 0.922774 0.055286 0.710643
O O1 0.250000 0.771677 0.755859
O O2 0.454785 0.829061 0.683125
O O3 0.517636 0.771246 0.823620
O O4 0.464498 0.738794 0.645785
O O5 0.750000 0.922717 0.099296
O O6 0.006820 0.927901 0.188000
O O7 0.909179 0.000000 0.085800
O O8 0.000000 0.922525 0.000000
O O9 0.250000 0.126643 0.578981
O O10 0.000000 0.152777 0.500000
O O11 0.003192 0.083479 0.624782
O O12 0.250000 0.738671 0.088429
O O13 0.460851 0.679472 0.146897
O O14 0.500000 0.736667 0.000000
O O15 0.250000 0.358110 0.254788
O O16 0.469999 0.411188 0.184857
O O17 0.516824 0.352857 0.324455
O O18 0.750000 0.442860 0.920846
O O19 0.529795 0.500000 0.871045
O O20 0.500000 0.430549 0.000000
O O21 0.500000 0.681017 0.500000
O O22 0.750000 0.680542 0.411302
O O23 0.750000 0.067315 0.712673
O O24 0.951711 0.000000 0.691597
#
# Coordination Sequence:
#
# PCOD8208628 Si02
#       8
#     8   8   8   8   8   8   8   8
#     4   9  20  37  55  77 104 133 166 203 246 299
#     4   9  16  28  49  76 104 133 164 199 240 285
#     4  11  23  39  59  80 103 132 166 206 251 300
#     4  10  19  31  51  77 107 141 172 207 250 299
#     4   9  18  31  47  71 102 136 174 213 256 304
#     4   9  17  29  46  69  99 135 173 214 258 304
#     4  10  19  32  52  76 101 129 163 207 256 304
#     4  10  21  37  56  79 107 137 170 208 248 292
#
# _framework density 18.255382999999998
#
# number of rings (size 3 to 8) (size 9 to 14) (size 15 to 20)
#    0.000    2.375    0.000    2.625    0.000    5.000 
#    0.000    0.625    0.000    3.375    0.000    0.000 
#    0.000    0.000    0.000    0.000    0.000    0.000 
#
# Total GULP energy -793780.490792 kJ/mol
# GULP energy per Si atom -12402.820169 kJ/mol
# Density = 1.821383 g / cm^3
# Si number density = 18.255383 Si / 1000 Ang^3
#
#
#
# Elastic Constant Matrix: (Units=GPa)
#
#
# Indices 1 2 3 4 5 6 
#
# 1 111.1129 46.0097 73.9351 0.0000 0.0000 0.0000
# 2 46.0097 73.8688 48.8221 0.0000 0.0000 0.0000
# 3 73.9351 48.8221 135.8407 0.0000 0.0000 0.0000
# 4 0.0000 0.0000 0.0000 19.3185 0.0000 0.0000
# 5 0.0000 0.0000 0.0000 0.0000 39.4395 0.0000
# 6 0.0000 0.0000 0.0000 0.0000 0.0000 22.2749
#
#
#
# Elastic Compliance Matrix: (Units=1/GPa)
#
#
# Indices 1 2 3 4 5 6 
#
# 1 0.015585 -0.005378 -0.006550 0.000000 0.000000 0.000000
# 2 -0.005378 0.019611 -0.004121 0.000000 0.000000 0.000000
# 3 -0.006550 -0.004121 0.012407 0.000000 0.000000 0.000000
# 4 0.000000 0.000000 0.000000 0.051764 0.000000 0.000000
# 5 0.000000 0.000000 0.000000 0.000000 0.025355 0.000000
# 6 0.000000 0.000000 0.000000 0.000000 0.000000 0.044894
#
#
# Mechanical properties :
#
#
# Convention : Reuss Voigt Hill
#
# Bulk Modulus (GPa) = 64.49253 73.15068 68.82161
# Shear Modulus (GPa) = 24.16822 26.34361 25.25591
#
# Velocity S-wave (km/s) = 3.64248 3.80288 3.72355
# Velocity P-wave (km/s) = 7.28663 7.70975 7.50117
#
# Compressibility (1/GPa) = 0.01550567
#
# Stress axis : x y z
#
# Youngs Moduli (GPa) = 64.16396 50.99112 80.59659
#
# Poissons Ratio (x) = 0.27425 0.52787
# Poissons Ratio (y) = 0.34510 0.33214
# Poissons Ratio (z) = 0.42024 0.21014
#
# Static dielectric constant tensor:
#      x y z
#    x 3.473150 0.000000 0.000000 
#    y 0.000000 3.273610 0.000000 
#    z 0.000000 0.000000 3.321670 
# 
# 
# High freq. dielectric constant tensor:
#      x y z
#    x 1.718040 0.000000 0.000000 
#    y 0.000000 1.686600 0.000000 
#    z 0.000000 0.000000 1.706800 
# 
# From -- ./inp_files/14846.got.cif
#   From: 2010.03.12/outbox.cif.g09.slc.cpg/sg51_8_cif.got.tgz:14846.got - 2010.04.16 13:43:02.
