data_PCOD8208869
_publ_section_title
;
Structure prediction by ZEFSAII (Michael W. Deem and Ramdas Pophale) SiO2 
 PCOD8208869
Probable space group: P M M A
;
_chemical_formula_sum "Si O2"
_cell_formula_units_Z 64
_cell_length_a 24.784290
_cell_length_b 8.842325
_cell_length_c 15.005060
_cell_angle_alpha 90.000000
_cell_angle_beta 90.000000
_cell_angle_gamma 90.000000
_cell_volume 3288.370109
_symmetry_space_group_name_H-M "P M M A"
_symmetry_group_IT_number 51
_symmetry_cell_setting 'orthorhombic'
loop_
_space_group_symop_operation_xyz
x,y,z
1/2-x,-y,z
1/2+x,-y,-z
-x,y,-z
-x,-y,-z
1/2+x,y,-z
1/2-x,y,z
x,-y,z
loop_
_atom_site_type_symbol
_atom_site_label
_atom_site_fract_x
_atom_site_fract_y
_atom_site_fract_z
Si Si1 0.312365 0.326875 0.864774
Si Si2 0.133332 0.825571 0.541291
Si Si3 0.309568 0.819612 0.371785
Si Si4 0.687574 0.672840 0.929615
Si Si5 0.614995 0.822500 0.788069
Si Si6 0.893728 0.178329 0.264479
Si Si7 0.048077 0.662260 0.437694
Si Si8 0.507556 0.322209 0.751999
O O1 0.250000 0.291085 0.845667
O O2 0.325587 0.500000 0.839321
O O3 0.347473 0.213752 0.806100
O O4 0.326322 0.297283 0.967517
O O5 0.180278 0.763161 0.474545
O O6 0.126143 0.750901 0.639512
O O7 0.080573 0.797645 0.482459
O O8 0.142947 0.000000 0.558704
O O9 0.250000 0.761491 0.343133
O O10 0.355357 0.758746 0.302518
O O11 0.311530 0.000000 0.369166
O O12 0.750000 0.706922 0.911252
O O13 0.673788 0.500000 0.904071
O O14 0.653016 0.787719 0.871432
O O15 0.557196 0.744790 0.809520
O O16 0.605887 0.000000 0.780552
O O17 0.949379 0.249778 0.228340
O O18 0.902506 0.000000 0.272578
O O19 0.079807 0.500000 0.423888
O O20 0.023839 0.725336 0.346937
O O21 0.000000 0.618710 0.500000
O O22 0.502816 0.500000 0.768910
#
# Coordination Sequence:
#
# PCOD8208869 Si02
#       8
#     8   8   8   8   8   8   8   8
#     4   9  20  41  66  87 111 147 187 229 281 340
#     4  10  20  33  51  75 107 148 187 228 277 329
#     4   9  18  32  49  73 109 150 187 223 272 335
#     4   9  19  38  63  88 113 145 187 231 279 340
#     4  11  21  34  56  85 116 149 187 234 285 337
#     4  11  23  36  56  87 117 149 190 239 286 330
#     4  10  19  32  51  75 102 140 190 238 275 315
#     4  11  22  36  55  79 113 155 193 234 282 338
#
# _framework density 19.462529
#
# number of rings (size 3 to 8) (size 9 to 14) (size 15 to 20)
#    0.000    2.000    2.500    2.250    0.000    3.250 
#    0.000    3.125    0.000    4.875    0.000    0.000 
#    0.000    0.000    0.000    0.000    0.000    0.000 
#
# Total GULP energy -793029.501516 kJ/mol
# GULP energy per Si atom -12391.085961 kJ/mol
# Density = 1.941823 g / cm^3
# Si number density = 19.462529 Si / 1000 Ang^3
#
#
#
# Elastic Constant Matrix: (Units=GPa)
#
#
# Indices 1 2 3 4 5 6 
#
# 1 108.7093 33.2044 45.3642 0.0000 0.0000 0.0000
# 2 33.2044 52.9854 27.1972 0.0000 0.0000 0.0000
# 3 45.3642 27.1972 79.9091 0.0000 0.0000 0.0000
# 4 0.0000 0.0000 0.0000 27.3390 0.0000 0.0000
# 5 0.0000 0.0000 0.0000 0.0000 29.7916 0.0000
# 6 0.0000 0.0000 0.0000 0.0000 0.0000 32.0385
#
#
#
# Elastic Compliance Matrix: (Units=1/GPa)
#
#
# Indices 1 2 3 4 5 6 
#
# 1 0.013203 -0.005364 -0.005670 0.000000 0.000000 0.000000
# 2 -0.005364 0.025047 -0.005480 0.000000 0.000000 0.000000
# 3 -0.005670 -0.005480 0.017598 0.000000 0.000000 0.000000
# 4 0.000000 0.000000 0.000000 0.036578 0.000000 0.000000
# 5 0.000000 0.000000 0.000000 0.000000 0.033567 0.000000
# 6 0.000000 0.000000 0.000000 0.000000 0.000000 0.031212
#
#
# Mechanical properties :
#
#
# Convention : Reuss Voigt Hill
#
# Bulk Modulus (GPa) = 43.81828 50.34838 47.08333
# Shear Modulus (GPa) = 25.27303 26.88969 26.08136
#
# Velocity S-wave (km/s) = 3.60745 3.72104 3.66468
# Velocity P-wave (km/s) = 6.31780 6.66236 6.49237
#
# Compressibility (1/GPa) = 0.02282153
#
# Stress axis : x y z
#
# Youngs Moduli (GPa) = 75.73938 39.92457 56.82438
#
# Poissons Ratio (x) = 0.21414 0.32219
# Poissons Ratio (y) = 0.40624 0.31139
# Poissons Ratio (z) = 0.42943 0.21878
#
# Static dielectric constant tensor:
#      x y z
#    x 3.614600 0.000000 0.000000 
#    y 0.000000 3.346920 0.000000 
#    z 0.000000 0.000000 3.541090 
# 
# 
# High freq. dielectric constant tensor:
#      x y z
#    x 1.756360 0.000000 0.000000 
#    y 0.000000 1.742620 0.000000 
#    z 0.000000 0.000000 1.750000 
# 
# From -- ./inp_files/26182.got.cif
#   From: 2010.03.12/outbox.cif.g09.slc.cpg/sg51_14_cif.got.tgz:26182.got - 2010.04.16 13:43:02.
