data_PCOD8208514
_publ_section_title
;
Structure prediction by ZEFSAII (Michael W. Deem and Ramdas Pophale) SiO2 
 PCOD8208514
Probable space group: P M M A
;
_chemical_formula_sum "Si O2"
_cell_formula_units_Z 52
_cell_length_a 9.030456
_cell_length_b 15.066489
_cell_length_c 23.197857
_cell_angle_alpha 90.000000
_cell_angle_beta 90.000000
_cell_angle_gamma 90.000000
_cell_volume 3156.237000
_symmetry_space_group_name_H-M "P M M A"
_symmetry_group_IT_number 51
_symmetry_cell_setting 'orthorhombic'
loop_
_space_group_symop_operation_xyz
x,y,z
1/2-x,-y,z
1/2+x,-y,-z
-x,y,-z
-x,-y,-z
1/2+x,y,-z
1/2-x,y,z
x,-y,z
loop_
_atom_site_type_symbol
_atom_site_label
_atom_site_fract_x
_atom_site_fract_y
_atom_site_fract_z
Si Si1 0.576783 0.500000 0.060538
Si Si2 0.918927 0.663346 0.889579
Si Si3 0.577279 0.100886 0.817213
Si Si4 0.926167 0.264246 0.222045
Si Si5 0.074135 0.400896 0.679753
Si Si6 0.582962 0.846286 0.942709
Si Si7 0.587555 0.395216 0.446319
O O1 0.750000 0.500000 0.050816
O O2 0.530212 0.414371 0.095535
O O3 0.500000 0.500000 0.000000
O O4 0.750000 0.629066 0.883681
O O5 0.927662 0.739525 0.938100
O O6 0.976630 0.699774 0.829760
O O7 0.750000 0.130036 0.814822
O O8 0.479649 0.161521 0.773253
O O9 0.519287 0.111056 0.883480
O O10 0.555863 0.000000 0.796775
O O11 0.750000 0.269905 0.211157
O O12 0.974999 0.323476 0.276703
O O13 0.250000 0.405380 0.675281
O O14 0.017443 0.500000 0.698885
O O15 0.011334 0.376029 0.616036
O O16 0.750000 0.878820 0.950519
O O17 0.500000 0.879572 0.000000
O O18 0.500000 0.352108 0.500000
O O19 0.750000 0.351808 0.447883
O O20 0.599451 0.500000 0.454853
#
# Coordination Sequence:
#
# PCOD8208514 Si02
#       7
#     4   8   8   8   8   8   8
#     4  12  24  36  50  68  88 116 155 196 237 282
#     4  10  21  36  49  64  90 122 153 189 232 279
#     4   9  19  36  52  65  89 123 150 181 237 296
#     4  10  19  31  50  73  94 119 156 198 233 275
#     4   8  15  27  43  65  96 131 160 187 228 276
#     4   9  18  31  48  67  87 110 138 174 221 277
#     4   8  13  23  39  59  87 124 161 192 221 258
#
# _framework density 16.475315999999999
#
# number of rings (size 3 to 8) (size 9 to 14) (size 15 to 20)
#    0.000    2.769    0.000    3.923    1.077    4.923 
#    0.000    1.538    0.000    1.846    0.000    0.000 
#    0.000    0.615    0.000    1.385    0.000    2.462 
#
# Total GULP energy -644374.498758 kJ/mol
# GULP energy per Si atom -12391.817284 kJ/mol
# Density = 1.643782 g / cm^3
# Si number density = 16.475316 Si / 1000 Ang^3
#
#
#
# Elastic Constant Matrix: (Units=GPa)
#
#
# Indices 1 2 3 4 5 6 
#
# 1 69.2455 25.4218 30.0469 0.0000 0.0000 0.0000
# 2 25.4218 78.1038 36.0483 0.0000 0.0000 0.0000
# 3 30.0469 36.0483 92.5854 0.0000 0.0000 0.0000
# 4 0.0000 0.0000 0.0000 11.9342 0.0000 0.0000
# 5 0.0000 0.0000 0.0000 0.0000 22.8997 0.0000
# 6 0.0000 0.0000 0.0000 0.0000 0.0000 21.7440
#
#
#
# Elastic Compliance Matrix: (Units=1/GPa)
#
#
# Indices 1 2 3 4 5 6 
#
# 1 0.017682 -0.003787 -0.004264 0.000000 0.000000 0.000000
# 2 -0.003787 0.016420 -0.005164 0.000000 0.000000 0.000000
# 3 -0.004264 -0.005164 0.014195 0.000000 0.000000 0.000000
# 4 0.000000 0.000000 0.000000 0.083793 0.000000 0.000000
# 5 0.000000 0.000000 0.000000 0.000000 0.043669 0.000000
# 6 0.000000 0.000000 0.000000 0.000000 0.000000 0.045990
#
#
# Mechanical properties :
#
#
# Convention : Reuss Voigt Hill
#
# Bulk Modulus (GPa) = 45.73165 46.99652 46.36409
# Shear Modulus (GPa) = 19.57204 21.21010 20.39107
#
# Velocity S-wave (km/s) = 3.45042 3.59191 3.52188
# Velocity P-wave (km/s) = 6.60998 6.76681 6.68886
#
# Compressibility (1/GPa) = 0.02186669
#
# Stress axis : x y z
#
# Youngs Moduli (GPa) = 56.55502 60.90302 70.44670
#
# Poissons Ratio (x) = 0.23066 0.30037
# Poissons Ratio (y) = 0.21419 0.36378
# Poissons Ratio (z) = 0.24114 0.31450
#
# Static dielectric constant tensor:
#      x y z
#    x 3.020750 0.000000 0.000000 
#    y 0.000000 3.137780 0.000000 
#    z 0.000000 0.000000 3.269940 
# 
# 
# High freq. dielectric constant tensor:
#      x y z
#    x 1.625200 0.000000 0.000000 
#    y 0.000000 1.612560 0.000000 
#    z 0.000000 0.000000 1.616600 
# 
# From -- ./inp_files/34712.got.cif
#   From: 2010.03.12/outbox.cif.g09.slc.cpg/sg51_18_cif.got.tgz:34712.got - 2010.04.16 13:43:02.
