data_PCOD8208977
_publ_section_title
;
Structure prediction by ZEFSAII (Michael W. Deem and Ramdas Pophale) SiO2 
 PCOD8208977
Probable space group: P M M A
;
_chemical_formula_sum "Si O2"
_cell_formula_units_Z 64
_cell_length_a 15.896163
_cell_length_b 14.391425
_cell_length_c 16.987212
_cell_angle_alpha 90.000000
_cell_angle_beta 90.000000
_cell_angle_gamma 90.000000
_cell_volume 3886.137948
_symmetry_space_group_name_H-M "P M M A"
_symmetry_group_IT_number 51
_symmetry_cell_setting 'orthorhombic'
loop_
_space_group_symop_operation_xyz
x,y,z
1/2-x,-y,z
1/2+x,-y,-z
-x,y,-z
-x,-y,-z
1/2+x,y,-z
1/2-x,y,z
x,-y,z
loop_
_atom_site_type_symbol
_atom_site_label
_atom_site_fract_x
_atom_site_fract_y
_atom_site_fract_z
Si Si1 0.006133 0.891045 0.591506
Si Si2 0.843852 0.889704 0.685573
Si Si3 0.650986 0.794410 0.314186
Si Si4 0.652567 0.105971 0.150132
Si Si5 0.150414 0.602444 0.748393
Si Si6 0.153131 0.599540 0.922163
Si Si7 0.093722 0.220813 0.994292
Si Si8 0.652082 0.897489 0.862334
O O1 0.090775 0.841918 0.622188
O O2 0.000000 0.868909 0.500000
O O3 0.919583 0.851979 0.630669
O O4 0.015868 0.000000 0.608742
O O5 0.750000 0.851332 0.661235
O O6 0.866057 0.859410 0.774665
O O7 0.839555 0.000000 0.680758
O O8 0.750000 0.807569 0.337306
O O9 0.632668 0.839963 0.229777
O O10 0.622941 0.685945 0.309647
O O11 0.750000 0.113142 0.127991
O O12 0.602822 0.148954 0.077233
O O13 0.623444 0.000000 0.161430
O O14 0.250000 0.606558 0.752723
O O15 0.120873 0.500000 0.717563
O O16 0.112555 0.620814 0.836069
O O17 0.250000 0.585803 0.905928
O O18 0.117217 0.500000 0.954656
O O19 0.143997 0.683857 0.982609
O O20 0.116823 0.175428 0.076514
O O21 0.000000 0.255492 0.000000
O O22 0.750000 0.907663 0.876898
O O23 0.610682 0.000000 0.874147
#
# Coordination Sequence:
#
# PCOD8208977 Si02
#       8
#     8   8   8   8   8   8   8   8
#     4  10  21  34  50  73 102 134 163 198 243 297
#     4   8  16  32  51  67  87 123 169 211 242 272
#     4  10  19  32  52  77 105 132 161 199 250 305
#     4  10  20  33  47  65  95 133 165 197 237 285
#     4   8  14  27  50  75  95 122 162 203 245 295
#     4   9  17  32  51  65  85 122 164 204 245 290
#     4  12  23  29  41  67  97 128 161 201 246 287
#     4   9  18  32  47  62  85 122 166 206 235 268
#
# _framework density 16.468792000000001
#
# number of rings (size 3 to 8) (size 9 to 14) (size 15 to 20)
#    0.000    2.500    1.250    3.375    1.750    3.500 
#    0.000    1.250    0.000    0.375    0.000    0.000 
#    0.000    0.500    0.000    0.250    0.000    0.000 
#
# Total GULP energy -793003.694284 kJ/mol
# GULP energy per Si atom -12390.682723 kJ/mol
# Density = 1.643131 g / cm^3
# Si number density = 16.468792 Si / 1000 Ang^3
#
#
#
# Elastic Constant Matrix: (Units=GPa)
#
#
# Indices 1 2 3 4 5 6 
#
# 1 68.4438 34.9302 49.3621 0.0000 0.0000 0.0000
# 2 34.9302 97.6534 39.3856 0.0000 0.0000 0.0000
# 3 49.3621 39.3856 83.5934 0.0000 0.0000 0.0000
# 4 0.0000 0.0000 0.0000 -6.9977 0.0000 0.0000
# 5 0.0000 0.0000 0.0000 0.0000 25.9499 0.0000
# 6 0.0000 0.0000 0.0000 0.0000 0.0000 8.2021
#
#
#
# Elastic Compliance Matrix: (Units=1/GPa)
#
#
# Indices 1 2 3 4 5 6 
#
# 1 0.026615 -0.003928 -0.013866 0.000000 0.000000 0.000000
# 2 -0.003928 0.013222 -0.003910 0.000000 0.000000 0.000000
# 3 -0.013866 -0.003910 0.021993 0.000000 0.000000 0.000000
# 4 0.000000 0.000000 0.000000 -0.142903 0.000000 0.000000
# 5 0.000000 0.000000 0.000000 0.000000 0.038536 0.000000
# 6 0.000000 0.000000 0.000000 0.000000 0.000000 0.121921
#
#
# Mechanical properties :
#
#
# Convention : Reuss Voigt Hill
#
# Bulk Modulus (GPa) = 54.28151 55.22738 54.75444
# Shear Modulus (GPa) = 38.78002 13.83168 26.30585
#
# Velocity S-wave (km/s) = 4.85785 2.90120 4.00098
# Velocity P-wave (km/s) = 8.03098 6.69552 7.39347
#
# Compressibility (1/GPa) = 0.01842248
#
# Stress axis : x y z
#
# Youngs Moduli (GPa) = 37.57263 75.62916 45.46935
#
# Poissons Ratio (x) = 0.29706 0.63046
# Poissons Ratio (y) = 0.14758 0.17781
# Poissons Ratio (z) = 0.52097 0.29574
#
# Static dielectric constant tensor:
#      x y z
#    x 3.093750 0.000000 0.000000 
#    y 0.000000 3.441850 0.000000 
#    z 0.000000 0.000000 3.067690 
# 
# 
# High freq. dielectric constant tensor:
#      x y z
#    x 1.619990 0.000000 0.000000 
#    y 0.000000 1.621710 0.000000 
#    z 0.000000 0.000000 1.613080 
# 
# From -- ./inp_files/29980.got.cif
#   From: 2010.03.12/outbox.cif.g09.slc.cpg/sg51_15_cif.got.tgz:29980.got - 2010.04.16 13:43:02.
