data_PCOD8208604
_publ_section_title
;
Structure prediction by ZEFSAII (Michael W. Deem and Ramdas Pophale) SiO2 
 PCOD8208604
Probable space group: P M M A
;
_chemical_formula_sum "Si O2"
_cell_formula_units_Z 64
_cell_length_a 23.001383
_cell_length_b 8.967076
_cell_length_c 15.498755
_cell_angle_alpha 90.000000
_cell_angle_beta 90.000000
_cell_angle_gamma 90.000000
_cell_volume 3196.698029
_symmetry_space_group_name_H-M "P M M A"
_symmetry_group_IT_number 51
_symmetry_cell_setting 'orthorhombic'
loop_
_space_group_symop_operation_xyz
x,y,z
1/2-x,-y,z
1/2+x,-y,-z
-x,y,-z
-x,-y,-z
1/2+x,y,-z
1/2-x,y,z
x,-y,z
loop_
_atom_site_type_symbol
_atom_site_label
_atom_site_fract_x
_atom_site_fract_y
_atom_site_fract_z
Si Si1 0.373327 0.674572 0.702696
Si Si2 0.119274 0.671820 0.392651
Si Si3 0.684970 0.323054 0.778210
Si Si4 0.494627 0.329890 0.303309
Si Si5 0.982957 0.170414 0.868719
Si Si6 0.316545 0.173136 0.545486
Si Si7 0.881216 0.828476 0.119058
Si Si8 0.880122 0.323507 0.948402
O O1 0.362272 0.500000 0.710926
O O2 0.439288 0.709788 0.670787
O O3 0.329156 0.741469 0.633897
O O4 0.359278 0.748090 0.794631
O O5 0.136064 0.500000 0.410943
O O6 0.148844 0.730941 0.304741
O O7 0.049167 0.689922 0.384178
O O8 0.140826 0.770618 0.471205
O O9 0.750000 0.258464 0.770844
O O10 0.685155 0.500000 0.781050
O O11 0.656658 0.263750 0.866690
O O12 0.491282 0.500000 0.268647
O O13 0.471326 0.223258 0.228510
O O14 0.946381 0.269980 0.935203
O O15 0.050038 0.190277 0.890704
O O16 0.962861 0.000000 0.878596
O O17 0.250000 0.204063 0.518370
O O18 0.328488 0.000000 0.561077
O O19 0.861835 0.000000 0.123113
O O20 0.853311 0.749556 0.035136
O O21 0.877946 0.500000 0.958498
#
# Coordination Sequence:
#
# PCOD8208604 Si02
#       8
#     8   8   8   8   8   8   8   8
#     4  10  21  39  63  88 115 148 189 238 289 343
#     4  10  19  36  62  88 115 148 188 233 283 342
#     4   9  18  33  54  80 111 148 190 236 282 330
#     4   9  18  34  57  88 120 148 184 230 284 344
#     4  10  19  31  50  78 114 152 187 227 279 341
#     4  11  25  43  61  84 115 150 191 239 287 338
#     4  10  21  36  54  80 114 150 188 231 285 344
#     4  11  20  32  52  79 111 149 195 241 282 330
#
# _framework density 20.020658000000001
#
# number of rings (size 3 to 8) (size 9 to 14) (size 15 to 20)
#    0.000    2.000    1.250    2.625    0.000    6.000 
#    0.000    3.125    0.000    4.500    0.000    0.000 
#    0.000    0.000    0.000    0.000    0.000    0.000 
#
# Total GULP energy -793682.845037 kJ/mol
# GULP energy per Si atom -12401.294454 kJ/mol
# Density = 1.997509 g / cm^3
# Si number density = 20.020658 Si / 1000 Ang^3
#
#
#
# Elastic Constant Matrix: (Units=GPa)
#
#
# Indices 1 2 3 4 5 6 
#
# 1 29.7459 14.9681 17.0687 0.0000 0.0000 0.0000
# 2 14.9681 90.3688 47.9362 0.0000 0.0000 0.0000
# 3 17.0687 47.9362 113.1629 0.0000 0.0000 0.0000
# 4 0.0000 0.0000 0.0000 29.5695 0.0000 0.0000
# 5 0.0000 0.0000 0.0000 0.0000 19.5644 0.0000
# 6 0.0000 0.0000 0.0000 0.0000 0.0000 18.3716
#
#
#
# Elastic Compliance Matrix: (Units=1/GPa)
#
#
# Indices 1 2 3 4 5 6 
#
# 1 0.037998 -0.004197 -0.003954 0.000000 0.000000 0.000000
# 2 -0.004197 0.014736 -0.005609 0.000000 0.000000 0.000000
# 3 -0.003954 -0.005609 0.011809 0.000000 0.000000 0.000000
# 4 0.000000 0.000000 0.000000 0.033819 0.000000 0.000000
# 5 0.000000 0.000000 0.000000 0.000000 0.051113 0.000000
# 6 0.000000 0.000000 0.000000 0.000000 0.000000 0.054432
#
#
# Mechanical properties :
#
#
# Convention : Reuss Voigt Hill
#
# Bulk Modulus (GPa) = 27.00894 43.69152 35.35023
# Shear Modulus (GPa) = 20.51124 23.72141 22.11633
#
# Velocity S-wave (km/s) = 3.20426 3.44589 3.32727
# Velocity P-wave (km/s) = 5.21628 6.14026 5.69703
#
# Compressibility (1/GPa) = 0.03702478
#
# Stress axis : x y z
#
# Youngs Moduli (GPa) = 26.31686 67.85937 84.67883
#
# Poissons Ratio (x) = 0.28478 0.33480
# Poissons Ratio (y) = 0.11044 0.47500
# Poissons Ratio (z) = 0.10405 0.38065
#
# Static dielectric constant tensor:
#      x y z
#    x 3.599160 0.000000 0.000000 
#    y 0.000000 3.546270 0.000000 
#    z 0.000000 0.000000 3.647390 
# 
# 
# High freq. dielectric constant tensor:
#      x y z
#    x 1.765870 0.000000 0.000000 
#    y 0.000000 1.771840 0.000000 
#    z 0.000000 0.000000 1.784430 
# 
# From -- ./inp_files/26357.got.cif
#   From: 2010.03.12/outbox.cif.g09.slc.cpg/sg51_14_cif.got.tgz:26357.got - 2010.04.16 13:43:02.
