data_PCOD8208743
_publ_section_title
;
Structure prediction by ZEFSAII (Michael W. Deem and Ramdas Pophale) SiO2 
 PCOD8208743
Probable space group: P M M A
;
_chemical_formula_sum "Si O2"
_cell_formula_units_Z 48
_cell_length_a 8.971463
_cell_length_b 19.778265
_cell_length_c 15.482403
_cell_angle_alpha 90.000000
_cell_angle_beta 90.000000
_cell_angle_gamma 90.000000
_cell_volume 2747.197165
_symmetry_space_group_name_H-M "P M M A"
_symmetry_group_IT_number 51
_symmetry_cell_setting 'orthorhombic'
loop_
_space_group_symop_operation_xyz
x,y,z
1/2-x,-y,z
1/2+x,-y,-z
-x,y,-z
-x,-y,-z
1/2+x,y,-z
1/2-x,y,z
x,-y,z
loop_
_atom_site_type_symbol
_atom_site_label
_atom_site_fract_x
_atom_site_fract_y
_atom_site_fract_z
Si Si1 0.082007 0.580531 0.084455
Si Si2 0.427250 0.675588 0.589607
Si Si3 0.423795 0.422999 0.744005
Si Si4 0.927580 0.075192 0.730724
Si Si5 0.928663 0.817001 0.590320
Si Si6 0.086261 0.080229 0.081209
O O1 0.250000 0.607314 0.082828
O O2 0.073819 0.500000 0.082919
O O3 0.005557 0.607267 0.171977
O O4 0.000000 0.610235 0.000000
O O5 0.500000 0.650884 0.500000
O O6 0.250000 0.685076 0.578262
O O7 0.468413 0.620100 0.660681
O O8 0.502808 0.745522 0.618928
O O9 0.250000 0.418630 0.763842
O O10 0.473438 0.500000 0.725530
O O11 0.750000 0.073636 0.736252
O O12 0.982958 0.128093 0.659807
O O13 0.989121 0.097152 0.825690
O O14 0.986119 0.000000 0.706137
O O15 0.750000 0.812150 0.582902
O O16 0.000000 0.839907 0.500000
O O17 0.250000 0.112479 0.077680
O O18 0.095346 0.000000 0.071505
O O19 0.000000 0.112534 0.000000
#
# Coordination Sequence:
#
# PCOD8208743 Si02
#       6
#     8   8   8   8   8   8
#     4   9  16  26  43  68  97 127 156 188 228 275
#     4  10  20  34  51  69  92 122 155 191 232 280
#     4   9  18  32  49  70  95 122 154 194 237 276
#     4   8  15  28  46  68  93 121 152 186 226 270
#     4  10  19  32  50  68  89 120 156 190 227 275
#     4   8  13  23  40  62  88 116 145 177 215 260
#
# _framework density 17.472352999999998
#
# number of rings (size 3 to 8) (size 9 to 14) (size 15 to 20)
#    0.000    3.000    0.000    3.500    0.000    4.000 
#    0.000    1.667    0.000    4.500    0.000    4.667 
#    0.000    0.000    0.000    0.000    0.000    0.000 
#
# Total GULP energy -594933.213967 kJ/mol
# GULP energy per Si atom -12394.441958 kJ/mol
# Density = 1.743259 g / cm^3
# Si number density = 17.472353 Si / 1000 Ang^3
#
#
#
# Elastic Constant Matrix: (Units=GPa)
#
#
# Indices 1 2 3 4 5 6 
#
# 1 79.5610 34.1820 64.8182 0.0000 0.0000 0.0000
# 2 34.1820 66.9031 81.3213 0.0000 0.0000 0.0000
# 3 64.8182 81.3213 174.9225 0.0000 0.0000 0.0000
# 4 0.0000 0.0000 0.0000 4.0289 0.0000 0.0000
# 5 0.0000 0.0000 0.0000 0.0000 31.9691 0.0000
# 6 0.0000 0.0000 0.0000 0.0000 0.0000 15.3480
#
#
#
# Elastic Compliance Matrix: (Units=1/GPa)
#
#
# Indices 1 2 3 4 5 6 
#
# 1 0.018189 -0.002531 -0.005563 0.000000 0.000000 0.000000
# 2 -0.002531 0.034720 -0.015204 0.000000 0.000000 0.000000
# 3 -0.005563 -0.015204 0.014847 0.000000 0.000000 0.000000
# 4 0.000000 0.000000 0.000000 0.248205 0.000000 0.000000
# 5 0.000000 0.000000 0.000000 0.000000 0.031280 0.000000
# 6 0.000000 0.000000 0.000000 0.000000 0.000000 0.065155
#
#
# Mechanical properties :
#
#
# Convention : Reuss Voigt Hill
#
# Bulk Modulus (GPa) = 47.25883 75.78107 61.51995
# Shear Modulus (GPa) = 10.72862 19.67355 15.20108
#
# Velocity S-wave (km/s) = 2.48066 3.35921 2.95279
# Velocity P-wave (km/s) = 5.94234 7.64930 6.84920
#
# Compressibility (1/GPa) = 0.02116007
#
# Stress axis : x y z
#
# Youngs Moduli (GPa) = 54.97914 28.80189 67.35592
#
# Poissons Ratio (x) = 0.07288 0.37473
# Poissons Ratio (y) = 0.13913 1.02405
# Poissons Ratio (z) = 0.30587 0.43789
#
# Static dielectric constant tensor:
#      x y z
#    x 3.245560 0.000000 0.000000 
#    y 0.000000 2.973720 0.000000 
#    z 0.000000 0.000000 3.523000 
# 
# 
# High freq. dielectric constant tensor:
#      x y z
#    x 1.666990 0.000000 0.000000 
#    y 0.000000 1.632090 0.000000 
#    z 0.000000 0.000000 1.691400 
# 
# From -- ./inp_files/21422.got.cif
#   From: 2010.03.12/outbox.cif.g09.slc.cpg/sg51_11_cif.got.tgz:21422.got - 2010.04.16 13:43:02.
