data_PCOD8208942
_publ_section_title
;
Structure prediction by ZEFSAII (Michael W. Deem and Ramdas Pophale) SiO2 
 PCOD8208942
Probable space group: P M M A
;
_chemical_formula_sum "Si O2"
_cell_formula_units_Z 56
_cell_length_a 18.601178
_cell_length_b 9.012867
_cell_length_c 18.396132
_cell_angle_alpha 90.000000
_cell_angle_beta 90.000000
_cell_angle_gamma 90.000000
_cell_volume 3084.110488
_symmetry_space_group_name_H-M "P M M A"
_symmetry_group_IT_number 51
_symmetry_cell_setting 'orthorhombic'
loop_
_space_group_symop_operation_xyz
x,y,z
1/2-x,-y,z
1/2+x,-y,-z
-x,y,-z
-x,-y,-z
1/2+x,y,-z
1/2-x,y,z
x,-y,z
loop_
_atom_site_type_symbol
_atom_site_label
_atom_site_fract_x
_atom_site_fract_y
_atom_site_fract_z
Si Si1 0.165033 0.666293 0.935869
Si Si2 0.429492 0.174915 0.044562
Si Si3 0.923521 0.675364 0.799883
Si Si4 0.028951 0.672901 0.420030
Si Si5 0.830092 0.167878 0.204741
Si Si6 0.462848 0.830656 0.707206
Si Si7 0.169393 0.674823 0.336662
O O1 0.250000 0.668023 0.938950
O O2 0.134568 0.500000 0.946892
O O3 0.138644 0.726663 0.858109
O O4 0.138776 0.775973 0.998253
O O5 0.417236 0.248936 0.122358
O O6 0.431766 0.000000 0.056089
O O7 0.500000 0.229591 0.000000
O O8 0.924127 0.500000 0.810915
O O9 0.860054 0.723137 0.743211
O O10 0.997816 0.728887 0.765882
O O11 0.021073 0.500000 0.400771
O O12 0.111592 0.722907 0.400009
O O13 0.000000 0.707282 0.500000
O O14 0.974021 0.768156 0.372790
O O15 0.750000 0.215221 0.227767
O O16 0.878239 0.181904 0.276507
O O17 0.832019 0.000000 0.174141
O O18 0.490332 0.000000 0.712947
O O19 0.250000 0.743837 0.349597
O O20 0.176713 0.500000 0.338832
#
# Coordination Sequence:
#
# PCOD8208942 Si02
#       7
#     8   8   8   8   8   8   8
#     4  10  21  35  51  72  97 128 168 212 258 306
#     4  11  23  36  50  71 100 134 173 215 261 315
#     4  10  20  33  51  74  99 129 167 214 260 301
#     4   9  18  33  53  77 104 133 166 203 244 294
#     4   9  18  33  51  70  95 129 166 203 246 297
#     4  10  19  32  52  75  99 129 164 200 243 299
#     4   8  15  30  52  75  99 130 166 203 246 296
#
# _framework density 18.157585999999998
#
# number of rings (size 3 to 8) (size 9 to 14) (size 15 to 20)
#    0.000    2.429    0.000    3.429    0.000    7.429 
#    0.000    2.143    0.000   11.143    0.000    0.000 
#    0.000    0.000    0.000    0.000    0.000    0.000 
#
# Total GULP energy -694020.198473 kJ/mol
# GULP energy per Si atom -12393.217830 kJ/mol
# Density = 1.811626 g / cm^3
# Si number density = 18.157586 Si / 1000 Ang^3
#
#
#
# Elastic Constant Matrix: (Units=GPa)
#
#
# Indices 1 2 3 4 5 6 
#
# 1 93.1637 36.5188 76.7076 0.0000 0.0000 0.0000
# 2 36.5188 61.0202 42.2105 0.0000 0.0000 0.0000
# 3 76.7076 42.2105 123.5937 0.0000 0.0000 0.0000
# 4 0.0000 0.0000 0.0000 -60.8380 0.0000 0.0000
# 5 0.0000 0.0000 0.0000 0.0000 24.1300 0.0000
# 6 0.0000 0.0000 0.0000 0.0000 0.0000 22.5984
#
#
#
# Elastic Compliance Matrix: (Units=1/GPa)
#
#
# Indices 1 2 3 4 5 6 
#
# 1 0.023111 -0.005118 -0.012596 0.000000 0.000000 0.000000
# 2 -0.005118 0.022591 -0.004539 0.000000 0.000000 0.000000
# 3 -0.012596 -0.004539 0.017458 0.000000 0.000000 0.000000
# 4 0.000000 0.000000 0.000000 -0.016437 0.000000 0.000000
# 5 0.000000 0.000000 0.000000 0.000000 0.041442 0.000000
# 6 0.000000 0.000000 0.000000 0.000000 0.000000 0.044251
#
#
# Mechanical properties :
#
#
# Convention : Reuss Voigt Hill
#
# Bulk Modulus (GPa) = 53.60495 65.40572 59.50533
# Shear Modulus (GPa) = 27.30164 5.33415 16.31789
#
# Velocity S-wave (km/s) = 3.88183 1.71583 3.00105
# Velocity P-wave (km/s) = 7.04823 6.32651 6.69710
#
# Compressibility (1/GPa) = 0.01865499
#
# Stress axis : x y z
#
# Youngs Moduli (GPa) = 43.26993 44.26586 57.27888
#
# Poissons Ratio (x) = 0.22656 0.72146
# Poissons Ratio (y) = 0.22146 0.25997
# Poissons Ratio (z) = 0.54501 0.20091
#
# Static dielectric constant tensor:
#      x y z
#    x 3.550380 0.000000 0.000000 
#    y 0.000000 3.418450 0.000000 
#    z 0.000000 0.000000 3.430780 
# 
# 
# High freq. dielectric constant tensor:
#      x y z
#    x 1.703360 0.000000 0.000000 
#    y 0.000000 1.699340 0.000000 
#    z 0.000000 0.000000 1.692750 
# 
# From -- ./inp_files/30385.got.cif
#   From: 2010.03.12/outbox.cif.g09.slc.cpg/sg51_16_cif.got.tgz:30385.got - 2010.04.16 13:43:02.
