data_PCOD8208138
_publ_section_title
;
Structure prediction by ZEFSAII (Michael W. Deem and Ramdas Pophale) SiO2 
 PCOD8208138
Probable space group: P M M A
;
_chemical_formula_sum "Si O2"
_cell_formula_units_Z 56
_cell_length_a 15.860906
_cell_length_b 9.462096
_cell_length_c 19.765570
_cell_angle_alpha 90.000000
_cell_angle_beta 90.000000
_cell_angle_gamma 90.000000
_cell_volume 2966.365656
_symmetry_space_group_name_H-M "P M M A"
_symmetry_group_IT_number 51
_symmetry_cell_setting 'orthorhombic'
loop_
_space_group_symop_operation_xyz
x,y,z
1/2-x,-y,z
1/2+x,-y,-z
-x,y,-z
-x,-y,-z
1/2+x,y,-z
1/2-x,y,z
x,-y,z
loop_
_atom_site_type_symbol
_atom_site_label
_atom_site_fract_x
_atom_site_fract_y
_atom_site_fract_z
Si Si1 0.844730 0.663797 0.166272
Si Si2 0.000624 0.332120 0.924400
Si Si3 0.843732 0.662752 0.836619
Si Si4 0.350180 0.157838 0.428251
Si Si5 0.344115 0.168074 0.573047
Si Si6 0.408921 0.162122 0.714023
Si Si7 0.898860 0.836406 0.714475
O O1 0.750000 0.686197 0.136829
O O2 0.862023 0.500000 0.181622
O O3 0.850993 0.746059 0.236895
O O4 0.914574 0.721823 0.113414
O O5 0.001206 0.500000 0.928008
O O6 0.915336 0.278517 0.887497
O O7 0.000000 0.267925 0.000000
O O8 0.750000 0.678632 0.869250
O O9 0.863069 0.500000 0.819128
O O10 0.843377 0.750049 0.767332
O O11 0.250000 0.155959 0.425848
O O12 0.378150 0.229116 0.500306
O O13 0.385522 0.232548 0.360396
O O14 0.387892 0.000000 0.425932
O O15 0.250000 0.224280 0.587207
O O16 0.400950 0.216259 0.636354
O O17 0.342975 0.000000 0.565183
O O18 0.504751 0.179429 0.736925
O O19 0.378358 0.000000 0.718791
O O20 0.869459 0.000000 0.715495
#
# Coordination Sequence:
#
# PCOD8208138 Si02
#       7
#     8   8   8   8   8   8   8
#     4  10  20  34  54  78 103 134 168 203 249 299
#     4   9  18  34  55  79 106 131 160 204 249 293
#     4  10  20  34  54  78 103 134 168 203 249 299
#     4   8  14  25  41  63  93 128 166 209 253 293
#     4   8  14  25  41  63  93 128 166 209 253 293
#     4  10  19  30  48  74 102 134 171 210 252 297
#     4  10  19  30  48  74 102 134 171 210 252 297
#
# _framework density 18.878321
#
# number of rings (size 3 to 8) (size 9 to 14) (size 15 to 20)
#    0.000    2.714    1.429    1.714    0.000    2.857 
#    0.000    5.714    0.000    2.571    0.000    8.000 
#    0.000    0.000    0.000    0.000    0.000    0.000 
#
# Total GULP energy -693954.999481 kJ/mol
# GULP energy per Si atom -12392.053562 kJ/mol
# Density = 1.883535 g / cm^3
# Si number density = 18.878321 Si / 1000 Ang^3
#
#
#
# Elastic Constant Matrix: (Units=GPa)
#
#
# Indices 1 2 3 4 5 6 
#
# 1 103.3861 21.9520 59.1263 0.0000 0.0000 0.0000
# 2 21.9520 28.7668 30.7130 0.0000 0.0000 0.0000
# 3 59.1263 30.7130 150.9704 0.0000 0.0000 0.0000
# 4 0.0000 0.0000 0.0000 13.9898 0.0000 0.0000
# 5 0.0000 0.0000 0.0000 0.0000 28.8337 0.0000
# 6 0.0000 0.0000 0.0000 0.0000 0.0000 16.6333
#
#
#
# Elastic Compliance Matrix: (Units=1/GPa)
#
#
# Indices 1 2 3 4 5 6 
#
# 1 0.013183 -0.005809 -0.003981 0.000000 0.000000 0.000000
# 2 -0.005809 0.046968 -0.007280 0.000000 0.000000 0.000000
# 3 -0.003981 -0.007280 0.009664 0.000000 0.000000 0.000000
# 4 0.000000 0.000000 0.000000 0.071481 0.000000 0.000000
# 5 0.000000 0.000000 0.000000 0.000000 0.034682 0.000000
# 6 0.000000 0.000000 0.000000 0.000000 0.000000 0.060120
#
#
# Mechanical properties :
#
#
# Convention : Reuss Voigt Hill
#
# Bulk Modulus (GPa) = 28.03169 56.30065 42.16617
# Shear Modulus (GPa) = 17.72241 23.31350 20.51795
#
# Velocity S-wave (km/s) = 3.06726 3.51798 3.30032
# Velocity P-wave (km/s) = 5.23688 6.81096 6.07512
#
# Compressibility (1/GPa) = 0.03567391
#
# Stress axis : x y z
#
# Youngs Moduli (GPa) = 75.85669 21.29126 103.47750
#
# Poissons Ratio (x) = 0.12369 0.41195
# Poissons Ratio (y) = 0.44068 0.75329
# Poissons Ratio (z) = 0.30199 0.15500
#
# Static dielectric constant tensor:
#      x y z
#    x 3.490570 0.000000 0.000000 
#    y 0.000000 2.915890 0.000000 
#    z 0.000000 0.000000 3.708880 
# 
# 
# High freq. dielectric constant tensor:
#      x y z
#    x 1.739860 0.000000 0.000000 
#    y 0.000000 1.665570 0.000000 
#    z 0.000000 0.000000 1.740220 
# 
# From -- ./inp_files/11925.got.cif
#   From: 2010.03.12/outbox.cif.g09.slc.cpg/sg51_6_cif.got.tgz:11925.got - 2010.04.16 13:43:02.
