data_PCOD8208885
_publ_section_title
;
Structure prediction by ZEFSAII (Michael W. Deem and Ramdas Pophale) SiO2 
 PCOD8208885
Probable space group: P M M A
;
_chemical_formula_sum "Si O2"
_cell_formula_units_Z 48
_cell_length_a 18.610550
_cell_length_b 14.009271
_cell_length_c 10.308536
_cell_angle_alpha 90.000000
_cell_angle_beta 90.000000
_cell_angle_gamma 90.000000
_cell_volume 2687.643964
_symmetry_space_group_name_H-M "P M M A"
_symmetry_group_IT_number 51
_symmetry_cell_setting 'orthorhombic'
loop_
_space_group_symop_operation_xyz
x,y,z
1/2-x,-y,z
1/2+x,-y,-z
-x,y,-z
-x,-y,-z
1/2+x,y,-z
1/2-x,y,z
x,-y,z
loop_
_atom_site_type_symbol
_atom_site_label
_atom_site_fract_x
_atom_site_fract_y
_atom_site_fract_z
Si Si1 0.831101 0.888390 0.626092
Si Si2 0.433883 0.888580 0.144037
Si Si3 0.940879 0.397554 0.108899
Si Si4 0.165679 0.225022 0.628262
Si Si5 0.557597 0.607587 0.396766
Si Si6 0.089605 0.808334 0.880687
O O1 0.750000 0.859794 0.663936
O O2 0.882327 0.853812 0.741520
O O3 0.855109 0.839593 0.493530
O O4 0.838530 0.000000 0.603560
O O5 0.505417 0.824681 0.152452
O O6 0.454167 0.000000 0.154555
O O7 0.391936 0.871192 0.007367
O O8 0.898011 0.500000 0.100811
O O9 0.976856 0.390691 0.252448
O O10 0.893006 0.303287 0.086871
O O11 0.000000 0.397997 0.000000
O O12 0.250000 0.242239 0.642251
O O13 0.128483 0.327162 0.607042
O O14 0.137480 0.166885 0.755172
O O15 0.500000 0.648080 0.500000
O O16 0.580369 0.500000 0.437291
#
# Coordination Sequence:
#
# PCOD8208885 Si02
#       6
#     8   8   8   8   8   8
#     4   9  20  37  53  72 101 137 175 213 258 314
#     4  10  20  34  53  77 102 132 173 217 265 312
#     4   9  16  28  47  73 101 129 160 199 251 299
#     4  10  22  35  52  77 107 142 176 215 263 316
#     4   9  19  33  53  79 105 136 174 215 258 308
#     4  10  19  32  51  76 107 130 167 218 258 306
#
# _framework density 17.859507000000001
#
# number of rings (size 3 to 8) (size 9 to 14) (size 15 to 20)
#    0.000    2.500    1.667    1.000    4.667    2.333 
#    0.000    1.667    0.000    0.000    0.000    0.000 
#    0.000    6.667    0.000    0.000    0.000    0.000 
#
# Total GULP energy -594761.361451 kJ/mol
# GULP energy per Si atom -12390.861697 kJ/mol
# Density = 1.781886 g / cm^3
# Si number density = 17.859507 Si / 1000 Ang^3
#
#
#
# Elastic Constant Matrix: (Units=GPa)
#
#
# Indices 1 2 3 4 5 6 
#
# 1 77.6125 27.4884 68.8181 0.0000 0.0000 0.0000
# 2 27.4884 59.4628 31.3408 0.0000 0.0000 0.0000
# 3 68.8181 31.3408 144.5987 0.0000 0.0000 0.0000
# 4 0.0000 0.0000 0.0000 28.3478 0.0000 0.0000
# 5 0.0000 0.0000 0.0000 0.0000 29.6311 0.0000
# 6 0.0000 0.0000 0.0000 0.0000 0.0000 18.4327
#
#
#
# Elastic Compliance Matrix: (Units=1/GPa)
#
#
# Indices 1 2 3 4 5 6 
#
# 1 0.023890 -0.005703 -0.010134 0.000000 0.000000 0.000000
# 2 -0.005703 0.020347 -0.001696 0.000000 0.000000 0.000000
# 3 -0.010134 -0.001696 0.012106 0.000000 0.000000 0.000000
# 4 0.000000 0.000000 0.000000 0.035276 0.000000 0.000000
# 5 0.000000 0.000000 0.000000 0.000000 0.033748 0.000000
# 6 0.000000 0.000000 0.000000 0.000000 0.000000 0.054251
#
#
# Mechanical properties :
#
#
# Convention : Reuss Voigt Hill
#
# Bulk Modulus (GPa) = 46.99599 59.66317 53.32958
# Shear Modulus (GPa) = 22.54520 25.55076 24.04798
#
# Velocity S-wave (km/s) = 3.55683 3.78650 3.67346
# Velocity P-wave (km/s) = 6.57567 7.25233 6.92227
#
# Compressibility (1/GPa) = 0.02127841
#
# Stress axis : x y z
#
# Youngs Moduli (GPa) = 41.85912 49.14635 82.60227
#
# Poissons Ratio (x) = 0.28026 0.83707
# Poissons Ratio (y) = 0.23870 0.14011
# Poissons Ratio (z) = 0.42419 0.08336
#
# Static dielectric constant tensor:
#      x y z
#    x 2.984050 0.000000 0.000000 
#    y 0.000000 3.607140 0.000000 
#    z 0.000000 0.000000 3.641920 
# 
# 
# High freq. dielectric constant tensor:
#      x y z
#    x 1.646480 0.000000 0.000000 
#    y 0.000000 1.701370 0.000000 
#    z 0.000000 0.000000 1.711090 
# 
# From -- ./inp_files/10841.got.cif
#   From: 2010.03.12/outbox.cif.g09.slc.cpg/sg51_6_cif.got.tgz:10841.got - 2010.04.16 13:43:02.
