data_PCOD8208921
_publ_section_title
;
Structure prediction by ZEFSAII (Michael W. Deem and Ramdas Pophale) SiO2 
 PCOD8208921
Probable space group: P M M A
;
_chemical_formula_sum "Si O2"
_cell_formula_units_Z 64
_cell_length_a 17.613177
_cell_length_b 9.103809
_cell_length_c 22.416639
_cell_angle_alpha 90.000000
_cell_angle_beta 90.000000
_cell_angle_gamma 90.000000
_cell_volume 3594.440798
_symmetry_space_group_name_H-M "P M M A"
_symmetry_group_IT_number 51
_symmetry_cell_setting 'orthorhombic'
loop_
_space_group_symop_operation_xyz
x,y,z
1/2-x,-y,z
1/2+x,-y,-z
-x,y,-z
-x,-y,-z
1/2+x,y,-z
1/2-x,y,z
x,-y,z
loop_
_atom_site_type_symbol
_atom_site_label
_atom_site_fract_x
_atom_site_fract_y
_atom_site_fract_z
Si Si1 0.166378 0.330828 0.802981
Si Si2 0.164815 0.333748 0.033255
Si Si3 0.472098 0.172711 0.365916
Si Si4 0.336610 0.828977 0.451879
Si Si5 0.968415 0.331124 0.882444
Si Si6 0.929638 0.665005 0.455821
Si Si7 0.989802 0.330760 0.249789
Si Si8 0.114480 0.173513 0.917987
O O1 0.250000 0.306564 0.773854
O O2 0.154092 0.500000 0.821776
O O3 0.099666 0.287366 0.756741
O O4 0.162168 0.235998 0.862756
O O5 0.250000 0.317440 0.057007
O O6 0.148021 0.500000 0.011217
O O7 0.113020 0.293262 0.089948
O O8 0.152622 0.223080 0.979166
O O9 0.392576 0.216364 0.397724
O O10 0.545156 0.246263 0.397292
O O11 0.469369 0.229838 0.298480
O O12 0.484583 0.000000 0.367033
O O13 0.250000 0.790109 0.433818
O O14 0.358358 0.741992 0.512052
O O15 0.345996 0.000000 0.466508
O O16 0.991886 0.500000 0.892852
O O17 0.967222 0.297056 0.812068
O O18 0.028493 0.230388 0.916642
O O19 0.906192 0.500000 0.437427
O O20 0.000000 0.664492 0.500000
O O21 0.998591 0.500000 0.269016
O O22 0.115511 0.000000 0.914263
#
# Coordination Sequence:
#
# PCOD8208921 Si02
#       8
#     8   8   8   8   8   8   8   8
#     4   9  18  34  54  73  95 126 163 203 250 302
#     4  10  20  34  52  72  95 126 164 204 248 301
#     4  10  19  32  52  75 100 135 173 203 240 293
#     4   9  18  33  52  75 104 135 168 207 247 288
#     4   9  19  36  54  70  93 129 169 206 247 296
#     4   9  17  30  50  75 101 128 159 197 240 284
#     4   9  18  33  52  73  97 127 166 210 248 285
#     4  11  21  31  48  75 102 126 156 198 250 306
#
# _framework density 17.805273
#
# number of rings (size 3 to 8) (size 9 to 14) (size 15 to 20)
#    0.000    2.500    0.000    3.375    0.000    8.250 
#    0.000    1.250    0.000    3.000    0.000    0.000 
#    0.000    0.000    0.000    0.000    0.000    0.000 
#
# Total GULP energy -793567.207225 kJ/mol
# GULP energy per Si atom -12399.487613 kJ/mol
# Density = 1.776475 g / cm^3
# Si number density = 17.805273 Si / 1000 Ang^3
#
#
#
# Elastic Constant Matrix: (Units=GPa)
#
#
# Indices 1 2 3 4 5 6 
#
# 1 111.0697 40.5524 46.6486 0.0000 0.0000 0.0000
# 2 40.5524 85.1800 37.7921 0.0000 0.0000 0.0000
# 3 46.6486 37.7921 76.7994 0.0000 0.0000 0.0000
# 4 0.0000 0.0000 0.0000 21.3984 0.0000 0.0000
# 5 0.0000 0.0000 0.0000 0.0000 18.6605 0.0000
# 6 0.0000 0.0000 0.0000 0.0000 0.0000 11.9698
#
#
#
# Elastic Compliance Matrix: (Units=1/GPa)
#
#
# Indices 1 2 3 4 5 6 
#
# 1 0.012807 -0.003385 -0.006113 0.000000 0.000000 0.000000
# 2 -0.003385 0.015913 -0.005775 0.000000 0.000000 0.000000
# 3 -0.006113 -0.005775 0.019576 0.000000 0.000000 0.000000
# 4 0.000000 0.000000 0.000000 0.046732 0.000000 0.000000
# 5 0.000000 0.000000 0.000000 0.000000 0.053589 0.000000
# 6 0.000000 0.000000 0.000000 0.000000 0.000000 0.083543
#
#
# Mechanical properties :
#
#
# Convention : Reuss Voigt Hill
#
# Bulk Modulus (GPa) = 56.33730 58.11503 57.22617
# Shear Modulus (GPa) = 18.61341 20.27615 19.44478
#
# Velocity S-wave (km/s) = 3.23675 3.37823 3.30825
# Velocity P-wave (km/s) = 6.75857 6.92291 6.84123
#
# Compressibility (1/GPa) = 0.01775023
#
# Stress axis : x y z
#
# Youngs Moduli (GPa) = 78.08422 62.84016 51.08301
#
# Poissons Ratio (x) = 0.21269 0.31229
# Poissons Ratio (y) = 0.26429 0.29500
# Poissons Ratio (z) = 0.47735 0.36290
#
# Static dielectric constant tensor:
#      x y z
#    x 3.380660 0.000000 0.000000 
#    y 0.000000 3.282220 0.000000 
#    z 0.000000 0.000000 3.134720 
# 
# 
# High freq. dielectric constant tensor:
#      x y z
#    x 1.683840 0.000000 0.000000 
#    y 0.000000 1.686990 0.000000 
#    z 0.000000 0.000000 1.671320 
# 
# From -- ./inp_files/33918.got.cif
#   From: 2010.03.12/outbox.cif.g09.slc.cpg/sg51_17_cif.got.tgz:33918.got - 2010.04.16 13:43:02.
