data_PCOD8208662
_publ_section_title
;
Structure prediction by ZEFSAII (Michael W. Deem and Ramdas Pophale) SiO2 
 PCOD8208662
Probable space group: P M M A
;
_chemical_formula_sum "Si O2"
_cell_formula_units_Z 64
_cell_length_a 23.869052
_cell_length_b 8.847680
_cell_length_c 16.181322
_cell_angle_alpha 90.000000
_cell_angle_beta 90.000000
_cell_angle_gamma 90.000000
_cell_volume 3417.264364
_symmetry_space_group_name_H-M "P M M A"
_symmetry_group_IT_number 51
_symmetry_cell_setting 'orthorhombic'
loop_
_space_group_symop_operation_xyz
x,y,z
1/2-x,-y,z
1/2+x,-y,-z
-x,y,-z
-x,-y,-z
1/2+x,y,-z
1/2-x,y,z
x,-y,z
loop_
_atom_site_type_symbol
_atom_site_label
_atom_site_fract_x
_atom_site_fract_y
_atom_site_fract_z
Si Si1 0.186726 0.678474 0.477973
Si Si2 0.387898 0.827215 0.613535
Si Si3 0.972632 0.675998 0.273958
Si Si4 0.186367 0.171050 0.771502
Si Si5 0.909643 0.676617 0.795263
Si Si6 0.561352 0.824636 0.966588
Si Si7 0.313826 0.824780 0.303782
Si Si8 0.896897 0.324499 0.122603
O O1 0.250000 0.733289 0.502914
O O2 0.183171 0.500000 0.482326
O O3 0.137482 0.744188 0.534414
O O4 0.173210 0.730279 0.385562
O O5 0.447039 0.758902 0.645571
O O6 0.342474 0.805939 0.684119
O O7 0.398741 0.000000 0.589703
O O8 0.959925 0.500000 0.284889
O O9 0.943738 0.732193 0.188515
O O10 0.038743 0.710810 0.267295
O O11 0.250000 0.212156 0.756614
O O12 0.163323 0.290294 0.837674
O O13 0.177479 0.000000 0.803899
O O14 0.895517 0.500000 0.796144
O O15 0.926811 0.725757 0.886547
O O16 0.855050 0.768664 0.768007
O O17 0.570263 0.000000 0.945503
O O18 0.500000 0.788132 0.000000
O O19 0.602351 0.772987 0.039456
O O20 0.250000 0.798051 0.273764
O O21 0.324800 0.000000 0.322551
O O22 0.904046 0.500000 0.101247
#
# Coordination Sequence:
#
# PCOD8208662 Si02
#       8
#     8   8   8   8   8   8   8   8
#     4  10  20  35  57  83 111 146 189 234 279 329
#     4  10  19  31  52  81 113 147 186 230 275 324
#     4   9  19  34  52  78 113 149 181 220 273 328
#     4   9  18  32  49  72 107 148 185 222 270 327
#     4  11  22  38  61  86 114 146 183 228 278 333
#     4  11  22  35  56  84 112 142 182 226 270 324
#     4  10  22  41  63  86 113 144 182 230 281 332
#     4  10  19  33  52  76 108 142 181 226 271 321
#
# _framework density 18.728432000000002
#
# number of rings (size 3 to 8) (size 9 to 14) (size 15 to 20)
#    0.000    2.000    1.250    2.625    0.000    4.750 
#    0.000    1.250    0.000    7.500    0.000    0.000 
#    0.000    0.000    0.000    0.000    0.000    0.000 
#
# Total GULP energy -793665.398092 kJ/mol
# GULP energy per Si atom -12401.021845 kJ/mol
# Density = 1.868581 g / cm^3
# Si number density = 18.728432 Si / 1000 Ang^3
#
#
#
# Elastic Constant Matrix: (Units=GPa)
#
#
# Indices 1 2 3 4 5 6 
#
# 1 85.0800 32.2576 32.4029 0.0000 0.0000 0.0000
# 2 32.2576 62.5847 27.4904 0.0000 0.0000 0.0000
# 3 32.4029 27.4904 68.5343 0.0000 0.0000 0.0000
# 4 0.0000 0.0000 0.0000 35.8055 0.0000 0.0000
# 5 0.0000 0.0000 0.0000 0.0000 24.4401 0.0000
# 6 0.0000 0.0000 0.0000 0.0000 0.0000 29.5751
#
#
#
# Elastic Compliance Matrix: (Units=1/GPa)
#
#
# Indices 1 2 3 4 5 6 
#
# 1 0.015983 -0.005971 -0.005162 0.000000 0.000000 0.000000
# 2 -0.005971 0.021626 -0.005852 0.000000 0.000000 0.000000
# 3 -0.005162 -0.005852 0.019379 0.000000 0.000000 0.000000
# 4 0.000000 0.000000 0.000000 0.027929 0.000000 0.000000
# 5 0.000000 0.000000 0.000000 0.000000 0.040916 0.000000
# 6 0.000000 0.000000 0.000000 0.000000 0.000000 0.033812
#
#
# Mechanical properties :
#
#
# Convention : Reuss Voigt Hill
#
# Bulk Modulus (GPa) = 43.44098 44.50010 43.97054
# Shear Modulus (GPa) = 24.84003 26.23399 25.53701
#
# Velocity S-wave (km/s) = 3.64583 3.74673 3.69662
# Velocity P-wave (km/s) = 6.40065 6.52147 6.46134
#
# Compressibility (1/GPa) = 0.02301974
#
# Stress axis : x y z
#
# Youngs Moduli (GPa) = 62.56504 46.24019 51.60226
#
# Poissons Ratio (x) = 0.27609 0.26637
# Poissons Ratio (y) = 0.37356 0.30196
# Poissons Ratio (z) = 0.32295 0.27058
#
# Static dielectric constant tensor:
#      x y z
#    x 3.466190 0.000000 0.000000 
#    y 0.000000 3.475900 0.000000 
#    z 0.000000 0.000000 3.278900 
# 
# 
# High freq. dielectric constant tensor:
#      x y z
#    x 1.719920 0.000000 0.000000 
#    y 0.000000 1.736410 0.000000 
#    z 0.000000 0.000000 1.715190 
# 
# From -- ./inp_files/26252.got.cif
#   From: 2010.03.12/outbox.cif.g09.slc.cpg/sg51_14_cif.got.tgz:26252.got - 2010.04.16 13:43:02.
