data_PCOD8208564
_publ_section_title
;
Structure prediction by ZEFSAII (Michael W. Deem and Ramdas Pophale) SiO2 
 PCOD8208564
Probable space group: P M M A
;
_chemical_formula_sum "Si O2"
_cell_formula_units_Z 56
_cell_length_a 8.933293
_cell_length_b 18.926407
_cell_length_c 18.499579
_cell_angle_alpha 90.000000
_cell_angle_beta 90.000000
_cell_angle_gamma 90.000000
_cell_volume 3127.818894
_symmetry_space_group_name_H-M "P M M A"
_symmetry_group_IT_number 51
_symmetry_cell_setting 'orthorhombic'
loop_
_space_group_symop_operation_xyz
x,y,z
1/2-x,-y,z
1/2+x,-y,-z
-x,y,-z
-x,-y,-z
1/2+x,y,-z
1/2-x,y,z
x,-y,z
loop_
_atom_site_type_symbol
_atom_site_label
_atom_site_fract_x
_atom_site_fract_y
_atom_site_fract_z
Si Si1 0.922128 0.579572 0.356235
Si Si2 0.077143 0.152513 0.075466
Si Si3 0.423252 0.714137 0.166436
Si Si4 0.425033 0.211171 0.703187
Si Si5 0.573007 0.711516 0.576098
Si Si6 0.077140 0.578666 0.813028
Si Si7 0.077369 0.920235 0.794465
O O1 0.750000 0.600063 0.371307
O O2 0.954786 0.500000 0.383634
O O3 0.957315 0.584664 0.271728
O O4 0.027624 0.632943 0.399179
O O5 0.250000 0.136955 0.065171
O O6 0.046688 0.233245 0.099763
O O7 0.017972 0.098331 0.135212
O O8 0.000000 0.137232 0.000000
O O9 0.250000 0.715616 0.189557
O O10 0.525062 0.735683 0.234030
O O11 0.474867 0.635258 0.143995
O O12 0.250000 0.222920 0.688631
O O13 0.516102 0.228540 0.631184
O O14 0.462859 0.130980 0.727386
O O15 0.500000 0.729901 0.500000
O O16 0.750000 0.715596 0.569750
O O17 0.250000 0.594422 0.829344
O O18 0.034834 0.500000 0.840172
O O19 0.250000 0.910223 0.815987
O O20 0.041389 0.000000 0.769903
#
# Coordination Sequence:
#
# PCOD8208564 Si02
#       7
#     8   8   8   8   8   8   8
#     4   9  18  33  51  72 101 135 172 214 261 313
#     4  10  21  35  52  78 111 144 177 210 250 299
#     4  10  19  31  50  76 102 132 173 218 258 302
#     4  10  19  34  55  77 104 134 168 211 254 303
#     4  12  24  36  52  74 102 137 177 218 262 310
#     4   9  17  29  48  73 100 132 170 213 262 312
#     4   9  19  36  59  85 110 139 171 203 248 304
#
# _framework density 17.903851
#
# number of rings (size 3 to 8) (size 9 to 14) (size 15 to 20)
#    0.000    2.143    1.429    3.429    0.000    3.714 
#    0.000    1.429    0.000    0.857    0.000    0.000 
#    0.000    0.000    0.000    0.000    0.000    0.000 
#
# Total GULP energy -694438.258924 kJ/mol
# GULP energy per Si atom -12400.683195 kJ/mol
# Density = 1.786310 g / cm^3
# Si number density = 17.903851 Si / 1000 Ang^3
#
#
#
# Elastic Constant Matrix: (Units=GPa)
#
#
# Indices 1 2 3 4 5 6 
#
# 1 99.0869 50.1768 41.3345 0.0000 0.0000 0.0000
# 2 50.1768 131.0563 41.5881 0.0000 0.0000 0.0000
# 3 41.3345 41.5881 68.0631 0.0000 0.0000 0.0000
# 4 0.0000 0.0000 0.0000 15.4531 0.0000 0.0000
# 5 0.0000 0.0000 0.0000 0.0000 27.1638 0.0000
# 6 0.0000 0.0000 0.0000 0.0000 0.0000 23.1988
#
#
#
# Elastic Compliance Matrix: (Units=1/GPa)
#
#
# Indices 1 2 3 4 5 6 
#
# 1 0.014683 -0.003464 -0.006801 0.000000 0.000000 0.000000
# 2 -0.003464 0.010283 -0.004180 0.000000 0.000000 0.000000
# 3 -0.006801 -0.004180 0.021376 0.000000 0.000000 0.000000
# 4 0.000000 0.000000 0.000000 0.064712 0.000000 0.000000
# 5 0.000000 0.000000 0.000000 0.000000 0.036814 0.000000
# 6 0.000000 0.000000 0.000000 0.000000 0.000000 0.043106
#
#
# Mechanical properties :
#
#
# Convention : Reuss Voigt Hill
#
# Bulk Modulus (GPa) = 57.29258 62.71167 60.00213
# Shear Modulus (GPa) = 22.15541 24.17026 23.16284
#
# Velocity S-wave (km/s) = 3.52158 3.67823 3.60075
# Velocity P-wave (km/s) = 6.97173 7.28986 7.13257
#
# Compressibility (1/GPa) = 0.01745427
#
# Stress axis : x y z
#
# Youngs Moduli (GPa) = 68.10614 97.25090 46.78132
#
# Poissons Ratio (x) = 0.33683 0.31814
# Poissons Ratio (y) = 0.23589 0.19553
# Poissons Ratio (z) = 0.46316 0.40647
#
# Static dielectric constant tensor:
#      x y z
#    x 3.324250 0.000000 0.000000 
#    y 0.000000 3.523720 0.000000 
#    z 0.000000 0.000000 3.077300 
# 
# 
# High freq. dielectric constant tensor:
#      x y z
#    x 1.699570 0.000000 0.000000 
#    y 0.000000 1.696410 0.000000 
#    z 0.000000 0.000000 1.661490 
# 
# From -- ./inp_files/28209.got.cif
#   From: 2010.03.12/outbox.cif.g09.slc.cpg/sg51_15_cif.got.tgz:28209.got - 2010.04.16 13:43:02.
