data_PCOD8208984
_publ_section_title
;
Structure prediction by ZEFSAII (Michael W. Deem and Ramdas Pophale) SiO2 
 PCOD8208984
Probable space group: P M M A
;
_chemical_formula_sum "Si O2"
_cell_formula_units_Z 64
_cell_length_a 28.216935
_cell_length_b 9.432296
_cell_length_c 12.900068
_cell_angle_alpha 90.000000
_cell_angle_beta 90.000000
_cell_angle_gamma 90.000000
_cell_volume 3433.359331
_symmetry_space_group_name_H-M "P M M A"
_symmetry_group_IT_number 51
_symmetry_cell_setting 'orthorhombic'
loop_
_space_group_symop_operation_xyz
x,y,z
1/2-x,-y,z
1/2+x,-y,-z
-x,y,-z
-x,-y,-z
1/2+x,y,-z
1/2-x,y,z
x,-y,z
loop_
_atom_site_type_symbol
_atom_site_label
_atom_site_fract_x
_atom_site_fract_y
_atom_site_fract_z
Si Si1 0.148399 0.331331 0.538991
Si Si2 0.639312 0.334630 0.869706
Si Si3 0.805251 0.835533 0.273931
Si Si4 0.863458 0.165514 0.070359
Si Si5 0.049248 0.667565 0.460343
Si Si6 0.196634 0.331595 0.328081
Si Si7 0.959037 0.663769 0.771913
Si Si8 0.028590 0.834422 0.897786
O O1 0.153365 0.500000 0.551627
O O2 0.171840 0.257903 0.636823
O O3 0.093515 0.281906 0.530309
O O4 0.174347 0.276468 0.435189
O O5 0.650046 0.500000 0.886759
O O6 0.668078 0.273960 0.771226
O O7 0.583657 0.307165 0.851273
O O8 0.655831 0.250393 0.971194
O O9 0.750000 0.799097 0.264182
O O10 0.830005 0.794826 0.166096
O O11 0.813640 0.000000 0.300321
O O12 0.917010 0.213295 0.095223
O O13 0.861505 0.000000 0.043411
O O14 0.046238 0.500000 0.468797
O O15 0.058119 0.712013 0.341668
O O16 0.000000 0.736499 0.500000
O O17 0.250000 0.274511 0.320576
O O18 0.194113 0.500000 0.327562
O O19 0.973980 0.500000 0.771904
O O20 0.005299 0.752578 0.801851
O O21 0.023937 0.000000 0.875579
O O22 0.000000 0.789642 0.000000
#
# Coordination Sequence:
#
# PCOD8208984 Si02
#       8
#     8   8   8   8   8   8   8   8
#     4  10  19  35  60  86 110 141 184 224 264 326
#     4  10  19  33  53  80 109 137 175 221 267 320
#     4  10  23  42  59  76 106 147 186 231 284 328
#     4  10  22  39  56  75 106 146 185 223 272 327
#     4   9  18  32  51  80 116 147 172 210 268 325
#     4   9  17  31  53  80 108 136 167 214 275 323
#     4  10  19  32  52  77 108 142 175 213 262 318
#     4  10  20  34  52  75 103 138 177 216 259 311
#
# _framework density 18.640635
#
# number of rings (size 3 to 8) (size 9 to 14) (size 15 to 20)
#    0.000    2.250    2.500    0.375    1.750    2.500 
#    0.000    1.250    0.000    1.500    0.000    0.000 
#    0.000    0.000    0.000    0.000    0.000    0.000 
#
# Total GULP energy -793638.688177 kJ/mol
# GULP energy per Si atom -12400.604503 kJ/mol
# Density = 1.859821 g / cm^3
# Si number density = 18.640635 Si / 1000 Ang^3
#
#
#
# Elastic Constant Matrix: (Units=GPa)
#
#
# Indices 1 2 3 4 5 6 
#
# 1 134.2660 36.5994 73.4206 0.0000 0.0000 0.0000
# 2 36.5994 38.1998 51.4118 0.0000 0.0000 0.0000
# 3 73.4206 51.4118 143.9938 0.0000 0.0000 0.0000
# 4 0.0000 0.0000 0.0000 13.9298 0.0000 0.0000
# 5 0.0000 0.0000 0.0000 0.0000 33.2543 0.0000
# 6 0.0000 0.0000 0.0000 0.0000 0.0000 17.6917
#
#
#
# Elastic Compliance Matrix: (Units=1/GPa)
#
#
# Indices 1 2 3 4 5 6 
#
# 1 0.010942 -0.005726 -0.003534 0.000000 0.000000 0.000000
# 2 -0.005726 0.053391 -0.016143 0.000000 0.000000 0.000000
# 3 -0.003534 -0.016143 0.014511 0.000000 0.000000 0.000000
# 4 0.000000 0.000000 0.000000 0.071789 0.000000 0.000000
# 5 0.000000 0.000000 0.000000 0.000000 0.030071 0.000000
# 6 0.000000 0.000000 0.000000 0.000000 0.000000 0.056524
#
#
# Mechanical properties :
#
#
# Convention : Reuss Voigt Hill
#
# Bulk Modulus (GPa) = 35.66900 71.03592 53.35246
# Shear Modulus (GPa) = 16.81355 23.31033 20.06194
#
# Velocity S-wave (km/s) = 3.00656 3.54009 3.28418
# Velocity P-wave (km/s) = 5.58831 7.40949 6.56238
#
# Compressibility (1/GPa) = 0.02803555
#
# Stress axis : x y z
#
# Youngs Moduli (GPa) = 91.39464 18.72983 68.91494
#
# Poissons Ratio (x) = 0.10725 0.24358
# Poissons Ratio (y) = 0.52335 1.11249
# Poissons Ratio (z) = 0.32303 0.30236
#
# Static dielectric constant tensor:
#      x y z
#    x 3.647020 0.000000 0.000000 
#    y 0.000000 3.043210 0.000000 
#    z 0.000000 0.000000 3.433490 
# 
# 
# High freq. dielectric constant tensor:
#      x y z
#    x 1.734380 0.000000 0.000000 
#    y 0.000000 1.685050 0.000000 
#    z 0.000000 0.000000 1.730270 
# 
# From -- ./inp_files/19539.got.cif
#   From: 2010.03.12/outbox.cif.g09.slc.cpg/sg51_10_cif.got.tgz:19539.got - 2010.04.16 13:43:02.
