data_PCOD8208975
_publ_section_title
;
Structure prediction by ZEFSAII (Michael W. Deem and Ramdas Pophale) SiO2 
 PCOD8208975
Probable space group: P M M A
;
_chemical_formula_sum "Si O2"
_cell_formula_units_Z 48
_cell_length_a 17.820678
_cell_length_b 8.966792
_cell_length_c 15.518875
_cell_angle_alpha 90.000000
_cell_angle_beta 90.000000
_cell_angle_gamma 90.000000
_cell_volume 2479.827968
_symmetry_space_group_name_H-M "P M M A"
_symmetry_group_IT_number 51
_symmetry_cell_setting 'orthorhombic'
loop_
_space_group_symop_operation_xyz
x,y,z
1/2-x,-y,z
1/2+x,-y,-z
-x,y,-z
-x,-y,-z
1/2+x,y,-z
1/2-x,y,z
x,-y,z
loop_
_atom_site_type_symbol
_atom_site_label
_atom_site_fract_x
_atom_site_fract_y
_atom_site_fract_z
Si Si1 0.165329 0.677521 0.011592
Si Si2 0.424087 0.322220 0.176585
Si Si3 0.336050 0.173249 0.671399
Si Si4 0.594256 0.322792 0.166504
Si Si5 0.587545 0.672209 0.485835
Si Si6 0.334597 0.322428 0.341129
O O1 0.250000 0.740001 0.015853
O O2 0.166056 0.500000 0.013877
O O3 0.125640 0.734229 0.924798
O O4 0.118954 0.740514 0.092837
O O5 0.422636 0.500000 0.175697
O O6 0.509287 0.264109 0.176407
O O7 0.383139 0.259117 0.261700
O O8 0.250000 0.204661 0.646436
O O9 0.353741 0.255699 0.759990
O O10 0.388819 0.233808 0.596382
O O11 0.352362 0.000000 0.684094
O O12 0.597864 0.500000 0.173499
O O13 0.500000 0.693442 0.500000
O O14 0.607959 0.500000 0.468793
O O15 0.630490 0.735136 0.569510
O O16 0.250000 0.261861 0.332768
O O17 0.336305 0.500000 0.339084
#
# Coordination Sequence:
#
# PCOD8208975 Si02
#       6
#     8   8   8   8   8   8
#     4   9  16  26  44  73 106 137 169 208 258 313
#     4   9  16  27  45  72 105 135 165 207 257 308
#     4  11  24  39  54  75 105 142 181 219 262 311
#     4  10  19  32  52  77 104 135 173 217 262 307
#     4  10  20  35  56  81 106 133 170 217 268 320
#     4   9  16  26  43  69 100 132 164 202 253 310
#
# _framework density 19.356182
#
# number of rings (size 3 to 8) (size 9 to 14) (size 15 to 20)
#    0.000    2.333    0.000    3.500    0.000    9.667 
#    0.000    0.000    0.000    2.000    0.000    0.000 
#    0.000    6.667    0.000    0.000    0.000    0.000 
#
# Total GULP energy -595297.786602 kJ/mol
# GULP energy per Si atom -12402.037221 kJ/mol
# Density = 1.931213 g / cm^3
# Si number density = 19.356182 Si / 1000 Ang^3
#
#
#
# Elastic Constant Matrix: (Units=GPa)
#
#
# Indices 1 2 3 4 5 6 
#
# 1 96.0779 21.5214 28.9354 0.0000 0.0000 0.0000
# 2 21.5214 23.3130 23.6755 0.0000 0.0000 0.0000
# 3 28.9354 23.6755 131.8524 0.0000 0.0000 0.0000
# 4 0.0000 0.0000 0.0000 1.2762 0.0000 0.0000
# 5 0.0000 0.0000 0.0000 0.0000 45.2317 0.0000
# 6 0.0000 0.0000 0.0000 0.0000 0.0000 11.8155
#
#
#
# Elastic Compliance Matrix: (Units=1/GPa)
#
#
# Indices 1 2 3 4 5 6 
#
# 1 0.013202 -0.011307 -0.000867 0.000000 0.000000 0.000000
# 2 -0.011307 0.062145 -0.008677 0.000000 0.000000 0.000000
# 3 -0.000867 -0.008677 0.009333 0.000000 0.000000 0.000000
# 4 0.000000 0.000000 0.000000 0.783552 0.000000 0.000000
# 5 0.000000 0.000000 0.000000 0.000000 0.022108 0.000000
# 6 0.000000 0.000000 0.000000 0.000000 0.000000 0.084634
#
#
# Mechanical properties :
#
#
# Convention : Reuss Voigt Hill
#
# Bulk Modulus (GPa) = 23.26835 44.38977 33.82906
# Shear Modulus (GPa) = 4.84965 23.47209 14.16087
#
# Velocity S-wave (km/s) = 1.58459 3.48608 2.70773
# Velocity P-wave (km/s) = 3.92366 6.25992 5.22406
#
# Compressibility (1/GPa) = 0.04297683
#
# Stress axis : x y z
#
# Youngs Moduli (GPa) = 75.74552 16.09137 107.15109
#
# Poissons Ratio (x) = 0.18195 0.09289
# Poissons Ratio (y) = 0.85646 0.92980
# Poissons Ratio (z) = 0.06567 0.13963
#
# Static dielectric constant tensor:
#      x y z
#    x 3.755210 0.000000 0.000000 
#    y 0.000000 2.909780 0.000000 
#    z 0.000000 0.000000 3.738600 
# 
# 
# High freq. dielectric constant tensor:
#      x y z
#    x 1.773290 0.000000 0.000000 
#    y 0.000000 1.684010 0.000000 
#    z 0.000000 0.000000 1.773220 
# 
# From -- ./inp_files/24789.got.cif
#   From: 2010.03.12/outbox.cif.g09.slc.cpg/sg51_13_cif.got.tgz:24789.got - 2010.04.16 13:43:02.
