data_PCOD8208491
_publ_section_title
;
Structure prediction by ZEFSAII (Michael W. Deem and Ramdas Pophale) SiO2 
 PCOD8208491
Probable space group: P M M A
;
_chemical_formula_sum "Si O2"
_cell_formula_units_Z 48
_cell_length_a 8.877605
_cell_length_b 30.346984
_cell_length_c 9.681195
_cell_angle_alpha 90.000000
_cell_angle_beta 90.000000
_cell_angle_gamma 90.000000
_cell_volume 2608.196580
_symmetry_space_group_name_H-M "P M M A"
_symmetry_group_IT_number 51
_symmetry_cell_setting 'orthorhombic'
loop_
_space_group_symop_operation_xyz
x,y,z
1/2-x,-y,z
1/2+x,-y,-z
-x,y,-z
-x,-y,-z
1/2+x,y,-z
1/2-x,y,z
x,-y,z
loop_
_atom_site_type_symbol
_atom_site_label
_atom_site_fract_x
_atom_site_fract_y
_atom_site_fract_z
Si Si1 0.928263 0.858287 0.849664
Si Si2 0.928404 0.383857 0.149783
Si Si3 0.074541 0.046530 0.147349
Si Si4 0.927882 0.208900 0.357102
Si Si5 0.425740 0.309148 0.640890
Si Si6 0.924073 0.448171 0.642332
O O1 0.750000 0.849907 0.857873
O O2 0.966626 0.906666 0.780100
O O3 0.005297 0.820508 0.762711
O O4 0.000000 0.855949 0.000000
O O5 0.750000 0.388786 0.136437
O O6 0.976203 0.339866 0.232527
O O7 0.993177 0.426157 0.228476
O O8 0.000000 0.380551 0.000000
O O9 0.250000 0.046964 0.118959
O O10 0.030425 0.000000 0.226727
O O11 0.000000 0.045649 0.000000
O O12 0.750000 0.202859 0.365214
O O13 0.975294 0.259240 0.325121
O O14 0.000000 0.193003 0.500000
O O15 0.500000 0.326412 0.500000
O O16 0.250000 0.312159 0.615588
O O17 0.750000 0.434132 0.638846
O O18 0.944096 0.500000 0.662009
O O19 0.000000 0.432162 0.500000
#
# Coordination Sequence:
#
# PCOD8208491 Si02
#       6
#     8   8   8   8   8   8
#     4  10  19  31  49  75 104 134 169 210 257 306
#     4  11  23  38  56  81 112 144 178 217 264 312
#     4   8  14  25  42  65  94 127 163 204 249 298
#     4  10  20  36  55  76 103 135 172 212 258 310
#     4   9  20  37  57  79 102 133 173 215 258 309
#     4  10  21  38  60  85 112 144 182 221 261 308
#
# _framework density 18.403521000000001
#
# number of rings (size 3 to 8) (size 9 to 14) (size 15 to 20)
#    0.000    2.333    0.000    2.500    0.000    6.000 
#    0.000    1.667    0.000    0.500    0.000    0.000 
#    0.000    0.000    0.000    0.000    0.000    0.000 
#
# Total GULP energy -594874.241501 kJ/mol
# GULP energy per Si atom -12393.213365 kJ/mol
# Density = 1.836163 g / cm^3
# Si number density = 18.403521 Si / 1000 Ang^3
#
#
#
# Elastic Constant Matrix: (Units=GPa)
#
#
# Indices 1 2 3 4 5 6 
#
# 1 84.0387 51.6070 54.0888 0.0000 0.0000 0.0000
# 2 51.6070 104.8223 69.4393 0.0000 0.0000 0.0000
# 3 54.0888 69.4393 125.4468 0.0000 0.0000 0.0000
# 4 0.0000 0.0000 0.0000 19.3468 0.0000 0.0000
# 5 0.0000 0.0000 0.0000 0.0000 34.6784 0.0000
# 6 0.0000 0.0000 0.0000 0.0000 0.0000 24.5791
#
#
#
# Elastic Compliance Matrix: (Units=1/GPa)
#
#
# Indices 1 2 3 4 5 6 
#
# 1 0.018641 -0.006084 -0.004670 0.000000 0.000000 0.000000
# 2 -0.006084 0.017049 -0.006814 0.000000 0.000000 0.000000
# 3 -0.004670 -0.006814 0.013757 0.000000 0.000000 0.000000
# 4 0.000000 0.000000 0.000000 0.051688 0.000000 0.000000
# 5 0.000000 0.000000 0.000000 0.000000 0.028836 0.000000
# 6 0.000000 0.000000 0.000000 0.000000 0.000000 0.040685
#
#
# Mechanical properties :
#
#
# Convention : Reuss Voigt Hill
#
# Bulk Modulus (GPa) = 69.87481 73.84201 71.85841
# Shear Modulus (GPa) = 23.74589 24.99902 24.37246
#
# Velocity S-wave (km/s) = 3.59596 3.68962 3.64309
# Velocity P-wave (km/s) = 7.43585 7.63951 7.53836
#
# Compressibility (1/GPa) = 0.01431131
#
# Stress axis : x y z
#
# Youngs Moduli (GPa) = 53.64550 58.65328 72.69130
#
# Poissons Ratio (x) = 0.35685 0.33944
# Poissons Ratio (y) = 0.32638 0.49533
# Poissons Ratio (z) = 0.25051 0.39967
#
# Static dielectric constant tensor:
#      x y z
#    x 3.520160 0.000000 0.000000 
#    y 0.000000 3.984610 0.000000 
#    z 0.000000 0.000000 3.159920 
# 
# 
# High freq. dielectric constant tensor:
#      x y z
#    x 1.725570 0.000000 0.000000 
#    y 0.000000 1.736190 0.000000 
#    z 0.000000 0.000000 1.683830 
# 
# From -- ./inp_files/6040.got.cif
#   From: 2010.03.12/outbox.cif.g09.slc.cpg/sg51_4_cif.got.tgz:6040.got - 2010.04.16 13:43:02.
