data_PCOD8208889
_publ_section_title
;
Structure prediction by ZEFSAII (Michael W. Deem and Ramdas Pophale) SiO2 
 PCOD8208889
Probable space group: P M M A
;
_chemical_formula_sum "Si O2"
_cell_formula_units_Z 48
_cell_length_a 8.803172
_cell_length_b 31.004699
_cell_length_c 9.137331
_cell_angle_alpha 90.000000
_cell_angle_beta 90.000000
_cell_angle_gamma 90.000000
_cell_volume 2493.940365
_symmetry_space_group_name_H-M "P M M A"
_symmetry_group_IT_number 51
_symmetry_cell_setting 'orthorhombic'
loop_
_space_group_symop_operation_xyz
x,y,z
1/2-x,-y,z
1/2+x,-y,-z
-x,y,-z
-x,-y,-z
1/2+x,y,-z
1/2-x,y,z
x,-y,z
loop_
_atom_site_type_symbol
_atom_site_label
_atom_site_fract_x
_atom_site_fract_y
_atom_site_fract_z
Si Si1 0.429350 0.372471 0.841829
Si Si2 0.930107 0.131469 0.660575
Si Si3 0.928577 0.213495 0.842034
Si Si4 0.927966 0.548243 0.349098
Si Si5 0.427833 0.046745 0.658969
Si Si6 0.569871 0.703385 0.658277
O O1 0.250000 0.365356 0.851199
O O2 0.472664 0.420098 0.783310
O O3 0.499901 0.338850 0.729980
O O4 0.500000 0.365713 0.000000
O O5 0.750000 0.130321 0.648172
O O6 0.988035 0.171160 0.758110
O O7 0.000000 0.136674 0.500000
O O8 0.990579 0.087208 0.738725
O O9 0.750000 0.211693 0.860431
O O10 0.979472 0.255467 0.752968
O O11 0.000000 0.215830 0.000000
O O12 0.750000 0.548479 0.374790
O O13 0.986654 0.500000 0.310049
O O14 0.000000 0.564993 0.500000
O O15 0.500000 0.043993 0.500000
O O16 0.250000 0.056522 0.645324
O O17 0.455243 0.000000 0.737963
O O18 0.500000 0.710081 0.500000
O O19 0.750000 0.698374 0.646967
#
# Coordination Sequence:
#
# PCOD8208889 Si02
#       6
#     8   8   8   8   8   8
#     4  11  23  38  57  83 115 149 186 228 275 327
#     4  10  19  32  51  77 105 135 174 216 261 312
#     4  10  23  39  56  79 107 140 177 218 265 318
#     4   9  19  36  57  81 110 145 186 231 277 325
#     4   9  16  26  43  70 102 135 171 212 259 308
#     4  11  23  40  61  85 112 143 181 223 271 324
#
# _framework density 19.246649999999999
#
# number of rings (size 3 to 8) (size 9 to 14) (size 15 to 20)
#    0.000    2.000    0.000    4.500    0.000    8.000 
#    0.000    0.000    0.000    0.500    0.000    0.000 
#    0.000    0.000    0.000    0.000    0.000    0.000 
#
# Total GULP energy -595105.720377 kJ/mol
# GULP energy per Si atom -12398.035841 kJ/mol
# Density = 1.920284 g / cm^3
# Si number density = 19.246650 Si / 1000 Ang^3
#
#
#
# Elastic Constant Matrix: (Units=GPa)
#
#
# Indices 1 2 3 4 5 6 
#
# 1 76.2625 53.4041 40.4868 0.0000 0.0000 0.0000
# 2 53.4041 150.7298 63.4751 0.0000 0.0000 0.0000
# 3 40.4868 63.4751 112.9071 0.0000 0.0000 0.0000
# 4 0.0000 0.0000 0.0000 8.9467 0.0000 0.0000
# 5 0.0000 0.0000 0.0000 0.0000 30.8922 0.0000
# 6 0.0000 0.0000 0.0000 0.0000 0.0000 31.2994
#
#
#
# Elastic Compliance Matrix: (Units=1/GPa)
#
#
# Indices 1 2 3 4 5 6 
#
# 1 0.018663 -0.004971 -0.003898 0.000000 0.000000 0.000000
# 2 -0.004971 0.010016 -0.003849 0.000000 0.000000 0.000000
# 3 -0.003898 -0.003849 0.012418 0.000000 0.000000 0.000000
# 4 0.000000 0.000000 0.000000 0.111772 0.000000 0.000000
# 5 0.000000 0.000000 0.000000 0.000000 0.032371 0.000000
# 6 0.000000 0.000000 0.000000 0.000000 0.000000 0.031949
#
#
# Mechanical properties :
#
#
# Convention : Reuss Voigt Hill
#
# Bulk Modulus (GPa) = 63.84476 72.73681 68.29078
# Shear Modulus (GPa) = 20.17392 26.39657 23.28524
#
# Velocity S-wave (km/s) = 3.24107 3.70738 3.48204
# Velocity P-wave (km/s) = 6.87386 7.49668 7.19201
#
# Compressibility (1/GPa) = 0.01566299
#
# Stress axis : x y z
#
# Youngs Moduli (GPa) = 53.58267 99.83722 80.52787
#
# Poissons Ratio (x) = 0.49628 0.31386
# Poissons Ratio (y) = 0.26636 0.30992
# Poissons Ratio (z) = 0.20884 0.38423
#
# Static dielectric constant tensor:
#      x y z
#    x 3.577300 0.000000 0.000000 
#    y 0.000000 4.371670 0.000000 
#    z 0.000000 0.000000 3.290720 
# 
# 
# High freq. dielectric constant tensor:
#      x y z
#    x 1.756340 0.000000 0.000000 
#    y 0.000000 1.775900 0.000000 
#    z 0.000000 0.000000 1.723340 
# 
# From -- ./inp_files/6086.got.cif
#   From: 2010.03.12/outbox.cif.g09.slc.cpg/sg51_4_cif.got.tgz:6086.got - 2010.04.16 13:43:02.
