data_PCOD8208744
_publ_section_title
;
Structure prediction by ZEFSAII (Michael W. Deem and Ramdas Pophale) SiO2 
 PCOD8208744
Probable space group: P M M A
;
_chemical_formula_sum "Si O2"
_cell_formula_units_Z 64
_cell_length_a 8.687714
_cell_length_b 31.395678
_cell_length_c 14.341289
_cell_angle_alpha 90.000000
_cell_angle_beta 90.000000
_cell_angle_gamma 90.000000
_cell_volume 3911.682250
_symmetry_space_group_name_H-M "P M M A"
_symmetry_group_IT_number 51
_symmetry_cell_setting 'orthorhombic'
loop_
_space_group_symop_operation_xyz
x,y,z
1/2-x,-y,z
1/2+x,-y,-z
-x,y,-z
-x,-y,-z
1/2+x,y,-z
1/2-x,y,z
x,-y,z
loop_
_atom_site_type_symbol
_atom_site_label
_atom_site_fract_x
_atom_site_fract_y
_atom_site_fract_z
Si Si1 0.568473 0.955056 0.898283
Si Si2 0.068355 0.863238 0.101833
Si Si3 0.568176 0.625853 0.780940
Si Si4 0.567944 0.343034 0.402923
Si Si5 0.930814 0.547524 0.902869
Si Si6 0.068395 0.702661 0.897790
Si Si7 0.928712 0.780615 0.791950
Si Si8 0.928456 0.251185 0.593612
O O1 0.750000 0.954647 0.907221
O O2 0.515877 0.909512 0.854197
O O3 0.517997 0.000000 0.846504
O O4 0.500000 0.956210 0.000000
O O5 0.250000 0.861608 0.090463
O O6 0.012890 0.826496 0.172117
O O7 0.000000 0.854984 0.000000
O O8 0.750000 0.631787 0.772044
O O9 0.492550 0.627107 0.679413
O O10 0.520205 0.580024 0.822034
O O11 0.505199 0.662268 0.848039
O O12 0.500000 0.360410 0.500000
O O13 0.750000 0.344497 0.406504
O O14 0.513474 0.295111 0.383287
O O15 0.750000 0.547415 0.915712
O O16 0.991456 0.500000 0.877665
O O17 0.000000 0.563723 0.000000
O O18 0.250000 0.696267 0.903636
O O19 0.031695 0.744834 0.839528
O O20 0.000000 0.707787 0.000000
O O21 0.750000 0.772147 0.816923
O O22 0.952861 0.780512 0.680288
O O23 0.750000 0.261400 0.576218
O O24 0.000000 0.230217 0.500000
#
# Coordination Sequence:
#
# PCOD8208744 Si02
#       8
#     8   8   8   8   8   8   8   8
#     4   8  13  22  37  56  79 108 145 188 229 270
#     4   9  17  28  41  60  86 120 156 188 228 275
#     4  11  21  35  54  76 102 128 160 199 237 280
#     4  11  21  34  53  76 100 126 159 197 240 284
#     4   9  19  35  55  78 103 131 161 195 236 280
#     4  12  24  35  48  67  95 129 164 197 231 274
#     4  10  20  33  47  64  91 124 156 192 233 280
#     4  10  19  32  50  68  91 119 154 196 240 281
#
# _framework density 16.361246000000001
#
# number of rings (size 3 to 8) (size 9 to 14) (size 15 to 20)
#    0.000    2.000    1.250    4.500    0.000    4.000 
#    0.000    0.000    0.000    0.375    0.000    0.000 
#    0.000    0.500    0.000    0.375    0.000    1.000 
#
# Total GULP energy -793181.196790 kJ/mol
# GULP energy per Si atom -12393.456200 kJ/mol
# Density = 1.632401 g / cm^3
# Si number density = 16.361246 Si / 1000 Ang^3
#
#
#
# Elastic Constant Matrix: (Units=GPa)
#
#
# Indices 1 2 3 4 5 6 
#
# 1 73.3637 37.5007 38.0134 0.0000 0.0000 0.0000
# 2 37.5007 119.7826 61.1344 0.0000 0.0000 0.0000
# 3 38.0134 61.1344 111.5451 0.0000 0.0000 0.0000
# 4 0.0000 0.0000 0.0000 12.5143 0.0000 0.0000
# 5 0.0000 0.0000 0.0000 0.0000 26.3516 0.0000
# 6 0.0000 0.0000 0.0000 0.0000 0.0000 10.2498
#
#
#
# Elastic Compliance Matrix: (Units=1/GPa)
#
#
# Indices 1 2 3 4 5 6 
#
# 1 0.017486 -0.003378 -0.004108 0.000000 0.000000 0.000000
# 2 -0.003378 0.012243 -0.005559 0.000000 0.000000 0.000000
# 3 -0.004108 -0.005559 0.013412 0.000000 0.000000 0.000000
# 4 0.000000 0.000000 0.000000 0.079909 0.000000 0.000000
# 5 0.000000 0.000000 0.000000 0.000000 0.037948 0.000000
# 6 0.000000 0.000000 0.000000 0.000000 0.000000 0.097563
#
#
# Mechanical properties :
#
#
# Convention : Reuss Voigt Hill
#
# Bulk Modulus (GPa) = 58.64597 64.22092 61.43345
# Shear Modulus (GPa) = 17.22157 21.02598 19.12378
#
# Velocity S-wave (km/s) = 3.24787 3.58873 3.42255
# Velocity P-wave (km/s) = 7.07016 7.51725 7.29713
#
# Compressibility (1/GPa) = 0.01705147
#
# Stress axis : x y z
#
# Youngs Moduli (GPa) = 57.18953 81.67845 74.56281
#
# Poissons Ratio (x) = 0.27590 0.30628
# Poissons Ratio (y) = 0.19318 0.41449
# Poissons Ratio (z) = 0.23491 0.45405
#
# Static dielectric constant tensor:
#      x y z
#    x 3.157390 0.000000 0.000000 
#    y 0.000000 3.639370 0.000000 
#    z 0.000000 0.000000 3.251340 
# 
# 
# High freq. dielectric constant tensor:
#      x y z
#    x 1.638700 0.000000 0.000000 
#    y 0.000000 1.624320 0.000000 
#    z 0.000000 0.000000 1.609150 
# 
# From -- ./inp_files/22616.got.cif
#   From: 2010.03.12/outbox.cif.g09.slc.cpg/sg51_12_cif.got.tgz:22616.got - 2010.04.16 13:43:02.
