data_PCOD8208477
_publ_section_title
;
Structure prediction by ZEFSAII (Michael W. Deem and Ramdas Pophale) SiO2 
 PCOD8208477
Probable space group: P M M A
;
_chemical_formula_sum "Si O2"
_cell_formula_units_Z 48
_cell_length_a 9.488048
_cell_length_b 14.028223
_cell_length_c 18.096832
_cell_angle_alpha 90.000000
_cell_angle_beta 90.000000
_cell_angle_gamma 90.000000
_cell_volume 2408.696540
_symmetry_space_group_name_H-M "P M M A"
_symmetry_group_IT_number 51
_symmetry_cell_setting 'orthorhombic'
loop_
_space_group_symop_operation_xyz
x,y,z
1/2-x,-y,z
1/2+x,-y,-z
-x,y,-z
-x,-y,-z
1/2+x,y,-z
1/2-x,y,z
x,-y,z
loop_
_atom_site_type_symbol
_atom_site_label
_atom_site_fract_x
_atom_site_fract_y
_atom_site_fract_z
Si Si1 0.750000 0.613121 0.115756
Si Si2 0.904750 0.276771 0.687925
Si Si3 0.958088 0.611990 0.830203
Si Si4 0.411438 0.113513 0.929969
Si Si5 0.414504 0.609359 0.574374
Si Si6 0.586342 0.891205 0.788064
Si Si7 0.750000 0.612379 0.953118
O O1 0.750000 0.500000 0.106723
O O2 0.881930 0.647130 0.163476
O O3 0.750000 0.660648 0.034038
O O4 0.750000 0.276891 0.648730
O O5 0.946362 0.170128 0.714144
O O6 0.885929 0.339188 0.761163
O O7 0.024766 0.319268 0.635513
O O8 0.942032 0.500000 0.818109
O O9 0.886764 0.643879 0.906967
O O10 0.250000 0.152466 0.930715
O O11 0.490486 0.147486 0.855328
O O12 0.410070 0.000000 0.932631
O O13 0.500000 0.152962 0.000000
O O14 0.500000 0.628071 0.500000
O O15 0.250000 0.631911 0.561530
O O16 0.435052 0.500000 0.600812
O O17 0.750000 0.880673 0.811576
O O18 0.549037 0.000000 0.768433
O O19 0.750000 0.500000 0.964360
#
# Coordination Sequence:
#
# PCOD8208477 Si02
#       7
#     4   8   8   8   8   8   4
#     4   9  18  30  46  66  98 142 186 229 272 322
#     4  11  22  36  57  83 115 147 185 232 285 340
#     4  10  19  31  49  74 102 137 181 227 277 330
#     4   9  16  28  49  74 100 135 182 239 301 357
#     4  10  22  40  64  94 126 157 185 216 263 326
#     4   9  19  36  56  77 106 146 193 243 294 347
#     4   9  16  30  48  66  94 138 186 229 274 326
#
# _framework density 19.927790000000002
#
# number of rings (size 3 to 8) (size 9 to 14) (size 15 to 20)
#    0.000    2.333    0.833    2.000    1.167    6.333 
#    0.000    1.667    0.000    0.500    0.000    0.000 
#    0.000    0.000    0.000    0.000    0.000    0.000 
#
# Total GULP energy -595062.654512 kJ/mol
# GULP energy per Si atom -12397.138636 kJ/mol
# Density = 1.988243 g / cm^3
# Si number density = 19.927790 Si / 1000 Ang^3
#
#
#
# Elastic Constant Matrix: (Units=GPa)
#
#
# Indices 1 2 3 4 5 6 
#
# 1 147.5303 36.9650 49.7050 0.0000 0.0000 0.0000
# 2 36.9650 68.2703 41.5287 0.0000 0.0000 0.0000
# 3 49.7050 41.5287 86.6022 0.0000 0.0000 0.0000
# 4 0.0000 0.0000 0.0000 -4.7484 0.0000 0.0000
# 5 0.0000 0.0000 0.0000 0.0000 47.4078 0.0000
# 6 0.0000 0.0000 0.0000 0.0000 0.0000 19.4188
#
#
#
# Elastic Compliance Matrix: (Units=1/GPa)
#
#
# Indices 1 2 3 4 5 6 
#
# 1 0.008663 -0.002352 -0.003844 0.000000 0.000000 0.000000
# 2 -0.002352 0.021319 -0.008873 0.000000 0.000000 0.000000
# 3 -0.003844 -0.008873 0.018008 0.000000 0.000000 0.000000
# 4 0.000000 0.000000 0.000000 -0.210599 0.000000 0.000000
# 5 0.000000 0.000000 0.000000 0.000000 0.021094 0.000000
# 6 0.000000 0.000000 0.000000 0.000000 0.000000 0.051496
#
#
# Mechanical properties :
#
#
# Convention : Reuss Voigt Hill
#
# Bulk Modulus (GPa) = 56.01842 62.08891 59.05367
# Shear Modulus (GPa) = -92.71110 24.02926 -34.34092
#
# Velocity S-wave (km/s) = -6.82821 3.47625 -4.15573
# Velocity P-wave (km/s) = 5.83046 6.88019 2.58290
#
# Compressibility (1/GPa) = 0.01785127
#
# Stress axis : x y z
#
# Youngs Moduli (GPa) = 115.43730 46.90723 55.53016
#
# Poissons Ratio (x) = 0.11033 0.21346
# Poissons Ratio (y) = 0.27152 0.49272
# Poissons Ratio (z) = 0.44374 0.41621
#
# Static dielectric constant tensor:
#      x y z
#    x 3.832240 0.000000 0.000000 
#    y 0.000000 3.534790 0.000000 
#    z 0.000000 0.000000 3.393590 
# 
# 
# High freq. dielectric constant tensor:
#      x y z
#    x 1.792520 0.000000 0.000000 
#    y 0.000000 1.766710 0.000000 
#    z 0.000000 0.000000 1.745490 
# 
# From -- ./inp_files/27619.got.cif
#   From: 2010.03.12/outbox.cif.g09.slc.cpg/sg51_14_cif.got.tgz:27619.got - 2010.04.16 13:43:02.
