data_PCOD8208551
_publ_section_title
;
Structure prediction by ZEFSAII (Michael W. Deem and Ramdas Pophale) SiO2 
 PCOD8208551
Probable space group: P M M A
;
_chemical_formula_sum "Si O2"
_cell_formula_units_Z 56
_cell_length_a 9.238445
_cell_length_b 22.469897
_cell_length_c 14.660983
_cell_angle_alpha 90.000000
_cell_angle_beta 90.000000
_cell_angle_gamma 90.000000
_cell_volume 3043.428123
_symmetry_space_group_name_H-M "P M M A"
_symmetry_group_IT_number 51
_symmetry_cell_setting 'orthorhombic'
loop_
_space_group_symop_operation_xyz
x,y,z
1/2-x,-y,z
1/2+x,-y,-z
-x,y,-z
-x,-y,-z
1/2+x,y,-z
1/2-x,y,z
x,-y,z
loop_
_atom_site_type_symbol
_atom_site_label
_atom_site_fract_x
_atom_site_fract_y
_atom_site_fract_z
Si Si1 0.083676 0.396132 0.086315
Si Si2 0.083999 0.433331 0.283352
Si Si3 0.081684 0.739156 0.087898
Si Si4 0.580644 0.165565 0.764677
Si Si5 0.418655 0.345025 0.591452
Si Si6 0.418520 0.932032 0.090693
Si Si7 0.419974 0.207422 0.593046
O O1 0.250000 0.398030 0.059127
O O2 0.050895 0.434740 0.175586
O O3 0.033544 0.328506 0.106360
O O4 0.000000 0.423500 0.000000
O O5 0.250000 0.413090 0.300451
O O6 0.057755 0.500000 0.321371
O O7 0.976570 0.386711 0.328614
O O8 0.250000 0.745621 0.066876
O O9 0.039392 0.776437 0.176833
O O10 0.000000 0.765384 0.000000
O O11 0.750000 0.164959 0.738638
O O12 0.536199 0.107225 0.822206
O O13 0.486146 0.166886 0.672985
O O14 0.500000 0.364090 0.500000
O O15 0.250000 0.356997 0.576968
O O16 0.450208 0.276551 0.616096
O O17 0.250000 0.923784 0.070075
O O18 0.459142 0.000000 0.114042
O O19 0.500000 0.910086 0.000000
O O20 0.500000 0.189430 0.500000
O O21 0.250000 0.194419 0.582736
#
# Coordination Sequence:
#
# PCOD8208551 Si02
#       7
#     8   8   8   8   8   8   8
#     4   9  18  32  48  67  94 127 162 201 246 295
#     4  10  21  36  53  73  98 130 168 208 249 296
#     4   9  17  28  44  68  97 128 161 200 247 297
#     4  10  19  31  50  75 104 138 173 211 255 299
#     4  10  21  37  57  79 102 129 160 199 251 308
#     4   9  18  32  50  75 109 148 186 220 254 295
#     4  10  21  36  55  79 104 130 163 205 254 308
#
# _framework density 18.400303999999998
#
# number of rings (size 3 to 8) (size 9 to 14) (size 15 to 20)
#    0.000    2.429    0.000    2.143    0.000    5.429 
#    0.000    2.857    0.000    0.429    0.000    0.000 
#    0.000    0.000    0.000    0.000    0.000    0.000 
#
# Total GULP energy -694496.856352 kJ/mol
# GULP energy per Si atom -12401.729578 kJ/mol
# Density = 1.835842 g / cm^3
# Si number density = 18.400304 Si / 1000 Ang^3
#
#
#
# Elastic Constant Matrix: (Units=GPa)
#
#
# Indices 1 2 3 4 5 6 
#
# 1 81.4354 36.1866 66.0864 0.0000 0.0000 0.0000
# 2 36.1866 65.9085 46.4141 0.0000 0.0000 0.0000
# 3 66.0864 46.4141 125.0842 0.0000 0.0000 0.0000
# 4 0.0000 0.0000 0.0000 20.8332 0.0000 0.0000
# 5 0.0000 0.0000 0.0000 0.0000 40.3999 0.0000
# 6 0.0000 0.0000 0.0000 0.0000 0.0000 17.7722
#
#
#
# Elastic Compliance Matrix: (Units=1/GPa)
#
#
# Indices 1 2 3 4 5 6 
#
# 1 0.022870 -0.005479 -0.010050 0.000000 0.000000 0.000000
# 2 -0.005479 0.021853 -0.005214 0.000000 0.000000 0.000000
# 3 -0.010050 -0.005214 0.015239 0.000000 0.000000 0.000000
# 4 0.000000 0.000000 0.000000 0.048000 0.000000 0.000000
# 5 0.000000 0.000000 0.000000 0.000000 0.024753 0.000000
# 6 0.000000 0.000000 0.000000 0.000000 0.000000 0.056268
#
#
# Mechanical properties :
#
#
# Convention : Reuss Voigt Hill
#
# Bulk Modulus (GPa) = 54.12522 63.31138 58.71830
# Shear Modulus (GPa) = 21.13029 24.05044 22.59036
#
# Velocity S-wave (km/s) = 3.39243 3.61926 3.50768
# Velocity P-wave (km/s) = 6.69508 7.20749 6.95600
#
# Compressibility (1/GPa) = 0.01847568
#
# Stress axis : x y z
#
# Youngs Moduli (GPa) = 43.72502 45.76121 65.62112
#
# Poissons Ratio (x) = 0.25074 0.65949
# Poissons Ratio (y) = 0.23958 0.34213
# Poissons Ratio (z) = 0.43943 0.23859
#
# Static dielectric constant tensor:
#      x y z
#    x 3.344050 0.000000 0.000000 
#    y 0.000000 3.338850 0.000000 
#    z 0.000000 0.000000 3.321360 
# 
# 
# High freq. dielectric constant tensor:
#      x y z
#    x 1.710970 0.000000 0.000000 
#    y 0.000000 1.699790 0.000000 
#    z 0.000000 0.000000 1.711050 
# 
# From -- ./inp_files/21814.got.cif
#   From: 2010.03.12/outbox.cif.g09.slc.cpg/sg51_11_cif.got.tgz:21814.got - 2010.04.16 13:43:02.
