data_PCOD8208457
_publ_section_title
;
Structure prediction by ZEFSAII (Michael W. Deem and Ramdas Pophale) SiO2 
 PCOD8208457
Probable space group: P M M A
;
_chemical_formula_sum "Si O2"
_cell_formula_units_Z 64
_cell_length_a 9.286279
_cell_length_b 19.138390
_cell_length_c 19.420715
_cell_angle_alpha 90.000000
_cell_angle_beta 90.000000
_cell_angle_gamma 90.000000
_cell_volume 3451.535487
_symmetry_space_group_name_H-M "P M M A"
_symmetry_group_IT_number 51
_symmetry_cell_setting 'orthorhombic'
loop_
_space_group_symop_operation_xyz
x,y,z
1/2-x,-y,z
1/2+x,-y,-z
-x,y,-z
-x,-y,-z
1/2+x,y,-z
1/2-x,y,z
x,-y,z
loop_
_atom_site_type_symbol
_atom_site_label
_atom_site_fract_x
_atom_site_fract_y
_atom_site_fract_z
Si Si1 0.919430 0.422751 0.618342
Si Si2 0.093503 0.098259 0.061081
Si Si3 0.096282 0.257026 0.057833
Si Si4 0.082401 0.080700 0.216873
Si Si5 0.416898 0.806799 0.692138
Si Si6 0.407657 0.712856 0.820334
Si Si7 0.911024 0.423861 0.245511
Si Si8 0.923654 0.728758 0.569534
O O1 0.750000 0.424140 0.622038
O O2 0.973550 0.500000 0.589474
O O3 0.968303 0.353700 0.576597
O O4 0.975173 0.411998 0.694882
O O5 0.250000 0.061088 0.063564
O O6 0.117059 0.177287 0.037124
O O7 0.024641 0.090948 0.137957
O O8 0.000000 0.062009 0.000000
O O9 0.250000 0.295741 0.060737
O O10 0.027797 0.254163 0.132648
O O11 0.000000 0.295825 0.000000
O O12 0.250000 0.104116 0.221139
O O13 0.988879 0.125977 0.270858
O O14 0.063882 0.000000 0.238436
O O15 0.250000 0.824131 0.671579
O O16 0.419772 0.742376 0.744073
O O17 0.510689 0.779997 0.627643
O O18 0.250000 0.728841 0.852096
O O19 0.436635 0.630197 0.816163
O O20 0.750000 0.414006 0.276657
O O21 0.929765 0.500000 0.212065
O O22 0.750000 0.737803 0.567561
O O23 0.000000 0.754763 0.500000
#
# Coordination Sequence:
#
# PCOD8208457 Si02
#       8
#     8   8   8   8   8   8   8   8
#     4   9  18  32  50  76 111 148 184 222 263 314
#     4   9  18  31  48  74 108 145 182 218 259 312
#     4  10  19  31  49  73 104 139 177 222 272 322
#     4  10  21  38  58  81 112 149 186 224 271 325
#     4  11  22  37  58  84 112 140 181 229 271 320
#     4  10  19  31  51  78 105 137 178 225 271 318
#     4   9  17  30  49  74 105 140 177 220 270 321
#     4  11  23  38  58  82 113 149 186 226 273 323
#
# _framework density 18.542470999999999
#
# number of rings (size 3 to 8) (size 9 to 14) (size 15 to 20)
#    0.000    2.125    2.500    1.125    0.000    3.250 
#    0.000    0.000    0.000    0.750    0.000    0.000 
#    0.000    0.000    0.000    0.000    0.000    0.000 
#
# Total GULP energy -792849.991059 kJ/mol
# GULP energy per Si atom -12388.281110 kJ/mol
# Density = 1.850027 g / cm^3
# Si number density = 18.542471 Si / 1000 Ang^3
#
#
#
# Elastic Constant Matrix: (Units=GPa)
#
#
# Indices 1 2 3 4 5 6 
#
# 1 92.8938 39.8127 55.5074 0.0000 0.0000 0.0000
# 2 39.8127 80.5405 37.4867 0.0000 0.0000 0.0000
# 3 55.5074 37.4867 96.3685 0.0000 0.0000 0.0000
# 4 0.0000 0.0000 0.0000 -54.2177 0.0000 0.0000
# 5 0.0000 0.0000 0.0000 0.0000 30.9157 0.0000
# 6 0.0000 0.0000 0.0000 0.0000 0.0000 38.5334
#
#
#
# Elastic Compliance Matrix: (Units=1/GPa)
#
#
# Indices 1 2 3 4 5 6 
#
# 1 0.017893 -0.004943 -0.008383 0.000000 0.000000 0.000000
# 2 -0.004943 0.016526 -0.003582 0.000000 0.000000 0.000000
# 3 -0.008383 -0.003582 0.016599 0.000000 0.000000 0.000000
# 4 0.000000 0.000000 0.000000 -0.018444 0.000000 0.000000
# 5 0.000000 0.000000 0.000000 0.000000 0.032346 0.000000
# 6 0.000000 0.000000 0.000000 0.000000 0.000000 0.025952
#
#
# Mechanical properties :
#
#
# Convention : Reuss Voigt Hill
#
# Bulk Modulus (GPa) = 58.13143 59.49072 58.81107
# Shear Modulus (GPa) = 38.33734 12.17934 25.25834
#
# Velocity S-wave (km/s) = 4.55196 2.56566 3.69479
# Velocity P-wave (km/s) = 7.68411 6.39765 7.07020
#
# Compressibility (1/GPa) = 0.01720240
#
# Stress axis : x y z
#
# Youngs Moduli (GPa) = 55.88868 60.50894 60.24532
#
# Poissons Ratio (x) = 0.29908 0.50506
# Poissons Ratio (y) = 0.27625 0.21578
# Poissons Ratio (z) = 0.46853 0.21672
#
# Static dielectric constant tensor:
#      x y z
#    x 3.811620 0.000000 0.000000 
#    y 0.000000 3.468740 0.000000 
#    z 0.000000 0.000000 3.122560 
# 
# 
# High freq. dielectric constant tensor:
#      x y z
#    x 1.727400 0.000000 0.000000 
#    y 0.000000 1.710060 0.000000 
#    z 0.000000 0.000000 1.693860 
# 
# From -- ./inp_files/28391.got.cif
#   From: 2010.03.12/outbox.cif.g09.slc.cpg/sg51_15_cif.got.tgz:28391.got - 2010.04.16 13:43:02.
