data_PCOD8208665
_publ_section_title
;
Structure prediction by ZEFSAII (Michael W. Deem and Ramdas Pophale) SiO2 
 PCOD8208665
Probable space group: P M M A
;
_chemical_formula_sum "Si O2"
_cell_formula_units_Z 56
_cell_length_a 22.077765
_cell_length_b 8.858114
_cell_length_c 14.841709
_cell_angle_alpha 90.000000
_cell_angle_beta 90.000000
_cell_angle_gamma 90.000000
_cell_volume 2902.553836
_symmetry_space_group_name_H-M "P M M A"
_symmetry_group_IT_number 51
_symmetry_cell_setting 'orthorhombic'
loop_
_space_group_symop_operation_xyz
x,y,z
1/2-x,-y,z
1/2+x,-y,-z
-x,y,-z
-x,-y,-z
1/2+x,y,-z
1/2-x,y,z
x,-y,z
loop_
_atom_site_type_symbol
_atom_site_label
_atom_site_fract_x
_atom_site_fract_y
_atom_site_fract_z
Si Si1 0.627827 0.180206 0.547253
Si Si2 0.454491 0.679368 0.307547
Si Si3 0.436276 0.320411 0.965258
Si Si4 0.126832 0.321816 0.141215
Si Si5 0.750000 0.835505 0.830204
Si Si6 0.081865 0.677522 0.766366
Si Si7 0.250000 0.162829 0.376977
Si Si8 0.679332 0.322292 0.374995
O O1 0.569887 0.248805 0.599001
O O2 0.688586 0.247909 0.594881
O O3 0.635591 0.237084 0.445401
O O4 0.622298 0.000000 0.551436
O O5 0.449922 0.500000 0.317122
O O6 0.415241 0.740588 0.222348
O O7 0.523710 0.734770 0.291489
O O8 0.437474 0.500000 0.957993
O O9 0.418880 0.251515 0.867267
O O10 0.500000 0.258260 0.000000
O O11 0.391201 0.263342 0.042344
O O12 0.123579 0.500000 0.146485
O O13 0.193943 0.265757 0.146700
O O14 0.750000 0.868357 0.726398
O O15 0.750000 0.000000 0.879209
O O16 0.073800 0.500000 0.775565
O O17 0.146437 0.716388 0.719933
O O18 0.250000 0.000000 0.427813
O O19 0.750000 0.266263 0.374463
O O20 0.677410 0.500000 0.394918
#
# Coordination Sequence:
#
# PCOD8208665 Si02
#       8
#     8   8   8   8   4   8   4   8
#     4  11  21  36  56  78 106 141 183 221 266 323
#     4  10  19  32  54  84 114 142 174 220 275 326
#     4   9  15  29  55  84 111 140 176 220 271 325
#     4  10  19  31  52  84 113 139 182 229 268 318
#     4  11  21  35  51  72 111 152 182 219 277 335
#     4   9  18  34  55  80 113 145 175 221 277 324
#     4   9  18  31  49  72  97 136 178 213 259 315
#     4  10  21  37  56  79 106 141 186 227 265 314
#
# _framework density 19.293355999999999
#
# number of rings (size 3 to 8) (size 9 to 14) (size 15 to 20)
#    0.000    2.143    3.571    0.643    0.000    0.571 
#    1.286    3.571    0.000    2.143    0.000    0.000 
#    0.000    0.000    0.000    0.000    0.000    0.000 
#
# Total GULP energy -693833.433422 kJ/mol
# GULP energy per Si atom -12389.882740 kJ/mol
# Density = 1.924944 g / cm^3
# Si number density = 19.293356 Si / 1000 Ang^3
#
#
#
# Elastic Constant Matrix: (Units=GPa)
#
#
# Indices 1 2 3 4 5 6 
#
# 1 100.4966 11.2176 50.4247 0.0000 0.0000 0.0000
# 2 11.2176 15.2358 22.0784 0.0000 0.0000 0.0000
# 3 50.4247 22.0784 129.7104 0.0000 0.0000 0.0000
# 4 0.0000 0.0000 0.0000 6.5339 0.0000 0.0000
# 5 0.0000 0.0000 0.0000 0.0000 42.5492 0.0000
# 6 0.0000 0.0000 0.0000 0.0000 0.0000 6.6531
#
#
#
# Elastic Compliance Matrix: (Units=1/GPa)
#
#
# Indices 1 2 3 4 5 6 
#
# 1 0.012455 -0.002859 -0.004355 0.000000 0.000000 0.000000
# 2 -0.002859 0.087781 -0.013830 0.000000 0.000000 0.000000
# 3 -0.004355 -0.013830 0.011757 0.000000 0.000000 0.000000
# 4 0.000000 0.000000 0.000000 0.153049 0.000000 0.000000
# 5 0.000000 0.000000 0.000000 0.000000 0.023502 0.000000
# 6 0.000000 0.000000 0.000000 0.000000 0.000000 0.150306
#
#
# Mechanical properties :
#
#
# Convention : Reuss Voigt Hill
#
# Bulk Modulus (GPa) = 14.30525 45.87603 30.09064
# Shear Modulus (GPa) = 9.91591 21.92871 15.92231
#
# Velocity S-wave (km/s) = 2.26952 3.37500 2.87588
# Velocity P-wave (km/s) = 3.78131 6.24638 5.16312
#
# Compressibility (1/GPa) = 0.06990442
#
# Stress axis : x y z
#
# Youngs Moduli (GPa) = 80.28932 11.39193 85.05833
#
# Poissons Ratio (x) = 0.03257 0.37045
# Poissons Ratio (y) = 0.22954 1.17637
# Poissons Ratio (z) = 0.34968 0.15755
#
# Static dielectric constant tensor:
#      x y z
#    x 3.604110 0.000000 0.000000 
#    y 0.000000 3.114040 0.000000 
#    z 0.000000 0.000000 3.750990 
# 
# 
# High freq. dielectric constant tensor:
#      x y z
#    x 1.755180 0.000000 0.000000 
#    y 0.000000 1.705220 0.000000 
#    z 0.000000 0.000000 1.754140 
# 
# From -- ./inp_files/25917.got.cif
#   From: 2010.03.12/outbox.cif.g09.slc.cpg/sg51_13_cif.got.tgz:25917.got - 2010.04.16 13:43:02.
