data_PCOD8208828
_publ_section_title
;
Structure prediction by ZEFSAII (Michael W. Deem and Ramdas Pophale) SiO2 
 PCOD8208828
Probable space group: P M M A
;
_chemical_formula_sum "Si O2"
_cell_formula_units_Z 56
_cell_length_a 14.468991
_cell_length_b 9.096874
_cell_length_c 23.072888
_cell_angle_alpha 90.000000
_cell_angle_beta 90.000000
_cell_angle_gamma 90.000000
_cell_volume 3036.913232
_symmetry_space_group_name_H-M "P M M A"
_symmetry_group_IT_number 51
_symmetry_cell_setting 'orthorhombic'
loop_
_space_group_symop_operation_xyz
x,y,z
1/2-x,-y,z
1/2+x,-y,-z
-x,y,-z
-x,-y,-z
1/2+x,y,-z
1/2-x,y,z
x,-y,z
loop_
_atom_site_type_symbol
_atom_site_label
_atom_site_fract_x
_atom_site_fract_y
_atom_site_fract_z
Si Si1 0.505497 0.327170 0.565255
Si Si2 0.644933 0.830823 0.642654
Si Si3 0.501584 0.828903 0.259123
Si Si4 0.642277 0.673159 0.339809
Si Si5 0.404555 0.833776 0.034574
Si Si6 0.150925 0.663305 0.932047
Si Si7 0.978508 0.325840 0.860770
O O1 0.500000 0.265995 0.500000
O O2 0.518428 0.500000 0.565654
O O3 0.598625 0.260190 0.591296
O O4 0.413047 0.283039 0.601375
O O5 0.750000 0.776397 0.652536
O O6 0.587029 0.804347 0.700654
O O7 0.642776 0.000000 0.624192
O O8 0.594195 0.756870 0.286141
O O9 0.470220 0.749079 0.200989
O O10 0.522193 0.000000 0.247899
O O11 0.750000 0.720791 0.345757
O O12 0.634530 0.500000 0.327740
O O13 0.404120 0.742265 0.094531
O O14 0.375355 0.000000 0.049108
O O15 0.500000 0.824643 0.000000
O O16 0.334317 0.761089 0.989490
O O17 0.250000 0.660436 0.900163
O O18 0.119714 0.500000 0.951938
O O19 0.078567 0.722129 0.885221
O O20 0.964087 0.500000 0.854999
#
# Coordination Sequence:
#
# PCOD8208828 Si02
#       7
#     8   8   8   8   8   8   8
#     4   9  18  32  52  80 109 135 168 210 253 299
#     4   9  19  36  55  74 100 136 174 212 257 305
#     4  10  20  34  52  74 100 130 170 219 262 302
#     4   9  18  33  51  71 101 140 174 205 249 306
#     4   9  17  30  48  69  93 122 156 194 238 287
#     4   9  18  32  49  70  96 125 158 197 243 298
#     4  10  19  32  51  72  96 129 165 201 246 300
#
# _framework density 18.439775000000001
#
# number of rings (size 3 to 8) (size 9 to 14) (size 15 to 20)
#    0.000    2.714    0.000    1.286    0.000    5.143 
#    0.000    3.571    0.000    2.571    0.000    0.000 
#    0.000    0.000    0.000    0.000    0.000    0.000 
#
# Total GULP energy -694139.923622 kJ/mol
# GULP energy per Si atom -12395.355779 kJ/mol
# Density = 1.839780 g / cm^3
# Si number density = 18.439775 Si / 1000 Ang^3
#
#
#
# Elastic Constant Matrix: (Units=GPa)
#
#
# Indices 1 2 3 4 5 6 
#
# 1 97.7801 23.9535 24.5086 0.0000 0.0000 0.0000
# 2 23.9535 72.5125 45.3894 0.0000 0.0000 0.0000
# 3 24.5086 45.3894 111.0749 0.0000 0.0000 0.0000
# 4 0.0000 0.0000 0.0000 30.7509 0.0000 0.0000
# 5 0.0000 0.0000 0.0000 0.0000 14.7053 0.0000
# 6 0.0000 0.0000 0.0000 0.0000 0.0000 20.0760
#
#
#
# Elastic Compliance Matrix: (Units=1/GPa)
#
#
# Indices 1 2 3 4 5 6 
#
# 1 0.011265 -0.002910 -0.001297 0.000000 0.000000 0.000000
# 2 -0.002910 0.019282 -0.007237 0.000000 0.000000 0.000000
# 3 -0.001297 -0.007237 0.012247 0.000000 0.000000 0.000000
# 4 0.000000 0.000000 0.000000 0.032519 0.000000 0.000000
# 5 0.000000 0.000000 0.000000 0.000000 0.068003 0.000000
# 6 0.000000 0.000000 0.000000 0.000000 0.000000 0.049811
#
#
# Mechanical properties :
#
#
# Convention : Reuss Voigt Hill
#
# Bulk Modulus (GPa) = 50.23540 52.11893 51.17717
# Shear Modulus (GPa) = 22.45686 25.60749 24.03217
#
# Velocity S-wave (km/s) = 3.49356 3.73058 3.61401
# Velocity P-wave (km/s) = 6.60116 6.84705 6.72523
#
# Compressibility (1/GPa) = 0.01990628
#
# Stress axis : x y z
#
# Youngs Moduli (GPa) = 88.77214 51.86146 81.65592
#
# Poissons Ratio (x) = 0.15089 0.10588
# Poissons Ratio (y) = 0.25829 0.59098
# Poissons Ratio (z) = 0.11510 0.37534
#
# Static dielectric constant tensor:
#      x y z
#    x 3.372180 0.000000 0.000000 
#    y 0.000000 3.437030 0.000000 
#    z 0.000000 0.000000 3.379520 
# 
# 
# High freq. dielectric constant tensor:
#      x y z
#    x 1.708240 0.000000 0.000000 
#    y 0.000000 1.717040 0.000000 
#    z 0.000000 0.000000 1.708460 
# 
# From -- ./inp_files/33440.got.cif
#   From: 2010.03.12/outbox.cif.g09.slc.cpg/sg51_17_cif.got.tgz:33440.got - 2010.04.16 13:43:02.
