data_PCOD8208550
_publ_section_title
;
Structure prediction by ZEFSAII (Michael W. Deem and Ramdas Pophale) SiO2 
 PCOD8208550
Probable space group: P M M A
;
_chemical_formula_sum "Si O2"
_cell_formula_units_Z 64
_cell_length_a 15.160331
_cell_length_b 9.155632
_cell_length_c 22.490056
_cell_angle_alpha 90.000000
_cell_angle_beta 90.000000
_cell_angle_gamma 90.000000
_cell_volume 3121.674011
_symmetry_space_group_name_H-M "P M M A"
_symmetry_group_IT_number 51
_symmetry_cell_setting 'orthorhombic'
loop_
_space_group_symop_operation_xyz
x,y,z
1/2-x,-y,z
1/2+x,-y,-z
-x,y,-z
-x,-y,-z
1/2+x,y,-z
1/2-x,y,z
x,-y,z
loop_
_atom_site_type_symbol
_atom_site_label
_atom_site_fract_x
_atom_site_fract_y
_atom_site_fract_z
Si Si1 0.646370 0.832427 0.768492
Si Si2 0.096050 0.337921 0.116172
Si Si3 0.990835 0.170224 0.568570
Si Si4 0.649977 0.170176 0.348555
Si Si5 0.605339 0.163706 0.995814
Si Si6 0.392584 0.338475 0.892850
Si Si7 0.647122 0.661649 0.235202
Si Si8 0.147500 0.328539 0.352085
O O1 0.750000 0.822190 0.778507
O O2 0.600362 0.750910 0.822835
O O3 0.618039 0.752389 0.708117
O O4 0.614147 0.000000 0.765774
O O5 0.138865 0.500000 0.123260
O O6 0.141559 0.249677 0.062205
O O7 0.995724 0.355583 0.097486
O O8 0.084867 0.211460 0.597819
O O9 0.000000 0.211084 0.500000
O O10 0.911092 0.265448 0.594611
O O11 0.968121 0.000000 0.577998
O O12 0.750000 0.223455 0.363971
O O13 0.608928 0.243291 0.289230
O O14 0.650714 0.000000 0.335667
O O15 0.642624 0.000000 0.991758
O O16 0.500000 0.161218 0.000000
O O17 0.646633 0.239054 0.054572
O O18 0.348291 0.500000 0.895256
O O19 0.372628 0.264710 0.828742
O O20 0.750000 0.650210 0.245567
O O21 0.603341 0.500000 0.236943
O O22 0.250000 0.296655 0.366595
O O23 0.130081 0.500000 0.344441
#
# Coordination Sequence:
#
# PCOD8208550 Si02
#       8
#     8   8   8   8   8   8   8   8
#     4  10  21  37  56  79 108 141 180 228 281 337
#     4  10  19  31  50  75 103 137 177 225 279 333
#     4  10  22  39  61  91 122 155 196 238 283 339
#     4   9  19  36  56  81 115 152 189 233 284 337
#     4   9  17  30  47  69  98 134 178 225 274 328
#     4   9  18  31  48  72 100 133 175 224 276 329
#     4   9  18  33  52  75 104 138 176 220 272 330
#     4  10  22  40  61  86 119 157 196 241 292 344
#
# _framework density 20.501819999999999
#
# number of rings (size 3 to 8) (size 9 to 14) (size 15 to 20)
#    0.000    2.500    0.000    1.500    1.750    5.250 
#    0.000    1.875    0.000    3.750    0.000    0.000 
#    0.000    0.000    0.000    0.000    0.000    0.000 
#
# Total GULP energy -793491.994725 kJ/mol
# GULP energy per Si atom -12398.312418 kJ/mol
# Density = 2.045516 g / cm^3
# Si number density = 20.501820 Si / 1000 Ang^3
#
#
#
# Elastic Constant Matrix: (Units=GPa)
#
#
# Indices 1 2 3 4 5 6 
#
# 1 50.2180 36.1864 42.0287 0.0000 0.0000 0.0000
# 2 36.1864 134.8627 86.7867 0.0000 0.0000 0.0000
# 3 42.0287 86.7867 188.1520 0.0000 0.0000 0.0000
# 4 0.0000 0.0000 0.0000 31.7423 0.0000 0.0000
# 5 0.0000 0.0000 0.0000 0.0000 -16.6179 0.0000
# 6 0.0000 0.0000 0.0000 0.0000 0.0000 18.9194
#
#
#
# Elastic Compliance Matrix: (Units=1/GPa)
#
#
# Indices 1 2 3 4 5 6 
#
# 1 0.026418 -0.004680 -0.003742 0.000000 0.000000 0.000000
# 2 -0.004680 0.011374 -0.004201 0.000000 0.000000 0.000000
# 3 -0.003742 -0.004201 0.008089 0.000000 0.000000 0.000000
# 4 0.000000 0.000000 0.000000 0.031504 0.000000 0.000000
# 5 0.000000 0.000000 0.000000 0.000000 -0.060176 0.000000
# 6 0.000000 0.000000 0.000000 0.000000 0.000000 0.052856
#
#
# Mechanical properties :
#
#
# Convention : Reuss Voigt Hill
#
# Bulk Modulus (GPa) = 48.46502 78.13735 63.30119
# Shear Modulus (GPa) = 48.92924 20.69082 34.81003
#
# Velocity S-wave (km/s) = 4.89056 3.18027 4.12503
# Velocity P-wave (km/s) = 7.45526 7.18892 7.32330
#
# Compressibility (1/GPa) = 0.02063344
#
# Stress axis : x y z
#
# Youngs Moduli (GPa) = 37.85349 87.91878 123.63172
#
# Poissons Ratio (x) = 0.41147 0.46267
# Poissons Ratio (y) = 0.17716 0.51938
# Poissons Ratio (z) = 0.14166 0.36935
#
# Static dielectric constant tensor:
#      x y z
#    x 3.487920 0.000000 0.000000 
#    y 0.000000 3.944690 0.000000 
#    z 0.000000 0.000000 3.731390 
# 
# 
# High freq. dielectric constant tensor:
#      x y z
#    x 1.784590 0.000000 0.000000 
#    y 0.000000 1.801080 0.000000 
#    z 0.000000 0.000000 1.804150 
# 
# From -- ./inp_files/35784.got.cif
#   From: 2010.03.12/outbox.cif.g09.slc.cpg/sg51_18_cif.got.tgz:35784.got - 2010.04.16 13:43:02.
