data_PCOD8208282
_publ_section_title
;
Structure prediction by ZEFSAII (Michael W. Deem and Ramdas Pophale) SiO2 
 PCOD8208282
Probable space group: P M M A
;
_chemical_formula_sum "Si O2"
_cell_formula_units_Z 64
_cell_length_a 9.114939
_cell_length_b 19.994460
_cell_length_c 19.880522
_cell_angle_alpha 90.000000
_cell_angle_beta 90.000000
_cell_angle_gamma 90.000000
_cell_volume 3623.191004
_symmetry_space_group_name_H-M "P M M A"
_symmetry_group_IT_number 51
_symmetry_cell_setting 'orthorhombic'
loop_
_space_group_symop_operation_xyz
x,y,z
1/2-x,-y,z
1/2+x,-y,-z
-x,y,-z
-x,-y,-z
1/2+x,y,-z
1/2-x,y,z
x,-y,z
loop_
_atom_site_type_symbol
_atom_site_label
_atom_site_fract_x
_atom_site_fract_y
_atom_site_fract_z
Si Si1 0.916249 0.255618 0.791466
Si Si2 0.581015 0.791103 0.434804
Si Si3 0.579623 0.074769 0.110445
Si Si4 0.083841 0.073339 0.627620
Si Si5 0.421705 0.314436 0.673765
Si Si6 0.922056 0.576447 0.431617
Si Si7 0.581919 0.895459 0.758034
Si Si8 0.075028 0.795197 0.065636
O O1 0.750000 0.280656 0.792144
O O2 0.933340 0.184255 0.756036
O O3 0.972179 0.248147 0.868853
O O4 0.005573 0.310070 0.747840
O O5 0.500000 0.763055 0.500000
O O6 0.750000 0.777255 0.448133
O O7 0.543461 0.869500 0.425974
O O8 0.530367 0.750536 0.369032
O O9 0.750000 0.096354 0.108736
O O10 0.523744 0.072594 0.186775
O O11 0.483592 0.128627 0.069835
O O12 0.559613 0.000000 0.079801
O O13 0.250000 0.086521 0.654398
O O14 0.968351 0.075016 0.687583
O O15 0.072928 0.000000 0.593202
O O16 0.250000 0.317155 0.686801
O O17 0.474840 0.379746 0.632297
O O18 0.750000 0.586264 0.443432
O O19 0.963697 0.500000 0.415280
O O20 0.000000 0.600746 0.500000
O O21 0.750000 0.916229 0.772689
O O22 0.250000 0.797991 0.058776
O O23 0.000000 0.761586 0.000000
#
# Coordination Sequence:
#
# PCOD8208282 Si02
#       8
#     8   8   8   8   8   8   8   8
#     4   9  19  33  50  73  98 123 158 202 244 287
#     4  10  21  34  47  66  89 118 158 201 245 296
#     4  10  20  32  47  67  91 122 158 197 246 303
#     4  10  20  33  47  62  84 115 152 199 252 304
#     4  10  19  32  52  75  98 130 168 203 242 286
#     4   9  18  32  50  76 110 144 176 207 242 289
#     4  10  19  31  47  68  91 116 151 199 252 301
#     4  10  21  36  52  72  97 127 161 200 250 303
#
# _framework density 17.663988
#
# number of rings (size 3 to 8) (size 9 to 14) (size 15 to 20)
#    0.000    2.250    1.250    2.625    0.000    7.250 
#    0.000    0.000    0.000    0.000    0.000    0.000 
#    0.000    0.500    0.000    1.125    0.000    1.750 
#
# Total GULP energy -793376.118358 kJ/mol
# GULP energy per Si atom -12396.501849 kJ/mol
# Density = 1.762378 g / cm^3
# Si number density = 17.663988 Si / 1000 Ang^3
#
#
#
# Elastic Constant Matrix: (Units=GPa)
#
#
# Indices 1 2 3 4 5 6 
#
# 1 64.1419 28.3146 48.5384 0.0000 0.0000 0.0000
# 2 28.3146 73.0704 44.0326 0.0000 0.0000 0.0000
# 3 48.5384 44.0326 120.3358 0.0000 0.0000 0.0000
# 4 0.0000 0.0000 0.0000 17.0892 0.0000 0.0000
# 5 0.0000 0.0000 0.0000 0.0000 32.1466 0.0000
# 6 0.0000 0.0000 0.0000 0.0000 0.0000 16.7945
#
#
#
# Elastic Compliance Matrix: (Units=1/GPa)
#
#
# Indices 1 2 3 4 5 6 
#
# 1 0.023470 -0.004349 -0.007875 0.000000 0.000000 0.000000
# 2 -0.004349 0.018363 -0.004965 0.000000 0.000000 0.000000
# 3 -0.007875 -0.004965 0.013303 0.000000 0.000000 0.000000
# 4 0.000000 0.000000 0.000000 0.058516 0.000000 0.000000
# 5 0.000000 0.000000 0.000000 0.000000 0.031108 0.000000
# 6 0.000000 0.000000 0.000000 0.000000 0.000000 0.059543
#
#
# Mechanical properties :
#
#
# Convention : Reuss Voigt Hill
#
# Bulk Modulus (GPa) = 48.17563 55.47993 51.82778
# Shear Modulus (GPa) = 20.35827 22.31689 21.33758
#
# Velocity S-wave (km/s) = 3.39858 3.55831 3.47936
# Velocity P-wave (km/s) = 6.53705 6.95404 6.74877
#
# Compressibility (1/GPa) = 0.02075738
#
# Stress axis : x y z
#
# Youngs Moduli (GPa) = 42.60805 54.45881 75.16827
#
# Poissons Ratio (x) = 0.23682 0.59198
# Poissons Ratio (y) = 0.18529 0.37321
# Poissons Ratio (z) = 0.33556 0.27039
#
# Static dielectric constant tensor:
#      x y z
#    x 3.258780 0.000000 0.000000 
#    y 0.000000 3.127510 0.000000 
#    z 0.000000 0.000000 3.232560 
# 
# 
# High freq. dielectric constant tensor:
#      x y z
#    x 1.685340 0.000000 0.000000 
#    y 0.000000 1.647490 0.000000 
#    z 0.000000 0.000000 1.673520 
# 
# From -- ./inp_files/32678.got.cif
#   From: 2010.03.12/outbox.cif.g09.slc.cpg/sg51_17_cif.got.tgz:32678.got - 2010.04.16 13:43:02.
