data_PCOD8208972
_publ_section_title
;
Structure prediction by ZEFSAII (Michael W. Deem and Ramdas Pophale) SiO2 
 PCOD8208972
Probable space group: P M M A
;
_chemical_formula_sum "Si O2"
_cell_formula_units_Z 64
_cell_length_a 9.337354
_cell_length_b 23.475701
_cell_length_c 15.071112
_cell_angle_alpha 90.000000
_cell_angle_beta 90.000000
_cell_angle_gamma 90.000000
_cell_volume 3303.601776
_symmetry_space_group_name_H-M "P M M A"
_symmetry_group_IT_number 51
_symmetry_cell_setting 'orthorhombic'
loop_
_space_group_symop_operation_xyz
x,y,z
1/2-x,-y,z
1/2+x,-y,-z
-x,y,-z
-x,-y,-z
1/2+x,y,-z
1/2-x,y,z
x,-y,z
loop_
_atom_site_type_symbol
_atom_site_label
_atom_site_fract_x
_atom_site_fract_y
_atom_site_fract_z
Si Si1 0.904498 0.064610 0.073963
Si Si2 0.585895 0.607960 0.584232
Si Si3 0.085708 0.434538 0.225978
Si Si4 0.417840 0.740125 0.412857
Si Si5 0.080378 0.939191 0.731698
Si Si6 0.914293 0.229763 0.085928
Si Si7 0.582969 0.184960 0.277708
Si Si8 0.918947 0.360183 0.088606
O O1 0.750000 0.096485 0.078309
O O2 0.982642 0.065373 0.169078
O O3 0.878931 0.000000 0.043047
O O4 0.000000 0.096622 0.000000
O O5 0.500000 0.584153 0.500000
O O6 0.750000 0.599384 0.559589
O O7 0.542953 0.572526 0.671036
O O8 0.550506 0.673945 0.602223
O O9 0.250000 0.414045 0.211462
O O10 0.067826 0.500000 0.198399
O O11 0.977253 0.397239 0.169379
O O12 0.500000 0.762614 0.500000
O O13 0.250000 0.753609 0.422586
O O14 0.480856 0.771660 0.327616
O O15 0.250000 0.943768 0.740276
O O16 0.041445 0.879040 0.685438
O O17 0.025122 0.000000 0.687661
O O18 0.750000 0.227413 0.058618
O O19 0.946700 0.190191 0.171822
O O20 0.956293 0.294668 0.110016
O O21 0.000000 0.207774 0.000000
O O22 0.750000 0.198702 0.297183
O O23 0.750000 0.370887 0.077450
O O24 0.000000 0.380316 0.000000
#
# Coordination Sequence:
#
# PCOD8208972 Si02
#       8
#     8   8   8   8   8   8   8   8
#     4   8  13  22  36  54  78 111 152 193 229 268
#     4   9  19  35  55  79 107 138 168 202 248 302
#     4  10  21  36  53  76 107 140 174 212 253 299
#     4  10  20  35  56  81 106 131 163 205 255 308
#     4   8  15  28  45  65  92 129 167 199 240 297
#     4   9  19  33  50  75 105 137 173 215 261 307
#     4  10  19  32  52  77 104 133 168 212 257 301
#     4  10  20  35  54  74  99 134 177 222 266 309
#
# _framework density 19.372795
#
# number of rings (size 3 to 8) (size 9 to 14) (size 15 to 20)
#    0.000    2.750    0.000    2.250    0.000    3.250 
#    0.000    0.625    0.000    1.500    0.000    0.000 
#    0.000    0.000    0.000    0.000    0.000    0.000 
#
# Total GULP energy -793100.676620 kJ/mol
# GULP energy per Si atom -12392.198072 kJ/mol
# Density = 1.932870 g / cm^3
# Si number density = 19.372795 Si / 1000 Ang^3
#
#
#
# Elastic Constant Matrix: (Units=GPa)
#
#
# Indices 1 2 3 4 5 6 
#
# 1 71.0183 27.4305 32.5082 0.0000 0.0000 0.0000
# 2 27.4305 78.7590 22.2494 0.0000 0.0000 0.0000
# 3 32.5082 22.2494 59.9987 0.0000 0.0000 0.0000
# 4 0.0000 0.0000 0.0000 5.5581 0.0000 0.0000
# 5 0.0000 0.0000 0.0000 0.0000 36.9172 0.0000
# 6 0.0000 0.0000 0.0000 0.0000 0.0000 8.3370
#
#
#
# Elastic Compliance Matrix: (Units=1/GPa)
#
#
# Indices 1 2 3 4 5 6 
#
# 1 0.019979 -0.004357 -0.009209 0.000000 0.000000 0.000000
# 2 -0.004357 0.015133 -0.003251 0.000000 0.000000 0.000000
# 3 -0.009209 -0.003251 0.022862 0.000000 0.000000 0.000000
# 4 0.000000 0.000000 0.000000 0.179919 0.000000 0.000000
# 5 0.000000 0.000000 0.000000 0.000000 0.027088 0.000000
# 6 0.000000 0.000000 0.000000 0.000000 0.000000 0.119947
#
#
# Mechanical properties :
#
#
# Convention : Reuss Voigt Hill
#
# Bulk Modulus (GPa) = 41.08498 41.57247 41.32873
# Shear Modulus (GPa) = 11.71848 18.66832 15.19340
#
# Velocity S-wave (km/s) = 2.46213 3.10762 2.80351
# Velocity P-wave (km/s) = 5.41630 5.86363 5.64440
#
# Compressibility (1/GPa) = 0.02433979
#
# Stress axis : x y z
#
# Youngs Moduli (GPa) = 50.05208 66.08160 43.73986
#
# Poissons Ratio (x) = 0.28790 0.40282
# Poissons Ratio (y) = 0.21807 0.14221
# Poissons Ratio (z) = 0.46095 0.21484
#
# Static dielectric constant tensor:
#      x y z
#    x 3.506880 0.000000 0.000000 
#    y 0.000000 3.709780 0.000000 
#    z 0.000000 0.000000 3.334070 
# 
# 
# High freq. dielectric constant tensor:
#      x y z
#    x 1.735960 0.000000 0.000000 
#    y 0.000000 1.761000 0.000000 
#    z 0.000000 0.000000 1.732270 
# 
# From -- ./inp_files/22384.got.cif
#   From: 2010.03.12/outbox.cif.g09.slc.cpg/sg51_12_cif.got.tgz:22384.got - 2010.04.16 13:43:02.
