data_PCOD8208813
_publ_section_title
;
Structure prediction by ZEFSAII (Michael W. Deem and Ramdas Pophale) SiO2 
 PCOD8208813
Probable space group: P M M A
;
_chemical_formula_sum "Si O2"
_cell_formula_units_Z 48
_cell_length_a 10.149267
_cell_length_b 13.467451
_cell_length_c 19.000406
_cell_angle_alpha 90.000000
_cell_angle_beta 90.000000
_cell_angle_gamma 90.000000
_cell_volume 2597.065858
_symmetry_space_group_name_H-M "P M M A"
_symmetry_group_IT_number 51
_symmetry_cell_setting 'orthorhombic'
loop_
_space_group_symop_operation_xyz
x,y,z
1/2-x,-y,z
1/2+x,-y,-z
-x,y,-z
-x,-y,-z
1/2+x,y,-z
1/2-x,y,z
x,-y,z
loop_
_atom_site_type_symbol
_atom_site_label
_atom_site_fract_x
_atom_site_fract_y
_atom_site_fract_z
Si Si1 0.598731 0.278318 0.791276
Si Si2 0.098991 0.111324 0.790203
Si Si3 0.902874 0.615206 0.936280
Si Si4 0.890373 0.112804 0.046848
Si Si5 0.476008 0.616253 0.343720
Si Si6 0.750000 0.618588 0.556426
Si Si7 0.750000 0.618557 0.397348
O O1 0.750000 0.242456 0.793204
O O2 0.506886 0.189217 0.761093
O O3 0.556649 0.319596 0.867923
O O4 0.578830 0.364500 0.734287
O O5 0.250000 0.142821 0.773729
O O6 0.070468 0.112562 0.872715
O O7 0.073134 0.000000 0.760714
O O8 0.750000 0.633666 0.957309
O O9 0.924302 0.500000 0.916560
O O10 0.000000 0.645717 0.000000
O O11 0.750000 0.167164 0.034502
O O12 0.877297 0.000000 0.019692
O O13 0.000000 0.169507 0.000000
O O14 0.483265 0.500000 0.354311
O O15 0.378126 0.660486 0.402830
O O16 0.621926 0.660950 0.356725
O O17 0.750000 0.500000 0.557068
O O18 0.750000 0.659572 0.477153
O O19 0.750000 0.500000 0.398082
#
# Coordination Sequence:
#
# PCOD8208813 Si02
#       7
#     8   8   8   8   8   4   4
#     4  11  22  34  52  76 102 135 175 218 264 310
#     4   9  20  37  52  67  93 128 164 211 268 318
#     4   9  19  36  54  72  98 135 179 221 262 307
#     4   8  14  26  44  64  84 109 143 185 241 305
#     4  10  19  32  50  77 112 144 174 206 243 293
#     4   9  16  30  52  74 108 150 174 195 238 296
#     4   9  18  30  48  78 110 144 178 201 232 290
#
# _framework density 18.482396000000001
#
# number of rings (size 3 to 8) (size 9 to 14) (size 15 to 20)
#    0.000    2.667    0.833    2.000    1.167    5.000 
#    0.000    5.000    0.000    0.000    0.000    0.000 
#    0.000    4.000    0.000    0.000    0.000    0.000 
#
# Total GULP energy -594849.266068 kJ/mol
# GULP energy per Si atom -12392.693043 kJ/mol
# Density = 1.844033 g / cm^3
# Si number density = 18.482396 Si / 1000 Ang^3
#
#
#
# Elastic Constant Matrix: (Units=GPa)
#
#
# Indices 1 2 3 4 5 6 
#
# 1 114.2902 28.4355 32.7548 0.0000 0.0000 0.0000
# 2 28.4355 44.9177 8.3945 0.0000 0.0000 0.0000
# 3 32.7548 8.3945 75.5874 0.0000 0.0000 0.0000
# 4 0.0000 0.0000 0.0000 6.1716 0.0000 0.0000
# 5 0.0000 0.0000 0.0000 0.0000 30.7447 0.0000
# 6 0.0000 0.0000 0.0000 0.0000 0.0000 19.5064
#
#
#
# Elastic Compliance Matrix: (Units=1/GPa)
#
#
# Indices 1 2 3 4 5 6 
#
# 1 0.011612 -0.006547 -0.004305 0.000000 0.000000 0.000000
# 2 -0.006547 0.026426 -0.000098 0.000000 0.000000 0.000000
# 3 -0.004305 -0.000098 0.015106 0.000000 0.000000 0.000000
# 4 0.000000 0.000000 0.000000 0.162033 0.000000 0.000000
# 5 0.000000 0.000000 0.000000 0.000000 0.032526 0.000000
# 6 0.000000 0.000000 0.000000 0.000000 0.000000 0.051265
#
#
# Mechanical properties :
#
#
# Convention : Reuss Voigt Hill
#
# Bulk Modulus (GPa) = 32.00506 41.55165 36.77836
# Shear Modulus (GPa) = 15.09286 22.29856 18.69571
#
# Velocity S-wave (km/s) = 2.86073 3.47720 3.18392
# Velocity P-wave (km/s) = 5.31656 6.21706 5.78436
#
# Compressibility (1/GPa) = 0.03124506
#
# Stress axis : x y z
#
# Youngs Moduli (GPa) = 86.11583 37.84196 66.19848
#
# Poissons Ratio (x) = 0.24774 0.28498
# Poissons Ratio (y) = 0.56378 0.00648
# Poissons Ratio (z) = 0.37073 0.00370
#
# Static dielectric constant tensor:
#      x y z
#    x 3.793340 0.000000 0.000000 
#    y 0.000000 3.154440 0.000000 
#    z 0.000000 0.000000 3.165740 
# 
# 
# High freq. dielectric constant tensor:
#      x y z
#    x 1.735950 0.000000 0.000000 
#    y 0.000000 1.677120 0.000000 
#    z 0.000000 0.000000 1.692990 
# 
# From -- ./inp_files/27652.got.cif
#   From: 2010.03.12/outbox.cif.g09.slc.cpg/sg51_14_cif.got.tgz:27652.got - 2010.04.16 13:43:02.
