data_PCOD8208414
_publ_section_title
;
Structure prediction by ZEFSAII (Michael W. Deem and Ramdas Pophale) SiO2 
 PCOD8208414
Probable space group: P M M A
;
_chemical_formula_sum "Si O2"
_cell_formula_units_Z 56
_cell_length_a 9.412036
_cell_length_b 23.250741
_cell_length_c 14.673447
_cell_angle_alpha 90.000000
_cell_angle_beta 90.000000
_cell_angle_gamma 90.000000
_cell_volume 3211.090353
_symmetry_space_group_name_H-M "P M M A"
_symmetry_group_IT_number 51
_symmetry_cell_setting 'orthorhombic'
loop_
_space_group_symop_operation_xyz
x,y,z
1/2-x,-y,z
1/2+x,-y,-z
-x,y,-z
-x,-y,-z
1/2+x,y,-z
1/2-x,y,z
x,-y,z
loop_
_atom_site_type_symbol
_atom_site_label
_atom_site_fract_x
_atom_site_fract_y
_atom_site_fract_z
Si Si1 0.590369 0.357545 0.263044
Si Si2 0.091720 0.931957 0.918198
Si Si3 0.917579 0.433853 0.092579
Si Si4 0.905129 0.436963 0.426425
Si Si5 0.086176 0.065859 0.255768
Si Si6 0.087959 0.151257 0.413261
Si Si7 0.582331 0.716370 0.594722
O O1 0.750000 0.330419 0.252350
O O2 0.535538 0.385333 0.167634
O O3 0.599817 0.412316 0.326862
O O4 0.483436 0.313776 0.314563
O O5 0.250000 0.905241 0.918614
O O6 0.012898 0.915003 0.826455
O O7 0.101192 0.000000 0.930085
O O8 0.000000 0.904809 0.000000
O O9 0.750000 0.428403 0.074898
O O10 0.954244 0.500000 0.122510
O O11 0.000000 0.418169 0.000000
O O12 0.750000 0.438869 0.470309
O O13 0.972214 0.500000 0.414499
O O14 0.000000 0.401439 0.500000
O O15 0.250000 0.074452 0.226998
O O16 0.039026 0.108162 0.335095
O O17 0.058369 0.000000 0.285306
O O18 0.250000 0.141172 0.439292
O O19 0.060576 0.216642 0.383411
O O20 0.000000 0.132987 0.500000
O O21 0.500000 0.700929 0.500000
O O22 0.750000 0.700693 0.583908
#
# Coordination Sequence:
#
# PCOD8208414 Si02
#       7
#     8   8   8   8   8   8   8
#     4  10  19  31  49  71  94 122 158 198 237 277
#     4   9  16  26  42  66  95 125 155 187 226 274
#     4   9  18  33  52  74 101 131 162 199 243 289
#     4   9  17  28  41  60  89 121 148 178 221 270
#     4   9  17  30  48  70  96 125 158 198 244 293
#     4   9  19  34  50  69  95 127 160 196 239 286
#     4  10  20  34  51  71  96 126 161 199 239 286
#
# _framework density 17.439558999999999
#
# number of rings (size 3 to 8) (size 9 to 14) (size 15 to 20)
#    0.000    2.714    0.000    1.714    0.000    7.143 
#    0.000    0.000    0.000    5.143    0.000    2.000 
#    0.000    0.000    0.000    0.000    0.000    0.000 
#
# Total GULP energy -693814.917218 kJ/mol
# GULP energy per Si atom -12389.552093 kJ/mol
# Density = 1.739987 g / cm^3
# Si number density = 17.439559 Si / 1000 Ang^3
#
#
#
# Elastic Constant Matrix: (Units=GPa)
#
#
# Indices 1 2 3 4 5 6 
#
# 1 102.4686 44.2973 77.9537 0.0000 0.0000 0.0000
# 2 44.2973 69.8206 59.2042 0.0000 0.0000 0.0000
# 3 77.9537 59.2042 138.3997 0.0000 0.0000 0.0000
# 4 0.0000 0.0000 0.0000 32.0656 0.0000 0.0000
# 5 0.0000 0.0000 0.0000 0.0000 33.9114 0.0000
# 6 0.0000 0.0000 0.0000 0.0000 0.0000 18.3424
#
#
#
# Elastic Compliance Matrix: (Units=1/GPa)
#
#
# Indices 1 2 3 4 5 6 
#
# 1 0.017900 -0.004405 -0.008198 0.000000 0.000000 0.000000
# 2 -0.004405 0.023559 -0.007597 0.000000 0.000000 0.000000
# 3 -0.008198 -0.007597 0.015092 0.000000 0.000000 0.000000
# 4 0.000000 0.000000 0.000000 0.031186 0.000000 0.000000
# 5 0.000000 0.000000 0.000000 0.000000 0.029489 0.000000
# 6 0.000000 0.000000 0.000000 0.000000 0.000000 0.054518
#
#
# Mechanical properties :
#
#
# Convention : Reuss Voigt Hill
#
# Bulk Modulus (GPa) = 61.91172 74.84437 68.37804
# Shear Modulus (GPa) = 22.98559 25.47948 24.23253
#
# Velocity S-wave (km/s) = 3.63439 3.82647 3.73166
# Velocity P-wave (km/s) = 7.29311 7.90772 7.60663
#
# Compressibility (1/GPa) = 0.01615203
#
# Stress axis : x y z
#
# Youngs Moduli (GPa) = 55.86618 42.44669 66.25834
#
# Poissons Ratio (x) = 0.18699 0.54316
# Poissons Ratio (y) = 0.24611 0.50334
# Poissons Ratio (z) = 0.45797 0.32245
#
# Static dielectric constant tensor:
#      x y z
#    x 3.412620 0.000000 0.000000 
#    y 0.000000 3.101920 0.000000 
#    z 0.000000 0.000000 3.268130 
# 
# 
# High freq. dielectric constant tensor:
#      x y z
#    x 1.679830 0.000000 0.000000 
#    y 0.000000 1.650020 0.000000 
#    z 0.000000 0.000000 1.667770 
# 
# From -- ./inp_files/21840.got.cif
#   From: 2010.03.12/outbox.cif.g09.slc.cpg/sg51_11_cif.got.tgz:21840.got - 2010.04.16 13:43:02.
