data_PCOD8208543
_publ_section_title
;
Structure prediction by ZEFSAII (Michael W. Deem and Ramdas Pophale) SiO2 
 PCOD8208543
Probable space group: P M M A
;
_chemical_formula_sum "Si O2"
_cell_formula_units_Z 64
_cell_length_a 9.123380
_cell_length_b 18.076535
_cell_length_c 20.502817
_cell_angle_alpha 90.000000
_cell_angle_beta 90.000000
_cell_angle_gamma 90.000000
_cell_volume 3381.306084
_symmetry_space_group_name_H-M "P M M A"
_symmetry_group_IT_number 51
_symmetry_cell_setting 'orthorhombic'
loop_
_space_group_symop_operation_xyz
x,y,z
1/2-x,-y,z
1/2+x,-y,-z
-x,y,-z
-x,-y,-z
1/2+x,y,-z
1/2-x,y,z
x,-y,z
loop_
_atom_site_type_symbol
_atom_site_label
_atom_site_fract_x
_atom_site_fract_y
_atom_site_fract_z
Si Si1 0.921736 0.852296 0.307562
Si Si2 0.917827 0.914815 0.813951
Si Si3 0.079038 0.818402 0.065064
Si Si4 0.085060 0.321942 0.437253
Si Si5 0.582402 0.415045 0.186665
Si Si6 0.579166 0.681057 0.308716
Si Si7 0.421925 0.648072 0.065781
Si Si8 0.415695 0.854211 0.437028
O O1 0.750000 0.865859 0.315951
O O2 0.958241 0.766448 0.294819
O O3 0.980849 0.899774 0.247791
O O4 0.001009 0.881713 0.372543
O O5 0.750000 0.893202 0.797176
O O6 0.977345 0.866542 0.874248
O O7 0.930587 0.000000 0.834168
O O8 0.250000 0.829801 0.053616
O O9 0.039010 0.733424 0.079762
O O10 0.000000 0.846791 0.000000
O O11 0.250000 0.352884 0.438305
O O12 0.083907 0.233851 0.439721
O O13 0.000000 0.354116 0.500000
O O14 0.006701 0.349441 0.371507
O O15 0.750000 0.394428 0.169051
O O16 0.568372 0.500000 0.207813
O O17 0.525872 0.365390 0.246539
O O18 0.480823 0.400812 0.124776
O O19 0.750000 0.669608 0.322954
O O20 0.250000 0.635015 0.057964
O O21 0.500000 0.620656 0.000000
O O22 0.500000 0.886392 0.500000
O O23 0.250000 0.884973 0.436445
#
# Coordination Sequence:
#
# PCOD8208543 Si02
#       8
#     8   8   8   8   8   8   8   8
#     4  10  19  31  50  75 101 131 169 210 250 296
#     4  10  21  36  52  72 102 137 169 204 248 296
#     4   9  19  35  55  79 104 131 165 205 249 296
#     4   9  16  26  44  71 101 131 164 206 253 299
#     4  10  21  36  53  74 102 135 169 207 252 300
#     4   9  18  32  50  73 101 132 166 207 254 300
#     4  10  20  35  56  79 103 131 165 206 249 296
#     4   9  16  27  45  71 102 132 164 205 253 301
#
# _framework density 18.927598
#
# number of rings (size 3 to 8) (size 9 to 14) (size 15 to 20)
#    0.000    2.500    0.000    2.250    0.000    6.000 
#    0.000    0.000    0.000    0.750    0.000    0.000 
#    0.000    0.000    0.000    0.000    0.000    0.000 
#
# Total GULP energy -793818.890521 kJ/mol
# GULP energy per Si atom -12403.420164 kJ/mol
# Density = 1.888452 g / cm^3
# Si number density = 18.927598 Si / 1000 Ang^3
#
#
#
# Elastic Constant Matrix: (Units=GPa)
#
#
# Indices 1 2 3 4 5 6 
#
# 1 92.8918 16.8683 54.0173 0.0000 0.0000 0.0000
# 2 16.8683 34.4496 22.5379 0.0000 0.0000 0.0000
# 3 54.0173 22.5379 129.2469 0.0000 0.0000 0.0000
# 4 0.0000 0.0000 0.0000 3.1199 0.0000 0.0000
# 5 0.0000 0.0000 0.0000 0.0000 41.8095 0.0000
# 6 0.0000 0.0000 0.0000 0.0000 0.0000 16.9240
#
#
#
# Elastic Compliance Matrix: (Units=1/GPa)
#
#
# Indices 1 2 3 4 5 6 
#
# 1 0.014599 -0.003563 -0.005480 0.000000 0.000000 0.000000
# 2 -0.003563 0.033636 -0.004376 0.000000 0.000000 0.000000
# 3 -0.005480 -0.004376 0.010791 0.000000 0.000000 0.000000
# 4 0.000000 0.000000 0.000000 0.320525 0.000000 0.000000
# 5 0.000000 0.000000 0.000000 0.000000 0.023918 0.000000
# 6 0.000000 0.000000 0.000000 0.000000 0.000000 0.059088
#
#
# Mechanical properties :
#
#
# Convention : Reuss Voigt Hill
#
# Bulk Modulus (GPa) = 31.06911 49.27059 40.16985
# Shear Modulus (GPa) = 9.99754 23.24833 16.62294
#
# Velocity S-wave (km/s) = 2.30075 3.50848 2.96672
# Velocity P-wave (km/s) = 4.84853 6.51922 5.74493
#
# Compressibility (1/GPa) = 0.03218631
#
# Stress axis : x y z
#
# Youngs Moduli (GPa) = 68.49784 29.73041 92.67316
#
# Poissons Ratio (x) = 0.10593 0.50786
# Poissons Ratio (y) = 0.24407 0.40555
# Poissons Ratio (z) = 0.37538 0.13010
#
# Static dielectric constant tensor:
#      x y z
#    x 3.514050 0.000000 0.000000 
#    y 0.000000 3.132730 0.000000 
#    z 0.000000 0.000000 3.589780 
# 
# 
# High freq. dielectric constant tensor:
#      x y z
#    x 1.739730 0.000000 0.000000 
#    y 0.000000 1.699600 0.000000 
#    z 0.000000 0.000000 1.746810 
# 
# From -- ./inp_files/28373.got.cif
#   From: 2010.03.12/outbox.cif.g09.slc.cpg/sg51_15_cif.got.tgz:28373.got - 2010.04.16 13:43:02.
