data_PCOD8208078
_publ_section_title
;
Structure prediction by ZEFSAII (Michael W. Deem and Ramdas Pophale) SiO2 
 PCOD8208078
Probable space group: P M M A
;
_chemical_formula_sum "Si O2"
_cell_formula_units_Z 64
_cell_length_a 32.870693
_cell_length_b 9.282494
_cell_length_c 11.675425
_cell_angle_alpha 90.000000
_cell_angle_beta 90.000000
_cell_angle_gamma 90.000000
_cell_volume 3562.429150
_symmetry_space_group_name_H-M "P M M A"
_symmetry_group_IT_number 51
_symmetry_cell_setting 'orthorhombic'
loop_
_space_group_symop_operation_xyz
x,y,z
1/2-x,-y,z
1/2+x,-y,-z
-x,y,-z
-x,-y,-z
1/2+x,y,-z
1/2-x,y,z
x,-y,z
loop_
_atom_site_type_symbol
_atom_site_label
_atom_site_fract_x
_atom_site_fract_y
_atom_site_fract_z
Si Si1 0.626025 0.171292 0.095444
Si Si2 0.295062 0.828549 0.776649
Si Si3 0.851886 0.663817 0.643608
Si Si4 0.935479 0.336096 0.510158
Si Si5 0.939277 0.166282 0.277588
Si Si6 0.702414 0.839389 0.479956
Si Si7 0.390050 0.830308 0.159169
Si Si8 0.469757 0.835633 0.291496
O O1 0.670121 0.230130 0.137488
O O2 0.590372 0.227085 0.179187
O O3 0.626002 0.000000 0.094823
O O4 0.616640 0.229775 0.968777
O O5 0.250000 0.769141 0.811623
O O6 0.306636 0.779643 0.647852
O O7 0.293562 0.000000 0.778571
O O8 0.840964 0.500000 0.674224
O O9 0.891938 0.674975 0.568209
O O10 0.815252 0.731333 0.572790
O O11 0.857376 0.751285 0.761064
O O12 0.949312 0.500000 0.490626
O O13 0.931697 0.256279 0.390815
O O14 0.968155 0.261040 0.593996
O O15 0.985869 0.184219 0.234902
O O16 0.929351 0.000000 0.304976
O O17 0.750000 0.847198 0.500998
O O18 0.683500 0.000000 0.494815
O O19 0.436016 0.790513 0.197902
O O20 0.381952 0.000000 0.166570
O O21 0.462467 0.000000 0.330548
#
# Coordination Sequence:
#
# PCOD8208078 Si02
#       8
#     8   8   8   8   8   8   8   8
#     4   9  17  29  47  70  94 124 161 199 239 282
#     4   8  14  26  46  73 101 123 146 184 234 282
#     4  10  20  33  49  69  95 128 162 197 240 285
#     4  10  20  32  47  69  96 126 161 199 242 294
#     4  10  19  30  47  71  96 122 156 199 247 296
#     4   9  17  30  51  78 103 126 154 190 236 291
#     4   9  18  33  50  67  92 127 165 202 238 281
#     4   9  18  31  47  68  94 125 159 198 245 292
#
# _framework density 17.96527
#
# number of rings (size 3 to 8) (size 9 to 14) (size 15 to 20)
#    0.000    2.750    0.000    2.625    0.000    5.250 
#    0.000    3.750    0.000    3.000    0.000    4.375 
#    0.000    0.000    0.000    0.000    0.000    0.000 
#
# Total GULP energy -793506.786619 kJ/mol
# GULP energy per Si atom -12398.543541 kJ/mol
# Density = 1.792438 g / cm^3
# Si number density = 17.965270 Si / 1000 Ang^3
#
#
#
# Elastic Constant Matrix: (Units=GPa)
#
#
# Indices 1 2 3 4 5 6 
#
# 1 80.0848 31.2739 70.0174 0.0000 0.0000 0.0000
# 2 31.2739 59.8542 46.8681 0.0000 0.0000 0.0000
# 3 70.0174 46.8681 151.2606 0.0000 0.0000 0.0000
# 4 0.0000 0.0000 0.0000 4.0541 0.0000 0.0000
# 5 0.0000 0.0000 0.0000 0.0000 23.0335 0.0000
# 6 0.0000 0.0000 0.0000 0.0000 0.0000 14.3010
#
#
#
# Elastic Compliance Matrix: (Units=1/GPa)
#
#
# Indices 1 2 3 4 5 6 
#
# 1 0.021906 -0.004629 -0.008706 0.000000 0.000000 0.000000
# 2 -0.004629 0.023038 -0.004996 0.000000 0.000000 0.000000
# 3 -0.008706 -0.004996 0.012189 0.000000 0.000000 0.000000
# 4 0.000000 0.000000 0.000000 0.246661 0.000000 0.000000
# 5 0.000000 0.000000 0.000000 0.000000 0.043415 0.000000
# 6 0.000000 0.000000 0.000000 0.000000 0.000000 0.069925
#
#
# Mechanical properties :
#
#
# Convention : Reuss Voigt Hill
#
# Bulk Modulus (GPa) = 48.84761 65.27983 57.06372
# Shear Modulus (GPa) = 10.85499 17.81374 14.33436
#
# Velocity S-wave (km/s) = 2.46076 3.15233 2.82776
# Velocity P-wave (km/s) = 5.94330 7.04735 6.51874
#
# Compressibility (1/GPa) = 0.02047183
#
# Stress axis : x y z
#
# Youngs Moduli (GPa) = 45.65014 43.40746 82.04245
#
# Poissons Ratio (x) = 0.20092 0.71424
# Poissons Ratio (y) = 0.21131 0.40985
# Poissons Ratio (z) = 0.39742 0.21684
#
# Static dielectric constant tensor:
#      x y z
#    x 3.470550 0.000000 0.000000 
#    y 0.000000 3.132490 0.000000 
#    z 0.000000 0.000000 3.353890 
# 
# 
# High freq. dielectric constant tensor:
#      x y z
#    x 1.700930 0.000000 0.000000 
#    y 0.000000 1.664100 0.000000 
#    z 0.000000 0.000000 1.685820 
# 
# From -- ./inp_files/19477.got.cif
#   From: 2010.03.12/outbox.cif.g09.slc.cpg/sg51_10_cif.got.tgz:19477.got - 2010.04.16 13:43:02.
