data_PCOD8208265
_publ_section_title
;
Structure prediction by ZEFSAII (Michael W. Deem and Ramdas Pophale) SiO2 
 PCOD8208265
Probable space group: P M M A
;
_chemical_formula_sum "Si O2"
_cell_formula_units_Z 56
_cell_length_a 20.259517
_cell_length_b 9.600438
_cell_length_c 17.486430
_cell_angle_alpha 90.000000
_cell_angle_beta 90.000000
_cell_angle_gamma 90.000000
_cell_volume 3401.114777
_symmetry_space_group_name_H-M "P M M A"
_symmetry_group_IT_number 51
_symmetry_cell_setting 'orthorhombic'
loop_
_space_group_symop_operation_xyz
x,y,z
1/2-x,-y,z
1/2+x,-y,-z
-x,y,-z
-x,-y,-z
1/2+x,y,-z
1/2-x,y,z
x,-y,z
loop_
_atom_site_type_symbol
_atom_site_label
_atom_site_fract_x
_atom_site_fract_y
_atom_site_fract_z
Si Si1 0.568017 0.662704 0.959182
Si Si2 0.078075 0.656875 0.487300
Si Si3 0.406208 0.154710 0.622855
Si Si4 0.888737 0.162845 0.207460
Si Si5 0.460890 0.837183 0.182660
Si Si6 0.174810 0.659466 0.917670
Si Si7 0.438259 0.154587 0.351890
O O1 0.569882 0.500000 0.939094
O O2 0.576466 0.748271 0.881228
O O3 0.500000 0.704635 0.000000
O O4 0.628291 0.708453 0.013161
O O5 0.105554 0.500000 0.482995
O O6 0.114101 0.735598 0.557445
O O7 0.096373 0.735021 0.408273
O O8 0.000000 0.657110 0.500000
O O9 0.373916 0.198345 0.703693
O O10 0.484242 0.150838 0.633303
O O11 0.382121 0.000000 0.598661
O O12 0.837301 0.248824 0.157326
O O13 0.962691 0.208402 0.185149
O O14 0.878517 0.000000 0.192048
O O15 0.425954 0.803015 0.263752
O O16 0.454776 0.000000 0.163523
O O17 0.250000 0.678713 0.944510
O O18 0.158934 0.500000 0.896209
O O19 0.409434 0.000000 0.368046
#
# Coordination Sequence:
#
# PCOD8208265 Si02
#       7
#     8   8   8   8   8   8   8
#     4  10  19  31  47  67  88 115 152 189 228 276
#     4   9  15  21  31  52  80 111 146 179 212 252
#     4   8  14  24  37  53  77 111 145 176 212 255
#     4   9  17  29  45  65  87 113 150 189 224 266
#     4   9  17  28  44  66  88 114 149 189 229 269
#     4  10  21  35  48  64  90 121 150 185 232 279
#     4   8  14  24  36  52  79 113 144 174 215 263
#
# _framework density 16.46519
#
# number of rings (size 3 to 8) (size 9 to 14) (size 15 to 20)
#    0.000    3.000    1.429    2.143    0.000    4.000 
#    0.000    2.857    0.000    0.000    0.000    0.000 
#    0.000    1.143    0.000    8.571    0.000    6.429 
#
# Total GULP energy -694244.339357 kJ/mol
# GULP energy per Si atom -12397.220346 kJ/mol
# Density = 1.642771 g / cm^3
# Si number density = 16.465190 Si / 1000 Ang^3
#
#
#
# Elastic Constant Matrix: (Units=GPa)
#
#
# Indices 1 2 3 4 5 6 
#
# 1 44.9858 24.6940 34.0287 0.0000 0.0000 0.0000
# 2 24.6940 94.7939 81.6265 0.0000 0.0000 0.0000
# 3 34.0287 81.6265 142.5552 0.0000 0.0000 0.0000
# 4 0.0000 0.0000 0.0000 27.0974 0.0000 0.0000
# 5 0.0000 0.0000 0.0000 0.0000 12.5313 0.0000
# 6 0.0000 0.0000 0.0000 0.0000 0.0000 12.3101
#
#
#
# Elastic Compliance Matrix: (Units=1/GPa)
#
#
# Indices 1 2 3 4 5 6 
#
# 1 0.027550 -0.002986 -0.004866 0.000000 0.000000 0.000000
# 2 -0.002986 0.021133 -0.011388 0.000000 0.000000 0.000000
# 3 -0.004866 -0.011388 0.014697 0.000000 0.000000 0.000000
# 4 0.000000 0.000000 0.000000 0.036904 0.000000 0.000000
# 5 0.000000 0.000000 0.000000 0.000000 0.079800 0.000000
# 6 0.000000 0.000000 0.000000 0.000000 0.000000 0.081234
#
#
# Mechanical properties :
#
#
# Convention : Reuss Voigt Hill
#
# Bulk Modulus (GPa) = 40.16270 62.55927 51.36098
# Shear Modulus (GPa) = 16.22854 19.85346 18.04100
#
# Velocity S-wave (km/s) = 3.14288 3.47621 3.31374
# Velocity P-wave (km/s) = 6.13316 7.36134 6.77514
#
# Compressibility (1/GPa) = 0.02489873
#
# Stress axis : x y z
#
# Youngs Moduli (GPa) = 36.29823 47.31881 68.04068
#
# Poissons Ratio (x) = 0.14132 0.33110
# Poissons Ratio (y) = 0.10840 0.77484
# Poissons Ratio (z) = 0.17663 0.53886
#
# Static dielectric constant tensor:
#      x y z
#    x 2.547160 0.000000 0.000000 
#    y 0.000000 3.186010 0.000000 
#    z 0.000000 0.000000 3.267620 
# 
# 
# High freq. dielectric constant tensor:
#      x y z
#    x 1.563610 0.000000 0.000000 
#    y 0.000000 1.636750 0.000000 
#    z 0.000000 0.000000 1.643690 
# 
# From -- ./inp_files/30414.got.cif
#   From: 2010.03.12/outbox.cif.g09.slc.cpg/sg51_16_cif.got.tgz:30414.got - 2010.04.16 13:43:02.
