data_PCOD8208973
_publ_section_title
;
Structure prediction by ZEFSAII (Michael W. Deem and Ramdas Pophale) SiO2 
 PCOD8208973
Probable space group: P M M A
;
_chemical_formula_sum "Si O2"
_cell_formula_units_Z 44
_cell_length_a 8.973035
_cell_length_b 28.356468
_cell_length_c 9.484170
_cell_angle_alpha 90.000000
_cell_angle_beta 90.000000
_cell_angle_gamma 90.000000
_cell_volume 2413.186167
_symmetry_space_group_name_H-M "P M M A"
_symmetry_group_IT_number 51
_symmetry_cell_setting 'orthorhombic'
loop_
_space_group_symop_operation_xyz
x,y,z
1/2-x,-y,z
1/2+x,-y,-z
-x,y,-z
-x,-y,-z
1/2+x,y,-z
1/2-x,y,z
x,-y,z
loop_
_atom_site_type_symbol
_atom_site_label
_atom_site_fract_x
_atom_site_fract_y
_atom_site_fract_z
Si Si1 0.922681 0.049726 0.648233
Si Si2 0.425374 0.581118 0.644048
Si Si3 0.073565 0.770081 0.848330
Si Si4 0.927017 0.152417 0.653834
Si Si5 0.423644 0.312552 0.642829
Si Si6 0.574368 0.500000 0.149824
O O1 0.750000 0.050409 0.614912
O O2 0.962852 0.099973 0.719859
O O3 0.000000 0.048034 0.500000
O O4 0.963436 0.000000 0.731369
O O5 0.500000 0.563990 0.500000
O O6 0.250000 0.577361 0.622511
O O7 0.475837 0.634440 0.681799
O O8 0.479548 0.546728 0.768008
O O9 0.250000 0.777558 0.861530
O O10 0.032521 0.721149 0.771522
O O11 0.003188 0.812504 0.761593
O O12 0.000000 0.768150 0.000000
O O13 0.750000 0.162035 0.642870
O O14 0.000000 0.158637 0.500000
O O15 0.500000 0.294247 0.500000
O O16 0.250000 0.310894 0.611930
O O17 0.750000 0.500000 0.129874
O O18 0.500000 0.500000 0.000000
#
# Coordination Sequence:
#
# PCOD8208973 Si02
#       6
#     8   8   8   8   8   4
#     4   8  14  25  43  69  99 128 159 198 244 291
#     4   9  18  34  54  77 102 130 166 207 249 295
#     4  11  23  37  52  72 100 134 170 210 255 303
#     4  10  19  32  52  77 104 134 168 207 249 296
#     4   9  19  35  55  77 101 129 164 206 251 299
#     4  10  21  34  50  74 106 138 169 206 246 292
#
# _framework density 18.233156000000001
#
# number of rings (size 3 to 8) (size 9 to 14) (size 15 to 20)
#    0.000    2.545    0.000    1.909    0.000    5.091 
#    0.000    0.000    0.000    0.545    0.000    0.000 
#    0.000    0.000    0.000    0.000    0.000    0.000 
#
# Total GULP energy -545189.779284 kJ/mol
# GULP energy per Si atom -12390.676802 kJ/mol
# Density = 1.819166 g / cm^3
# Si number density = 18.233156 Si / 1000 Ang^3
#
#
#
# Elastic Constant Matrix: (Units=GPa)
#
#
# Indices 1 2 3 4 5 6 
#
# 1 56.5481 56.1094 52.1325 0.0000 0.0000 0.0000
# 2 56.1094 157.1541 94.3837 0.0000 0.0000 0.0000
# 3 52.1325 94.3837 138.5567 0.0000 0.0000 0.0000
# 4 0.0000 0.0000 0.0000 8.9466 0.0000 0.0000
# 5 0.0000 0.0000 0.0000 0.0000 31.5014 0.0000
# 6 0.0000 0.0000 0.0000 0.0000 0.0000 23.7601
#
#
#
# Elastic Compliance Matrix: (Units=1/GPa)
#
#
# Indices 1 2 3 4 5 6 
#
# 1 0.030898 -0.006853 -0.006957 0.000000 0.000000 0.000000
# 2 -0.006853 0.012289 -0.005793 0.000000 0.000000 0.000000
# 3 -0.006957 -0.005793 0.013781 0.000000 0.000000 0.000000
# 4 0.000000 0.000000 0.000000 0.111774 0.000000 0.000000
# 5 0.000000 0.000000 0.000000 0.000000 0.031745 0.000000
# 6 0.000000 0.000000 0.000000 0.000000 0.000000 0.042087
#
#
# Mechanical properties :
#
#
# Convention : Reuss Voigt Hill
#
# Bulk Modulus (GPa) = 56.30058 84.16780 70.23419
# Shear Modulus (GPa) = 17.37920 22.81719 20.09820
#
# Velocity S-wave (km/s) = 3.09069 3.54137 3.32367
# Velocity P-wave (km/s) = 6.60921 7.93624 7.30293
#
# Compressibility (1/GPa) = 0.01776181
#
# Stress axis : x y z
#
# Youngs Moduli (GPa) = 32.36443 81.37387 72.56534
#
# Poissons Ratio (x) = 0.55769 0.50484
# Poissons Ratio (y) = 0.22181 0.42034
# Poissons Ratio (z) = 0.22516 0.47136
#
# Static dielectric constant tensor:
#      x y z
#    x 3.392380 0.000000 0.000000 
#    y 0.000000 4.201820 0.000000 
#    z 0.000000 0.000000 3.099590 
# 
# 
# High freq. dielectric constant tensor:
#      x y z
#    x 1.709820 0.000000 0.000000 
#    y 0.000000 1.735850 0.000000 
#    z 0.000000 0.000000 1.671410 
# 
# From -- ./inp_files/5819.got.cif
#   From: 2010.03.12/outbox.cif.g09.slc.cpg/sg51_3_cif.got.tgz:5819.got - 2010.04.16 13:43:02.
