data_PCOD8208623
_publ_section_title
;
Structure prediction by ZEFSAII (Michael W. Deem and Ramdas Pophale) SiO2 
 PCOD8208623
Probable space group: P M M A
;
_chemical_formula_sum "Si O2"
_cell_formula_units_Z 40
_cell_length_a 25.326546
_cell_length_b 9.058632
_cell_length_c 9.313172
_cell_angle_alpha 90.000000
_cell_angle_beta 90.000000
_cell_angle_gamma 90.000000
_cell_volume 2136.663870
_symmetry_space_group_name_H-M "P M M A"
_symmetry_group_IT_number 51
_symmetry_cell_setting 'orthorhombic'
loop_
_space_group_symop_operation_xyz
x,y,z
1/2-x,-y,z
1/2+x,-y,-z
-x,y,-z
-x,-y,-z
1/2+x,y,-z
1/2-x,y,z
x,-y,z
loop_
_atom_site_type_symbol
_atom_site_label
_atom_site_fract_x
_atom_site_fract_y
_atom_site_fract_z
Si Si1 0.396164 0.324580 0.664692
Si Si2 0.596881 0.674610 0.658605
Si Si3 0.810078 0.327968 0.860390
Si Si4 0.501566 0.324284 0.161995
Si Si5 0.811263 0.828628 0.153149
O O1 0.389570 0.500000 0.668380
O O2 0.405406 0.265208 0.503379
O O3 0.444969 0.270766 0.761707
O O4 0.342783 0.251857 0.721260
O O5 0.591376 0.500000 0.655377
O O6 0.652289 0.722074 0.730349
O O7 0.548203 0.740743 0.750025
O O8 0.750000 0.291716 0.815052
O O9 0.817487 0.500000 0.896605
O O10 0.827580 0.238899 0.000417
O O11 0.498966 0.500000 0.159662
O O12 0.500000 0.261457 0.000000
O O13 0.750000 0.799868 0.184631
O O14 0.825484 0.000000 0.151171
#
# Coordination Sequence:
#
# PCOD8208623 Si02
#       5
#     8   8   8   8   8
#     4  10  19  31  51  77 103 132 166 205 247 292
#     4   9  17  29  48  77 108 132 160 203 251 295
#     4   9  17  31  52  75  97 125 165 209 248 290
#     4   9  16  27  47  75 104 133 165 201 243 291
#     4  10  21  36  52  71  98 132 168 206 249 297
#
# _framework density 18.720772
#
# number of rings (size 3 to 8) (size 9 to 14) (size 15 to 20)
#    0.000    2.600    0.000    2.400    0.000    7.600 
#    0.000    3.000    0.000   10.200    0.000    0.000 
#    0.000    0.000    0.000    0.000    0.000    0.000 
#
# Total GULP energy -496041.481631 kJ/mol
# GULP energy per Si atom -12401.037041 kJ/mol
# Density = 1.867816 g / cm^3
# Si number density = 18.720772 Si / 1000 Ang^3
#
#
#
# Elastic Constant Matrix: (Units=GPa)
#
#
# Indices 1 2 3 4 5 6 
#
# 1 116.5015 30.6625 90.1772 0.0000 0.0000 0.0000
# 2 30.6625 31.7695 33.0840 0.0000 0.0000 0.0000
# 3 90.1772 33.0840 185.8998 0.0000 0.0000 0.0000
# 4 0.0000 0.0000 0.0000 4.7947 0.0000 0.0000
# 5 0.0000 0.0000 0.0000 0.0000 36.5811 0.0000
# 6 0.0000 0.0000 0.0000 0.0000 0.0000 13.4808
#
#
#
# Elastic Compliance Matrix: (Units=1/GPa)
#
#
# Indices 1 2 3 4 5 6 
#
# 1 0.015502 -0.008753 -0.005962 0.000000 0.000000 0.000000
# 2 -0.008753 0.043580 -0.003510 0.000000 0.000000 0.000000
# 3 -0.005962 -0.003510 0.008896 0.000000 0.000000 0.000000
# 4 0.000000 0.000000 0.000000 0.208565 0.000000 0.000000
# 5 0.000000 0.000000 0.000000 0.000000 0.027337 0.000000
# 6 0.000000 0.000000 0.000000 0.000000 0.000000 0.074180
#
#
# Mechanical properties :
#
#
# Convention : Reuss Voigt Hill
#
# Bulk Modulus (GPa) = 31.71787 71.33536 51.52661
# Shear Modulus (GPa) = 11.76416 22.98778 17.37597
#
# Velocity S-wave (km/s) = 2.50951 3.50798 3.04989
# Velocity P-wave (km/s) = 5.03749 7.38888 6.32344
#
# Compressibility (1/GPa) = 0.03152797
#
# Stress axis : x y z
#
# Youngs Moduli (GPa) = 64.50622 22.94632 112.41012
#
# Poissons Ratio (x) = 0.20086 0.67021
# Poissons Ratio (y) = 0.56465 0.39452
# Poissons Ratio (z) = 0.38460 0.08053
#
# Static dielectric constant tensor:
#      x y z
#    x 3.576780 0.000000 0.000000 
#    y 0.000000 2.962270 0.000000 
#    z 0.000000 0.000000 3.616830 
# 
# 
# High freq. dielectric constant tensor:
#      x y z
#    x 1.740880 0.000000 0.000000 
#    y 0.000000 1.673130 0.000000 
#    z 0.000000 0.000000 1.734640 
# 
# From -- ./inp_files/11419.got.cif
#   From: 2010.03.12/outbox.cif.g09.slc.cpg/sg51_6_cif.got.tgz:11419.got - 2010.04.16 13:43:02.
