data_PCOD8208654
_publ_section_title
;
Structure prediction by ZEFSAII (Michael W. Deem and Ramdas Pophale) SiO2 
 PCOD8208654
Probable space group: P M M A
;
_chemical_formula_sum "Si O2"
_cell_formula_units_Z 48
_cell_length_a 19.151504
_cell_length_b 9.044228
_cell_length_c 15.203642
_cell_angle_alpha 90.000000
_cell_angle_beta 90.000000
_cell_angle_gamma 90.000000
_cell_volume 2633.431477
_symmetry_space_group_name_H-M "P M M A"
_symmetry_group_IT_number 51
_symmetry_cell_setting 'orthorhombic'
loop_
_space_group_symop_operation_xyz
x,y,z
1/2-x,-y,z
1/2+x,-y,-z
-x,y,-z
-x,-y,-z
1/2+x,y,-z
1/2-x,y,z
x,-y,z
loop_
_atom_site_type_symbol
_atom_site_label
_atom_site_fract_x
_atom_site_fract_y
_atom_site_fract_z
Si Si1 0.328228 0.176288 0.108718
Si Si2 0.169215 0.172360 0.445362
Si Si3 0.430892 0.175491 0.759902
Si Si4 0.168740 0.672101 0.623823
Si Si5 0.412792 0.175449 0.275533
Si Si6 0.571062 0.175609 0.041329
O O1 0.250000 0.240760 0.111337
O O2 0.371337 0.240161 0.191567
O O3 0.327085 0.000000 0.112815
O O4 0.364280 0.229797 0.018260
O O5 0.250000 0.202596 0.422818
O O6 0.144499 0.259752 0.531283
O O7 0.123284 0.233487 0.364544
O O8 0.155484 0.000000 0.462586
O O9 0.372273 0.251449 0.702105
O O10 0.507120 0.227800 0.727182
O O11 0.419228 0.232283 0.859398
O O12 0.422869 0.000000 0.752465
O O13 0.250000 0.704412 0.639763
O O14 0.151526 0.500000 0.622349
O O15 0.408437 0.000000 0.271668
O O16 0.565720 0.000000 0.042013
O O17 0.500000 0.241084 0.000000
#
# Coordination Sequence:
#
# PCOD8208654 Si02
#       6
#     8   8   8   8   8   8
#     4   9  15  23  39  67 102 135 166 202 245 293
#     4   9  17  31  52  75  99 129 167 209 250 296
#     4  10  19  31  52  77 103 134 166 204 249 298
#     4  10  22  39  54  69  95 131 169 210 255 300
#     4   9  16  27  45  73 104 131 159 200 254 301
#     4   9  15  26  43  68 104 139 165 197 245 292
#
# _framework density 18.227170000000001
#
# number of rings (size 3 to 8) (size 9 to 14) (size 15 to 20)
#    0.000    2.667    1.667    1.000    0.000    4.333 
#    0.000    5.833    0.000    0.500    0.000    0.000 
#    0.000    4.000    0.000    0.000    0.000    0.000 
#
# Total GULP energy -595162.421254 kJ/mol
# GULP energy per Si atom -12399.217109 kJ/mol
# Density = 1.818568 g / cm^3
# Si number density = 18.227170 Si / 1000 Ang^3
#
#
#
# Elastic Constant Matrix: (Units=GPa)
#
#
# Indices 1 2 3 4 5 6 
#
# 1 107.0972 29.5150 85.8115 0.0000 0.0000 0.0000
# 2 29.5150 30.8170 40.8388 0.0000 0.0000 0.0000
# 3 85.8115 40.8388 189.5357 0.0000 0.0000 0.0000
# 4 0.0000 0.0000 0.0000 -1.9273 0.0000 0.0000
# 5 0.0000 0.0000 0.0000 0.0000 43.2787 0.0000
# 6 0.0000 0.0000 0.0000 0.0000 0.0000 12.0226
#
#
#
# Elastic Compliance Matrix: (Units=1/GPa)
#
#
# Indices 1 2 3 4 5 6 
#
# 1 0.015943 -0.007983 -0.005498 0.000000 0.000000 0.000000
# 2 -0.007983 0.049416 -0.007033 0.000000 0.000000 0.000000
# 3 -0.005498 -0.007033 0.009281 0.000000 0.000000 0.000000
# 4 0.000000 0.000000 0.000000 -0.518863 0.000000 0.000000
# 5 0.000000 0.000000 0.000000 0.000000 0.023106 0.000000
# 6 0.000000 0.000000 0.000000 0.000000 0.000000 0.083177
#
#
# Mechanical properties :
#
#
# Convention : Reuss Voigt Hill
#
# Bulk Modulus (GPa) = 29.75244 71.08672 50.41958
# Shear Modulus (GPa) = -17.50035 22.09378 2.29672
#
# Velocity S-wave (km/s) = -3.10195 3.48535 1.12374
# Velocity P-wave (km/s) = 1.87859 7.43518 5.42269
#
# Compressibility (1/GPa) = 0.03361068
#
# Stress axis : x y z
#
# Youngs Moduli (GPa) = 62.72539 20.23633 107.75230
#
# Poissons Ratio (x) = 0.16155 0.59240
# Poissons Ratio (y) = 0.50076 0.75784
# Poissons Ratio (z) = 0.34485 0.14232
#
# Static dielectric constant tensor:
#      x y z
#    x 3.475730 0.000000 0.000000 
#    y 0.000000 2.785620 0.000000 
#    z 0.000000 0.000000 3.587800 
# 
# 
# High freq. dielectric constant tensor:
#      x y z
#    x 1.712700 0.000000 0.000000 
#    y 0.000000 1.642520 0.000000 
#    z 0.000000 0.000000 1.722320 
# 
# From -- ./inp_files/24688.got.cif
#   From: 2010.03.12/outbox.cif.g09.slc.cpg/sg51_13_cif.got.tgz:24688.got - 2010.04.16 13:43:02.
