data_PCOD8208370
_publ_section_title
;
Structure prediction by ZEFSAII (Michael W. Deem and Ramdas Pophale) SiO2 
 PCOD8208370
Probable space group: P M M A
;
_chemical_formula_sum "Si O2"
_cell_formula_units_Z 64
_cell_length_a 9.030877
_cell_length_b 22.389138
_cell_length_c 15.963589
_cell_angle_alpha 90.000000
_cell_angle_beta 90.000000
_cell_angle_gamma 90.000000
_cell_volume 3227.734753
_symmetry_space_group_name_H-M "P M M A"
_symmetry_group_IT_number 51
_symmetry_cell_setting 'orthorhombic'
loop_
_space_group_symop_operation_xyz
x,y,z
1/2-x,-y,z
1/2+x,-y,-z
-x,y,-z
-x,-y,-z
1/2+x,y,-z
1/2-x,y,z
x,-y,z
loop_
_atom_site_type_symbol
_atom_site_label
_atom_site_fract_x
_atom_site_fract_y
_atom_site_fract_z
Si Si1 0.575863 0.861657 0.586557
Si Si2 0.078561 0.932106 0.738640
Si Si3 0.582815 0.565341 0.260971
Si Si4 0.580876 0.234434 0.920508
Si Si5 0.913083 0.399370 0.577488
Si Si6 0.917487 0.308960 0.208119
Si Si7 0.584911 0.728185 0.635531
Si Si8 0.926563 0.097529 0.912410
O O1 0.500000 0.884769 0.500000
O O2 0.750000 0.877908 0.584583
O O3 0.503574 0.891614 0.669196
O O4 0.549224 0.790582 0.590534
O O5 0.250000 0.911171 0.747976
O O6 0.998970 0.931339 0.829826
O O7 0.071541 0.000000 0.706160
O O8 0.750000 0.569785 0.295453
O O9 0.554362 0.500000 0.218897
O O10 0.474253 0.574073 0.337319
O O11 0.558403 0.619655 0.195605
O O12 0.750000 0.238996 0.941253
O O13 0.540137 0.275436 0.843983
O O14 0.533900 0.166858 0.902365
O O15 0.500000 0.261563 0.000000
O O16 0.750000 0.424849 0.570340
O O17 0.914742 0.327031 0.571303
O O18 0.000000 0.426785 0.500000
O O19 0.750000 0.290255 0.184592
O O20 0.952013 0.287406 0.301560
O O21 0.750000 0.732533 0.677821
O O22 0.750000 0.084638 0.914592
O O23 0.000000 0.073594 0.000000
#
# Coordination Sequence:
#
# PCOD8208370 Si02
#       8
#     8   8   8   8   8   8   8   8
#     4  11  23  39  60  84 111 146 188 235 286 336
#     4  11  25  43  61  83 113 150 192 235 277 325
#     4   9  19  35  51  68  94 131 175 217 256 303
#     4  10  20  34  54  82 114 142 169 206 254 311
#     4  10  19  31  48  71 100 131 165 208 258 312
#     4  10  19  31  52  79 105 137 174 215 265 316
#     4   9  19  34  52  77 107 137 171 214 266 323
#     4  10  21  38  62  91 121 152 184 221 271 330
#
# _framework density 19.828147999999999
#
# number of rings (size 3 to 8) (size 9 to 14) (size 15 to 20)
#    0.000    2.000    0.000    3.375    0.000    8.500 
#    0.000    0.000    0.000    0.375    0.000    0.000 
#    0.000    0.000    0.000    0.000    0.000    0.000 
#
# Total GULP energy -793165.220475 kJ/mol
# GULP energy per Si atom -12393.206570 kJ/mol
# Density = 1.978302 g / cm^3
# Si number density = 19.828148 Si / 1000 Ang^3
#
#
#
# Elastic Constant Matrix: (Units=GPa)
#
#
# Indices 1 2 3 4 5 6 
#
# 1 88.0712 32.5958 30.9513 0.0000 0.0000 0.0000
# 2 32.5958 73.8549 18.2553 0.0000 0.0000 0.0000
# 3 30.9513 18.2553 74.0617 0.0000 0.0000 0.0000
# 4 0.0000 0.0000 0.0000 5.2446 0.0000 0.0000
# 5 0.0000 0.0000 0.0000 0.0000 39.0245 0.0000
# 6 0.0000 0.0000 0.0000 0.0000 0.0000 31.6356
#
#
#
# Elastic Compliance Matrix: (Units=1/GPa)
#
#
# Indices 1 2 3 4 5 6 
#
# 1 0.015117 -0.005442 -0.004976 0.000000 0.000000 0.000000
# 2 -0.005442 0.016378 -0.001763 0.000000 0.000000 0.000000
# 3 -0.004976 -0.001763 0.016016 0.000000 0.000000 0.000000
# 4 0.000000 0.000000 0.000000 0.190671 0.000000 0.000000
# 5 0.000000 0.000000 0.000000 0.000000 0.025625 0.000000
# 6 0.000000 0.000000 0.000000 0.000000 0.000000 0.031610
#
#
# Mechanical properties :
#
#
# Convention : Reuss Voigt Hill
#
# Bulk Modulus (GPa) = 43.19757 44.39917 43.79837
# Shear Modulus (GPa) = 15.26738 25.46000 20.36369
#
# Velocity S-wave (km/s) = 2.77787 3.58723 3.20818
# Velocity P-wave (km/s) = 5.66763 6.29271 5.98833
#
# Compressibility (1/GPa) = 0.02314945
#
# Stress axis : x y z
#
# Youngs Moduli (GPa) = 66.14872 61.05917 62.43603
#
# Poissons Ratio (x) = 0.33228 0.31070
# Poissons Ratio (y) = 0.35998 0.11005
# Poissons Ratio (z) = 0.32918 0.10762
#
# Static dielectric constant tensor:
#      x y z
#    x 3.769340 0.000000 0.000000 
#    y 0.000000 3.750780 0.000000 
#    z 0.000000 0.000000 3.742550 
# 
# 
# High freq. dielectric constant tensor:
#      x y z
#    x 1.789430 0.000000 0.000000 
#    y 0.000000 1.774030 0.000000 
#    z 0.000000 0.000000 1.749070 
# 
# From -- ./inp_files/22296.got.cif
#   From: 2010.03.12/outbox.cif.g09.slc.cpg/sg51_12_cif.got.tgz:22296.got - 2010.04.16 13:43:02.
