data_PCOD8208030
_publ_section_title
;
Structure prediction by ZEFSAII (Michael W. Deem and Ramdas Pophale) SiO2 
 PCOD8208030
Probable space group: P M M A
;
_chemical_formula_sum "Si O2"
_cell_formula_units_Z 64
_cell_length_a 9.278511
_cell_length_b 20.253886
_cell_length_c 17.330222
_cell_angle_alpha 90.000000
_cell_angle_beta 90.000000
_cell_angle_gamma 90.000000
_cell_volume 3256.797637
_symmetry_space_group_name_H-M "P M M A"
_symmetry_group_IT_number 51
_symmetry_cell_setting 'orthorhombic'
loop_
_space_group_symop_operation_xyz
x,y,z
1/2-x,-y,z
1/2+x,-y,-z
-x,y,-z
-x,-y,-z
1/2+x,y,-z
1/2-x,y,z
x,-y,z
loop_
_atom_site_type_symbol
_atom_site_label
_atom_site_fract_x
_atom_site_fract_y
_atom_site_fract_z
Si Si1 0.582463 0.426883 0.244878
Si Si2 0.581312 0.398390 0.072524
Si Si3 0.091727 0.925054 0.798972
Si Si4 0.409832 0.868101 0.071297
Si Si5 0.409768 0.722122 0.114401
Si Si6 0.583651 0.699377 0.712050
Si Si7 0.422079 0.796439 0.425016
Si Si8 0.582656 0.925260 0.379895
O O1 0.750000 0.408716 0.250901
O O2 0.550731 0.500000 0.279461
O O3 0.537061 0.430045 0.154431
O O4 0.497481 0.371273 0.292819
O O5 0.750000 0.403945 0.057061
O O6 0.531741 0.322297 0.075249
O O7 0.500000 0.433207 0.000000
O O8 0.250000 0.893750 0.813477
O O9 0.050108 0.920596 0.710279
O O10 0.973244 0.886438 0.846396
O O11 0.092756 0.000000 0.827314
O O12 0.250000 0.897611 0.064595
O O13 0.409203 0.789549 0.067754
O O14 0.500000 0.897443 0.000000
O O15 0.250000 0.689079 0.107635
O O16 0.445506 0.732994 0.205104
O O17 0.750000 0.683481 0.697716
O O18 0.529193 0.751171 0.647428
O O19 0.500000 0.765010 0.500000
O O20 0.250000 0.797885 0.434663
O O21 0.479052 0.871784 0.419125
O O22 0.750000 0.909003 0.397612
O O23 0.546136 0.000000 0.408541
#
# Coordination Sequence:
#
# PCOD8208030 Si02
#       8
#     8   8   8   8   8   8   8   8
#     4   9  19  35  54  78 107 140 181 226 271 321
#     4  10  19  30  46  70 102 139 176 215 261 311
#     4   9  19  36  55  73  95 126 166 212 261 314
#     4  11  22  33  47  68  95 129 170 219 271 319
#     4   9  18  33  51  71  96 127 167 213 260 310
#     4   9  19  36  57  81 108 138 175 220 266 316
#     4  11  23  38  58  86 118 148 179 216 260 314
#     4   9  19  37  60  85 113 145 181 220 263 315
#
# _framework density 19.651206999999999
#
# number of rings (size 3 to 8) (size 9 to 14) (size 15 to 20)
#    0.000    2.375    0.000    3.000    0.000    6.500 
#    0.000    3.750    0.000    0.375    0.000    0.000 
#    0.000    0.000    0.000    0.000    0.000    0.000 
#
# Total GULP energy -793348.610160 kJ/mol
# GULP energy per Si atom -12396.072034 kJ/mol
# Density = 1.960648 g / cm^3
# Si number density = 19.651207 Si / 1000 Ang^3
#
#
#
# Elastic Constant Matrix: (Units=GPa)
#
#
# Indices 1 2 3 4 5 6 
#
# 1 91.4851 33.6735 36.7297 0.0000 0.0000 0.0000
# 2 33.6735 75.8594 28.5550 0.0000 0.0000 0.0000
# 3 36.7297 28.5550 72.1969 0.0000 0.0000 0.0000
# 4 0.0000 0.0000 0.0000 9.4799 0.0000 0.0000
# 5 0.0000 0.0000 0.0000 0.0000 31.9111 0.0000
# 6 0.0000 0.0000 0.0000 0.0000 0.0000 27.4074
#
#
#
# Elastic Compliance Matrix: (Units=1/GPa)
#
#
# Indices 1 2 3 4 5 6 
#
# 1 0.014898 -0.004418 -0.005832 0.000000 0.000000 0.000000
# 2 -0.004418 0.016798 -0.004396 0.000000 0.000000 0.000000
# 3 -0.005832 -0.004396 0.018557 0.000000 0.000000 0.000000
# 4 0.000000 0.000000 0.000000 0.105487 0.000000 0.000000
# 5 0.000000 0.000000 0.000000 0.000000 0.031337 0.000000
# 6 0.000000 0.000000 0.000000 0.000000 0.000000 0.036486
#
#
# Mechanical properties :
#
#
# Convention : Reuss Voigt Hill
#
# Bulk Modulus (GPa) = 47.70834 48.60641 48.15738
# Shear Modulus (GPa) = 19.24235 23.13190 21.18713
#
# Velocity S-wave (km/s) = 3.13260 3.43465 3.28710
# Velocity P-wave (km/s) = 6.11674 6.36532 6.24227
#
# Compressibility (1/GPa) = 0.02096070
#
# Stress axis : x y z
#
# Youngs Moduli (GPa) = 67.12145 59.52992 53.88839
#
# Poissons Ratio (x) = 0.26300 0.31428
# Poissons Ratio (y) = 0.29654 0.23691
# Poissons Ratio (z) = 0.39146 0.26171
#
# Static dielectric constant tensor:
#      x y z
#    x 3.598150 0.000000 0.000000 
#    y 0.000000 3.480990 0.000000 
#    z 0.000000 0.000000 3.533310 
# 
# 
# High freq. dielectric constant tensor:
#      x y z
#    x 1.765990 0.000000 0.000000 
#    y 0.000000 1.753220 0.000000 
#    z 0.000000 0.000000 1.755270 
# 
# From -- ./inp_files/28389.got.cif
#   From: 2010.03.12/outbox.cif.g09.slc.cpg/sg51_15_cif.got.tgz:28389.got - 2010.04.16 13:43:02.
