data_PCOD8208294
_publ_section_title
;
Structure prediction by ZEFSAII (Michael W. Deem and Ramdas Pophale) SiO2 
 PCOD8208294
Probable space group: P M M A
;
_chemical_formula_sum "Si O2"
_cell_formula_units_Z 64
_cell_length_a 8.822347
_cell_length_b 22.794846
_cell_length_c 16.292096
_cell_angle_alpha 90.000000
_cell_angle_beta 90.000000
_cell_angle_gamma 90.000000
_cell_volume 3276.406346
_symmetry_space_group_name_H-M "P M M A"
_symmetry_group_IT_number 51
_symmetry_cell_setting 'orthorhombic'
loop_
_space_group_symop_operation_xyz
x,y,z
1/2-x,-y,z
1/2+x,-y,-z
-x,y,-z
-x,-y,-z
1/2+x,y,-z
1/2-x,y,z
x,-y,z
loop_
_atom_site_type_symbol
_atom_site_label
_atom_site_fract_x
_atom_site_fract_y
_atom_site_fract_z
Si Si1 0.579577 0.677517 0.705406
Si Si2 0.923504 0.271314 0.884831
Si Si3 0.071072 0.564600 0.749851
Si Si4 0.429411 0.769333 0.418849
Si Si5 0.575068 0.066925 0.768466
Si Si6 0.428676 0.611445 0.922644
Si Si7 0.568647 0.145076 0.087499
Si Si8 0.571007 0.901889 0.585534
O O1 0.750000 0.663578 0.678622
O O2 0.571518 0.708161 0.792080
O O3 0.492491 0.616094 0.692878
O O4 0.502580 0.726672 0.649401
O O5 0.750000 0.263538 0.915229
O O6 0.009166 0.322493 0.932499
O O7 0.013431 0.211266 0.898318
O O8 0.250000 0.566057 0.745217
O O9 0.010677 0.500000 0.723764
O O10 0.013685 0.578277 0.841753
O O11 0.500000 0.742674 0.500000
O O12 0.250000 0.768271 0.420504
O O13 0.486099 0.835315 0.405089
O O14 0.750000 0.088018 0.770787
O O15 0.483764 0.106252 0.834078
O O16 0.517438 0.069890 0.672722
O O17 0.557853 0.000000 0.797653
O O18 0.250000 0.612114 0.926990
O O19 0.500000 0.576496 0.000000
O O20 0.750000 0.142611 0.082409
O O21 0.500000 0.122050 0.000000
O O22 0.500000 0.928524 0.500000
O O23 0.750000 0.909347 0.575604
#
# Coordination Sequence:
#
# PCOD8208294 Si02
#       8
#     8   8   8   8   8   8   8   8
#     4   9  18  32  52  76 102 134 170 212 258 307
#     4  10  19  34  55  78 105 135 170 213 265 321
#     4   9  19  34  49  67  94 129 169 212 256 302
#     4   9  17  30  49  76 108 136 164 200 248 305
#     4  10  22  41  62  83 111 149 190 230 273 321
#     4  10  19  31  47  70 100 131 165 206 254 307
#     4  12  25  40  59  82 109 143 185 233 283 332
#     4   9  18  34  57  86 119 151 180 216 265 323
#
# _framework density 19.533597
#
# number of rings (size 3 to 8) (size 9 to 14) (size 15 to 20)
#    0.000    2.250    0.000    3.000    0.000    5.250 
#    0.000    2.500    0.000    0.375    0.000    0.000 
#    0.000    0.000    0.000    0.000    0.000    0.000 
#
# Total GULP energy -792941.668431 kJ/mol
# GULP energy per Si atom -12389.713569 kJ/mol
# Density = 1.948914 g / cm^3
# Si number density = 19.533597 Si / 1000 Ang^3
#
#
#
# Elastic Constant Matrix: (Units=GPa)
#
#
# Indices 1 2 3 4 5 6 
#
# 1 63.5220 26.1606 22.8340 0.0000 0.0000 0.0000
# 2 26.1606 82.0087 27.5584 0.0000 0.0000 0.0000
# 3 22.8340 27.5584 65.4859 0.0000 0.0000 0.0000
# 4 0.0000 0.0000 0.0000 -13.9588 0.0000 0.0000
# 5 0.0000 0.0000 0.0000 0.0000 31.0440 0.0000
# 6 0.0000 0.0000 0.0000 0.0000 0.0000 16.9200
#
#
#
# Elastic Compliance Matrix: (Units=1/GPa)
#
#
# Indices 1 2 3 4 5 6 
#
# 1 0.019354 -0.004549 -0.004834 0.000000 0.000000 0.000000
# 2 -0.004549 0.015272 -0.004840 0.000000 0.000000 0.000000
# 3 -0.004834 -0.004840 0.018993 0.000000 0.000000 0.000000
# 4 0.000000 0.000000 0.000000 -0.071639 0.000000 0.000000
# 5 0.000000 0.000000 0.000000 0.000000 0.032212 0.000000
# 6 0.000000 0.000000 0.000000 0.000000 0.000000 0.059102
#
#
# Mechanical properties :
#
#
# Convention : Reuss Voigt Hill
#
# Bulk Modulus (GPa) = 39.72835 40.45808 40.09321
# Shear Modulus (GPa) = 45.40042 15.76527 30.58285
#
# Velocity S-wave (km/s) = 4.82625 2.84401 3.96113
# Velocity P-wave (km/s) = 7.17214 5.61618 6.44131
#
# Compressibility (1/GPa) = 0.02517094
#
# Stress axis : x y z
#
# Youngs Moduli (GPa) = 51.66941 65.48061 52.65112
#
# Poissons Ratio (x) = 0.29790 0.25451
# Poissons Ratio (y) = 0.23507 0.25485
# Poissons Ratio (z) = 0.24976 0.31695
#
# Static dielectric constant tensor:
#      x y z
#    x 3.521590 0.000000 0.000000 
#    y 0.000000 3.684800 0.000000 
#    z 0.000000 0.000000 3.679980 
# 
# 
# High freq. dielectric constant tensor:
#      x y z
#    x 1.750580 0.000000 0.000000 
#    y 0.000000 1.757220 0.000000 
#    z 0.000000 0.000000 1.761920 
# 
# From -- ./inp_files/28454.got.cif
#   From: 2010.03.12/outbox.cif.g09.slc.cpg/sg51_15_cif.got.tgz:28454.got - 2010.04.16 13:43:02.
