data_PCOD8208988
_publ_section_title
;
Structure prediction by ZEFSAII (Michael W. Deem and Ramdas Pophale) SiO2 
 PCOD8208988
Probable space group: P M M A
;
_chemical_formula_sum "Si O2"
_cell_formula_units_Z 44
_cell_length_a 8.907567
_cell_length_b 28.502915
_cell_length_c 9.286899
_cell_angle_alpha 90.000000
_cell_angle_beta 90.000000
_cell_angle_gamma 90.000000
_cell_volume 2357.865879
_symmetry_space_group_name_H-M "P M M A"
_symmetry_group_IT_number 51
_symmetry_cell_setting 'orthorhombic'
loop_
_space_group_symop_operation_xyz
x,y,z
1/2-x,-y,z
1/2+x,-y,-z
-x,y,-z
-x,-y,-z
1/2+x,y,-z
1/2-x,y,z
x,-y,z
loop_
_atom_site_type_symbol
_atom_site_label
_atom_site_fract_x
_atom_site_fract_y
_atom_site_fract_z
Si Si1 0.424155 0.629038 0.153451
Si Si2 0.427484 0.000000 0.843424
Si Si3 0.572143 0.176986 0.157243
Si Si4 0.426770 0.088213 0.655849
Si Si5 0.075338 0.731700 0.154091
Si Si6 0.577566 0.552713 0.347945
O O1 0.250000 0.617525 0.134009
O O2 0.445966 0.680542 0.228985
O O3 0.498545 0.588733 0.244421
O O4 0.500000 0.628849 0.000000
O O5 0.482362 0.954808 0.754210
O O6 0.250000 0.000000 0.864837
O O7 0.500000 0.000000 0.000000
O O8 0.750000 0.179769 0.139690
O O9 0.522883 0.135380 0.262846
O O10 0.508990 0.224968 0.232449
O O11 0.500000 0.169110 0.000000
O O12 0.500000 0.085488 0.500000
O O13 0.250000 0.086150 0.633417
O O14 0.250000 0.744205 0.138318
O O15 0.000000 0.727798 0.000000
O O16 0.500000 0.556446 0.500000
O O17 0.750000 0.566893 0.365762
O O18 0.560774 0.500000 0.285347
#
# Coordination Sequence:
#
# PCOD8208988 Si02
#       6
#     8   4   8   8   8   8
#     4  10  20  34  54  80 108 138 175 218 264 313
#     4  10  21  38  58  82 108 136 175 218 258 308
#     4  10  19  32  52  78 104 135 175 215 255 305
#     4  10  22  37  54  78 108 140 175 214 260 310
#     4   9  17  30  50  76 104 136 172 212 259 307
#     4  10  21  37  56  77 103 137 175 215 262 316
#
# _framework density 18.660943
#
# number of rings (size 3 to 8) (size 9 to 14) (size 15 to 20)
#    0.000    2.182    0.000    4.091    0.000    5.818 
#    0.000    0.909    0.000    2.182    0.000    0.000 
#    0.000    0.000    0.000    0.000    0.000    0.000 
#
# Total GULP energy -545381.487469 kJ/mol
# GULP energy per Si atom -12395.033806 kJ/mol
# Density = 1.861847 g / cm^3
# Si number density = 18.660943 Si / 1000 Ang^3
#
#
#
# Elastic Constant Matrix: (Units=GPa)
#
#
# Indices 1 2 3 4 5 6 
#
# 1 115.5452 77.4464 49.8250 0.0000 0.0000 0.0000
# 2 77.4464 178.1825 76.6438 0.0000 0.0000 0.0000
# 3 49.8250 76.6438 96.6897 0.0000 0.0000 0.0000
# 4 0.0000 0.0000 0.0000 -25.6573 0.0000 0.0000
# 5 0.0000 0.0000 0.0000 0.0000 31.9882 0.0000
# 6 0.0000 0.0000 0.0000 0.0000 0.0000 33.1805
#
#
#
# Elastic Compliance Matrix: (Units=1/GPa)
#
#
# Indices 1 2 3 4 5 6 
#
# 1 0.012886 -0.004165 -0.003339 0.000000 0.000000 0.000000
# 2 -0.004165 0.009862 -0.005671 0.000000 0.000000 0.000000
# 3 -0.003339 -0.005671 0.016558 0.000000 0.000000 0.000000
# 4 0.000000 0.000000 0.000000 -0.038975 0.000000 0.000000
# 5 0.000000 0.000000 0.000000 0.000000 0.031262 0.000000
# 6 0.000000 0.000000 0.000000 0.000000 0.000000 0.030138
#
#
# Mechanical properties :
#
#
# Convention : Reuss Voigt Hill
#
# Bulk Modulus (GPa) = 77.18134 88.69420 82.93777
# Shear Modulus (GPa) = 54.11333 20.33576 37.22455
#
# Velocity S-wave (km/s) = 5.39084 3.30472 4.47115
# Velocity P-wave (km/s) = 8.95532 7.88632 8.43777
#
# Compressibility (1/GPa) = 0.01295650
#
# Stress axis : x y z
#
# Youngs Moduli (GPa) = 77.60476 101.40224 60.39231
#
# Poissons Ratio (x) = 0.42229 0.20165
# Poissons Ratio (y) = 0.32319 0.34249
# Poissons Ratio (z) = 0.25913 0.57507
#
# Static dielectric constant tensor:
#      x y z
#    x 3.550960 0.000000 0.000000 
#    y 0.000000 4.286610 0.000000 
#    z 0.000000 0.000000 3.116600 
# 
# 
# High freq. dielectric constant tensor:
#      x y z
#    x 1.737380 0.000000 0.000000 
#    y 0.000000 1.751110 0.000000 
#    z 0.000000 0.000000 1.692110 
# 
# From -- ./inp_files/5761.got.cif
#   From: 2010.03.12/outbox.cif.g09.slc.cpg/sg51_3_cif.got.tgz:5761.got - 2010.04.16 13:43:02.
