data_PCOD8208230
_publ_section_title
;
Structure prediction by ZEFSAII (Michael W. Deem and Ramdas Pophale) SiO2 
 PCOD8208230
Probable space group: P M M A
;
_chemical_formula_sum "Si O2"
_cell_formula_units_Z 52
_cell_length_a 9.415038
_cell_length_b 15.225136
_cell_length_c 22.856501
_cell_angle_alpha 90.000000
_cell_angle_beta 90.000000
_cell_angle_gamma 90.000000
_cell_volume 3276.370484
_symmetry_space_group_name_H-M "P M M A"
_symmetry_group_IT_number 51
_symmetry_cell_setting 'orthorhombic'
loop_
_space_group_symop_operation_xyz
x,y,z
1/2-x,-y,z
1/2+x,-y,-z
-x,y,-z
-x,-y,-z
1/2+x,y,-z
1/2-x,y,z
x,-y,z
loop_
_atom_site_type_symbol
_atom_site_label
_atom_site_fract_x
_atom_site_fract_y
_atom_site_fract_z
Si Si1 0.581852 0.160434 0.055767
Si Si2 0.419644 0.598505 0.318491
Si Si3 0.593749 0.603572 0.551810
Si Si4 0.410307 0.685853 0.100545
Si Si5 0.414219 0.099728 0.815994
Si Si6 0.412142 0.500000 0.057601
Si Si7 0.911993 0.252738 0.769006
O O1 0.750000 0.159935 0.043971
O O2 0.522669 0.259362 0.062345
O O3 0.541544 0.109555 0.115604
O O4 0.500000 0.116844 0.000000
O O5 0.250000 0.596465 0.316900
O O6 0.474597 0.500000 0.300779
O O7 0.472469 0.622593 0.384056
O O8 0.477500 0.675337 0.275872
O O9 0.500000 0.646137 0.500000
O O10 0.750000 0.646150 0.547180
O O11 0.605594 0.500000 0.542674
O O12 0.250000 0.706567 0.078126
O O13 0.450538 0.584380 0.095784
O O14 0.423891 0.704216 0.168292
O O15 0.250000 0.124903 0.809641
O O16 0.499966 0.161924 0.771168
O O17 0.444919 0.000000 0.797029
O O18 0.250000 0.500000 0.038276
O O19 0.500000 0.500000 0.000000
O O20 0.750000 0.229770 0.752120
#
# Coordination Sequence:
#
# PCOD8208230 Si02
#       7
#     8   8   8   8   8   4   8
#     4  10  19  31  47  64  82 103 130 165 209 260
#     4   8  14  24  41  65  92 122 152 180 213 251
#     4   8  13  22  36  56  84 119 155 184 209 240
#     4   9  18  30  43  60  81 106 137 172 210 248
#     4   9  19  35  50  63  84 113 138 166 215 271
#     4  10  20  30  40  56  76 102 137 172 204 244
#     4   9  17  29  47  68  87 109 142 182 214 246
#
# _framework density 15.871221
#
# number of rings (size 3 to 8) (size 9 to 14) (size 15 to 20)
#    0.000    3.077    0.000    1.846    1.077    3.077 
#    0.000    0.769    0.000    1.385    0.000    0.000 
#    0.000    0.615    0.000    1.385    0.000    2.462 
#
# Total GULP energy -644414.835271 kJ/mol
# GULP energy per Si atom -12392.592986 kJ/mol
# Density = 1.583510 g / cm^3
# Si number density = 15.871221 Si / 1000 Ang^3
#
#
#
# Elastic Constant Matrix: (Units=GPa)
#
#
# Indices 1 2 3 4 5 6 
#
# 1 51.8588 32.3378 30.0462 0.0000 0.0000 0.0000
# 2 32.3378 89.2867 37.2660 0.0000 0.0000 0.0000
# 3 30.0462 37.2660 74.1145 0.0000 0.0000 0.0000
# 4 0.0000 0.0000 0.0000 11.8394 0.0000 0.0000
# 5 0.0000 0.0000 0.0000 0.0000 21.6824 0.0000
# 6 0.0000 0.0000 0.0000 0.0000 0.0000 19.4732
#
#
#
# Elastic Compliance Matrix: (Units=1/GPa)
#
#
# Indices 1 2 3 4 5 6 
#
# 1 0.028193 -0.006886 -0.007967 0.000000 0.000000 0.000000
# 2 -0.006886 0.015856 -0.005181 0.000000 0.000000 0.000000
# 3 -0.007967 -0.005181 0.019328 0.000000 0.000000 0.000000
# 4 0.000000 0.000000 0.000000 0.084464 0.000000 0.000000
# 5 0.000000 0.000000 0.000000 0.000000 0.046120 0.000000
# 6 0.000000 0.000000 0.000000 0.000000 0.000000 0.051353
#
#
# Mechanical properties :
#
#
# Convention : Reuss Voigt Hill
#
# Bulk Modulus (GPa) = 42.90263 46.06223 44.48243
# Shear Modulus (GPa) = 17.05599 18.30631 17.68115
#
# Velocity S-wave (km/s) = 3.28174 3.39990 3.34134
# Velocity P-wave (km/s) = 6.43818 6.67068 6.55546
#
# Compressibility (1/GPa) = 0.02330859
#
# Stress axis : x y z
#
# Youngs Moduli (GPa) = 35.46996 63.06660 51.73871
#
# Poissons Ratio (x) = 0.43425 0.41222
# Poissons Ratio (y) = 0.24423 0.26808
# Poissons Ratio (z) = 0.28260 0.32677
#
# Static dielectric constant tensor:
#      x y z
#    x 2.942580 0.000000 0.000000 
#    y 0.000000 2.945890 0.000000 
#    z 0.000000 0.000000 2.949900 
# 
# 
# High freq. dielectric constant tensor:
#      x y z
#    x 1.595270 0.000000 0.000000 
#    y 0.000000 1.586220 0.000000 
#    z 0.000000 0.000000 1.594680 
# 
# From -- ./inp_files/34718.got.cif
#   From: 2010.03.12/outbox.cif.g09.slc.cpg/sg51_18_cif.got.tgz:34718.got - 2010.04.16 13:43:02.
