data_PCOD8208686
_publ_section_title
;
Structure prediction by ZEFSAII (Michael W. Deem and Ramdas Pophale) SiO2 
 PCOD8208686
Probable space group: P M M A
;
_chemical_formula_sum "Si O2"
_cell_formula_units_Z 56
_cell_length_a 9.435127
_cell_length_b 26.325263
_cell_length_c 14.537087
_cell_angle_alpha 90.000000
_cell_angle_beta 90.000000
_cell_angle_gamma 90.000000
_cell_volume 3610.753646
_symmetry_space_group_name_H-M "P M M A"
_symmetry_group_IT_number 51
_symmetry_cell_setting 'orthorhombic'
loop_
_space_group_symop_operation_xyz
x,y,z
1/2-x,-y,z
1/2+x,-y,-z
-x,y,-z
-x,-y,-z
1/2+x,y,-z
1/2-x,y,z
x,-y,z
loop_
_atom_site_type_symbol
_atom_site_label
_atom_site_fract_x
_atom_site_fract_y
_atom_site_fract_z
Si Si1 0.081322 0.147766 0.094791
Si Si2 0.587977 0.783343 0.586813
Si Si3 0.581933 0.943396 0.779278
Si Si4 0.587947 0.096591 0.586709
Si Si5 0.082069 0.756883 0.215079
Si Si6 0.083453 0.663729 0.095105
Si Si7 0.087344 0.446330 0.091987
O O1 0.250000 0.148502 0.078078
O O2 0.028898 0.095958 0.143717
O O3 0.029961 0.194623 0.157450
O O4 0.000000 0.152488 0.000000
O O5 0.500000 0.762703 0.500000
O O6 0.750000 0.767205 0.570759
O O7 0.573412 0.843385 0.597880
O O8 0.524349 0.758736 0.680306
O O9 0.750000 0.939831 0.773852
O O10 0.523133 0.928781 0.678526
O O11 0.530145 0.000000 0.806146
O O12 0.500000 0.076174 0.500000
O O13 0.750000 0.080321 0.571182
O O14 0.250000 0.758729 0.220422
O O15 0.026958 0.705370 0.167105
O O16 0.250000 0.671991 0.074938
O O17 0.053626 0.607696 0.141449
O O18 0.000000 0.670285 0.000000
O O19 0.250000 0.445318 0.062134
O O20 0.056399 0.500000 0.147705
O O21 0.000000 0.447926 0.000000
#
# Coordination Sequence:
#
# PCOD8208686 Si02
#       7
#     8   8   8   8   8   8   8
#     4  10  19  32  47  62  80 105 136 167 197 231
#     4   9  16  28  45  63  81 103 129 158 194 238
#     4   9  17  30  47  63  80 106 136 160 190 239
#     4   9  16  28  46  65  83 103 127 156 193 238
#     4   9  16  28  45  61  81 108 135 161 196 241
#     4   9  16  25  38  57  81 110 140 168 197 231
#     4   8  13  21  33  50  74 104 136 167 197 228
#
# _framework density 15.509228
#
# number of rings (size 3 to 8) (size 9 to 14) (size 15 to 20)
#    0.000    3.000    1.429    0.429    0.000    0.571 
#    0.000    2.143    0.000    0.857    0.000    0.000 
#    0.000    0.571    0.000    0.429    0.000    1.143 
#
# Total GULP energy -693785.274828 kJ/mol
# GULP energy per Si atom -12389.022765 kJ/mol
# Density = 1.547393 g / cm^3
# Si number density = 15.509228 Si / 1000 Ang^3
#
#
#
# Elastic Constant Matrix: (Units=GPa)
#
#
# Indices 1 2 3 4 5 6 
#
# 1 28.8597 22.3073 30.6731 0.0000 0.0000 0.0000
# 2 22.3073 124.8496 65.6606 0.0000 0.0000 0.0000
# 3 30.6731 65.6606 123.1081 0.0000 0.0000 0.0000
# 4 0.0000 0.0000 0.0000 13.7812 0.0000 0.0000
# 5 0.0000 0.0000 0.0000 0.0000 23.0023 0.0000
# 6 0.0000 0.0000 0.0000 0.0000 0.0000 9.2260
#
#
#
# Elastic Compliance Matrix: (Units=1/GPa)
#
#
# Indices 1 2 3 4 5 6 
#
# 1 0.048023 -0.003180 -0.010269 0.000000 0.000000 0.000000
# 2 -0.003180 0.011343 -0.005258 0.000000 0.000000 0.000000
# 3 -0.010269 -0.005258 0.013486 0.000000 0.000000 0.000000
# 4 0.000000 0.000000 0.000000 0.072563 0.000000 0.000000
# 5 0.000000 0.000000 0.000000 0.000000 0.043474 0.000000
# 6 0.000000 0.000000 0.000000 0.000000 0.000000 0.108389
#
#
# Mechanical properties :
#
#
# Convention : Reuss Voigt Hill
#
# Bulk Modulus (GPa) = 28.21797 57.12214 42.67005
# Shear Modulus (GPa) = 14.42992 19.74699 17.08845
#
# Velocity S-wave (km/s) = 3.05357 3.57212 3.32298
# Velocity P-wave (km/s) = 5.53771 7.34333 6.50348
#
# Compressibility (1/GPa) = 0.03543841
#
# Stress axis : x y z
#
# Youngs Moduli (GPa) = 20.82350 88.16183 74.15238
#
# Poissons Ratio (x) = 0.28032 0.76149
# Poissons Ratio (y) = 0.06621 0.38986
# Poissons Ratio (z) = 0.21384 0.46352
#
# Static dielectric constant tensor:
#      x y z
#    x 2.732700 0.000000 0.000000 
#    y 0.000000 3.450070 0.000000 
#    z 0.000000 0.000000 3.005380 
# 
# 
# High freq. dielectric constant tensor:
#      x y z
#    x 1.568420 0.000000 0.000000 
#    y 0.000000 1.597450 0.000000 
#    z 0.000000 0.000000 1.572940 
# 
# From -- ./inp_files/15667.got.cif
#   From: 2010.03.12/outbox.cif.g09.slc.cpg/sg51_8_cif.got.tgz:15667.got - 2010.04.16 13:43:02.
