data_PCOD8208120
_publ_section_title
;
Structure prediction by ZEFSAII (Michael W. Deem and Ramdas Pophale) SiO2 
 PCOD8208120
Probable space group: P M M A
;
_chemical_formula_sum "Si O2"
_cell_formula_units_Z 64
_cell_length_a 22.510489
_cell_length_b 9.241225
_cell_length_c 17.842160
_cell_angle_alpha 90.000000
_cell_angle_beta 90.000000
_cell_angle_gamma 90.000000
_cell_volume 3711.606301
_symmetry_space_group_name_H-M "P M M A"
_symmetry_group_IT_number 51
_symmetry_cell_setting 'orthorhombic'
loop_
_space_group_symop_operation_xyz
x,y,z
1/2-x,-y,z
1/2+x,-y,-z
-x,y,-z
-x,-y,-z
1/2+x,y,-z
1/2-x,y,z
x,-y,z
loop_
_atom_site_type_symbol
_atom_site_label
_atom_site_fract_x
_atom_site_fract_y
_atom_site_fract_z
Si Si1 0.083636 0.170133 0.327190
Si Si2 0.048182 0.172304 0.168187
Si Si3 0.569922 0.158299 0.989261
Si Si4 0.816460 0.166548 0.263791
Si Si5 0.415332 0.826867 0.850480
Si Si6 0.682344 0.833196 0.557770
Si Si7 0.149756 0.333269 0.591670
Si Si8 0.511945 0.334452 0.416993
O O1 0.087627 0.218767 0.239981
O O2 0.141928 0.220138 0.372561
O O3 0.024566 0.240174 0.359369
O O4 0.074700 0.000000 0.332698
O O5 0.078586 0.238385 0.091834
O O6 0.979931 0.226691 0.178626
O O7 0.046416 0.000000 0.158619
O O8 0.599883 0.000000 0.984324
O O9 0.500000 0.140732 0.000000
O O10 0.595912 0.235873 0.064409
O O11 0.750000 0.180032 0.229927
O O12 0.863679 0.231955 0.204353
O O13 0.817321 0.254677 0.340769
O O14 0.832016 0.000000 0.282020
O O15 0.413245 0.000000 0.854000
O O16 0.750000 0.812563 0.583639
O O17 0.668973 0.736696 0.486214
O O18 0.668773 0.000000 0.537470
O O19 0.169304 0.500000 0.589739
O O20 0.080057 0.316227 0.604367
O O21 0.500000 0.273579 0.500000
O O22 0.490408 0.500000 0.412159
#
# Coordination Sequence:
#
# PCOD8208120 Si02
#       8
#     8   8   8   8   8   8   8   8
#     4  10  19  30  48  71  92 119 155 191 227 273
#     4   8  13  22  39  66  92 112 144 188 227 264
#     4   7  10  18  35  60  89 116 139 171 217 264
#     4  10  20  32  46  66  94 125 156 193 231 267
#     4   8  13  23  40  62  90 120 146 176 220 271
#     4  10  21  35  48  63  87 120 156 192 228 264
#     4  11  22  35  51  68  88 117 153 191 231 277
#     4  10  20  34  48  66  94 119 142 184 240 285
#
# _framework density 17.243209
#
# number of rings (size 3 to 8) (size 9 to 14) (size 15 to 20)
#    0.000    2.750    1.250    3.000    0.000    4.250 
#    0.000    0.000    0.000    0.750    0.000    6.125 
#    0.000    5.000    0.000    2.250    0.000    3.000 
#
# Total GULP energy -793026.896310 kJ/mol
# GULP energy per Si atom -12391.045255 kJ/mol
# Density = 1.720396 g / cm^3
# Si number density = 17.243209 Si / 1000 Ang^3
#
#
#
# Elastic Constant Matrix: (Units=GPa)
#
#
# Indices 1 2 3 4 5 6 
#
# 1 76.2918 21.8851 55.5115 0.0000 0.0000 0.0000
# 2 21.8851 28.6872 30.2497 0.0000 0.0000 0.0000
# 3 55.5115 30.2497 162.7717 0.0000 0.0000 0.0000
# 4 0.0000 0.0000 0.0000 0.5062 0.0000 0.0000
# 5 0.0000 0.0000 0.0000 0.0000 16.2707 0.0000
# 6 0.0000 0.0000 0.0000 0.0000 0.0000 11.6237
#
#
#
# Elastic Compliance Matrix: (Units=1/GPa)
#
#
# Indices 1 2 3 4 5 6 
#
# 1 0.019396 -0.009728 -0.004807 0.000000 0.000000 0.000000
# 2 -0.009728 0.048234 -0.005646 0.000000 0.000000 0.000000
# 3 -0.004807 -0.005646 0.008832 0.000000 0.000000 0.000000
# 4 0.000000 0.000000 0.000000 1.975490 0.000000 0.000000
# 5 0.000000 0.000000 0.000000 0.000000 0.061460 0.000000
# 6 0.000000 0.000000 0.000000 0.000000 0.000000 0.086031
#
#
# Mechanical properties :
#
#
# Convention : Reuss Voigt Hill
#
# Bulk Modulus (GPa) = 27.70113 53.67148 40.68631
# Shear Modulus (GPa) = 2.22041 16.35375 9.28708
#
# Velocity S-wave (km/s) = 1.13600 3.08298 2.32328
# Velocity P-wave (km/s) = 4.22143 6.62320 5.55370
#
# Compressibility (1/GPa) = 0.03609960
#
# Stress axis : x y z
#
# Youngs Moduli (GPa) = 51.55775 20.73227 113.22239
#
# Poissons Ratio (x) = 0.20169 0.54424
# Poissons Ratio (y) = 0.50156 0.63927
# Poissons Ratio (z) = 0.24783 0.11706
#
# Static dielectric constant tensor:
#      x y z
#    x 3.281270 0.000000 0.000000 
#    y 0.000000 2.851760 0.000000 
#    z 0.000000 0.000000 3.704460 
# 
# 
# High freq. dielectric constant tensor:
#      x y z
#    x 1.645610 0.000000 0.000000 
#    y 0.000000 1.619400 0.000000 
#    z 0.000000 0.000000 1.679150 
# 
# From -- ./inp_files/30929.got.cif
#   From: 2010.03.12/outbox.cif.g09.slc.cpg/sg51_16_cif.got.tgz:30929.got - 2010.04.16 13:43:02.
