data_PCOD8208745
_publ_section_title
;
Structure prediction by ZEFSAII (Michael W. Deem and Ramdas Pophale) SiO2 
 PCOD8208745
Probable space group: P M M A
;
_chemical_formula_sum "Si O2"
_cell_formula_units_Z 64
_cell_length_a 9.369778
_cell_length_b 14.421499
_cell_length_c 29.046932
_cell_angle_alpha 90.000000
_cell_angle_beta 90.000000
_cell_angle_gamma 90.000000
_cell_volume 3925.002823
_symmetry_space_group_name_H-M "P M M A"
_symmetry_group_IT_number 51
_symmetry_cell_setting 'orthorhombic'
loop_
_space_group_symop_operation_xyz
x,y,z
1/2-x,-y,z
1/2+x,-y,-z
-x,y,-z
-x,-y,-z
1/2+x,y,-z
1/2-x,y,z
x,-y,z
loop_
_atom_site_type_symbol
_atom_site_label
_atom_site_fract_x
_atom_site_fract_y
_atom_site_fract_z
Si Si1 0.910191 0.889398 0.043473
Si Si2 0.406850 0.891402 0.127115
Si Si3 0.581361 0.107029 0.768172
Si Si4 0.593324 0.862125 0.540461
Si Si5 0.409719 0.643168 0.456721
Si Si6 0.585015 0.393211 0.646765
Si Si7 0.404191 0.900173 0.622649
Si Si8 0.084897 0.243874 0.701710
O O1 0.750000 0.849550 0.040302
O O2 0.981918 0.849661 0.090248
O O3 0.906601 0.000000 0.043829
O O4 0.000000 0.852666 0.000000
O O5 0.250000 0.846624 0.119323
O O6 0.459288 0.873056 0.178898
O O7 0.393322 0.000000 0.118358
O O8 0.750000 0.119737 0.759450
O O9 0.494804 0.186692 0.741554
O O10 0.538456 0.000000 0.755223
O O11 0.500000 0.905439 0.500000
O O12 0.750000 0.903312 0.535293
O O13 0.593076 0.752355 0.538515
O O14 0.533382 0.897997 0.587989
O O15 0.500000 0.601528 0.500000
O O16 0.250000 0.601498 0.460361
O O17 0.473721 0.618418 0.406023
O O18 0.750000 0.359360 0.648236
O O19 0.571442 0.500000 0.661154
O O20 0.495010 0.337703 0.685570
O O21 0.250000 0.887315 0.597561
O O22 0.424723 0.819548 0.657827
O O23 0.408759 0.000000 0.648134
O O24 0.250000 0.264715 0.715763
#
# Coordination Sequence:
#
# PCOD8208745 Si02
#       8
#     8   8   8   8   8   8   8   8
#     4   9  15  21  31  49  75 110 151 195 240 281
#     4   8  14  25  39  56  80 111 150 195 236 274
#     4   9  18  32  50  70  93 124 160 196 236 282
#     4  10  19  32  50  69  90 115 143 174 209 252
#     4   9  18  32  51  74  96 116 140 170 209 258
#     4  10  21  38  57  75  96 121 149 180 217 267
#     4  10  21  35  49  67  91 118 147 178 214 256
#     4  11  22  35  52  72  96 120 147 187 231 272
#
# _framework density 16.305720999999998
#
# number of rings (size 3 to 8) (size 9 to 14) (size 15 to 20)
#    0.000    2.500    1.250    2.250    0.000    5.250 
#    0.000    1.250    0.000    0.000    0.000    0.000 
#    0.000    0.000    0.000    0.000    0.000    0.625 
#
# Total GULP energy -792984.151235 kJ/mol
# GULP energy per Si atom -12390.377363 kJ/mol
# Density = 1.626861 g / cm^3
# Si number density = 16.305721 Si / 1000 Ang^3
#
#
#
# Elastic Constant Matrix: (Units=GPa)
#
#
# Indices 1 2 3 4 5 6 
#
# 1 109.4740 35.1398 66.2512 0.0000 0.0000 0.0000
# 2 35.1398 46.4098 26.1886 0.0000 0.0000 0.0000
# 3 66.2512 26.1886 93.5737 0.0000 0.0000 0.0000
# 4 0.0000 0.0000 0.0000 6.7695 0.0000 0.0000
# 5 0.0000 0.0000 0.0000 0.0000 29.1657 0.0000
# 6 0.0000 0.0000 0.0000 0.0000 0.0000 12.8061
#
#
#
# Elastic Compliance Matrix: (Units=1/GPa)
#
#
# Indices 1 2 3 4 5 6 
#
# 1 0.018012 -0.007650 -0.010612 0.000000 0.000000 0.000000
# 2 -0.007650 0.028837 -0.002654 0.000000 0.000000 0.000000
# 3 -0.010612 -0.002654 0.018943 0.000000 0.000000 0.000000
# 4 0.000000 0.000000 0.000000 0.147722 0.000000 0.000000
# 5 0.000000 0.000000 0.000000 0.000000 0.034287 0.000000
# 6 0.000000 0.000000 0.000000 0.000000 0.000000 0.078088
#
#
# Mechanical properties :
#
#
# Convention : Reuss Voigt Hill
#
# Bulk Modulus (GPa) = 41.73636 56.06851 48.90244
# Shear Modulus (GPa) = 13.30817 17.87343 15.59080
#
# Velocity S-wave (km/s) = 2.85996 3.31440 3.09553
# Velocity P-wave (km/s) = 6.04628 7.00767 6.54465
#
# Compressibility (1/GPa) = 0.02395992
#
# Stress axis : x y z
#
# Youngs Moduli (GPa) = 55.51801 34.67727 52.79006
#
# Poissons Ratio (x) = 0.26528 0.56020
# Poissons Ratio (y) = 0.42471 0.14013
# Poissons Ratio (z) = 0.58915 0.09205
#
# Static dielectric constant tensor:
#      x y z
#    x 3.429670 0.000000 0.000000 
#    y 0.000000 2.665890 0.000000 
#    z 0.000000 0.000000 3.090030 
# 
# 
# High freq. dielectric constant tensor:
#      x y z
#    x 1.638050 0.000000 0.000000 
#    y 0.000000 1.584300 0.000000 
#    z 0.000000 0.000000 1.611360 
# 
# From -- ./inp_files/37618.got.cif
#   From: 2010.03.12/outbox.cif.g09.slc.cpg/sg51_19_cif.got.tgz:37618.got - 2010.04.16 13:43:02.
