data_PCOD8208136
_publ_section_title
;
Structure prediction by ZEFSAII (Michael W. Deem and Ramdas Pophale) SiO2 
 PCOD8208136
Probable space group: P M M A
;
_chemical_formula_sum "Si O2"
_cell_formula_units_Z 52
_cell_length_a 9.579459
_cell_length_b 21.060289
_cell_length_c 13.802833
_cell_angle_alpha 90.000000
_cell_angle_beta 90.000000
_cell_angle_gamma 90.000000
_cell_volume 2784.668762
_symmetry_space_group_name_H-M "P M M A"
_symmetry_group_IT_number 51
_symmetry_cell_setting 'orthorhombic'
loop_
_space_group_symop_operation_xyz
x,y,z
1/2-x,-y,z
1/2+x,-y,-z
-x,y,-z
-x,-y,-z
1/2+x,y,-z
1/2-x,y,z
x,-y,z
loop_
_atom_site_type_symbol
_atom_site_label
_atom_site_fract_x
_atom_site_fract_y
_atom_site_fract_z
Si Si1 0.091468 0.375437 0.779253
Si Si2 0.913348 0.500000 0.100924
Si Si3 0.407905 0.928596 0.588202
Si Si4 0.408795 0.304404 0.595071
Si Si5 0.904841 0.822190 0.917359
Si Si6 0.910405 0.814679 0.271950
Si Si7 0.901740 0.321207 0.921130
O O1 0.250000 0.357881 0.809107
O O2 0.047702 0.442105 0.826867
O O3 0.075962 0.367986 0.662746
O O4 0.984481 0.322902 0.820047
O O5 0.750000 0.500000 0.073858
O O6 0.000000 0.500000 0.000000
O O7 0.500000 0.903276 0.500000
O O8 0.250000 0.927313 0.550678
O O9 0.428064 0.882548 0.678092
O O10 0.452135 0.000000 0.619692
O O11 0.500000 0.313622 0.500000
O O12 0.250000 0.296370 0.560264
O O13 0.454399 0.241955 0.655351
O O14 0.750000 0.854436 0.907991
O O15 0.878863 0.750651 0.953533
O O16 0.984262 0.820228 0.816450
O O17 0.000000 0.856806 0.000000
O O18 0.750000 0.803939 0.237113
O O19 0.750000 0.355407 0.915039
O O20 0.000000 0.357601 0.000000
#
# Coordination Sequence:
#
# PCOD8208136 Si02
#       7
#     8   4   8   8   8   8   8
#     4  10  20  36  54  74 103 137 171 211 257 308
#     4  10  22  38  57  80 106 136 171 210 257 312
#     4   9  18  32  51  77 108 142 179 219 263 312
#     4  10  21  35  53  76 104 137 174 216 261 307
#     4  10  20  32  49  75 106 137 170 211 259 314
#     4  10  19  33  53  77 107 141 176 216 263 312
#     4  10  19  30  48  74 102 133 165 203 251 305
#
# _framework density 18.673673999999998
#
# number of rings (size 3 to 8) (size 9 to 14) (size 15 to 20)
#    0.000    2.154    1.538    1.846    0.000    4.923 
#    0.000    0.385    0.000    0.462    0.000    0.000 
#    0.000    0.000    0.000    0.000    0.000    0.000 
#
# Total GULP energy -644314.873538 kJ/mol
# GULP energy per Si atom -12390.670645 kJ/mol
# Density = 1.863117 g / cm^3
# Si number density = 18.673674 Si / 1000 Ang^3
#
#
#
# Elastic Constant Matrix: (Units=GPa)
#
#
# Indices 1 2 3 4 5 6 
#
# 1 134.6245 21.9829 82.5532 0.0000 0.0000 0.0000
# 2 21.9829 56.5457 33.2776 0.0000 0.0000 0.0000
# 3 82.5532 33.2776 128.0639 0.0000 0.0000 0.0000
# 4 0.0000 0.0000 0.0000 17.9205 0.0000 0.0000
# 5 0.0000 0.0000 0.0000 0.0000 40.0105 0.0000
# 6 0.0000 0.0000 0.0000 0.0000 0.0000 16.8511
#
#
#
# Elastic Compliance Matrix: (Units=1/GPa)
#
#
# Indices 1 2 3 4 5 6 
#
# 1 0.012285 -0.000136 -0.007884 0.000000 0.000000 0.000000
# 2 -0.000136 0.020879 -0.005338 0.000000 0.000000 0.000000
# 3 -0.007884 -0.005338 0.014278 0.000000 0.000000 0.000000
# 4 0.000000 0.000000 0.000000 0.055802 0.000000 0.000000
# 5 0.000000 0.000000 0.000000 0.000000 0.024993 0.000000
# 6 0.000000 0.000000 0.000000 0.000000 0.000000 0.059343
#
#
# Mechanical properties :
#
#
# Convention : Reuss Voigt Hill
#
# Bulk Modulus (GPa) = 48.24793 66.09573 57.17183
# Shear Modulus (GPa) = 22.60364 27.05111 24.82737
#
# Velocity S-wave (km/s) = 3.48293 3.81021 3.65024
# Velocity P-wave (km/s) = 6.48598 7.40465 6.96049
#
# Compressibility (1/GPa) = 0.02072628
#
# Stress axis : x y z
#
# Youngs Moduli (GPa) = 81.40282 47.89499 70.04020
#
# Poissons Ratio (x) = 0.00653 0.55216
# Poissons Ratio (y) = 0.01109 0.37385
# Poissons Ratio (z) = 0.64174 0.25564
#
# Static dielectric constant tensor:
#      x y z
#    x 3.789600 0.000000 0.000000 
#    y 0.000000 3.369330 0.000000 
#    z 0.000000 0.000000 3.302570 
# 
# 
# High freq. dielectric constant tensor:
#      x y z
#    x 1.737060 0.000000 0.000000 
#    y 0.000000 1.693690 0.000000 
#    z 0.000000 0.000000 1.716680 
# 
# From -- ./inp_files/21537.got.cif
#   From: 2010.03.12/outbox.cif.g09.slc.cpg/sg51_11_cif.got.tgz:21537.got - 2010.04.16 13:43:02.
