data_PCOD8208324
_publ_section_title
;
Structure prediction by ZEFSAII (Michael W. Deem and Ramdas Pophale) SiO2 
 PCOD8208324
Probable space group: P M M A
;
_chemical_formula_sum "Si O2"
_cell_formula_units_Z 56
_cell_length_a 18.353039
_cell_length_b 9.290541
_cell_length_c 19.568708
_cell_angle_alpha 90.000000
_cell_angle_beta 90.000000
_cell_angle_gamma 90.000000
_cell_volume 3336.653773
_symmetry_space_group_name_H-M "P M M A"
_symmetry_group_IT_number 51
_symmetry_cell_setting 'orthorhombic'
loop_
_space_group_symop_operation_xyz
x,y,z
1/2-x,-y,z
1/2+x,-y,-z
-x,y,-z
-x,-y,-z
1/2+x,y,-z
1/2-x,y,z
x,-y,z
loop_
_atom_site_type_symbol
_atom_site_label
_atom_site_fract_x
_atom_site_fract_y
_atom_site_fract_z
Si Si1 0.933545 0.337429 0.948242
Si Si2 0.664554 0.339436 0.379332
Si Si3 0.330339 0.165540 0.488854
Si Si4 0.334716 0.831606 0.953909
Si Si5 0.438115 0.169461 0.700648
Si Si6 0.473280 0.166084 0.427813
Si Si7 0.465659 0.832214 0.854636
O O1 0.910372 0.500000 0.928461
O O2 0.964326 0.252948 0.882830
O O3 0.863432 0.256687 0.980265
O O4 0.000000 0.338965 0.000000
O O5 0.750000 0.344174 0.373816
O O6 0.631781 0.500000 0.381811
O O7 0.639516 0.255301 0.447113
O O8 0.636922 0.253365 0.312973
O O9 0.250000 0.217217 0.465781
O O10 0.385434 0.187363 0.425390
O O11 0.329199 0.000000 0.512670
O O12 0.250000 0.789889 0.937881
O O13 0.387560 0.792749 0.889731
O O14 0.340409 0.000000 0.971328
O O15 0.493558 0.230773 0.642063
O O16 0.464740 0.212119 0.775522
O O17 0.424650 0.000000 0.696279
O O18 0.500000 0.235567 0.500000
O O19 0.496244 0.000000 0.428626
O O20 0.481379 0.000000 0.865643
#
# Coordination Sequence:
#
# PCOD8208324 Si02
#       7
#     8   8   8   8   8   8   8
#     4   9  17  30  49  71  95 125 160 193 226 272
#     4  10  20  31  42  61  91 121 150 190 239 287
#     4   9  16  28  47  65  82 111 150 191 239 291
#     4   9  17  30  49  73  99 124 153 193 235 276
#     4  10  19  31  48  68  92 127 163 197 236 282
#     4   9  15  26  45  68  91 113 152 208 247 274
#     4   9  18  31  48  70  97 129 163 195 235 283
#
# _framework density 16.783282
#
# number of rings (size 3 to 8) (size 9 to 14) (size 15 to 20)
#    0.000    2.714    1.429    0.857    0.000    4.000 
#    0.000    2.857    0.000    0.857    0.000    4.000 
#    0.000    0.000    0.000    0.000    0.000    0.000 
#
# Total GULP energy -693918.392497 kJ/mol
# GULP energy per Si atom -12391.399866 kJ/mol
# Density = 1.674508 g / cm^3
# Si number density = 16.783282 Si / 1000 Ang^3
#
#
#
# Elastic Constant Matrix: (Units=GPa)
#
#
# Indices 1 2 3 4 5 6 
#
# 1 73.6451 29.2674 52.9611 0.0000 0.0000 0.0000
# 2 29.2674 61.2303 41.8696 0.0000 0.0000 0.0000
# 3 52.9611 41.8696 109.4947 0.0000 0.0000 0.0000
# 4 0.0000 0.0000 0.0000 8.5025 0.0000 0.0000
# 5 0.0000 0.0000 0.0000 0.0000 23.5159 0.0000
# 6 0.0000 0.0000 0.0000 0.0000 0.0000 18.5436
#
#
#
# Elastic Compliance Matrix: (Units=1/GPa)
#
#
# Indices 1 2 3 4 5 6 
#
# 1 0.021630 -0.004313 -0.008813 0.000000 0.000000 0.000000
# 2 -0.004313 0.022974 -0.006699 0.000000 0.000000 0.000000
# 3 -0.008813 -0.006699 0.015957 0.000000 0.000000 0.000000
# 4 0.000000 0.000000 0.000000 0.117612 0.000000 0.000000
# 5 0.000000 0.000000 0.000000 0.000000 0.042525 0.000000
# 6 0.000000 0.000000 0.000000 0.000000 0.000000 0.053927
#
#
# Mechanical properties :
#
#
# Convention : Reuss Voigt Hill
#
# Bulk Modulus (GPa) = 47.81939 54.72958 51.27449
# Shear Modulus (GPa) = 15.56437 18.13052 16.84745
#
# Velocity S-wave (km/s) = 3.04858 3.29032 3.17175
# Velocity P-wave (km/s) = 6.39890 6.86406 6.63556
#
# Compressibility (1/GPa) = 0.02091202
#
# Stress axis : x y z
#
# Youngs Moduli (GPa) = 46.23108 43.52744 62.66689
#
# Poissons Ratio (x) = 0.18771 0.55230
# Poissons Ratio (y) = 0.19937 0.41981
# Poissons Ratio (z) = 0.40745 0.29159
#
# Static dielectric constant tensor:
#      x y z
#    x 3.230400 0.000000 0.000000 
#    y 0.000000 3.227040 0.000000 
#    z 0.000000 0.000000 3.086490 
# 
# 
# High freq. dielectric constant tensor:
#      x y z
#    x 1.643780 0.000000 0.000000 
#    y 0.000000 1.633880 0.000000 
#    z 0.000000 0.000000 1.621100 
# 
# From -- ./inp_files/33719.got.cif
#   From: 2010.03.12/outbox.cif.g09.slc.cpg/sg51_17_cif.got.tgz:33719.got - 2010.04.16 13:43:02.
