data_PCOD8208367
_publ_section_title
;
Structure prediction by ZEFSAII (Michael W. Deem and Ramdas Pophale) SiO2 
 PCOD8208367
Probable space group: P M M A
;
_chemical_formula_sum "Si O2"
_cell_formula_units_Z 52
_cell_length_a 9.007126
_cell_length_b 22.534324
_cell_length_c 15.420029
_cell_angle_alpha 90.000000
_cell_angle_beta 90.000000
_cell_angle_gamma 90.000000
_cell_volume 3129.795508
_symmetry_space_group_name_H-M "P M M A"
_symmetry_group_IT_number 51
_symmetry_cell_setting 'orthorhombic'
loop_
_space_group_symop_operation_xyz
x,y,z
1/2-x,-y,z
1/2+x,-y,-z
-x,y,-z
-x,-y,-z
1/2+x,y,-z
1/2-x,y,z
x,-y,z
loop_
_atom_site_type_symbol
_atom_site_label
_atom_site_fract_x
_atom_site_fract_y
_atom_site_fract_z
Si Si1 0.924022 0.064276 0.407454
Si Si2 0.084606 0.566535 0.884095
Si Si3 0.421905 0.500000 0.410769
Si Si4 0.422405 0.685363 0.083181
Si Si5 0.075235 0.820296 0.406072
Si Si6 0.085206 0.402365 0.687443
Si Si7 0.422491 0.286062 0.275807
O O1 0.750000 0.078279 0.417142
O O2 0.000000 0.059679 0.500000
O O3 0.006345 0.119812 0.362294
O O4 0.946980 0.000000 0.359716
O O5 0.250000 0.578758 0.921743
O O6 0.030295 0.500000 0.910455
O O7 0.092672 0.569865 0.781544
O O8 0.970484 0.616040 0.917156
O O9 0.250000 0.500000 0.424883
O O10 0.500000 0.500000 0.500000
O O11 0.467011 0.559735 0.363611
O O12 0.250000 0.688135 0.066189
O O13 0.463808 0.719586 0.172924
O O14 0.500000 0.716911 0.000000
O O15 0.250000 0.827541 0.422203
O O16 0.042239 0.772065 0.331866
O O17 0.000000 0.805474 0.500000
O O18 0.250000 0.404300 0.645293
O O19 0.027408 0.335515 0.683778
O O20 0.250000 0.304365 0.283611
#
# Coordination Sequence:
#
# PCOD8208367 Si02
#       7
#     8   8   4   8   8   8   8
#     4   9  16  26  42  66  97 131 165 198 232 271
#     4   9  17  31  50  69  90 113 140 177 223 283
#     4  12  24  36  50  66  87 114 149 194 242 290
#     4  10  20  34  50  69  92 119 154 193 238 289
#     4  10  19  31  48  70  99 131 166 201 232 274
#     4  10  19  34  52  69  88 113 148 191 237 285
#     4   9  20  36  51  70  96 128 161 196 239 287
#
# _framework density 16.614504
#
# number of rings (size 3 to 8) (size 9 to 14) (size 15 to 20)
#    0.000    2.308    0.769    3.462    0.000    4.615 
#    0.000    1.538    0.000    0.000    0.000    0.000 
#    0.000    0.615    0.000    1.385    0.000    2.769 
#
# Total GULP energy -644243.775038 kJ/mol
# GULP energy per Si atom -12389.303366 kJ/mol
# Density = 1.657669 g / cm^3
# Si number density = 16.614504 Si / 1000 Ang^3
#
#
#
# Elastic Constant Matrix: (Units=GPa)
#
#
# Indices 1 2 3 4 5 6 
#
# 1 113.8285 52.5741 45.7450 0.0000 0.0000 0.0000
# 2 52.5741 105.1884 51.3629 0.0000 0.0000 0.0000
# 3 45.7450 51.3629 80.5396 0.0000 0.0000 0.0000
# 4 0.0000 0.0000 0.0000 25.3006 0.0000 0.0000
# 5 0.0000 0.0000 0.0000 0.0000 24.4908 0.0000
# 6 0.0000 0.0000 0.0000 0.0000 0.0000 20.6795
#
#
#
# Elastic Compliance Matrix: (Units=1/GPa)
#
#
# Indices 1 2 3 4 5 6 
#
# 1 0.012455 -0.004024 -0.004508 0.000000 0.000000 0.000000
# 2 -0.004024 0.015106 -0.007348 0.000000 0.000000 0.000000
# 3 -0.004508 -0.007348 0.019663 0.000000 0.000000 0.000000
# 4 0.000000 0.000000 0.000000 0.039525 0.000000 0.000000
# 5 0.000000 0.000000 0.000000 0.000000 0.040832 0.000000
# 6 0.000000 0.000000 0.000000 0.000000 0.000000 0.048357
#
#
# Mechanical properties :
#
#
# Convention : Reuss Voigt Hill
#
# Bulk Modulus (GPa) = 64.66703 66.54675 65.60689
# Shear Modulus (GPa) = 23.49037 24.08580 23.78809
#
# Velocity S-wave (km/s) = 3.76420 3.81160 3.78797
# Velocity P-wave (km/s) = 7.60912 7.71437 7.66193
#
# Compressibility (1/GPa) = 0.01546383
#
# Stress axis : x y z
#
# Youngs Moduli (GPa) = 80.28599 66.19876 50.85704
#
# Poissons Ratio (x) = 0.26639 0.22927
# Poissons Ratio (y) = 0.32307 0.37370
# Poissons Ratio (z) = 0.36195 0.48643
#
# Static dielectric constant tensor:
#      x y z
#    x 3.133140 0.000000 0.000000 
#    y 0.000000 3.394380 0.000000 
#    z 0.000000 0.000000 3.084690 
# 
# 
# High freq. dielectric constant tensor:
#      x y z
#    x 1.657530 0.000000 0.000000 
#    y 0.000000 1.620660 0.000000 
#    z 0.000000 0.000000 1.618080 
# 
# From -- ./inp_files/22081.got.cif
#   From: 2010.03.12/outbox.cif.g09.slc.cpg/sg51_12_cif.got.tgz:22081.got - 2010.04.16 13:43:02.
