data_PCOD8208393
_publ_section_title
;
Structure prediction by ZEFSAII (Michael W. Deem and Ramdas Pophale) SiO2 
 PCOD8208393
Probable space group: P M M A
;
_chemical_formula_sum "Si O2"
_cell_formula_units_Z 56
_cell_length_a 9.011922
_cell_length_b 22.485417
_cell_length_c 14.802862
_cell_angle_alpha 90.000000
_cell_angle_beta 90.000000
_cell_angle_gamma 90.000000
_cell_volume 2999.604944
_symmetry_space_group_name_H-M "P M M A"
_symmetry_group_IT_number 51
_symmetry_cell_setting 'orthorhombic'
loop_
_space_group_symop_operation_xyz
x,y,z
1/2-x,-y,z
1/2+x,-y,-z
-x,y,-z
-x,-y,-z
1/2+x,y,-z
1/2-x,y,z
x,-y,z
loop_
_atom_site_type_symbol
_atom_site_label
_atom_site_fract_x
_atom_site_fract_y
_atom_site_fract_z
Si Si1 0.578532 0.844610 0.277430
Si Si2 0.924472 0.208819 0.091122
Si Si3 0.080161 0.566900 0.220558
Si Si4 0.424518 0.655606 0.908626
Si Si5 0.576940 0.261136 0.410754
Si Si6 0.577895 0.615249 0.588907
Si Si7 0.077412 0.069024 0.408330
O O1 0.750000 0.863544 0.282813
O O2 0.527659 0.833595 0.174108
O O3 0.550551 0.783133 0.328618
O O4 0.482450 0.897034 0.320573
O O5 0.750000 0.206544 0.076819
O O6 0.974769 0.276631 0.111398
O O7 0.000000 0.184452 0.000000
O O8 0.250000 0.582178 0.195652
O O9 0.039734 0.500000 0.189984
O O10 0.056483 0.570390 0.328251
O O11 0.973685 0.613764 0.172905
O O12 0.250000 0.650665 0.920133
O O13 0.500000 0.632149 0.000000
O O14 0.500000 0.233691 0.500000
O O15 0.750000 0.271875 0.429333
O O16 0.499160 0.322696 0.385119
O O17 0.500000 0.587590 0.500000
O O18 0.750000 0.626832 0.567668
O O19 0.250000 0.081927 0.419495
O O20 0.000000 0.092131 0.500000
O O21 0.042278 0.000000 0.392675
#
# Coordination Sequence:
#
# PCOD8208393 Si02
#       7
#     8   8   8   8   8   8   8
#     4  10  20  33  52  78 107 138 172 213 258 302
#     4   9  19  35  54  79 108 135 167 209 257 308
#     4  10  22  38  53  72  99 130 168 213 256 302
#     4  10  20  36  58  81 105 133 165 204 254 311
#     4  10  19  31  48  73 104 133 164 205 253 307
#     4  10  20  34  52  72  97 131 168 208 256 307
#     4  10  21  36  54  78 109 145 183 219 254 296
#
# _framework density 18.669125999999999
#
# number of rings (size 3 to 8) (size 9 to 14) (size 15 to 20)
#    0.000    2.143    0.000    3.857    0.000    7.429 
#    0.000    0.000    0.000    0.429    0.000    0.000 
#    0.000    0.000    0.000    0.000    0.000    0.000 
#
# Total GULP energy -694493.791872 kJ/mol
# GULP energy per Si atom -12401.674855 kJ/mol
# Density = 1.862663 g / cm^3
# Si number density = 18.669126 Si / 1000 Ang^3
#
#
#
# Elastic Constant Matrix: (Units=GPa)
#
#
# Indices 1 2 3 4 5 6 
#
# 1 92.9055 40.1950 51.5531 0.0000 0.0000 0.0000
# 2 40.1950 62.5504 50.3386 0.0000 0.0000 0.0000
# 3 51.5531 50.3386 129.6324 0.0000 0.0000 0.0000
# 4 0.0000 0.0000 0.0000 25.7560 0.0000 0.0000
# 5 0.0000 0.0000 0.0000 0.0000 34.7304 0.0000
# 6 0.0000 0.0000 0.0000 0.0000 0.0000 24.0501
#
#
#
# Elastic Compliance Matrix: (Units=1/GPa)
#
#
# Indices 1 2 3 4 5 6 
#
# 1 0.015889 -0.007455 -0.003424 0.000000 0.000000 0.000000
# 2 -0.007455 0.026752 -0.007424 0.000000 0.000000 0.000000
# 3 -0.003424 -0.007424 0.011959 0.000000 0.000000 0.000000
# 4 0.000000 0.000000 0.000000 0.038826 0.000000 0.000000
# 5 0.000000 0.000000 0.000000 0.000000 0.028793 0.000000
# 6 0.000000 0.000000 0.000000 0.000000 0.000000 0.041580
#
#
# Mechanical properties :
#
#
# Convention : Reuss Voigt Hill
#
# Bulk Modulus (GPa) = 55.57218 63.25131 59.41175
# Shear Modulus (GPa) = 24.22474 26.44075 25.33275
#
# Velocity S-wave (km/s) = 3.60611 3.76744 3.68765
# Velocity P-wave (km/s) = 6.86805 7.27176 7.07279
#
# Compressibility (1/GPa) = 0.01799462
#
# Stress axis : x y z
#
# Youngs Moduli (GPa) = 62.93738 37.38079 83.62249
#
# Poissons Ratio (x) = 0.27866 0.28632
# Poissons Ratio (y) = 0.46918 0.62078
# Poissons Ratio (z) = 0.21550 0.27750
#
# Static dielectric constant tensor:
#      x y z
#    x 3.456960 0.000000 0.000000 
#    y 0.000000 3.225890 0.000000 
#    z 0.000000 0.000000 3.516330 
# 
# 
# High freq. dielectric constant tensor:
#      x y z
#    x 1.730600 0.000000 0.000000 
#    y 0.000000 1.705390 0.000000 
#    z 0.000000 0.000000 1.727320 
# 
# From -- ./inp_files/21702.got.cif
#   From: 2010.03.12/outbox.cif.g09.slc.cpg/sg51_11_cif.got.tgz:21702.got - 2010.04.16 13:43:02.
