data_PCOD8208391
_publ_section_title
;
Structure prediction by ZEFSAII (Michael W. Deem and Ramdas Pophale) SiO2 
 PCOD8208391
Probable space group: P M M A
;
_chemical_formula_sum "Si O2"
_cell_formula_units_Z 64
_cell_length_a 22.353406
_cell_length_b 9.291060
_cell_length_c 17.323441
_cell_angle_alpha 90.000000
_cell_angle_beta 90.000000
_cell_angle_gamma 90.000000
_cell_volume 3597.850656
_symmetry_space_group_name_H-M "P M M A"
_symmetry_group_IT_number 51
_symmetry_cell_setting 'orthorhombic'
loop_
_space_group_symop_operation_xyz
x,y,z
1/2-x,-y,z
1/2+x,-y,-z
-x,y,-z
-x,-y,-z
1/2+x,y,-z
1/2-x,y,z
x,-y,z
loop_
_atom_site_type_symbol
_atom_site_label
_atom_site_fract_x
_atom_site_fract_y
_atom_site_fract_z
Si Si1 0.079514 0.833309 0.825880
Si Si2 0.182854 0.333434 0.258398
Si Si3 0.316613 0.167679 0.936356
Si Si4 0.847161 0.662992 0.911777
Si Si5 0.411628 0.169755 0.361442
Si Si6 0.929541 0.337606 0.488960
Si Si7 0.014379 0.664466 0.084194
Si Si8 0.549517 0.165173 0.344163
O O1 0.137303 0.772523 0.871886
O O2 0.085930 0.807298 0.734604
O O3 0.020375 0.752266 0.851713
O O4 0.069981 0.000000 0.844008
O O5 0.250000 0.307876 0.291143
O O6 0.163319 0.500000 0.269181
O O7 0.184963 0.293927 0.167658
O O8 0.135399 0.231946 0.300435
O O9 0.250000 0.200218 0.905415
O O10 0.327168 0.000000 0.948981
O O11 0.325048 0.238396 0.019278
O O12 0.831746 0.500000 0.935518
O O13 0.916898 0.682770 0.896503
O O14 0.398549 0.246082 0.443357
O O15 0.479270 0.204721 0.333805
O O16 0.401046 0.000000 0.370182
O O17 0.903686 0.500000 0.489204
O O18 0.916676 0.262828 0.406953
O O19 0.000000 0.338380 0.500000
O O20 0.992580 0.500000 0.087685
O O21 0.000000 0.729357 0.000000
O O22 0.554226 0.000000 0.371248
#
# Coordination Sequence:
#
# PCOD8208391 Si02
#       8
#     8   8   8   8   8   8   8   8
#     4  10  20  33  50  72 100 134 168 206 255 306
#     4  10  21  35  50  70  98 134 174 212 250 298
#     4  10  21  35  50  69  94 128 171 214 251 290
#     4  10  20  35  53  72  98 132 169 210 257 305
#     4  10  19  32  52  76 103 132 163 203 251 303
#     4   9  17  30  51  78 105 132 161 193 238 298
#     4  10  19  31  48  73 102 128 162 209 257 306
#     4   9  18  32  50  76 105 131 164 206 255 306
#
# _framework density 17.788398000000001
#
# number of rings (size 3 to 8) (size 9 to 14) (size 15 to 20)
#    0.000    2.250    1.250    1.875    0.000    4.750 
#    0.000    0.000    0.000    0.750    0.000    1.750 
#    0.000    0.000    0.000    0.000    0.000    0.000 
#
# Total GULP energy -793601.103668 kJ/mol
# GULP energy per Si atom -12400.017245 kJ/mol
# Density = 1.774791 g / cm^3
# Si number density = 17.788398 Si / 1000 Ang^3
#
#
#
# Elastic Constant Matrix: (Units=GPa)
#
#
# Indices 1 2 3 4 5 6 
#
# 1 65.4299 34.0573 43.2256 0.0000 0.0000 0.0000
# 2 34.0573 74.8306 52.5144 0.0000 0.0000 0.0000
# 3 43.2256 52.5144 98.3188 0.0000 0.0000 0.0000
# 4 0.0000 0.0000 0.0000 30.4898 0.0000 0.0000
# 5 0.0000 0.0000 0.0000 0.0000 13.6222 0.0000
# 6 0.0000 0.0000 0.0000 0.0000 0.0000 16.1073
#
#
#
# Elastic Compliance Matrix: (Units=1/GPa)
#
#
# Indices 1 2 3 4 5 6 
#
# 1 0.022803 -0.005347 -0.007169 0.000000 0.000000 0.000000
# 2 -0.005347 0.022630 -0.009736 0.000000 0.000000 0.000000
# 3 -0.007169 -0.009736 0.018523 0.000000 0.000000 0.000000
# 4 0.000000 0.000000 0.000000 0.032798 0.000000 0.000000
# 5 0.000000 0.000000 0.000000 0.000000 0.073410 0.000000
# 6 0.000000 0.000000 0.000000 0.000000 0.000000 0.062084
#
#
# Mechanical properties :
#
#
# Convention : Reuss Voigt Hill
#
# Bulk Modulus (GPa) = 51.41140 55.35265 53.38203
# Shear Modulus (GPa) = 17.65309 19.29598 18.47453
#
# Velocity S-wave (km/s) = 3.15365 3.29713 3.22618
# Velocity P-wave (km/s) = 6.49808 6.75867 6.62965
#
# Compressibility (1/GPa) = 0.01945094
#
# Stress axis : x y z
#
# Youngs Moduli (GPa) = 43.85371 44.18956 53.98586
#
# Poissons Ratio (x) = 0.23628 0.38704
# Poissons Ratio (y) = 0.23448 0.52562
# Poissons Ratio (z) = 0.31440 0.43024
#
# Static dielectric constant tensor:
#      x y z
#    x 3.146580 0.000000 0.000000 
#    y 0.000000 3.335940 0.000000 
#    z 0.000000 0.000000 3.322530 
# 
# 
# High freq. dielectric constant tensor:
#      x y z
#    x 1.667470 0.000000 0.000000 
#    y 0.000000 1.687930 0.000000 
#    z 0.000000 0.000000 1.688480 
# 
# From -- ./inp_files/30919.got.cif
#   From: 2010.03.12/outbox.cif.g09.slc.cpg/sg51_16_cif.got.tgz:30919.got - 2010.04.16 13:43:02.
