data_PCOD8208132
_publ_section_title
;
Structure prediction by ZEFSAII (Michael W. Deem and Ramdas Pophale) SiO2 
 PCOD8208132
Probable space group: P M M A
;
_chemical_formula_sum "Si O2"
_cell_formula_units_Z 64
_cell_length_a 16.250841
_cell_length_b 9.328714
_cell_length_c 22.772182
_cell_angle_alpha 90.000000
_cell_angle_beta 90.000000
_cell_angle_gamma 90.000000
_cell_volume 3452.250220
_symmetry_space_group_name_H-M "P M M A"
_symmetry_group_IT_number 51
_symmetry_cell_setting 'orthorhombic'
loop_
_space_group_symop_operation_xyz
x,y,z
1/2-x,-y,z
1/2+x,-y,-z
-x,y,-z
-x,-y,-z
1/2+x,y,-z
1/2-x,y,z
x,-y,z
loop_
_atom_site_type_symbol
_atom_site_label
_atom_site_fract_x
_atom_site_fract_y
_atom_site_fract_z
Si Si1 0.039746 0.667280 0.315389
Si Si2 0.655046 0.169415 0.128631
Si Si3 0.030297 0.668173 0.561645
Si Si4 0.656393 0.845382 0.747550
Si Si5 0.498278 0.665496 0.930620
Si Si6 0.600182 0.834392 0.257222
Si Si7 0.841418 0.155274 0.381835
Si Si8 0.344443 0.168412 0.117887
O O1 0.028907 0.500000 0.307943
O O2 0.025839 0.714393 0.382960
O O3 0.129078 0.721999 0.297621
O O4 0.981882 0.742973 0.267178
O O5 0.750000 0.210052 0.110271
O O6 0.584788 0.254833 0.092515
O O7 0.645386 0.210761 0.197312
O O8 0.641020 0.000000 0.118338
O O9 0.037273 0.500000 0.555441
O O10 0.000000 0.734998 0.500000
O O11 0.119865 0.728404 0.575235
O O12 0.750000 0.868647 0.733452
O O13 0.643454 0.795800 0.814065
O O14 0.611844 0.000000 0.737023
O O15 0.496735 0.500000 0.908532
O O16 0.584294 0.740400 0.913077
O O17 0.500000 0.671718 0.000000
O O18 0.658140 0.800213 0.313141
O O19 0.575625 0.000000 0.253564
O O20 0.750000 0.143556 0.404401
O O21 0.885724 0.000000 0.388749
O O22 0.250000 0.210490 0.098458
O O23 0.357999 0.000000 0.104925
#
# Coordination Sequence:
#
# PCOD8208132 Si02
#       8
#     8   8   8   8   8   8   8   8
#     4  10  19  30  48  74 100 129 169 212 251 297
#     4  10  21  37  58  83 109 140 178 216 256 308
#     4   9  19  35  50  65  92 132 173 208 243 286
#     4   9  18  33  52  75 103 131 159 198 254 313
#     4  11  25  41  55  76 109 146 180 216 262 313
#     4   9  17  31  52  77 106 135 160 195 250 310
#     4   9  17  30  50  76 102 126 156 198 246 294
#     4   9  19  37  61  85 106 133 174 221 264 310
#
# _framework density 18.538633000000001
#
# number of rings (size 3 to 8) (size 9 to 14) (size 15 to 20)
#    0.000    2.500    0.000    2.625    0.000    8.750 
#    0.000    4.375    0.000    6.000    0.000    0.000 
#    0.000    0.000    0.000    0.000    0.000    0.000 
#
# Total GULP energy -792899.258888 kJ/mol
# GULP energy per Si atom -12389.050920 kJ/mol
# Density = 1.849644 g / cm^3
# Si number density = 18.538633 Si / 1000 Ang^3
#
#
#
# Elastic Constant Matrix: (Units=GPa)
#
#
# Indices 1 2 3 4 5 6 
#
# 1 107.1010 54.3137 62.8887 0.0000 0.0000 0.0000
# 2 54.3137 58.8963 45.5391 0.0000 0.0000 0.0000
# 3 62.8887 45.5391 82.8426 0.0000 0.0000 0.0000
# 4 0.0000 0.0000 0.0000 30.9476 0.0000 0.0000
# 5 0.0000 0.0000 0.0000 0.0000 13.9951 0.0000
# 6 0.0000 0.0000 0.0000 0.0000 0.0000 29.6672
#
#
#
# Elastic Compliance Matrix: (Units=1/GPa)
#
#
# Indices 1 2 3 4 5 6 
#
# 1 0.020899 -0.012185 -0.009167 0.000000 0.000000 0.000000
# 2 -0.012185 0.036635 -0.010888 0.000000 0.000000 0.000000
# 3 -0.009167 -0.010888 0.025016 0.000000 0.000000 0.000000
# 4 0.000000 0.000000 0.000000 0.032313 0.000000 0.000000
# 5 0.000000 0.000000 0.000000 0.000000 0.071454 0.000000
# 6 0.000000 0.000000 0.000000 0.000000 0.000000 0.033707
#
#
# Mechanical properties :
#
#
# Convention : Reuss Voigt Hill
#
# Bulk Modulus (GPa) = 55.34446 63.81366 59.57906
# Shear Modulus (GPa) = 17.21009 20.66186 18.93598
#
# Velocity S-wave (km/s) = 3.05017 3.34208 3.19945
# Velocity P-wave (km/s) = 6.50562 7.02776 6.77172
#
# Compressibility (1/GPa) = 0.01806866
#
# Stress axis : x y z
#
# Youngs Moduli (GPa) = 47.84887 27.29634 39.97500
#
# Poissons Ratio (x) = 0.33260 0.36646
# Poissons Ratio (y) = 0.58304 0.43527
# Poissons Ratio (z) = 0.43864 0.29722
#
# Static dielectric constant tensor:
#      x y z
#    x 3.526190 0.000000 0.000000 
#    y 0.000000 4.196130 0.000000 
#    z 0.000000 0.000000 3.473980 
# 
# 
# High freq. dielectric constant tensor:
#      x y z
#    x 1.719250 0.000000 0.000000 
#    y 0.000000 1.714740 0.000000 
#    z 0.000000 0.000000 1.710630 
# 
# From -- ./inp_files/35777.got.cif
#   From: 2010.03.12/outbox.cif.g09.slc.cpg/sg51_18_cif.got.tgz:35777.got - 2010.04.16 13:43:02.
