data_PCOD8208600
_publ_section_title
;
Structure prediction by ZEFSAII (Michael W. Deem and Ramdas Pophale) SiO2 
 PCOD8208600
Probable space group: P M M A
;
_chemical_formula_sum "Si O2"
_cell_formula_units_Z 48
_cell_length_a 14.839351
_cell_length_b 8.507955
_cell_length_c 19.653287
_cell_angle_alpha 90.000000
_cell_angle_beta 90.000000
_cell_angle_gamma 90.000000
_cell_volume 2481.277217
_symmetry_space_group_name_H-M "P M M A"
_symmetry_group_IT_number 51
_symmetry_cell_setting 'orthorhombic'
loop_
_space_group_symop_operation_xyz
x,y,z
1/2-x,-y,z
1/2+x,-y,-z
-x,y,-z
-x,-y,-z
1/2+x,y,-z
1/2-x,y,z
x,-y,z
loop_
_atom_site_type_symbol
_atom_site_label
_atom_site_fract_x
_atom_site_fract_y
_atom_site_fract_z
Si Si1 0.482705 0.313116 0.825132
Si Si2 0.150730 0.686494 0.091645
Si Si3 0.750000 0.185644 0.527098
Si Si4 0.059622 0.184391 0.679568
Si Si5 0.351204 0.686057 0.941379
Si Si6 0.560150 0.684601 0.562674
Si Si7 0.250000 0.813703 0.626056
O O1 0.474088 0.500000 0.813491
O O2 0.582005 0.261434 0.849849
O O3 0.462188 0.220518 0.757042
O O4 0.415560 0.247194 0.882904
O O5 0.250000 0.751162 0.110814
O O6 0.152978 0.500000 0.086749
O O7 0.121528 0.749439 0.016614
O O8 0.840057 0.242844 0.564698
O O9 0.750000 0.253696 0.450451
O O10 0.750000 0.000000 0.527023
O O11 0.160445 0.248005 0.663982
O O12 0.988059 0.273896 0.632990
O O13 0.052118 0.000000 0.664707
O O14 0.250000 0.739822 0.924027
O O15 0.359930 0.500000 0.941146
O O16 0.500000 0.752198 0.500000
O O17 0.570848 0.500000 0.555313
O O18 0.250000 0.000000 0.625090
#
# Coordination Sequence:
#
# PCOD8208600 Si02
#       7
#     8   8   4   8   8   8   4
#     4  10  19  31  50  78 108 140 179 228 283 331
#     4   8  14  27  48  73 102 138 180 226 277 332
#     4  11  21  39  67  91 113 150 193 232 279 339
#     4  11  23  40  58  80 113 153 191 227 277 347
#     4   8  14  25  45  75 106 135 174 225 279 335
#     4  11  23  40  62  91 120 146 186 240 288 329
#     4   9  20  37  59  83 109 146 187 224 271 339
#
# _framework density 19.344874999999998
#
# number of rings (size 3 to 8) (size 9 to 14) (size 15 to 20)
#    0.000    2.333    1.667    2.750    1.167    2.667 
#    1.500    1.250    0.000    2.000    0.000    2.333 
#    0.000    0.000    0.000    0.000    0.000    0.000 
#
# Total GULP energy -595083.284004 kJ/mol
# GULP energy per Si atom -12397.568417 kJ/mol
# Density = 1.930085 g / cm^3
# Si number density = 19.344875 Si / 1000 Ang^3
#
#
#
# Elastic Constant Matrix: (Units=GPa)
#
#
# Indices 1 2 3 4 5 6 
#
# 1 159.6041 20.0465 74.5546 0.0000 0.0000 0.0000
# 2 20.0465 32.6346 9.9954 0.0000 0.0000 0.0000
# 3 74.5546 9.9954 116.0278 0.0000 0.0000 0.0000
# 4 0.0000 0.0000 0.0000 21.5548 0.0000 0.0000
# 5 0.0000 0.0000 0.0000 0.0000 28.6200 0.0000
# 6 0.0000 0.0000 0.0000 0.0000 0.0000 18.4574
#
#
#
# Elastic Compliance Matrix: (Units=1/GPa)
#
#
# Indices 1 2 3 4 5 6 
#
# 1 0.009447 -0.004051 -0.005721 0.000000 0.000000 0.000000
# 2 -0.004051 0.033210 -0.000258 0.000000 0.000000 0.000000
# 3 -0.005721 -0.000258 0.012317 0.000000 0.000000 0.000000
# 4 0.000000 0.000000 0.000000 0.046393 0.000000 0.000000
# 5 0.000000 0.000000 0.000000 0.000000 0.034941 0.000000
# 6 0.000000 0.000000 0.000000 0.000000 0.000000 0.054179
#
#
# Mechanical properties :
#
#
# Convention : Reuss Voigt Hill
#
# Bulk Modulus (GPa) = 28.64218 57.49549 43.06884
# Shear Modulus (GPa) = 22.50393 27.30445 24.90419
#
# Velocity S-wave (km/s) = 3.41442 3.76101 3.59190
# Velocity P-wave (km/s) = 5.51204 6.97468 6.28604
#
# Compressibility (1/GPa) = 0.03491354
#
# Stress axis : x y z
#
# Youngs Moduli (GPa) = 105.85683 30.11184 81.18847
#
# Poissons Ratio (x) = 0.12197 0.46449
# Poissons Ratio (y) = 0.42878 0.02096
# Poissons Ratio (z) = 0.60562 0.00777
#
# Static dielectric constant tensor:
#      x y z
#    x 3.939060 0.000000 0.000000 
#    y 0.000000 3.068330 0.000000 
#    z 0.000000 0.000000 3.567610 
# 
# 
# High freq. dielectric constant tensor:
#      x y z
#    x 1.768830 0.000000 0.000000 
#    y 0.000000 1.710370 0.000000 
#    z 0.000000 0.000000 1.750650 
# 
# From -- ./inp_files/29542.got.cif
#   From: 2010.03.12/outbox.cif.g09.slc.cpg/sg51_15_cif.got.tgz:29542.got - 2010.04.16 13:43:02.
