data_PCOD8208312
_publ_section_title
;
Structure prediction by ZEFSAII (Michael W. Deem and Ramdas Pophale) SiO2 
 PCOD8208312
Probable space group: P M M A
;
_chemical_formula_sum "Si O2"
_cell_formula_units_Z 64
_cell_length_a 14.184904
_cell_length_b 9.094225
_cell_length_c 31.313003
_cell_angle_alpha 90.000000
_cell_angle_beta 90.000000
_cell_angle_gamma 90.000000
_cell_volume 4039.399575
_symmetry_space_group_name_H-M "P M M A"
_symmetry_group_IT_number 51
_symmetry_cell_setting 'orthorhombic'
loop_
_space_group_symop_operation_xyz
x,y,z
1/2-x,-y,z
1/2+x,-y,-z
-x,y,-z
-x,-y,-z
1/2+x,y,-z
1/2-x,y,z
x,-y,z
loop_
_atom_site_type_symbol
_atom_site_label
_atom_site_fract_x
_atom_site_fract_y
_atom_site_fract_z
Si Si1 0.547704 0.673815 0.901299
Si Si2 0.145061 0.325079 0.518792
Si Si3 0.895605 0.163665 0.982567
Si Si4 0.139603 0.829137 0.177399
Si Si5 0.037286 0.674938 0.435531
Si Si6 0.851202 0.666835 0.062594
Si Si7 0.355675 0.675255 0.354028
Si Si8 0.361837 0.336640 0.260623
O O1 0.562987 0.500000 0.900837
O O2 0.610628 0.742825 0.939093
O O3 0.579979 0.739587 0.856763
O O4 0.437579 0.719760 0.907691
O O5 0.250000 0.260038 0.527606
O O6 0.149661 0.500000 0.518790
O O7 0.107686 0.270007 0.472777
O O8 0.070113 0.271267 0.554918
O O9 0.856070 0.000000 0.973375
O O10 0.836146 0.240537 0.019502
O O11 0.000000 0.155976 0.000000
O O12 0.250000 0.796447 0.170669
O O13 0.104980 0.775228 0.223926
O O14 0.116434 0.000000 0.172890
O O15 0.038802 0.500000 0.434572
O O16 0.074186 0.738982 0.390348
O O17 0.750000 0.678551 0.087248
O O18 0.872838 0.500000 0.048517
O O19 0.250000 0.737504 0.361860
O O20 0.351847 0.500000 0.355916
O O21 0.395171 0.722362 0.307223
O O22 0.250000 0.346804 0.262109
O O23 0.402957 0.500000 0.251192
#
# Coordination Sequence:
#
# PCOD8208312 Si02
#       8
#     8   8   8   8   8   8   8   8
#     4  10  19  31  48  67  87 113 142 170 201 240
#     4   8  12  16  21  32  56  90 123 153 185 221
#     4   9  17  29  44  62  85 111 139 171 202 232
#     4  10  20  32  45  62  85 110 134 164 204 248
#     4   8  12  16  23  37  57  85 122 156 184 219
#     4   9  18  32  48  66  88 113 141 172 205 239
#     4   8  12  18  30  47  65  85 113 152 191 226
#     4   8  14  25  40  57  76  98 126 160 198 241
#
# _framework density 15.843939000000001
#
# number of rings (size 3 to 8) (size 9 to 14) (size 15 to 20)
#    0.000    3.250    0.000    3.000    0.000    5.000 
#    0.000    0.000    0.000    0.000    0.000    0.875 
#    0.000    5.000    0.000    2.250    0.000    7.750 
#
# Total GULP energy -792956.160597 kJ/mol
# GULP energy per Si atom -12389.940009 kJ/mol
# Density = 1.580788 g / cm^3
# Si number density = 15.843939 Si / 1000 Ang^3
#
#
#
# Elastic Constant Matrix: (Units=GPa)
#
#
# Indices 1 2 3 4 5 6 
#
# 1 90.3033 23.5195 53.3696 0.0000 0.0000 0.0000
# 2 23.5195 54.3431 39.1293 0.0000 0.0000 0.0000
# 3 53.3696 39.1293 131.9508 0.0000 0.0000 0.0000
# 4 0.0000 0.0000 0.0000 4.5619 0.0000 0.0000
# 5 0.0000 0.0000 0.0000 0.0000 20.9837 0.0000
# 6 0.0000 0.0000 0.0000 0.0000 0.0000 7.7323
#
#
#
# Elastic Compliance Matrix: (Units=1/GPa)
#
#
# Indices 1 2 3 4 5 6 
#
# 1 0.014852 -0.002673 -0.005214 0.000000 0.000000 0.000000
# 2 -0.002673 0.023879 -0.006000 0.000000 0.000000 0.000000
# 3 -0.005214 -0.006000 0.011467 0.000000 0.000000 0.000000
# 4 0.000000 0.000000 0.000000 0.219209 0.000000 0.000000
# 5 0.000000 0.000000 0.000000 0.000000 0.047656 0.000000
# 6 0.000000 0.000000 0.000000 0.000000 0.000000 0.129328
#
#
# Mechanical properties :
#
#
# Convention : Reuss Voigt Hill
#
# Bulk Modulus (GPa) = 44.59819 56.51491 50.55655
# Shear Modulus (GPa) = 10.38122 17.36084 13.87103
#
# Velocity S-wave (km/s) = 2.56250 3.31379 2.96206
# Velocity P-wave (km/s) = 6.07986 7.09850 6.60884
#
# Compressibility (1/GPa) = 0.02242244
#
# Stress axis : x y z
#
# Youngs Moduli (GPa) = 67.33242 41.87829 87.20829
#
# Poissons Ratio (x) = 0.11195 0.45473
# Poissons Ratio (y) = 0.18000 0.52324
# Poissons Ratio (z) = 0.35109 0.25126
#
# Static dielectric constant tensor:
#      x y z
#    x 3.058480 0.000000 0.000000 
#    y 0.000000 2.801660 0.000000 
#    z 0.000000 0.000000 3.205600 
# 
# 
# High freq. dielectric constant tensor:
#      x y z
#    x 1.588830 0.000000 0.000000 
#    y 0.000000 1.577330 0.000000 
#    z 0.000000 0.000000 1.598070 
# 
# From -- ./inp_files/37818.got.cif
#   From: 2010.03.12/outbox.cif.g09.slc.cpg/sg51_19_cif.got.tgz:37818.got - 2010.04.16 13:43:02.
