data_PCOD8208677
_publ_section_title
;
Structure prediction by ZEFSAII (Michael W. Deem and Ramdas Pophale) SiO2 
 PCOD8208677
Probable space group: P M M A
;
_chemical_formula_sum "Si O2"
_cell_formula_units_Z 64
_cell_length_a 9.204927
_cell_length_b 14.187953
_cell_length_c 25.954696
_cell_angle_alpha 90.000000
_cell_angle_beta 90.000000
_cell_angle_gamma 90.000000
_cell_volume 3389.659202
_symmetry_space_group_name_H-M "P M M A"
_symmetry_group_IT_number 51
_symmetry_cell_setting 'orthorhombic'
loop_
_space_group_symop_operation_xyz
x,y,z
1/2-x,-y,z
1/2+x,-y,-z
-x,y,-z
-x,-y,-z
1/2+x,y,-z
1/2-x,y,z
x,-y,z
loop_
_atom_site_type_symbol
_atom_site_label
_atom_site_fract_x
_atom_site_fract_y
_atom_site_fract_z
Si Si1 0.420527 0.108924 0.691776
Si Si2 0.921486 0.604445 0.744476
Si Si3 0.417018 0.711089 0.948774
Si Si4 0.912200 0.888384 0.793332
Si Si5 0.919737 0.392230 0.550807
Si Si6 0.077999 0.727532 0.350716
Si Si7 0.083992 0.893797 0.892086
Si Si8 0.414225 0.387884 0.140977
O O1 0.250000 0.127261 0.694410
O O2 0.491305 0.143368 0.745303
O O3 0.495154 0.172016 0.647399
O O4 0.455605 0.000000 0.679886
O O5 0.750000 0.594762 0.738737
O O6 0.990468 0.500000 0.737933
O O7 0.980781 0.671520 0.699415
O O8 0.958650 0.646551 0.801232
O O9 0.250000 0.683588 0.956135
O O10 0.436610 0.823607 0.940182
O O11 0.475605 0.655100 0.899802
O O12 0.500000 0.679864 0.000000
O O13 0.750000 0.844899 0.788069
O O14 0.984418 0.853129 0.846202
O O15 0.904727 0.000000 0.795314
O O16 0.750000 0.382774 0.540738
O O17 0.963569 0.500000 0.562806
O O18 0.969367 0.329673 0.598906
O O19 0.000000 0.354567 0.500000
O O20 0.250000 0.744659 0.348801
O O21 0.250000 0.893024 0.872402
O O22 0.038767 0.000000 0.908837
O O23 0.250000 0.355309 0.127926
O O24 0.424666 0.500000 0.139258
#
# Coordination Sequence:
#
# PCOD8208677 Si02
#       8
#     8   8   8   8   8   8   8   8
#     4  10  21  35  49  70 107 150 185 221 268 319
#     4   8  15  30  53  81 110 137 166 205 260 321
#     4  11  24  39  56  78 102 133 173 219 265 315
#     4   9  17  30  50  75 100 131 174 217 255 304
#     4   9  18  33  54  81 115 152 188 227 272 322
#     4  10  19  31  53  84 111 142 184 229 269 312
#     4   9  19  36  55  76 105 138 169 207 261 319
#     4   9  19  37  59  80 104 135 169 210 263 321
#
# _framework density 18.880953999999999
#
# number of rings (size 3 to 8) (size 9 to 14) (size 15 to 20)
#    0.000    2.625    0.000    2.250    1.750    6.000 
#    0.000    0.000    0.000    2.250    0.000    0.000 
#    0.000    0.000    0.000    0.000    0.000    0.000 
#
# Total GULP energy -793541.481000 kJ/mol
# GULP energy per Si atom -12399.085641 kJ/mol
# Density = 1.883798 g / cm^3
# Si number density = 18.880954 Si / 1000 Ang^3
#
#
#
# Elastic Constant Matrix: (Units=GPa)
#
#
# Indices 1 2 3 4 5 6 
#
# 1 85.2942 37.8605 58.4971 0.0000 0.0000 0.0000
# 2 37.8605 57.3043 54.3014 0.0000 0.0000 0.0000
# 3 58.4971 54.3014 134.3273 0.0000 0.0000 0.0000
# 4 0.0000 0.0000 0.0000 26.8961 0.0000 0.0000
# 5 0.0000 0.0000 0.0000 0.0000 29.5872 0.0000
# 6 0.0000 0.0000 0.0000 0.0000 0.0000 24.8060
#
#
#
# Elastic Compliance Matrix: (Units=1/GPa)
#
#
# Indices 1 2 3 4 5 6 
#
# 1 0.018482 -0.007431 -0.005045 0.000000 0.000000 0.000000
# 2 -0.007431 0.031273 -0.009406 0.000000 0.000000 0.000000
# 3 -0.005045 -0.009406 0.013444 0.000000 0.000000 0.000000
# 4 0.000000 0.000000 0.000000 0.037180 0.000000 0.000000
# 5 0.000000 0.000000 0.000000 0.000000 0.033798 0.000000
# 6 0.000000 0.000000 0.000000 0.000000 0.000000 0.040313
#
#
# Mechanical properties :
#
#
# Convention : Reuss Voigt Hill
#
# Bulk Modulus (GPa) = 51.45073 64.24932 57.85003
# Shear Modulus (GPa) = 22.24858 24.67565 23.46212
#
# Velocity S-wave (km/s) = 3.43645 3.61904 3.52893
# Velocity P-wave (km/s) = 6.56162 7.18093 6.87825
#
# Compressibility (1/GPa) = 0.01943607
#
# Stress axis : x y z
#
# Youngs Moduli (GPa) = 54.10552 31.97607 74.38299
#
# Poissons Ratio (x) = 0.23760 0.37526
# Poissons Ratio (y) = 0.40204 0.69967
# Poissons Ratio (z) = 0.27296 0.30078
#
# Static dielectric constant tensor:
#      x y z
#    x 3.374410 0.000000 0.000000 
#    y 0.000000 3.551890 0.000000 
#    z 0.000000 0.000000 3.376790 
# 
# 
# High freq. dielectric constant tensor:
#      x y z
#    x 1.719290 0.000000 0.000000 
#    y 0.000000 1.736890 0.000000 
#    z 0.000000 0.000000 1.716400 
# 
# From -- ./inp_files/34836.got.cif
#   From: 2010.03.12/outbox.cif.g09.slc.cpg/sg51_18_cif.got.tgz:34836.got - 2010.04.16 13:43:02.
