data_PCOD8208811
_publ_section_title
;
Structure prediction by ZEFSAII (Michael W. Deem and Ramdas Pophale) SiO2 
 PCOD8208811
Probable space group: P M M A
;
_chemical_formula_sum "Si O2"
_cell_formula_units_Z 56
_cell_length_a 19.016317
_cell_length_b 14.023374
_cell_length_c 12.385316
_cell_angle_alpha 90.000000
_cell_angle_beta 90.000000
_cell_angle_gamma 90.000000
_cell_volume 3302.828450
_symmetry_space_group_name_H-M "P M M A"
_symmetry_group_IT_number 51
_symmetry_cell_setting 'orthorhombic'
loop_
_space_group_symop_operation_xyz
x,y,z
1/2-x,-y,z
1/2+x,-y,-z
-x,y,-z
-x,-y,-z
1/2+x,y,-z
1/2-x,y,z
x,-y,z
loop_
_atom_site_type_symbol
_atom_site_label
_atom_site_fract_x
_atom_site_fract_y
_atom_site_fract_z
Si Si1 0.423913 0.272010 0.047702
Si Si2 0.448738 0.389397 0.262430
Si Si3 0.919343 0.274848 0.530184
Si Si4 0.670697 0.609616 0.109777
Si Si5 0.830213 0.108943 0.865968
Si Si6 0.107446 0.607706 0.671013
Si Si7 0.169878 0.108533 0.385635
O O1 0.424965 0.336320 0.154406
O O2 0.384815 0.172630 0.068284
O O3 0.500000 0.248114 0.000000
O O4 0.382108 0.327299 0.956844
O O5 0.425941 0.500000 0.255603
O O6 0.410363 0.341374 0.364765
O O7 0.531643 0.378031 0.274888
O O8 0.879797 0.324935 0.430937
O O9 0.883048 0.173333 0.546779
O O10 0.000000 0.257362 0.500000
O O11 0.750000 0.630925 0.072875
O O12 0.649966 0.500000 0.089881
O O13 0.664124 0.632957 0.237186
O O14 0.750000 0.141187 0.889662
O O15 0.847020 0.119584 0.740100
O O16 0.840918 0.000000 0.903009
O O17 0.115448 0.500000 0.628603
O O18 0.250000 0.139507 0.409015
O O19 0.157634 0.000000 0.422819
#
# Coordination Sequence:
#
# PCOD8208811 Si02
#       7
#     8   8   8   8   8   8   8
#     4  12  21  32  56  81 107 135 176 220 266 310
#     4  10  19  32  50  77 108 137 171 218 263 305
#     4  10  19  32  54  79 105 132 175 219 263 304
#     4  10  21  35  50  73 107 146 183 213 250 312
#     4   9  19  37  58  77 102 136 171 213 267 320
#     4   9  18  33  51  72 103 143 179 208 251 311
#     4   9  18  34  55  76 100 132 170 213 265 322
#
# _framework density 16.955164
#
# number of rings (size 3 to 8) (size 9 to 14) (size 15 to 20)
#    0.000    2.143    2.857    2.143    0.000    3.429 
#    0.000    0.000    0.000    3.000    0.000    2.000 
#    0.000    0.000    0.000    0.000    0.000    0.000 
#
# Total GULP energy -694441.348797 kJ/mol
# GULP energy per Si atom -12400.738371 kJ/mol
# Density = 1.691657 g / cm^3
# Si number density = 16.955164 Si / 1000 Ang^3
#
#
#
# Elastic Constant Matrix: (Units=GPa)
#
#
# Indices 1 2 3 4 5 6 
#
# 1 75.6170 59.6461 43.8261 0.0000 0.0000 0.0000
# 2 59.6461 109.0784 57.6611 0.0000 0.0000 0.0000
# 3 43.8261 57.6611 78.2235 0.0000 0.0000 0.0000
# 4 0.0000 0.0000 0.0000 29.0185 0.0000 0.0000
# 5 0.0000 0.0000 0.0000 0.0000 14.0600 0.0000
# 6 0.0000 0.0000 0.0000 0.0000 0.0000 22.9124
#
#
#
# Elastic Compliance Matrix: (Units=1/GPa)
#
#
# Indices 1 2 3 4 5 6 
#
# 1 0.025104 -0.010309 -0.006465 0.000000 0.000000 0.000000
# 2 -0.010309 0.019255 -0.008417 0.000000 0.000000 0.000000
# 3 -0.006465 -0.008417 0.022611 0.000000 0.000000 0.000000
# 4 0.000000 0.000000 0.000000 0.034461 0.000000 0.000000
# 5 0.000000 0.000000 0.000000 0.000000 0.071124 0.000000
# 6 0.000000 0.000000 0.000000 0.000000 0.000000 0.043644
#
#
# Mechanical properties :
#
#
# Convention : Reuss Voigt Hill
#
# Bulk Modulus (GPa) = 60.29484 65.02061 62.65772
# Shear Modulus (GPa) = 18.37488 19.98390 19.17939
#
# Velocity S-wave (km/s) = 3.29558 3.43685 3.36696
# Velocity P-wave (km/s) = 7.07953 7.36078 7.22152
#
# Compressibility (1/GPa) = 0.01658517
#
# Stress axis : x y z
#
# Youngs Moduli (GPa) = 39.83462 51.93567 44.22673
#
# Poissons Ratio (x) = 0.53543 0.28594
# Poissons Ratio (y) = 0.41067 0.37226
# Poissons Ratio (z) = 0.25755 0.43715
#
# Static dielectric constant tensor:
#      x y z
#    x 3.114200 0.000000 0.000000 
#    y 0.000000 3.149840 0.000000 
#    z 0.000000 0.000000 3.135390 
# 
# 
# High freq. dielectric constant tensor:
#      x y z
#    x 1.648180 0.000000 0.000000 
#    y 0.000000 1.651030 0.000000 
#    z 0.000000 0.000000 1.652260 
# 
# From -- ./inp_files/18209.got.cif
#   From: 2010.03.12/outbox.cif.g09.slc.cpg/sg51_10_cif.got.tgz:18209.got - 2010.04.16 13:43:02.
