data_PCOD8208479
_publ_section_title
;
Structure prediction by ZEFSAII (Michael W. Deem and Ramdas Pophale) SiO2 
 PCOD8208479
Probable space group: P M M A
;
_chemical_formula_sum "Si O2"
_cell_formula_units_Z 48
_cell_length_a 30.366775
_cell_length_b 10.113985
_cell_length_c 8.735924
_cell_angle_alpha 90.000000
_cell_angle_beta 90.000000
_cell_angle_gamma 90.000000
_cell_volume 2683.056536
_symmetry_space_group_name_H-M "P M M A"
_symmetry_group_IT_number 51
_symmetry_cell_setting 'orthorhombic'
loop_
_space_group_symop_operation_xyz
x,y,z
1/2-x,-y,z
1/2+x,-y,-z
-x,y,-z
-x,-y,-z
1/2+x,y,-z
1/2-x,y,z
x,-y,z
loop_
_atom_site_type_symbol
_atom_site_label
_atom_site_fract_x
_atom_site_fract_y
_atom_site_fract_z
Si Si1 0.360148 0.352694 0.809613
Si Si2 0.699172 0.849181 0.352326
Si Si3 0.518317 0.354861 0.710038
Si Si4 0.368026 0.853356 0.388490
Si Si5 0.896017 0.345042 0.861670
Si Si6 0.566125 0.717665 0.417586
O O1 0.339832 0.500000 0.823669
O O2 0.321769 0.249037 0.772324
O O3 0.397544 0.359012 0.680221
O O4 0.381924 0.306844 0.968264
O O5 0.750000 0.812551 0.371581
O O6 0.676705 0.829742 0.517307
O O7 0.692673 0.000000 0.294844
O O8 0.498436 0.500000 0.747643
O O9 0.551742 0.309823 0.844601
O O10 0.477276 0.252217 0.688700
O O11 0.547903 0.371032 0.556604
O O12 0.368087 0.743705 0.256175
O O13 0.410023 0.844410 0.505462
O O14 0.369028 0.000000 0.316098
O O15 0.887911 0.500000 0.825310
#
# Coordination Sequence:
#
# PCOD8208479 Si02
#       6
#     8   8   8   8   8   8
#     4  10  19  31  49  74 103 130 157 194 241 287
#     4   9  19  36  56  75  93 117 154 197 238 287
#     4   9  15  26  44  67  95 129 169 203 232 274
#     4   9  18  33  52  71  93 123 160 201 244 286
#     4   9  19  32  46  69 101 133 161 192 232 281
#     4   9  16  27  45  69  95 126 163 204 240 273
#
# _framework density 17.890044
#
# number of rings (size 3 to 8) (size 9 to 14) (size 15 to 20)
#    0.000    2.833    0.000    2.000    0.000    6.333 
#    0.000   10.000    0.000    3.000    0.000   15.167 
#    0.000    0.000    0.000    0.000    0.000    0.000 
#
# Total GULP energy -594667.596672 kJ/mol
# GULP energy per Si atom -12388.908264 kJ/mol
# Density = 1.784933 g / cm^3
# Si number density = 17.890044 Si / 1000 Ang^3
#
#
#
# Elastic Constant Matrix: (Units=GPa)
#
#
# Indices 1 2 3 4 5 6 
#
# 1 112.4845 37.3204 30.4468 0.0000 0.0000 0.0000
# 2 37.3204 71.6925 31.5306 0.0000 0.0000 0.0000
# 3 30.4468 31.5306 56.7458 0.0000 0.0000 0.0000
# 4 0.0000 0.0000 0.0000 23.5599 0.0000 0.0000
# 5 0.0000 0.0000 0.0000 0.0000 21.6022 0.0000
# 6 0.0000 0.0000 0.0000 0.0000 0.0000 21.4549
#
#
#
# Elastic Compliance Matrix: (Units=1/GPa)
#
#
# Indices 1 2 3 4 5 6 
#
# 1 0.011304 -0.004257 -0.003700 0.000000 0.000000 0.000000
# 2 -0.004257 0.020063 -0.008864 0.000000 0.000000 0.000000
# 3 -0.003700 -0.008864 0.024532 0.000000 0.000000 0.000000
# 4 0.000000 0.000000 0.000000 0.042445 0.000000 0.000000
# 5 0.000000 0.000000 0.000000 0.000000 0.046292 0.000000
# 6 0.000000 0.000000 0.000000 0.000000 0.000000 0.046609
#
#
# Mechanical properties :
#
#
# Convention : Reuss Voigt Hill
#
# Bulk Modulus (GPa) = 44.92698 48.83538 46.88118
# Shear Modulus (GPa) = 21.52335 22.76507 22.14421
#
# Velocity S-wave (km/s) = 3.47232 3.57108 3.52205
# Velocity P-wave (km/s) = 6.42210 6.66035 6.54231
#
# Compressibility (1/GPa) = 0.02225834
#
# Stress axis : x y z
#
# Youngs Moduli (GPa) = 88.46422 49.84311 40.76232
#
# Poissons Ratio (x) = 0.21220 0.15080
# Poissons Ratio (y) = 0.37663 0.36130
# Poissons Ratio (z) = 0.32728 0.44179
#
# Static dielectric constant tensor:
#      x y z
#    x 3.362050 0.000000 0.000000 
#    y 0.000000 3.144770 0.000000 
#    z 0.000000 0.000000 3.239220 
# 
# 
# High freq. dielectric constant tensor:
#      x y z
#    x 1.685330 0.000000 0.000000 
#    y 0.000000 1.672020 0.000000 
#    z 0.000000 0.000000 1.680310 
# 
# From -- ./inp_files/12293.got.cif
#   From: 2010.03.12/outbox.cif.g09.slc.cpg/sg51_7_cif.got.tgz:12293.got - 2010.04.16 13:43:02.
