data_PCOD8208994
_publ_section_title
;
Structure prediction by ZEFSAII (Michael W. Deem and Ramdas Pophale) SiO2 
 PCOD8208994
Probable space group: P M M A
;
_chemical_formula_sum "Si O2"
_cell_formula_units_Z 40
_cell_length_a 8.779417
_cell_length_b 12.582422
_cell_length_c 20.133131
_cell_angle_alpha 90.000000
_cell_angle_beta 90.000000
_cell_angle_gamma 90.000000
_cell_volume 2224.033085
_symmetry_space_group_name_H-M "P M M A"
_symmetry_group_IT_number 51
_symmetry_cell_setting 'orthorhombic'
loop_
_space_group_symop_operation_xyz
x,y,z
1/2-x,-y,z
1/2+x,-y,-z
-x,y,-z
-x,-y,-z
1/2+x,y,-z
1/2-x,y,z
x,-y,z
loop_
_atom_site_type_symbol
_atom_site_label
_atom_site_fract_x
_atom_site_fract_y
_atom_site_fract_z
Si Si1 0.930413 0.717303 0.680574
Si Si2 0.073990 0.124809 0.068788
Si Si3 0.067588 0.272408 0.823216
Si Si4 0.083941 0.500000 0.832025
Si Si5 0.429343 0.879828 0.431657
Si Si6 0.081062 0.500000 0.674760
O O1 0.750000 0.712206 0.689114
O O2 0.984244 0.806519 0.628752
O O3 0.003244 0.750560 0.750494
O O4 0.989434 0.604652 0.652600
O O5 0.250000 0.157698 0.068802
O O6 0.987263 0.180292 0.128747
O O7 0.051630 0.000000 0.078898
O O8 0.000000 0.162898 0.000000
O O9 0.250000 0.275866 0.819402
O O10 0.003419 0.387645 0.850805
O O11 0.250000 0.500000 0.865817
O O12 0.098770 0.500000 0.753202
O O13 0.500000 0.836541 0.500000
O O14 0.250000 0.874798 0.439306
O O15 0.485406 0.000000 0.417247
O O16 0.250000 0.500000 0.642275
#
# Coordination Sequence:
#
# PCOD8208994 Si02
#       6
#     8   8   8   4   8   4
#     4  10  19  32  52  78 106 135 169 210 257 306
#     4  10  21  37  55  75 102 136 173 214 260 308
#     4  10  19  33  54  79 106 135 170 210 253 304
#     4   7  14  29  48  71 100 131 161 200 246 291
#     4   9  19  35  53  73 100 134 170 210 257 308
#     4   9  17  31  50  73 102 135 171 210 253 301
#
# _framework density 17.985344999999999
#
# number of rings (size 3 to 8) (size 9 to 14) (size 15 to 20)
#    0.000    2.600    0.000    3.300    0.000    3.600 
#    0.000    4.500    0.000    0.000    0.000    0.000 
#    0.000    0.000    0.000    0.000    0.000    0.000 
#
# Total GULP energy -495811.686143 kJ/mol
# GULP energy per Si atom -12395.292154 kJ/mol
# Density = 1.794441 g / cm^3
# Si number density = 17.985345 Si / 1000 Ang^3
#
#
#
# Elastic Constant Matrix: (Units=GPa)
#
#
# Indices 1 2 3 4 5 6 
#
# 1 81.1131 44.3104 47.2442 0.0000 0.0000 0.0000
# 2 44.3104 97.8252 71.1657 0.0000 0.0000 0.0000
# 3 47.2442 71.1657 113.4927 0.0000 0.0000 0.0000
# 4 0.0000 0.0000 0.0000 0.8389 0.0000 0.0000
# 5 0.0000 0.0000 0.0000 0.0000 29.9295 0.0000
# 6 0.0000 0.0000 0.0000 0.0000 0.0000 23.7318
#
#
#
# Elastic Compliance Matrix: (Units=1/GPa)
#
#
# Indices 1 2 3 4 5 6 
#
# 1 0.017424 -0.004810 -0.004237 0.000000 0.000000 0.000000
# 2 -0.004810 0.020124 -0.010617 0.000000 0.000000 0.000000
# 3 -0.004237 -0.010617 0.017232 0.000000 0.000000 0.000000
# 4 0.000000 0.000000 0.000000 1.192104 0.000000 0.000000
# 5 0.000000 0.000000 0.000000 0.000000 0.033412 0.000000
# 6 0.000000 0.000000 0.000000 0.000000 0.000000 0.042138
#
#
# Mechanical properties :
#
#
# Convention : Reuss Voigt Hill
#
# Bulk Modulus (GPa) = 64.71230 68.65237 66.68233
# Shear Modulus (GPa) = 3.65788 19.54742 11.60265
#
# Velocity S-wave (km/s) = 1.42766 3.30032 2.54267
# Velocity P-wave (km/s) = 6.22706 7.26478 6.76584
#
# Compressibility (1/GPa) = 0.01545301
#
# Stress axis : x y z
#
# Youngs Moduli (GPa) = 57.39251 49.69073 58.03065
#
# Poissons Ratio (x) = 0.23900 0.24588
# Poissons Ratio (y) = 0.27605 0.61610
# Poissons Ratio (z) = 0.24318 0.52756
#
# Static dielectric constant tensor:
#      x y z
#    x 3.347840 0.000000 0.000000 
#    y 0.000000 3.724760 0.000000 
#    z 0.000000 0.000000 3.123490 
# 
# 
# High freq. dielectric constant tensor:
#      x y z
#    x 1.698330 0.000000 0.000000 
#    y 0.000000 1.707020 0.000000 
#    z 0.000000 0.000000 1.673920 
# 
# From -- ./inp_files/31471.got.cif
#   From: 2010.03.12/outbox.cif.g09.slc.cpg/sg51_16_cif.got.tgz:31471.got - 2010.04.16 13:43:02.
