data_PCOD8208015
_publ_section_title
;
Structure prediction by ZEFSAII (Michael W. Deem and Ramdas Pophale) SiO2 
 PCOD8208015
Probable space group: P M M A
;
_chemical_formula_sum "Si O2"
_cell_formula_units_Z 64
_cell_length_a 9.216068
_cell_length_b 22.361863
_cell_length_c 15.803750
_cell_angle_alpha 90.000000
_cell_angle_beta 90.000000
_cell_angle_gamma 90.000000
_cell_volume 3256.970342
_symmetry_space_group_name_H-M "P M M A"
_symmetry_group_IT_number 51
_symmetry_cell_setting 'orthorhombic'
loop_
_space_group_symop_operation_xyz
x,y,z
1/2-x,-y,z
1/2+x,-y,-z
-x,y,-z
-x,-y,-z
1/2+x,y,-z
1/2-x,y,z
x,-y,z
loop_
_atom_site_type_symbol
_atom_site_label
_atom_site_fract_x
_atom_site_fract_y
_atom_site_fract_z
Si Si1 0.417859 0.567325 0.737198
Si Si2 0.078730 0.853348 0.085779
Si Si3 0.082369 0.099997 0.584839
Si Si4 0.082153 0.395496 0.923432
Si Si5 0.090416 0.321777 0.303464
Si Si6 0.590136 0.283106 0.887301
Si Si7 0.415621 0.931703 0.245560
Si Si8 0.585158 0.759016 0.419299
O O1 0.250000 0.584359 0.722769
O O2 0.450640 0.500000 0.706323
O O3 0.456708 0.571886 0.836291
O O4 0.517392 0.612953 0.684767
O O5 0.250000 0.861838 0.073596
O O6 0.034802 0.784680 0.102917
O O7 0.025401 0.891442 0.167550
O O8 0.000000 0.875920 0.000000
O O9 0.250000 0.079175 0.579701
O O10 0.069630 0.170713 0.590615
O O11 0.000000 0.076756 0.500000
O O12 0.010746 0.074361 0.669658
O O13 0.250000 0.397976 0.942994
O O14 0.030462 0.326319 0.926658
O O15 0.000000 0.429645 0.000000
O O16 0.250000 0.323615 0.346706
O O17 0.107912 0.302188 0.208463
O O18 0.986882 0.271101 0.339221
O O19 0.750000 0.290588 0.929993
O O20 0.250000 0.913063 0.267658
O O21 0.423585 0.000000 0.214770
O O22 0.500000 0.734584 0.500000
O O23 0.750000 0.738355 0.427244
#
# Coordination Sequence:
#
# PCOD8208015 Si02
#       8
#     8   8   8   8   8   8   8   8
#     4   9  19  35  51  68  95 134 177 217 258 305
#     4  10  21  36  54  77 105 140 183 230 280 329
#     4  10  21  37  60  89 118 147 179 218 267 325
#     4  10  19  30  46  69  97 128 164 208 258 311
#     4  10  19  32  53  79 106 137 173 215 262 312
#     4   9  18  32  50  73 101 132 167 211 264 320
#     4  10  22  40  59  79 108 147 188 230 276 326
#     4  10  20  34  54  82 113 141 169 204 252 310
#
# _framework density 19.650164
#
# number of rings (size 3 to 8) (size 9 to 14) (size 15 to 20)
#    0.000    2.250    0.000    2.625    0.000    6.750 
#    0.000    0.000    0.000    0.375    0.000    0.000 
#    0.000    0.000    0.000    0.000    0.000    0.000 
#
# Total GULP energy -793401.569268 kJ/mol
# GULP energy per Si atom -12396.899520 kJ/mol
# Density = 1.960544 g / cm^3
# Si number density = 19.650164 Si / 1000 Ang^3
#
#
#
# Elastic Constant Matrix: (Units=GPa)
#
#
# Indices 1 2 3 4 5 6 
#
# 1 100.8303 30.4383 29.0865 0.0000 0.0000 0.0000
# 2 30.4383 51.8551 24.2486 0.0000 0.0000 0.0000
# 3 29.0865 24.2486 63.5608 0.0000 0.0000 0.0000
# 4 0.0000 0.0000 0.0000 16.4796 0.0000 0.0000
# 5 0.0000 0.0000 0.0000 0.0000 37.1636 0.0000
# 6 0.0000 0.0000 0.0000 0.0000 0.0000 -4.6437
#
#
#
# Elastic Compliance Matrix: (Units=1/GPa)
#
#
# Indices 1 2 3 4 5 6 
#
# 1 0.012700 -0.005766 -0.003612 0.000000 0.000000 0.000000
# 2 -0.005766 0.026089 -0.007315 0.000000 0.000000 0.000000
# 3 -0.003612 -0.007315 0.020177 0.000000 0.000000 0.000000
# 4 0.000000 0.000000 0.000000 0.060681 0.000000 0.000000
# 5 0.000000 0.000000 0.000000 0.000000 0.026908 0.000000
# 6 0.000000 0.000000 0.000000 0.000000 0.000000 -0.215347
#
#
# Mechanical properties :
#
#
# Convention : Reuss Voigt Hill
#
# Bulk Modulus (GPa) = 39.09156 42.64366 40.86761
# Shear Modulus (GPa) = -186.01370 18.63144 -83.69113
#
# Velocity S-wave (km/s) = -9.74003 3.08256 -6.53322
# Velocity P-wave (km/s) = 10.32250 5.86669 6.00566
#
# Compressibility (1/GPa) = 0.02558097
#
# Stress axis : x y z
#
# Youngs Moduli (GPa) = 78.73903 38.32971 49.56253
#
# Poissons Ratio (x) = 0.22100 0.17903
# Poissons Ratio (y) = 0.45399 0.36254
# Poissons Ratio (z) = 0.28442 0.28037
#
# Static dielectric constant tensor:
#      x y z
#    x 3.822400 0.000000 0.000000 
#    y 0.000000 3.507140 0.000000 
#    z 0.000000 0.000000 3.554530 
# 
# 
# High freq. dielectric constant tensor:
#      x y z
#    x 1.770710 0.000000 0.000000 
#    y 0.000000 1.758130 0.000000 
#    z 0.000000 0.000000 1.756110 
# 
# From -- ./inp_files/22375.got.cif
#   From: 2010.03.12/outbox.cif.g09.slc.cpg/sg51_12_cif.got.tgz:22375.got - 2010.04.16 13:43:02.
