data_PCOD8208537
_publ_section_title
;
Structure prediction by ZEFSAII (Michael W. Deem and Ramdas Pophale) SiO2 
 PCOD8208537
Probable space group: P M M A
;
_chemical_formula_sum "Si O2"
_cell_formula_units_Z 44
_cell_length_a 8.884181
_cell_length_b 28.447549
_cell_length_c 9.821452
_cell_angle_alpha 90.000000
_cell_angle_beta 90.000000
_cell_angle_gamma 90.000000
_cell_volume 2482.206740
_symmetry_space_group_name_H-M "P M M A"
_symmetry_group_IT_number 51
_symmetry_cell_setting 'orthorhombic'
loop_
_space_group_symop_operation_xyz
x,y,z
1/2-x,-y,z
1/2+x,-y,-z
-x,y,-z
-x,-y,-z
1/2+x,y,-z
1/2-x,y,z
x,-y,z
loop_
_atom_site_type_symbol
_atom_site_label
_atom_site_fract_x
_atom_site_fract_y
_atom_site_fract_z
Si Si1 0.927493 0.101877 0.148681
Si Si2 0.928372 0.369417 0.351704
Si Si3 0.577110 0.000000 0.142234
Si Si4 0.924530 0.278231 0.645379
Si Si5 0.073001 0.446917 0.860219
Si Si6 0.574817 0.825780 0.647211
O O1 0.750000 0.110949 0.136047
O O2 0.998344 0.139203 0.248889
O O3 0.962920 0.049768 0.214913
O O4 0.000000 0.107075 0.000000
O O5 0.750000 0.366513 0.364109
O O6 0.981442 0.413382 0.261328
O O7 0.000000 0.375978 0.500000
O O8 0.990806 0.321436 0.278981
O O9 0.750000 0.000000 0.106465
O O10 0.500000 0.000000 0.000000
O O11 0.750000 0.291236 0.631084
O O12 0.946250 0.226690 0.711897
O O13 0.000000 0.274681 0.500000
O O14 0.250000 0.444001 0.879494
O O15 0.020661 0.500000 0.825312
O O16 0.000000 0.429226 0.000000
O O17 0.500000 0.830846 0.500000
O O18 0.750000 0.837907 0.630898
#
# Coordination Sequence:
#
# PCOD8208537 Si02
#       6
#     8   8   4   8   8   8
#     4  10  19  33  53  76 102 131 165 206 248 294
#     4  10  19  31  50  75 100 126 160 201 241 284
#     4   8  16  30  49  72  97 128 164 200 244 294
#     4   9  17  30  49  71  97 128 162 199 241 290
#     4   9  19  35  52  71  97 129 163 198 239 288
#     4  10  20  34  52  75 101 132 168 205 248 297
#
# _framework density 17.726163
#
# number of rings (size 3 to 8) (size 9 to 14) (size 15 to 20)
#    0.000    2.545    0.000    3.273    0.000    4.727 
#    0.000    1.364    0.000    2.182    0.000    0.000 
#    0.000    0.000    0.000    0.000    0.000    0.000 
#
# Total GULP energy -545129.240422 kJ/mol
# GULP energy per Si atom -12389.300919 kJ/mol
# Density = 1.768582 g / cm^3
# Si number density = 17.726163 Si / 1000 Ang^3
#
#
#
# Elastic Constant Matrix: (Units=GPa)
#
#
# Indices 1 2 3 4 5 6 
#
# 1 94.6771 68.7183 44.0944 0.0000 0.0000 0.0000
# 2 68.7183 165.7551 76.2332 0.0000 0.0000 0.0000
# 3 44.0944 76.2332 80.1960 0.0000 0.0000 0.0000
# 4 0.0000 0.0000 0.0000 54.8344 0.0000 0.0000
# 5 0.0000 0.0000 0.0000 0.0000 29.2249 0.0000
# 6 0.0000 0.0000 0.0000 0.0000 0.0000 38.4474
#
#
#
# Elastic Compliance Matrix: (Units=1/GPa)
#
#
# Indices 1 2 3 4 5 6 
#
# 1 0.015941 -0.004580 -0.004411 0.000000 0.000000 0.000000
# 2 -0.004580 0.012035 -0.008922 0.000000 0.000000 0.000000
# 3 -0.004411 -0.008922 0.023376 0.000000 0.000000 0.000000
# 4 0.000000 0.000000 0.000000 0.018237 0.000000 0.000000
# 5 0.000000 0.000000 0.000000 0.000000 0.034217 0.000000
# 6 0.000000 0.000000 0.000000 0.000000 0.000000 0.026010
#
#
# Mechanical properties :
#
#
# Convention : Reuss Voigt Hill
#
# Bulk Modulus (GPa) = 64.41016 79.85777 72.13396
# Shear Modulus (GPa) = 29.27089 34.60683 31.93886
#
# Velocity S-wave (km/s) = 4.06800 4.42328 4.24936
# Velocity P-wave (km/s) = 7.64722 8.44013 8.05344
#
# Compressibility (1/GPa) = 0.01552550
#
# Stress axis : x y z
#
# Youngs Moduli (GPa) = 62.73185 83.08928 42.77838
#
# Poissons Ratio (x) = 0.38054 0.18870
# Poissons Ratio (y) = 0.28731 0.38168
# Poissons Ratio (z) = 0.27672 0.74135
#
# Static dielectric constant tensor:
#      x y z
#    x 3.439500 0.000000 0.000000 
#    y 0.000000 4.375850 0.000000 
#    z 0.000000 0.000000 2.942410 
# 
# 
# High freq. dielectric constant tensor:
#      x y z
#    x 1.701100 0.000000 0.000000 
#    y 0.000000 1.710190 0.000000 
#    z 0.000000 0.000000 1.642080 
# 
# From -- ./inp_files/5798.got.cif
#   From: 2010.03.12/outbox.cif.g09.slc.cpg/sg51_3_cif.got.tgz:5798.got - 2010.04.16 13:43:02.
