data_PCOD8208040
_publ_section_title
;
Structure prediction by ZEFSAII (Michael W. Deem and Ramdas Pophale) SiO2 
 PCOD8208040
Probable space group: P M M A
;
_chemical_formula_sum "Si O2"
_cell_formula_units_Z 52
_cell_length_a 9.062835
_cell_length_b 10.576175
_cell_length_c 29.524983
_cell_angle_alpha 90.000000
_cell_angle_beta 90.000000
_cell_angle_gamma 90.000000
_cell_volume 2829.973428
_symmetry_space_group_name_H-M "P M M A"
_symmetry_group_IT_number 51
_symmetry_cell_setting 'orthorhombic'
loop_
_space_group_symop_operation_xyz
x,y,z
1/2-x,-y,z
1/2+x,-y,-z
-x,y,-z
-x,-y,-z
1/2+x,y,-z
1/2-x,y,z
x,-y,z
loop_
_atom_site_type_symbol
_atom_site_label
_atom_site_fract_x
_atom_site_fract_y
_atom_site_fract_z
Si Si1 0.575136 0.147375 0.388914
Si Si2 0.408771 0.644425 0.039841
Si Si3 0.920605 0.000000 0.951843
Si Si4 0.079541 0.786204 0.119465
Si Si5 0.414966 0.148948 0.296909
Si Si6 0.423923 0.643493 0.451739
Si Si7 0.419174 0.149313 0.790960
O O1 0.750000 0.167915 0.390958
O O2 0.517843 0.183487 0.339181
O O3 0.495523 0.246136 0.421802
O O4 0.536028 0.000000 0.400964
O O5 0.250000 0.713085 0.037643
O O6 0.394922 0.500000 0.026639
O O7 0.459996 0.656480 0.092433
O O8 0.500000 0.713483 0.000000
O O9 0.966160 0.116776 0.919965
O O10 0.750000 0.000000 0.962923
O O11 0.000000 0.000000 0.000000
O O12 0.250000 0.801581 0.135286
O O13 0.978174 0.789506 0.163256
O O14 0.250000 0.206237 0.303137
O O15 0.489547 0.204816 0.251581
O O16 0.403826 0.000000 0.291824
O O17 0.500000 0.654464 0.500000
O O18 0.250000 0.670345 0.456241
O O19 0.450378 0.500000 0.432427
O O20 0.250000 0.187541 0.783955
O O21 0.439454 0.000000 0.794770
#
# Coordination Sequence:
#
# PCOD8208040 Si02
#       7
#     8   8   4   8   8   8   8
#     4  10  20  34  54  82 114 146 184 231 280 328
#     4   9  18  32  49  67  86 112 148 188 229 274
#     4  10  20  30  42  62  90 120 148 180 225 280
#     4  10  19  31  46  65  91 121 151 186 230 284
#     4   9  17  30  50  74 102 136 170 209 257 307
#     4  10  21  37  57  81 111 150 194 235 278 331
#     4  10  19  30  46  70  98 127 160 199 243 296
#
# _framework density 18.374731000000001
#
# number of rings (size 3 to 8) (size 9 to 14) (size 15 to 20)
#    0.000    2.308    0.769    2.308    0.000    5.846 
#    0.000    0.000    0.000    0.923    0.000    2.154 
#    0.000    0.000    0.000    0.000    0.000    0.000 
#
# Total GULP energy -644188.902769 kJ/mol
# GULP energy per Si atom -12388.248130 kJ/mol
# Density = 1.833291 g / cm^3
# Si number density = 18.374731 Si / 1000 Ang^3
#
#
#
# Elastic Constant Matrix: (Units=GPa)
#
#
# Indices 1 2 3 4 5 6 
#
# 1 121.3492 42.2733 73.3120 0.0000 0.0000 0.0000
# 2 42.2733 57.3439 48.4571 0.0000 0.0000 0.0000
# 3 73.3120 48.4571 139.4739 0.0000 0.0000 0.0000
# 4 0.0000 0.0000 0.0000 36.6932 0.0000 0.0000
# 5 0.0000 0.0000 0.0000 0.0000 42.1604 0.0000
# 6 0.0000 0.0000 0.0000 0.0000 0.0000 17.5528
#
#
#
# Elastic Compliance Matrix: (Units=1/GPa)
#
#
# Indices 1 2 3 4 5 6 
#
# 1 0.013185 -0.005469 -0.005030 0.000000 0.000000 0.000000
# 2 -0.005469 0.026955 -0.006490 0.000000 0.000000 0.000000
# 3 -0.005030 -0.006490 0.012069 0.000000 0.000000 0.000000
# 4 0.000000 0.000000 0.000000 0.027253 0.000000 0.000000
# 5 0.000000 0.000000 0.000000 0.000000 0.023719 0.000000
# 6 0.000000 0.000000 0.000000 0.000000 0.000000 0.056971
#
#
# Mechanical properties :
#
#
# Convention : Reuss Voigt Hill
#
# Bulk Modulus (GPa) = 54.85641 71.80575 63.33108
# Shear Modulus (GPa) = 24.97421 29.55625 27.26523
#
# Velocity S-wave (km/s) = 3.69068 4.01500 3.85625
# Velocity P-wave (km/s) = 6.93401 7.78826 7.37352
#
# Compressibility (1/GPa) = 0.01822941
#
# Stress axis : x y z
#
# Youngs Moduli (GPa) = 75.84441 37.09942 82.85870
#
# Poissons Ratio (x) = 0.20290 0.41681
# Poissons Ratio (y) = 0.41479 0.53776
# Poissons Ratio (z) = 0.38152 0.24078
#
# Static dielectric constant tensor:
#      x y z
#    x 3.749810 0.000000 0.000000 
#    y 0.000000 3.511570 0.000000 
#    z 0.000000 0.000000 3.493340 
# 
# 
# High freq. dielectric constant tensor:
#      x y z
#    x 1.721590 0.000000 0.000000 
#    y 0.000000 1.682940 0.000000 
#    z 0.000000 0.000000 1.717620 
# 
# From -- ./inp_files/36249.got.cif
#   From: 2010.03.12/outbox.cif.g09.slc.cpg/sg51_19_cif.got.tgz:36249.got - 2010.04.16 13:43:02.
