data_PCOD8208842
_publ_section_title
;
Structure prediction by ZEFSAII (Michael W. Deem and Ramdas Pophale) SiO2 
 PCOD8208842
Probable space group: P M M A
;
_chemical_formula_sum "Si O2"
_cell_formula_units_Z 64
_cell_length_a 9.026633
_cell_length_b 19.322486
_cell_length_c 19.420684
_cell_angle_alpha 90.000000
_cell_angle_beta 90.000000
_cell_angle_gamma 90.000000
_cell_volume 3387.297243
_symmetry_space_group_name_H-M "P M M A"
_symmetry_group_IT_number 51
_symmetry_cell_setting 'orthorhombic'
loop_
_space_group_symop_operation_xyz
x,y,z
1/2-x,-y,z
1/2+x,-y,-z
-x,y,-z
-x,-y,-z
1/2+x,y,-z
1/2-x,y,z
x,-y,z
loop_
_atom_site_type_symbol
_atom_site_label
_atom_site_fract_x
_atom_site_fract_y
_atom_site_fract_z
Si Si1 0.914746 0.603616 0.564816
Si Si2 0.413474 0.574772 0.694277
Si Si3 0.925336 0.420705 0.072447
Si Si4 0.074443 0.323831 0.805230
Si Si5 0.422500 0.080973 0.205133
Si Si6 0.920521 0.767237 0.570347
Si Si7 0.573177 0.804627 0.285135
Si Si8 0.583623 0.082039 0.066456
O O1 0.750000 0.576949 0.557944
O O2 0.926030 0.685470 0.570094
O O3 0.000000 0.574253 0.500000
O O4 0.983999 0.566699 0.629451
O O5 0.250000 0.602402 0.672610
O O6 0.399235 0.500000 0.730336
O O7 0.490488 0.626611 0.746631
O O8 0.750000 0.415048 0.064018
O O9 0.966391 0.500000 0.096566
O O10 0.984255 0.358487 0.123460
O O11 0.000000 0.404202 0.000000
O O12 0.250000 0.328009 0.807886
O O13 0.024776 0.247424 0.778320
O O14 0.250000 0.100438 0.205750
O O15 0.509567 0.120518 0.265154
O O16 0.490487 0.104730 0.132501
O O17 0.447649 0.000000 0.218009
O O18 0.750000 0.794136 0.571773
O O19 0.000000 0.795500 0.500000
O O20 0.005989 0.788800 0.639874
O O21 0.750000 0.806071 0.292318
O O22 0.750000 0.113097 0.070985
O O23 0.592714 0.000000 0.060294
O O24 0.500000 0.113105 0.000000
#
# Coordination Sequence:
#
# PCOD8208842 Si02
#       8
#     8   8   8   8   8   8   8   8
#     4  10  20  33  50  71 100 136 174 217 260 310
#     4  10  19  32  51  73  99 134 175 218 264 315
#     4   9  17  32  54  78 105 140 183 228 273 321
#     4   9  18  33  53  77 104 136 176 220 268 322
#     4  10  21  37  56  80 112 148 186 228 275 332
#     4  10  20  35  56  81 108 141 181 223 269 325
#     4  11  21  35  58  84 111 142 178 226 277 330
#     4   9  16  28  49  77 108 142 180 219 260 310
#
# _framework density 18.894120000000001
#
# number of rings (size 3 to 8) (size 9 to 14) (size 15 to 20)
#    0.000    2.250    1.250    2.250    0.000    5.250 
#    0.000    2.500    0.000    3.375    0.000    0.000 
#    0.000    0.000    0.000    0.000    0.000    0.000 
#
# Total GULP energy -792932.343767 kJ/mol
# GULP energy per Si atom -12389.567871 kJ/mol
# Density = 1.885112 g / cm^3
# Si number density = 18.894120 Si / 1000 Ang^3
#
#
#
# Elastic Constant Matrix: (Units=GPa)
#
#
# Indices 1 2 3 4 5 6 
#
# 1 109.9230 36.6238 56.1064 0.0000 0.0000 0.0000
# 2 36.6238 56.8810 46.0077 0.0000 0.0000 0.0000
# 3 56.1064 46.0077 133.8244 0.0000 0.0000 0.0000
# 4 0.0000 0.0000 0.0000 17.4596 0.0000 0.0000
# 5 0.0000 0.0000 0.0000 0.0000 36.2867 0.0000
# 6 0.0000 0.0000 0.0000 0.0000 0.0000 18.2908
#
#
#
# Elastic Compliance Matrix: (Units=1/GPa)
#
#
# Indices 1 2 3 4 5 6 
#
# 1 0.012645 -0.005338 -0.003466 0.000000 0.000000 0.000000
# 2 -0.005338 0.026606 -0.006909 0.000000 0.000000 0.000000
# 3 -0.003466 -0.006909 0.011301 0.000000 0.000000 0.000000
# 4 0.000000 0.000000 0.000000 0.057275 0.000000 0.000000
# 5 0.000000 0.000000 0.000000 0.000000 0.027558 0.000000
# 6 0.000000 0.000000 0.000000 0.000000 0.000000 0.054672
#
#
# Mechanical properties :
#
#
# Convention : Reuss Voigt Hill
#
# Bulk Modulus (GPa) = 52.28667 64.23379 58.26023
# Shear Modulus (GPa) = 21.94340 25.20011 23.57176
#
# Velocity S-wave (km/s) = 3.41161 3.65602 3.53593
# Velocity P-wave (km/s) = 6.57665 7.20365 6.89728
#
# Compressibility (1/GPa) = 0.01912533
#
# Stress axis : x y z
#
# Youngs Moduli (GPa) = 79.08237 37.58598 88.48824
#
# Poissons Ratio (x) = 0.20063 0.30673
# Poissons Ratio (y) = 0.42214 0.61135
# Poissons Ratio (z) = 0.27412 0.25967
#
# Static dielectric constant tensor:
#      x y z
#    x 3.476510 0.000000 0.000000 
#    y 0.000000 3.282880 0.000000 
#    z 0.000000 0.000000 3.745040 
# 
# 
# High freq. dielectric constant tensor:
#      x y z
#    x 1.730380 0.000000 0.000000 
#    y 0.000000 1.708710 0.000000 
#    z 0.000000 0.000000 1.737460 
# 
# From -- ./inp_files/32340.got.cif
#   From: 2010.03.12/outbox.cif.g09.slc.cpg/sg51_17_cif.got.tgz:32340.got - 2010.04.16 13:43:02.
