data_PCOD8208481
_publ_section_title
;
Structure prediction by ZEFSAII (Michael W. Deem and Ramdas Pophale) SiO2 
 PCOD8208481
Probable space group: P M M A
;
_chemical_formula_sum "Si O2"
_cell_formula_units_Z 60
_cell_length_a 8.859462
_cell_length_b 20.901551
_cell_length_c 18.804974
_cell_angle_alpha 90.000000
_cell_angle_beta 90.000000
_cell_angle_gamma 90.000000
_cell_volume 3482.239208
_symmetry_space_group_name_H-M "P M M A"
_symmetry_group_IT_number 51
_symmetry_cell_setting 'orthorhombic'
loop_
_space_group_symop_operation_xyz
x,y,z
1/2-x,-y,z
1/2+x,-y,-z
-x,y,-z
-x,-y,-z
1/2+x,y,-z
1/2-x,y,z
x,-y,z
loop_
_atom_site_type_symbol
_atom_site_label
_atom_site_fract_x
_atom_site_fract_y
_atom_site_fract_z
Si Si1 0.421122 0.749543 0.571663
Si Si2 0.425749 0.127578 0.926800
Si Si3 0.575751 0.183709 0.286639
Si Si4 0.927718 0.500000 0.422649
Si Si5 0.570719 0.371997 0.343398
Si Si6 0.575812 0.926423 0.790106
Si Si7 0.426286 0.723047 0.925879
Si Si8 0.929271 0.305710 0.783571
O O1 0.500000 0.771577 0.500000
O O2 0.250000 0.736722 0.551418
O O3 0.439576 0.806080 0.628939
O O4 0.487892 0.683622 0.603619
O O5 0.250000 0.111907 0.929628
O O6 0.502044 0.085813 0.866132
O O7 0.456571 0.202094 0.912157
O O8 0.500000 0.105417 0.000000
O O9 0.750000 0.188222 0.261919
O O10 0.508928 0.114361 0.270135
O O11 0.484184 0.237174 0.244273
O O12 0.750000 0.500000 0.433902
O O13 0.980461 0.561240 0.377488
O O14 0.000000 0.500000 0.500000
O O15 0.750000 0.367038 0.331570
O O16 0.490996 0.362435 0.267150
O O17 0.750000 0.906209 0.793239
O O18 0.555818 0.000000 0.768784
O O19 0.250000 0.706991 0.928057
O O20 0.505245 0.683374 0.862609
O O21 0.500000 0.701175 0.000000
O O22 0.750000 0.307725 0.785754
#
# Coordination Sequence:
#
# PCOD8208481 Si02
#       8
#     8   8   8   4   8   8   8   8
#     4   9  18  31  50  75 102 128 161 203 248 297
#     4  10  20  33  51  71  97 132 167 205 251 301
#     4  10  20  35  52  72  98 129 163 205 254 305
#     4  10  20  34  54  78 111 152 185 218 256 298
#     4   9  19  34  50  74 108 144 179 212 249 296
#     4  11  23  36  51  72  97 127 166 209 252 304
#     4  10  19  31  49  74 103 134 167 209 257 308
#     4  11  20  31  51  76 102 134 172 215 258 300
#
# _framework density 17.230291000000001
#
# number of rings (size 3 to 8) (size 9 to 14) (size 15 to 20)
#    0.000    2.000    1.333    4.000    0.000    5.600 
#    0.000    0.000    0.000    0.400    0.000    0.467 
#    0.000    0.000    0.000    0.000    0.000    0.000 
#
# Total GULP energy -744132.488573 kJ/mol
# GULP energy per Si atom -12402.208143 kJ/mol
# Density = 1.719107 g / cm^3
# Si number density = 17.230291 Si / 1000 Ang^3
#
#
#
# Elastic Constant Matrix: (Units=GPa)
#
#
# Indices 1 2 3 4 5 6 
#
# 1 105.5484 41.6620 64.0895 0.0000 0.0000 0.0000
# 2 41.6620 84.4577 54.2397 0.0000 0.0000 0.0000
# 3 64.0895 54.2397 130.8517 0.0000 0.0000 0.0000
# 4 0.0000 0.0000 0.0000 25.5751 0.0000 0.0000
# 5 0.0000 0.0000 0.0000 0.0000 36.1672 0.0000
# 6 0.0000 0.0000 0.0000 0.0000 0.0000 20.8925
#
#
#
# Elastic Compliance Matrix: (Units=1/GPa)
#
#
# Indices 1 2 3 4 5 6 
#
# 1 0.014188 -0.003456 -0.005517 0.000000 0.000000 0.000000
# 2 -0.003456 0.016977 -0.005345 0.000000 0.000000 0.000000
# 3 -0.005517 -0.005345 0.012560 0.000000 0.000000 0.000000
# 4 0.000000 0.000000 0.000000 0.039101 0.000000 0.000000
# 5 0.000000 0.000000 0.000000 0.000000 0.027649 0.000000
# 6 0.000000 0.000000 0.000000 0.000000 0.000000 0.047864
#
#
# Mechanical properties :
#
#
# Convention : Reuss Voigt Hill
#
# Bulk Modulus (GPa) = 66.26611 71.20449 68.73530
# Shear Modulus (GPa) = 26.04112 27.25141 26.64627
#
# Velocity S-wave (km/s) = 3.89183 3.98125 3.93679
# Velocity P-wave (km/s) = 7.66405 7.90877 7.78737
#
# Compressibility (1/GPa) = 0.01509067
#
# Stress axis : x y z
#
# Youngs Moduli (GPa) = 70.48100 58.90164 79.62014
#
# Poissons Ratio (x) = 0.20357 0.43924
# Poissons Ratio (y) = 0.24359 0.42554
# Poissons Ratio (z) = 0.38882 0.31481
#
# Static dielectric constant tensor:
#      x y z
#    x 3.121480 0.000000 0.000000 
#    y 0.000000 3.011000 0.000000 
#    z 0.000000 0.000000 3.298910 
# 
# 
# High freq. dielectric constant tensor:
#      x y z
#    x 1.676090 0.000000 0.000000 
#    y 0.000000 1.629810 0.000000 
#    z 0.000000 0.000000 1.670310 
# 
# From -- ./inp_files/28364.got.cif
#   From: 2010.03.12/outbox.cif.g09.slc.cpg/sg51_15_cif.got.tgz:28364.got - 2010.04.16 13:43:02.
