data_PCOD8208082
_publ_section_title
;
Structure prediction by ZEFSAII (Michael W. Deem and Ramdas Pophale) SiO2 
 PCOD8208082
Probable space group: P M M A
;
_chemical_formula_sum "Si O2"
_cell_formula_units_Z 40
_cell_length_a 14.501992
_cell_length_b 9.216994
_cell_length_c 16.792256
_cell_angle_alpha 90.000000
_cell_angle_beta 90.000000
_cell_angle_gamma 90.000000
_cell_volume 2244.533091
_symmetry_space_group_name_H-M "P M M A"
_symmetry_group_IT_number 51
_symmetry_cell_setting 'orthorhombic'
loop_
_space_group_symop_operation_xyz
x,y,z
1/2-x,-y,z
1/2+x,-y,-z
-x,y,-z
-x,-y,-z
1/2+x,y,-z
1/2-x,y,z
x,-y,z
loop_
_atom_site_type_symbol
_atom_site_label
_atom_site_fract_x
_atom_site_fract_y
_atom_site_fract_z
Si Si1 0.997755 0.172241 0.875325
Si Si2 0.646947 0.172732 0.001586
Si Si3 0.358290 0.666997 0.584615
Si Si4 0.009057 0.829732 0.696512
Si Si5 0.644813 0.167118 0.571945
O O1 0.996107 0.232397 0.785592
O O2 0.090888 0.224802 0.920091
O O3 0.995189 0.000000 0.874197
O O4 0.907486 0.228421 0.923029
O O5 0.750000 0.239820 0.002864
O O6 0.652235 0.000000 0.000531
O O7 0.250000 0.687980 0.595891
O O8 0.387769 0.500000 0.583202
O O9 0.405459 0.746597 0.658268
O O10 0.391200 0.738204 0.501863
O O11 0.915439 0.795279 0.649003
O O12 0.031849 0.000000 0.696464
O O13 0.750000 0.205079 0.594050
O O14 0.633904 0.000000 0.546643
#
# Coordination Sequence:
#
# PCOD8208082 Si02
#       5
#     8   8   8   8   8
#     4   8  15  25  37  61  92 117 147 183 220 268
#     4   8  13  23  39  58  86 122 151 179 219 264
#     4  10  21  35  49  66  90 122 159 195 232 276
#     4  10  19  30  47  71  97 123 152 191 236 275
#     4   9  18  32  48  67  93 124 157 192 231 275
#
# _framework density 17.821078
#
# number of rings (size 3 to 8) (size 9 to 14) (size 15 to 20)
#    0.000    3.000    0.000    2.400    0.000    6.000 
#    0.000    6.000    0.000    0.000    0.000    2.800 
#    0.000    1.600    0.000    0.000    0.000    0.000 
#
# Total GULP energy -495915.520329 kJ/mol
# GULP energy per Si atom -12397.888008 kJ/mol
# Density = 1.778052 g / cm^3
# Si number density = 17.821078 Si / 1000 Ang^3
#
#
#
# Elastic Constant Matrix: (Units=GPa)
#
#
# Indices 1 2 3 4 5 6 
#
# 1 119.9432 29.5242 79.2343 0.0000 0.0000 0.0000
# 2 29.5242 40.2670 40.8134 0.0000 0.0000 0.0000
# 3 79.2343 40.8134 180.9385 0.0000 0.0000 0.0000
# 4 0.0000 0.0000 0.0000 0.1345 0.0000 0.0000
# 5 0.0000 0.0000 0.0000 0.0000 20.1429 0.0000
# 6 0.0000 0.0000 0.0000 0.0000 0.0000 16.0352
#
#
#
# Elastic Compliance Matrix: (Units=1/GPa)
#
#
# Indices 1 2 3 4 5 6 
#
# 1 0.012365 -0.004638 -0.004368 0.000000 0.000000 0.000000
# 2 -0.004638 0.033935 -0.005623 0.000000 0.000000 0.000000
# 3 -0.004368 -0.005623 0.008708 0.000000 0.000000 0.000000
# 4 0.000000 0.000000 0.000000 7.435044 0.000000 0.000000
# 5 0.000000 0.000000 0.000000 0.000000 0.049645 0.000000
# 6 0.000000 0.000000 0.000000 0.000000 0.000000 0.062363
#
#
# Mechanical properties :
#
#
# Convention : Reuss Voigt Hill
#
# Bulk Modulus (GPa) = 38.83866 71.14362 54.99114
# Shear Modulus (GPa) = 0.65446 20.03431 10.34439
#
# Velocity S-wave (km/s) = 0.60666 3.35653 2.41188
# Velocity P-wave (km/s) = 4.72564 7.41819 6.21937
#
# Compressibility (1/GPa) = 0.02574754
#
# Stress axis : x y z
#
# Youngs Moduli (GPa) = 80.87510 29.46831 114.83552
#
# Poissons Ratio (x) = 0.13668 0.50164
# Poissons Ratio (y) = 0.37513 0.64576
# Poissons Ratio (z) = 0.35329 0.16571
#
# Static dielectric constant tensor:
#      x y z
#    x 3.512330 0.000000 0.000000 
#    y 0.000000 2.887070 0.000000 
#    z 0.000000 0.000000 3.525040 
# 
# 
# High freq. dielectric constant tensor:
#      x y z
#    x 1.699290 0.000000 0.000000 
#    y 0.000000 1.639020 0.000000 
#    z 0.000000 0.000000 1.690930 
# 
# From -- ./inp_files/23686.got.cif
#   From: 2010.03.12/outbox.cif.g09.slc.cpg/sg51_12_cif.got.tgz:23686.got - 2010.04.16 13:43:02.
