data_PCOD8208442
_publ_section_title
;
Structure prediction by ZEFSAII (Michael W. Deem and Ramdas Pophale) SiO2 
 PCOD8208442
Probable space group: P M M A
;
_chemical_formula_sum "Si O2"
_cell_formula_units_Z 56
_cell_length_a 15.050226
_cell_length_b 9.137246
_cell_length_c 21.531778
_cell_angle_alpha 90.000000
_cell_angle_beta 90.000000
_cell_angle_gamma 90.000000
_cell_volume 2960.998807
_symmetry_space_group_name_H-M "P M M A"
_symmetry_group_IT_number 51
_symmetry_cell_setting 'orthorhombic'
loop_
_space_group_symop_operation_xyz
x,y,z
1/2-x,-y,z
1/2+x,-y,-z
-x,y,-z
-x,-y,-z
1/2+x,y,-z
1/2-x,y,z
x,-y,z
loop_
_atom_site_type_symbol
_atom_site_label
_atom_site_fract_x
_atom_site_fract_y
_atom_site_fract_z
Si Si1 0.355200 0.161107 0.491263
Si Si2 0.651851 0.173767 0.917801
Si Si3 0.351018 0.671932 0.610854
Si Si4 0.514478 0.174415 0.158145
Si Si5 0.849353 0.826593 0.055500
Si Si6 0.647454 0.827154 0.646671
Si Si7 0.508359 0.673875 0.286267
O O1 0.250000 0.151618 0.492228
O O2 0.389776 0.264956 0.546157
O O3 0.382761 0.219176 0.423060
O O4 0.395745 0.000000 0.502631
O O5 0.750000 0.231319 0.899110
O O6 0.582369 0.225460 0.865940
O O7 0.652075 0.000000 0.921177
O O8 0.625474 0.232589 0.986601
O O9 0.250000 0.727141 0.623971
O O10 0.352414 0.500000 0.603565
O O11 0.414770 0.724117 0.666126
O O12 0.584041 0.234031 0.107259
O O13 0.536699 0.257658 0.221098
O O14 0.520275 0.000000 0.168382
O O15 0.750000 0.775532 0.072947
O O16 0.856123 0.000000 0.054885
O O17 0.750000 0.784780 0.659129
O O18 0.586948 0.737935 0.694290
O O19 0.633890 0.000000 0.656585
O O20 0.501540 0.500000 0.281329
#
# Coordination Sequence:
#
# PCOD8208442 Si02
#       7
#     8   8   8   8   8   8   8
#     4   8  15  30  54  81 102 122 156 207 264 310
#     4   8  14  26  47  75 101 123 153 198 250 299
#     4   9  19  36  54  71  97 135 175 212 251 300
#     4  10  19  31  49  72  98 130 167 204 245 295
#     4   8  14  26  47  76 103 123 153 203 255 298
#     4   9  19  37  58  78 102 131 164 206 256 309
#     4  11  24  37  49  71 103 140 179 212 247 294
#
# _framework density 18.912537
#
# number of rings (size 3 to 8) (size 9 to 14) (size 15 to 20)
#    0.000    3.000    0.000    2.571    0.000    5.429 
#    0.000    5.714    0.000    1.714    0.000    2.000 
#    0.000    0.000    0.000    0.000    0.000    0.000 
#
# Total GULP energy -694114.897370 kJ/mol
# GULP energy per Si atom -12394.908882 kJ/mol
# Density = 1.886949 g / cm^3
# Si number density = 18.912537 Si / 1000 Ang^3
#
#
#
# Elastic Constant Matrix: (Units=GPa)
#
#
# Indices 1 2 3 4 5 6 
#
# 1 58.1690 13.6518 14.6903 0.0000 0.0000 0.0000
# 2 13.6518 26.9064 16.6527 0.0000 0.0000 0.0000
# 3 14.6903 16.6527 74.4324 0.0000 0.0000 0.0000
# 4 0.0000 0.0000 0.0000 -12.0253 0.0000 0.0000
# 5 0.0000 0.0000 0.0000 0.0000 28.6662 0.0000
# 6 0.0000 0.0000 0.0000 0.0000 0.0000 14.8710
#
#
#
# Elastic Compliance Matrix: (Units=1/GPa)
#
#
# Indices 1 2 3 4 5 6 
#
# 1 0.019749 -0.008831 -0.001922 0.000000 0.000000 0.000000
# 2 -0.008831 0.047088 -0.008792 0.000000 0.000000 0.000000
# 3 -0.001922 -0.008792 0.015781 0.000000 0.000000 0.000000
# 4 0.000000 0.000000 0.000000 -0.083158 0.000000 0.000000
# 5 0.000000 0.000000 0.000000 0.000000 0.034884 0.000000
# 6 0.000000 0.000000 0.000000 0.000000 0.000000 0.067245
#
#
# Mechanical properties :
#
#
# Convention : Reuss Voigt Hill
#
# Bulk Modulus (GPa) = 22.97333 27.72191 25.34762
# Shear Modulus (GPa) = 32.21885 13.93659 23.07772
#
# Velocity S-wave (km/s) = 4.13191 2.71753 3.49697
# Velocity P-wave (km/s) = 5.91076 4.95342 5.45314
#
# Compressibility (1/GPa) = 0.04352874
#
# Stress axis : x y z
#
# Youngs Moduli (GPa) = 50.63498 21.23689 63.36572
#
# Poissons Ratio (x) = 0.18754 0.12179
# Poissons Ratio (y) = 0.44714 0.55711
# Poissons Ratio (z) = 0.09733 0.18672
#
# Static dielectric constant tensor:
#      x y z
#    x 3.682670 0.000000 0.000000 
#    y 0.000000 3.091840 0.000000 
#    z 0.000000 0.000000 3.628850 
# 
# 
# High freq. dielectric constant tensor:
#      x y z
#    x 1.739290 0.000000 0.000000 
#    y 0.000000 1.688790 0.000000 
#    z 0.000000 0.000000 1.738560 
# 
# From -- ./inp_files/33314.got.cif
#   From: 2010.03.12/outbox.cif.g09.slc.cpg/sg51_17_cif.got.tgz:33314.got - 2010.04.16 13:43:02.
