data_PCOD8208241
_publ_section_title
;
Structure prediction by ZEFSAII (Michael W. Deem and Ramdas Pophale) SiO2 
 PCOD8208241
Probable space group: P M M A
;
_chemical_formula_sum "Si O2"
_cell_formula_units_Z 64
_cell_length_a 9.154995
_cell_length_b 14.658894
_cell_length_c 28.092281
_cell_angle_alpha 90.000000
_cell_angle_beta 90.000000
_cell_angle_gamma 90.000000
_cell_volume 3770.043140
_symmetry_space_group_name_H-M "P M M A"
_symmetry_group_IT_number 51
_symmetry_cell_setting 'orthorhombic'
loop_
_space_group_symop_operation_xyz
x,y,z
1/2-x,-y,z
1/2+x,-y,-z
-x,y,-z
-x,-y,-z
1/2+x,y,-z
1/2-x,y,z
x,-y,z
loop_
_atom_site_type_symbol
_atom_site_label
_atom_site_fract_x
_atom_site_fract_y
_atom_site_fract_z
Si Si1 0.917416 0.099238 0.773258
Si Si2 0.576558 0.787423 0.951513
Si Si3 0.085761 0.391545 0.545488
Si Si4 0.084165 0.598499 0.091149
Si Si5 0.588056 0.351888 0.178337
Si Si6 0.578785 0.709684 0.733348
Si Si7 0.420611 0.604989 0.360369
Si Si8 0.586479 0.151052 0.137642
O O1 0.750000 0.116022 0.788284
O O2 0.966252 0.182914 0.738808
O O3 0.010715 0.091694 0.821499
O O4 0.935470 0.000000 0.747352
O O5 0.750000 0.801323 0.955107
O O6 0.531683 0.681280 0.942393
O O7 0.511666 0.851464 0.909989
O O8 0.500000 0.818449 0.000000
O O9 0.250000 0.352624 0.545094
O O10 0.086603 0.500000 0.542746
O O11 0.000000 0.351166 0.500000
O O12 0.006559 0.359621 0.593545
O O13 0.250000 0.619268 0.106432
O O14 0.070852 0.500000 0.064405
O O15 0.992926 0.587026 0.139504
O O16 0.750000 0.391119 0.187425
O O17 0.501485 0.352448 0.227807
O O18 0.595499 0.252002 0.157126
O O19 0.750000 0.695531 0.740826
O O20 0.530335 0.672055 0.682093
O O21 0.250000 0.613920 0.371537
O O22 0.460112 0.500000 0.347649
O O23 0.750000 0.113758 0.126875
#
# Coordination Sequence:
#
# PCOD8208241 Si02
#       8
#     8   8   8   8   8   8   8   8
#     4   9  17  30  49  71  93 118 148 181 218 262
#     4  10  19  31  47  65  85 110 140 174 215 262
#     4   9  16  26  41  60  83 114 153 195 234 269
#     4   9  18  31  44  58  79 109 144 179 215 258
#     4   9  17  28  42  60  81 107 140 178 217 255
#     4   9  17  29  44  63  90 122 152 183 221 266
#     4   9  17  28  41  59  86 121 158 191 223 261
#     4   9  17  30  47  66  87 110 138 171 208 254
#
# _framework density 16.975933000000001
#
# number of rings (size 3 to 8) (size 9 to 14) (size 15 to 20)
#    0.000    2.875    0.000    1.500    0.000    6.750 
#    0.000    1.250    0.000    0.375    0.000    0.000 
#    0.000    0.500    0.000    0.875    0.000    1.250 
#
# Total GULP energy -793211.029940 kJ/mol
# GULP energy per Si atom -12393.922343 kJ/mol
# Density = 1.693729 g / cm^3
# Si number density = 16.975933 Si / 1000 Ang^3
#
#
#
# Elastic Constant Matrix: (Units=GPa)
#
#
# Indices 1 2 3 4 5 6 
#
# 1 83.1898 14.7861 54.2515 0.0000 0.0000 0.0000
# 2 14.7861 52.0824 27.6317 0.0000 0.0000 0.0000
# 3 54.2515 27.6317 123.9051 0.0000 0.0000 0.0000
# 4 0.0000 0.0000 0.0000 13.4845 0.0000 0.0000
# 5 0.0000 0.0000 0.0000 0.0000 29.5754 0.0000
# 6 0.0000 0.0000 0.0000 0.0000 0.0000 7.7432
#
#
#
# Elastic Compliance Matrix: (Units=1/GPa)
#
#
# Indices 1 2 3 4 5 6 
#
# 1 0.016869 -0.000987 -0.007166 0.000000 0.000000 0.000000
# 2 -0.000987 0.021835 -0.004437 0.000000 0.000000 0.000000
# 3 -0.007166 -0.004437 0.012198 0.000000 0.000000 0.000000
# 4 0.000000 0.000000 0.000000 0.074159 0.000000 0.000000
# 5 0.000000 0.000000 0.000000 0.000000 0.033812 0.000000
# 6 0.000000 0.000000 0.000000 0.000000 0.000000 0.129145
#
#
# Mechanical properties :
#
#
# Convention : Reuss Voigt Hill
#
# Bulk Modulus (GPa) = 38.87849 50.27954 44.57902
# Shear Modulus (GPa) = 15.53892 20.99450 18.26671
#
# Velocity S-wave (km/s) = 3.02876 3.52052 3.28386
# Velocity P-wave (km/s) = 5.93153 6.79764 6.37930
#
# Compressibility (1/GPa) = 0.02572116
#
# Stress axis : x y z
#
# Youngs Moduli (GPa) = 59.27860 45.79882 81.98186
#
# Poissons Ratio (x) = 0.04522 0.58749
# Poissons Ratio (y) = 0.05853 0.36375
# Poissons Ratio (z) = 0.42480 0.20321
#
# Static dielectric constant tensor:
#      x y z
#    x 3.384880 0.000000 0.000000 
#    y 0.000000 2.979210 0.000000 
#    z 0.000000 0.000000 3.073660 
# 
# 
# High freq. dielectric constant tensor:
#      x y z
#    x 1.663550 0.000000 0.000000 
#    y 0.000000 1.623360 0.000000 
#    z 0.000000 0.000000 1.632570 
# 
# From -- ./inp_files/35156.got.cif
#   From: 2010.03.12/outbox.cif.g09.slc.cpg/sg51_18_cif.got.tgz:35156.got - 2010.04.16 13:43:02.
