data_PCOD8208637
_publ_section_title
;
Structure prediction by ZEFSAII (Michael W. Deem and Ramdas Pophale) SiO2 
 PCOD8208637
Probable space group: P M M A
;
_chemical_formula_sum "Si O2"
_cell_formula_units_Z 56
_cell_length_a 8.880757
_cell_length_b 14.394173
_cell_length_c 23.207844
_cell_angle_alpha 90.000000
_cell_angle_beta 90.000000
_cell_angle_gamma 90.000000
_cell_volume 2966.685449
_symmetry_space_group_name_H-M "P M M A"
_symmetry_group_IT_number 51
_symmetry_cell_setting 'orthorhombic'
loop_
_space_group_symop_operation_xyz
x,y,z
1/2-x,-y,z
1/2+x,-y,-z
-x,y,-z
-x,-y,-z
1/2+x,y,-z
1/2-x,y,z
x,-y,z
loop_
_atom_site_type_symbol
_atom_site_label
_atom_site_fract_x
_atom_site_fract_y
_atom_site_fract_z
Si Si1 0.924187 0.215709 0.839964
Si Si2 0.923722 0.395547 0.776945
Si Si3 0.923072 0.391522 0.341870
Si Si4 0.073155 0.894730 0.940034
Si Si5 0.926170 0.893645 0.390718
Si Si6 0.072447 0.723421 0.441802
Si Si7 0.921745 0.107117 0.726864
O O1 0.750000 0.195347 0.853764
O O2 0.955564 0.325565 0.830102
O O3 0.975125 0.164597 0.781827
O O4 0.022664 0.178422 0.892171
O O5 0.750000 0.387853 0.757789
O O6 0.963643 0.500000 0.797663
O O7 0.022536 0.366024 0.722163
O O8 0.750000 0.361200 0.348314
O O9 0.945696 0.500000 0.353640
O O10 0.022236 0.337151 0.387722
O O11 0.250000 0.888296 0.947414
O O12 0.023385 0.000000 0.923337
O O13 0.000000 0.864363 0.000000
O O14 0.750000 0.876806 0.398916
O O15 0.016853 0.829598 0.434997
O O16 0.970912 0.865329 0.325826
O O17 0.972231 0.000000 0.403102
O O18 0.250000 0.720538 0.447683
O O19 0.000000 0.681753 0.500000
O O20 0.750000 0.131405 0.709528
O O21 0.939136 0.000000 0.743413
#
# Coordination Sequence:
#
# PCOD8208637 Si02
#       7
#     8   8   8   8   8   8   8
#     4  10  19  31  51  78 108 143 180 219 261 305
#     4   9  18  33  54  82 114 146 179 215 260 314
#     4  10  21  38  60  85 112 140 172 215 268 323
#     4  10  21  36  54  77 107 143 181 221 265 314
#     4  10  21  37  56  78 106 139 175 218 267 318
#     4  12  25  40  58  78 103 136 176 221 266 318
#     4   9  17  29  47  74 106 138 173 213 260 315
#
# _framework density 18.876286
#
# number of rings (size 3 to 8) (size 9 to 14) (size 15 to 20)
#    0.000    2.000    0.000    3.857    0.000    6.000 
#    0.000    1.429    0.000    0.429    0.000    0.000 
#    0.000    0.000    0.000    0.000    0.000    0.000 
#
# Total GULP energy -694583.499407 kJ/mol
# GULP energy per Si atom -12403.276775 kJ/mol
# Density = 1.883332 g / cm^3
# Si number density = 18.876286 Si / 1000 Ang^3
#
#
#
# Elastic Constant Matrix: (Units=GPa)
#
#
# Indices 1 2 3 4 5 6 
#
# 1 103.3442 36.9797 46.0087 0.0000 0.0000 0.0000
# 2 36.9797 82.3382 53.0543 0.0000 0.0000 0.0000
# 3 46.0087 53.0543 84.4029 0.0000 0.0000 0.0000
# 4 0.0000 0.0000 0.0000 23.8563 0.0000 0.0000
# 5 0.0000 0.0000 0.0000 0.0000 35.9005 0.0000
# 6 0.0000 0.0000 0.0000 0.0000 0.0000 25.6310
#
#
#
# Elastic Compliance Matrix: (Units=1/GPa)
#
#
# Indices 1 2 3 4 5 6 
#
# 1 0.012997 -0.002138 -0.005741 0.000000 0.000000 0.000000
# 2 -0.002138 0.020764 -0.011887 0.000000 0.000000 0.000000
# 3 -0.005741 -0.011887 0.022449 0.000000 0.000000 0.000000
# 4 0.000000 0.000000 0.000000 0.041918 0.000000 0.000000
# 5 0.000000 0.000000 0.000000 0.000000 0.027855 0.000000
# 6 0.000000 0.000000 0.000000 0.000000 0.000000 0.039015
#
#
# Mechanical properties :
#
#
# Convention : Reuss Voigt Hill
#
# Bulk Modulus (GPa) = 59.95433 60.24119 60.09776
# Shear Modulus (GPa) = 23.79933 26.01373 24.90653
#
# Velocity S-wave (km/s) = 3.55463 3.71633 3.63638
# Velocity P-wave (km/s) = 6.97696 7.09914 7.03831
#
# Compressibility (1/GPa) = 0.01667936
#
# Stress axis : x y z
#
# Youngs Moduli (GPa) = 76.93862 48.15923 44.54522
#
# Poissons Ratio (x) = 0.10298 0.25573
# Poissons Ratio (y) = 0.16451 0.52949
# Poissons Ratio (z) = 0.44170 0.57245
#
# Static dielectric constant tensor:
#      x y z
#    x 3.492570 0.000000 0.000000 
#    y 0.000000 3.665040 0.000000 
#    z 0.000000 0.000000 3.308910 
# 
# 
# High freq. dielectric constant tensor:
#      x y z
#    x 1.736710 0.000000 0.000000 
#    y 0.000000 1.738600 0.000000 
#    z 0.000000 0.000000 1.715440 
# 
# From -- ./inp_files/31891.got.cif
#   From: 2010.03.12/outbox.cif.g09.slc.cpg/sg51_16_cif.got.tgz:31891.got - 2010.04.16 13:43:02.
