data_PCOD8208571
_publ_section_title
;
Structure prediction by ZEFSAII (Michael W. Deem and Ramdas Pophale) SiO2 
 PCOD8208571
Probable space group: P M M A
;
_chemical_formula_sum "Si O2"
_cell_formula_units_Z 48
_cell_length_a 8.753653
_cell_length_b 15.375871
_cell_length_c 19.805495
_cell_angle_alpha 90.000000
_cell_angle_beta 90.000000
_cell_angle_gamma 90.000000
_cell_volume 2665.721378
_symmetry_space_group_name_H-M "P M M A"
_symmetry_group_IT_number 51
_symmetry_cell_setting 'orthorhombic'
loop_
_space_group_symop_operation_xyz
x,y,z
1/2-x,-y,z
1/2+x,-y,-z
-x,y,-z
-x,-y,-z
1/2+x,y,-z
1/2-x,y,z
x,-y,z
loop_
_atom_site_type_symbol
_atom_site_label
_atom_site_fract_x
_atom_site_fract_y
_atom_site_fract_z
Si Si1 0.430083 0.733744 0.074148
Si Si2 0.427253 0.601542 0.825479
Si Si3 0.568971 0.720031 0.425622
Si Si4 0.071362 0.091618 0.572803
Si Si5 0.428978 0.905684 0.926403
Si Si6 0.425857 0.398409 0.314261
O O1 0.250000 0.737803 0.068170
O O2 0.477597 0.651599 0.118217
O O3 0.491347 0.823187 0.110116
O O4 0.500000 0.722929 0.000000
O O5 0.250000 0.624186 0.833200
O O6 0.460522 0.500000 0.836344
O O7 0.481954 0.631645 0.751761
O O8 0.500000 0.710124 0.500000
O O9 0.750000 0.705047 0.428855
O O10 0.526178 0.815863 0.393408
O O11 0.493196 0.648426 0.379096
O O12 0.250000 0.092629 0.561767
O O13 0.000000 0.089192 0.500000
O O14 0.024401 0.000000 0.611362
O O15 0.250000 0.886909 0.931880
O O16 0.458403 0.000000 0.890128
O O17 0.500000 0.910897 0.000000
O O18 0.250000 0.373114 0.303802
O O19 0.447115 0.500000 0.327388
#
# Coordination Sequence:
#
# PCOD8208571 Si02
#       6
#     8   8   8   8   8   8
#     4  11  21  33  52  78 108 138 170 211 254 298
#     4  10  21  38  58  77  99 130 168 209 255 309
#     4  10  19  31  50  76 104 133 166 207 251 294
#     4   8  14  25  42  66  96 128 161 197 239 287
#     4   9  16  27  45  70 101 135 170 208 250 297
#     4  10  21  37  55  74  98 130 167 206 251 305
#
# _framework density 18.006381999999999
#
# number of rings (size 3 to 8) (size 9 to 14) (size 15 to 20)
#    0.000    2.333    0.000    4.500    0.000    4.333 
#    0.000    0.000    0.000    1.000    0.000    2.333 
#    0.000    0.000    0.000    0.000    0.000    0.000 
#
# Total GULP energy -594650.829364 kJ/mol
# GULP energy per Si atom -12388.558945 kJ/mol
# Density = 1.796540 g / cm^3
# Si number density = 18.006382 Si / 1000 Ang^3
#
#
#
# Elastic Constant Matrix: (Units=GPa)
#
#
# Indices 1 2 3 4 5 6 
#
# 1 105.1464 57.5364 33.3320 0.0000 0.0000 0.0000
# 2 57.5364 98.5833 52.7553 0.0000 0.0000 0.0000
# 3 33.3320 52.7553 64.2426 0.0000 0.0000 0.0000
# 4 0.0000 0.0000 0.0000 0.5512 0.0000 0.0000
# 5 0.0000 0.0000 0.0000 0.0000 27.0141 0.0000
# 6 0.0000 0.0000 0.0000 0.0000 0.0000 27.2760
#
#
#
# Elastic Compliance Matrix: (Units=1/GPa)
#
#
# Indices 1 2 3 4 5 6 
#
# 1 0.014008 -0.007646 -0.000989 0.000000 0.000000 0.000000
# 2 -0.007646 0.022270 -0.014320 0.000000 0.000000 0.000000
# 3 -0.000989 -0.014320 0.027839 0.000000 0.000000 0.000000
# 4 0.000000 0.000000 0.000000 1.814208 0.000000 0.000000
# 5 0.000000 0.000000 0.000000 0.000000 0.037018 0.000000
# 6 0.000000 0.000000 0.000000 0.000000 0.000000 0.036662
#
#
# Mechanical properties :
#
#
# Convention : Reuss Voigt Hill
#
# Bulk Modulus (GPa) = 54.92899 61.69110 58.31004
# Shear Modulus (GPa) = 2.49503 19.25816 10.87659
#
# Velocity S-wave (km/s) = 1.17841 3.27390 2.46039
# Velocity P-wave (km/s) = 5.69412 6.97325 6.36590
#
# Compressibility (1/GPa) = 0.01820532
#
# Stress axis : x y z
#
# Youngs Moduli (GPa) = 71.38677 44.90407 35.92113
#
# Poissons Ratio (x) = 0.34336 0.03552
# Poissons Ratio (y) = 0.54585 0.51440
# Poissons Ratio (z) = 0.07060 0.64304
#
# Static dielectric constant tensor:
#      x y z
#    x 3.559880 0.000000 0.000000 
#    y 0.000000 4.208190 0.000000 
#    z 0.000000 0.000000 2.885130 
# 
# 
# High freq. dielectric constant tensor:
#      x y z
#    x 1.714960 0.000000 0.000000 
#    y 0.000000 1.722990 0.000000 
#    z 0.000000 0.000000 1.643930 
# 
# From -- ./inp_files/27590.got.cif
#   From: 2010.03.12/outbox.cif.g09.slc.cpg/sg51_14_cif.got.tgz:27590.got - 2010.04.16 13:43:02.
