data_PCOD8208000
_publ_section_title
;
Structure prediction by ZEFSAII (Michael W. Deem and Ramdas Pophale) SiO2 
 PCOD8208000
Probable space group: P M M A
;
_chemical_formula_sum "Si O2"
_cell_formula_units_Z 40
_cell_length_a 9.849902
_cell_length_b 19.461135
_cell_length_c 13.250116
_cell_angle_alpha 90.000000
_cell_angle_beta 90.000000
_cell_angle_gamma 90.000000
_cell_volume 2539.918347
_symmetry_space_group_name_H-M "P M M A"
_symmetry_group_IT_number 51
_symmetry_cell_setting 'orthorhombic'
loop_
_space_group_symop_operation_xyz
x,y,z
1/2-x,-y,z
1/2+x,-y,-z
-x,y,-z
-x,-y,-z
1/2+x,y,-z
1/2-x,y,z
x,-y,z
loop_
_atom_site_type_symbol
_atom_site_label
_atom_site_fract_x
_atom_site_fract_y
_atom_site_fract_z
Si Si1 0.750000 0.420097 0.160423
Si Si2 0.403358 0.072665 0.094156
Si Si3 0.402103 0.578069 0.412105
Si Si4 0.750000 0.578695 0.923550
Si Si5 0.409915 0.777703 0.101331
Si Si6 0.028333 0.645492 0.208880
O O1 0.750000 0.500000 0.189936
O O2 0.622489 0.383149 0.209618
O O3 0.750000 0.409241 0.041707
O O4 0.250000 0.074588 0.052743
O O5 0.429862 0.145493 0.150144
O O6 0.424844 0.000000 0.156959
O O7 0.500000 0.069854 0.000000
O O8 0.500000 0.605366 0.500000
O O9 0.250000 0.579888 0.455435
O O10 0.441813 0.500000 0.379869
O O11 0.408110 0.628750 0.317040
O O12 0.750000 0.500000 0.891991
O O13 0.886739 0.610887 0.880595
O O14 0.250000 0.762692 0.077269
O O15 0.465808 0.727010 0.187923
O O16 0.500000 0.768694 0.000000
#
# Coordination Sequence:
#
# PCOD8208000 Si02
#       6
#     4   8   8   4   8   8
#     4  11  24  34  47  69  94 126 163 194 227 283
#     4   8  14  25  41  62  89 122 158 190 219 261
#     4  10  21  37  55  71  88 114 153 201 250 293
#     4  11  20  34  49  65  92 126 159 188 229 279
#     4  10  19  30  46  68  96 129 159 190 232 280
#     4  12  22  34  50  69  94 124 156 201 243 282
#
# _framework density 15.748537000000001
#
# number of rings (size 3 to 8) (size 9 to 14) (size 15 to 20)
#    0.000    1.800    2.000    3.600    2.800    1.600 
#    0.000    0.000    0.000    0.000    0.000    0.000 
#    0.000    0.800    0.000    0.400    0.000    0.800 
#
# Total GULP energy -495618.016312 kJ/mol
# GULP energy per Si atom -12390.450408 kJ/mol
# Density = 1.571269 g / cm^3
# Si number density = 15.748537 Si / 1000 Ang^3
#
#
#
# Elastic Constant Matrix: (Units=GPa)
#
#
# Indices 1 2 3 4 5 6 
#
# 1 91.3110 27.9361 17.4948 0.0000 0.0000 0.0000
# 2 27.9361 121.8412 44.5311 0.0000 0.0000 0.0000
# 3 17.4948 44.5311 40.4169 0.0000 0.0000 0.0000
# 4 0.0000 0.0000 0.0000 11.2639 0.0000 0.0000
# 5 0.0000 0.0000 0.0000 0.0000 19.9623 0.0000
# 6 0.0000 0.0000 0.0000 0.0000 0.0000 17.8908
#
#
#
# Elastic Compliance Matrix: (Units=1/GPa)
#
#
# Indices 1 2 3 4 5 6 
#
# 1 0.012091 -0.001439 -0.003648 0.000000 0.000000 0.000000
# 2 -0.001439 0.013912 -0.014705 0.000000 0.000000 0.000000
# 3 -0.003648 -0.014705 0.042523 0.000000 0.000000 0.000000
# 4 0.000000 0.000000 0.000000 0.088779 0.000000 0.000000
# 5 0.000000 0.000000 0.000000 0.000000 0.050094 0.000000
# 6 0.000000 0.000000 0.000000 0.000000 0.000000 0.055895
#
#
# Mechanical properties :
#
#
# Convention : Reuss Voigt Hill
#
# Bulk Modulus (GPa) = 34.55256 48.16591 41.35923
# Shear Modulus (GPa) = 15.99867 20.73054 18.36461
#
# Velocity S-wave (km/s) = 3.19075 3.63209 3.41855
# Velocity P-wave (km/s) = 5.96341 6.94551 6.47312
#
# Compressibility (1/GPa) = 0.02894141
#
# Stress axis : x y z
#
# Youngs Moduli (GPa) = 82.70763 71.88130 23.51646
#
# Poissons Ratio (x) = 0.10342 0.08580
# Poissons Ratio (y) = 0.11900 0.34581
# Poissons Ratio (z) = 0.30174 1.05703
#
# Static dielectric constant tensor:
#      x y z
#    x 3.116130 0.000000 0.000000 
#    y 0.000000 3.669850 0.000000 
#    z 0.000000 0.000000 2.576860 
# 
# 
# High freq. dielectric constant tensor:
#      x y z
#    x 1.627480 0.000000 0.000000 
#    y 0.000000 1.611720 0.000000 
#    z 0.000000 0.000000 1.546250 
# 
# From -- ./inp_files/14258.got.cif
#   From: 2010.03.12/outbox.cif.g09.slc.cpg/sg51_8_cif.got.tgz:14258.got - 2010.04.16 13:43:02.
