data_PCOD8208879
_publ_section_title
;
Structure prediction by ZEFSAII (Michael W. Deem and Ramdas Pophale) SiO2 
 PCOD8208879
Probable space group: P M M A
;
_chemical_formula_sum "Si O2"
_cell_formula_units_Z 44
_cell_length_a 8.950111
_cell_length_b 28.748864
_cell_length_c 9.304626
_cell_angle_alpha 90.000000
_cell_angle_beta 90.000000
_cell_angle_gamma 90.000000
_cell_volume 2394.131668
_symmetry_space_group_name_H-M "P M M A"
_symmetry_group_IT_number 51
_symmetry_cell_setting 'orthorhombic'
loop_
_space_group_symop_operation_xyz
x,y,z
1/2-x,-y,z
1/2+x,-y,-z
-x,y,-z
-x,-y,-z
1/2+x,y,-z
1/2-x,y,z
x,-y,z
loop_
_atom_site_type_symbol
_atom_site_label
_atom_site_fract_x
_atom_site_fract_y
_atom_site_fract_z
Si Si1 0.927076 0.675140 0.156452
Si Si2 0.074328 0.412808 0.655125
Si Si3 0.424772 0.765536 0.153999
Si Si4 0.575692 0.948475 0.651346
Si Si5 0.573374 0.500000 0.155970
Si Si6 0.423797 0.867107 0.151963
O O1 0.750000 0.678618 0.137603
O O2 0.973812 0.633982 0.262988
O O3 0.991891 0.722410 0.231789
O O4 0.000000 0.666865 0.000000
O O5 0.250000 0.415289 0.630751
O O6 0.019335 0.455269 0.754288
O O7 0.000000 0.415323 0.500000
O O8 0.250000 0.753986 0.139891
O O9 0.450028 0.816295 0.227532
O O10 0.500000 0.768905 0.000000
O O11 0.500000 0.942792 0.500000
O O12 0.750000 0.940373 0.628736
O O13 0.507339 0.908466 0.752555
O O14 0.543388 0.000000 0.716165
O O15 0.750000 0.500000 0.133209
O O16 0.500000 0.500000 0.000000
O O17 0.250000 0.875577 0.126093
O O18 0.500000 0.869651 0.000000
#
# Coordination Sequence:
#
# PCOD8208879 Si02
#       6
#     8   8   8   8   4   8
#     4  10  19  32  51  76 101 129 167 206 242 287
#     4  10  22  37  54  77 106 136 168 205 247 294
#     4   9  16  28  47  70  97 129 162 199 243 288
#     4   9  18  33  50  68  93 125 160 198 240 289
#     4  10  21  38  58  82 106 132 169 208 246 294
#     4   9  18  31  48  72  99 125 158 200 244 290
#
# _framework density 18.378270000000001
#
# number of rings (size 3 to 8) (size 9 to 14) (size 15 to 20)
#    0.000    2.545    0.000    3.000    0.000    4.000 
#    0.000    0.909    0.000    4.364    0.000    0.000 
#    0.000    0.000    0.000    0.000    0.000    0.000 
#
# Total GULP energy -545279.489620 kJ/mol
# GULP energy per Si atom -12392.715673 kJ/mol
# Density = 1.833644 g / cm^3
# Si number density = 18.378270 Si / 1000 Ang^3
#
#
#
# Elastic Constant Matrix: (Units=GPa)
#
#
# Indices 1 2 3 4 5 6 
#
# 1 58.3837 53.2279 36.8356 0.0000 0.0000 0.0000
# 2 53.2279 201.6423 83.1902 0.0000 0.0000 0.0000
# 3 36.8356 83.1902 98.0208 0.0000 0.0000 0.0000
# 4 0.0000 0.0000 0.0000 13.6333 0.0000 0.0000
# 5 0.0000 0.0000 0.0000 0.0000 27.3996 0.0000
# 6 0.0000 0.0000 0.0000 0.0000 0.0000 26.2486
#
#
#
# Elastic Compliance Matrix: (Units=1/GPa)
#
#
# Indices 1 2 3 4 5 6 
#
# 1 0.024474 -0.004103 -0.005715 0.000000 0.000000 0.000000
# 2 -0.004103 0.008319 -0.005519 0.000000 0.000000 0.000000
# 3 -0.005715 -0.005519 0.017033 0.000000 0.000000 0.000000
# 4 0.000000 0.000000 0.000000 0.073350 0.000000 0.000000
# 5 0.000000 0.000000 0.000000 0.000000 0.036497 0.000000
# 6 0.000000 0.000000 0.000000 0.000000 0.000000 0.038097
#
#
# Mechanical properties :
#
#
# Convention : Reuss Voigt Hill
#
# Bulk Modulus (GPa) = 52.20988 78.28381 65.24684
# Shear Modulus (GPa) = 21.29214 25.77584 23.53399
#
# Velocity S-wave (km/s) = 3.40744 3.74908 3.58234
# Velocity P-wave (km/s) = 6.62956 7.83767 7.25879
#
# Compressibility (1/GPa) = 0.01915346
#
# Stress axis : x y z
#
# Youngs Moduli (GPa) = 40.85907 120.20647 58.70814
#
# Poissons Ratio (x) = 0.49315 0.33555
# Poissons Ratio (y) = 0.16763 0.32399
# Poissons Ratio (z) = 0.23353 0.66338
#
# Static dielectric constant tensor:
#      x y z
#    x 3.355280 0.000000 0.000000 
#    y 0.000000 4.338460 0.000000 
#    z 0.000000 0.000000 3.019750 
# 
# 
# High freq. dielectric constant tensor:
#      x y z
#    x 1.712490 0.000000 0.000000 
#    y 0.000000 1.742380 0.000000 
#    z 0.000000 0.000000 1.678490 
# 
# From -- ./inp_files/5746.got.cif
#   From: 2010.03.12/outbox.cif.g09.slc.cpg/sg51_3_cif.got.tgz:5746.got - 2010.04.16 13:43:02.
