data_PCOD8208535
_publ_section_title
;
Structure prediction by ZEFSAII (Michael W. Deem and Ramdas Pophale) SiO2 
 PCOD8208535
Probable space group: P M M A
;
_chemical_formula_sum "Si O2"
_cell_formula_units_Z 64
_cell_length_a 14.482192
_cell_length_b 9.122270
_cell_length_c 27.407989
_cell_angle_alpha 90.000000
_cell_angle_beta 90.000000
_cell_angle_gamma 90.000000
_cell_volume 3620.882188
_symmetry_space_group_name_H-M "P M M A"
_symmetry_group_IT_number 51
_symmetry_cell_setting 'orthorhombic'
loop_
_space_group_symop_operation_xyz
x,y,z
1/2-x,-y,z
1/2+x,-y,-z
-x,y,-z
-x,-y,-z
1/2+x,y,-z
1/2-x,y,z
x,-y,z
loop_
_atom_site_type_symbol
_atom_site_label
_atom_site_fract_x
_atom_site_fract_y
_atom_site_fract_z
Si Si1 0.027993 0.173205 0.387039
Si Si2 0.957979 0.172933 0.887849
Si Si3 0.143970 0.668553 0.307536
Si Si4 0.643497 0.667347 0.533245
Si Si5 0.602005 0.336799 0.979607
Si Si6 0.355550 0.668932 0.194695
Si Si7 0.645348 0.329478 0.420298
Si Si8 0.650314 0.832911 0.070544
O O1 0.078057 0.227809 0.338449
O O2 0.081704 0.225343 0.434997
O O3 0.923753 0.234691 0.387445
O O4 0.024523 0.000000 0.386420
O O5 0.894430 0.245511 0.929527
O O6 0.925695 0.231469 0.835686
O O7 0.065836 0.219514 0.895119
O O8 0.944271 0.000000 0.889874
O O9 0.250000 0.709564 0.318556
O O10 0.126064 0.500000 0.322041
O O11 0.120953 0.695042 0.251100
O O12 0.750000 0.690858 0.547333
O O13 0.614226 0.500000 0.544226
O O14 0.626458 0.704946 0.476950
O O15 0.640913 0.500000 0.969564
O O16 0.500000 0.344193 0.000000
O O17 0.661894 0.258395 0.020875
O O18 0.250000 0.714914 0.183875
O O19 0.370867 0.500000 0.180559
O O20 0.750000 0.285362 0.406566
O O21 0.628770 0.500000 0.409648
O O22 0.750000 0.818012 0.097994
O O23 0.630603 0.000000 0.055098
#
# Coordination Sequence:
#
# PCOD8208535 Si02
#       8
#     8   8   8   8   8   8   8   8
#     4  12  23  31  47  77 108 135 162 199 252 305
#     4  10  19  31  50  74  99 129 163 198 242 297
#     4   9  19  37  58  76  96 126 164 204 246 295
#     4   9  18  33  52  73  99 134 175 212 243 284
#     4   9  17  29  45  66  93 125 162 203 241 276
#     4   9  19  36  56  76  97 123 158 202 249 291
#     4   9  19  36  55  72  94 132 179 216 243 281
#     4   9  18  32  48  68  98 134 168 200 235 279
#
# _framework density 17.675249999999998
#
# number of rings (size 3 to 8) (size 9 to 14) (size 15 to 20)
#    0.000    2.500    0.000    4.125    0.000    7.750 
#    0.000    2.500    0.000    0.750    0.000    3.500 
#    0.000    0.000    0.000    0.000    0.000    0.000 
#
# Total GULP energy -793514.122723 kJ/mol
# GULP energy per Si atom -12398.658168 kJ/mol
# Density = 1.763502 g / cm^3
# Si number density = 17.675250 Si / 1000 Ang^3
#
#
#
# Elastic Constant Matrix: (Units=GPa)
#
#
# Indices 1 2 3 4 5 6 
#
# 1 111.1472 59.7783 56.7962 0.0000 0.0000 0.0000
# 2 59.7783 107.8215 52.3918 0.0000 0.0000 0.0000
# 3 56.7962 52.3918 78.5452 0.0000 0.0000 0.0000
# 4 0.0000 0.0000 0.0000 17.5153 0.0000 0.0000
# 5 0.0000 0.0000 0.0000 0.0000 26.1502 0.0000
# 6 0.0000 0.0000 0.0000 0.0000 0.0000 16.1374
#
#
#
# Elastic Compliance Matrix: (Units=1/GPa)
#
#
# Indices 1 2 3 4 5 6 
#
# 1 0.015748 -0.004731 -0.008232 0.000000 0.000000 0.000000
# 2 -0.004731 0.015144 -0.006680 0.000000 0.000000 0.000000
# 3 -0.008232 -0.006680 0.023140 0.000000 0.000000 0.000000
# 4 0.000000 0.000000 0.000000 0.057093 0.000000 0.000000
# 5 0.000000 0.000000 0.000000 0.000000 0.038241 0.000000
# 6 0.000000 0.000000 0.000000 0.000000 0.000000 0.061968
#
#
# Mechanical properties :
#
#
# Convention : Reuss Voigt Hill
#
# Bulk Modulus (GPa) = 67.81722 70.60516 69.21119
# Shear Modulus (GPa) = 19.56693 20.53043 20.04868
#
# Velocity S-wave (km/s) = 3.33081 3.41183 3.37156
# Velocity P-wave (km/s) = 7.29686 7.45341 7.37555
#
# Compressibility (1/GPa) = 0.01474552
#
# Stress axis : x y z
#
# Youngs Moduli (GPa) = 63.50034 66.03476 43.21604
#
# Poissons Ratio (x) = 0.31242 0.35574
# Poissons Ratio (y) = 0.30043 0.28869
# Poissons Ratio (z) = 0.52271 0.44112
#
# Static dielectric constant tensor:
#      x y z
#    x 3.343280 0.000000 0.000000 
#    y 0.000000 3.252540 0.000000 
#    z 0.000000 0.000000 3.080750 
# 
# 
# High freq. dielectric constant tensor:
#      x y z
#    x 1.686120 0.000000 0.000000 
#    y 0.000000 1.680700 0.000000 
#    z 0.000000 0.000000 1.660040 
# 
# From -- ./inp_files/37829.got.cif
#   From: 2010.03.12/outbox.cif.g09.slc.cpg/sg51_19_cif.got.tgz:37829.got - 2010.04.16 13:43:02.
