data_PCOD8208377
_publ_section_title
;
Structure prediction by ZEFSAII (Michael W. Deem and Ramdas Pophale) SiO2 
 PCOD8208377
Probable space group: P M M A
;
_chemical_formula_sum "Si O2"
_cell_formula_units_Z 52
_cell_length_a 9.221777
_cell_length_b 22.731119
_cell_length_c 14.226134
_cell_angle_alpha 90.000000
_cell_angle_beta 90.000000
_cell_angle_gamma 90.000000
_cell_volume 2982.100851
_symmetry_space_group_name_H-M "P M M A"
_symmetry_group_IT_number 51
_symmetry_cell_setting 'orthorhombic'
loop_
_space_group_symop_operation_xyz
x,y,z
1/2-x,-y,z
1/2+x,-y,-z
-x,y,-z
-x,-y,-z
1/2+x,y,-z
1/2-x,y,z
x,-y,z
loop_
_atom_site_type_symbol
_atom_site_label
_atom_site_fract_x
_atom_site_fract_y
_atom_site_fract_z
Si Si1 0.419695 0.066255 0.594989
Si Si2 0.084299 0.399998 0.708010
Si Si3 0.579303 0.777311 0.092060
Si Si4 0.581904 0.357908 0.090580
Si Si5 0.916006 0.717283 0.406282
Si Si6 0.078372 0.824895 0.713225
Si Si7 0.576800 0.500000 0.600458
O O1 0.500000 0.084488 0.500000
O O2 0.250000 0.072181 0.574680
O O3 0.468608 0.110387 0.677871
O O4 0.461316 0.000000 0.626130
O O5 0.250000 0.422495 0.694190
O O6 0.043928 0.396965 0.818256
O O7 0.067359 0.335064 0.667383
O O8 0.971668 0.442672 0.657504
O O9 0.750000 0.785068 0.078057
O O10 0.535780 0.709508 0.109081
O O11 0.520083 0.814448 0.181331
O O12 0.500000 0.802552 0.000000
O O13 0.750000 0.361282 0.067465
O O14 0.500000 0.384160 0.000000
O O15 0.750000 0.727381 0.434567
O O16 0.983237 0.775809 0.358552
O O17 0.000000 0.700655 0.500000
O O18 0.250000 0.816765 0.715929
O O19 0.750000 0.500000 0.587474
O O20 0.500000 0.500000 0.500000
#
# Coordination Sequence:
#
# PCOD8208377 Si02
#       7
#     8   8   8   8   8   8   4
#     4   9  17  29  46  68  95 131 171 206 242 289
#     4  10  20  37  57  76 101 133 167 204 250 300
#     4   9  16  29  48  71  98 129 161 199 246 296
#     4   9  17  31  53  78 103 131 162 201 251 301
#     4  10  19  31  48  71  98 127 159 199 248 296
#     4   9  16  29  48  69  97 130 163 199 245 298
#     4  12  26  42  59  78 101 134 173 208 244 292
#
# _framework density 17.437370999999999
#
# number of rings (size 3 to 8) (size 9 to 14) (size 15 to 20)
#    0.000    2.462    1.538    1.615    0.000    2.462 
#    0.000    1.923    0.000    0.462    0.000    0.000 
#    0.000    0.000    0.000    0.000    0.000    0.000 
#
# Total GULP energy -644749.842923 kJ/mol
# GULP energy per Si atom -12399.035441 kJ/mol
# Density = 1.739768 g / cm^3
# Si number density = 17.437371 Si / 1000 Ang^3
#
#
#
# Elastic Constant Matrix: (Units=GPa)
#
#
# Indices 1 2 3 4 5 6 
#
# 1 55.6984 32.1614 51.8557 0.0000 0.0000 0.0000
# 2 32.1614 78.8768 48.3399 0.0000 0.0000 0.0000
# 3 51.8557 48.3399 142.8021 0.0000 0.0000 0.0000
# 4 0.0000 0.0000 0.0000 26.4967 0.0000 0.0000
# 5 0.0000 0.0000 0.0000 0.0000 30.5119 0.0000
# 6 0.0000 0.0000 0.0000 0.0000 0.0000 16.4015
#
#
#
# Elastic Compliance Matrix: (Units=1/GPa)
#
#
# Indices 1 2 3 4 5 6 
#
# 1 0.029891 -0.006985 -0.008490 0.000000 0.000000 0.000000
# 2 -0.006985 0.017629 -0.003431 0.000000 0.000000 0.000000
# 3 -0.008490 -0.003431 0.011247 0.000000 0.000000 0.000000
# 4 0.000000 0.000000 0.000000 0.037741 0.000000 0.000000
# 5 0.000000 0.000000 0.000000 0.000000 0.032774 0.000000
# 6 0.000000 0.000000 0.000000 0.000000 0.000000 0.060970
#
#
# Mechanical properties :
#
#
# Convention : Reuss Voigt Hill
#
# Bulk Modulus (GPa) = 47.72057 60.23239 53.97648
# Shear Modulus (GPa) = 21.27220 24.35005 22.81113
#
# Velocity S-wave (km/s) = 3.49652 3.74094 3.62079
# Velocity P-wave (km/s) = 6.61265 7.29908 6.96433
#
# Compressibility (1/GPa) = 0.02095532
#
# Stress axis : x y z
#
# Youngs Moduli (GPa) = 33.45462 56.72537 88.91165
#
# Poissons Ratio (x) = 0.39622 0.75486
# Poissons Ratio (y) = 0.23368 0.30507
# Poissons Ratio (z) = 0.28403 0.19463
#
# Static dielectric constant tensor:
#      x y z
#    x 3.047400 0.000000 0.000000 
#    y 0.000000 3.206550 0.000000 
#    z 0.000000 0.000000 3.402350 
# 
# 
# High freq. dielectric constant tensor:
#      x y z
#    x 1.651690 0.000000 0.000000 
#    y 0.000000 1.659530 0.000000 
#    z 0.000000 0.000000 1.681380 
# 
# From -- ./inp_files/21501.got.cif
#   From: 2010.03.12/outbox.cif.g09.slc.cpg/sg51_11_cif.got.tgz:21501.got - 2010.04.16 13:43:02.
