data_PCOD8208471
_publ_section_title
;
Structure prediction by ZEFSAII (Michael W. Deem and Ramdas Pophale) SiO2 
 PCOD8208471
Probable space group: P M M A
;
_chemical_formula_sum "Si O2"
_cell_formula_units_Z 40
_cell_length_a 8.929685
_cell_length_b 25.957137
_cell_length_c 9.233940
_cell_angle_alpha 90.000000
_cell_angle_beta 90.000000
_cell_angle_gamma 90.000000
_cell_volume 2140.326244
_symmetry_space_group_name_H-M "P M M A"
_symmetry_group_IT_number 51
_symmetry_cell_setting 'orthorhombic'
loop_
_space_group_symop_operation_xyz
x,y,z
1/2-x,-y,z
1/2+x,-y,-z
-x,y,-z
-x,-y,-z
1/2+x,y,-z
1/2-x,y,z
x,-y,z
loop_
_atom_site_type_symbol
_atom_site_label
_atom_site_fract_x
_atom_site_fract_y
_atom_site_fract_z
Si Si1 0.072551 0.344075 0.842625
Si Si2 0.574539 0.444099 0.843971
Si Si3 0.425953 0.057990 0.649396
Si Si4 0.573388 0.849514 0.154443
Si Si5 0.573810 0.753724 0.344677
O O1 0.250000 0.348257 0.858932
O O2 0.023673 0.296708 0.742951
O O3 0.007147 0.396082 0.764776
O O4 0.000000 0.336164 0.000000
O O5 0.750000 0.432190 0.859451
O O6 0.549675 0.500000 0.765707
O O7 0.500000 0.447257 0.000000
O O8 0.500000 0.075721 0.500000
O O9 0.250000 0.061750 0.625547
O O10 0.478662 0.096231 0.776224
O O11 0.475808 0.000000 0.691912
O O12 0.750000 0.847159 0.133706
O O13 0.516985 0.803596 0.257381
O O14 0.500000 0.842864 0.000000
O O15 0.500000 0.753012 0.500000
O O16 0.750000 0.755565 0.366483
#
# Coordination Sequence:
#
# PCOD8208471 Si02
#       5
#     8   8   8   8   8
#     4  10  19  31  49  74 101 129 164 204 247 295
#     4   9  16  26  43  69  99 130 163 199 242 291
#     4   9  18  33  53  77 105 137 173 211 250 296
#     4  10  21  36  53  76 105 134 168 210 254 300
#     4  10  22  37  53  74  99 130 168 208 251 301
#
# _framework density 18.688739999999999
#
# number of rings (size 3 to 8) (size 9 to 14) (size 15 to 20)
#    0.000    2.400    0.000    3.600    0.000    4.800 
#    0.000    0.000    0.000    0.600    0.000    0.000 
#    0.000    0.000    0.000    0.000    0.000    0.000 
#
# Total GULP energy -495835.910780 kJ/mol
# GULP energy per Si atom -12395.897770 kJ/mol
# Density = 1.864620 g / cm^3
# Si number density = 18.688740 Si / 1000 Ang^3
#
#
#
# Elastic Constant Matrix: (Units=GPa)
#
#
# Indices 1 2 3 4 5 6 
#
# 1 58.2108 51.0694 40.7884 0.0000 0.0000 0.0000
# 2 51.0694 174.8354 83.6057 0.0000 0.0000 0.0000
# 3 40.7884 83.6057 119.5169 0.0000 0.0000 0.0000
# 4 0.0000 0.0000 0.0000 5.8038 0.0000 0.0000
# 5 0.0000 0.0000 0.0000 0.0000 30.4361 0.0000
# 6 0.0000 0.0000 0.0000 0.0000 0.0000 22.0695
#
#
#
# Elastic Compliance Matrix: (Units=1/GPa)
#
#
# Indices 1 2 3 4 5 6 
#
# 1 0.025047 -0.004851 -0.005154 0.000000 0.000000 0.000000
# 2 -0.004851 0.009534 -0.005014 0.000000 0.000000 0.000000
# 3 -0.005154 -0.005014 0.013633 0.000000 0.000000 0.000000
# 4 0.000000 0.000000 0.000000 0.172301 0.000000 0.000000
# 5 0.000000 0.000000 0.000000 0.000000 0.032856 0.000000
# 6 0.000000 0.000000 0.000000 0.000000 0.000000 0.045311
#
#
# Mechanical properties :
#
#
# Convention : Reuss Voigt Hill
#
# Bulk Modulus (GPa) = 55.01908 78.16557 66.59233
# Shear Modulus (GPa) = 14.93517 23.46852 19.20185
#
# Velocity S-wave (km/s) = 2.83000 3.54751 3.20887
# Velocity P-wave (km/s) = 6.33894 7.66130 7.03127
#
# Compressibility (1/GPa) = 0.01817551
#
# Stress axis : x y z
#
# Youngs Moduli (GPa) = 39.92537 104.88325 73.34927
#
# Poissons Ratio (x) = 0.50884 0.37805
# Poissons Ratio (y) = 0.19370 0.36777
# Poissons Ratio (z) = 0.20578 0.52588
#
# Static dielectric constant tensor:
#      x y z
#    x 3.394890 0.000000 0.000000 
#    y 0.000000 4.314620 0.000000 
#    z 0.000000 0.000000 3.159930 
# 
# 
# High freq. dielectric constant tensor:
#      x y z
#    x 1.725250 0.000000 0.000000 
#    y 0.000000 1.754390 0.000000 
#    z 0.000000 0.000000 1.691170 
# 
# From -- ./inp_files/5274.got.cif
#   From: 2010.03.12/outbox.cif.g09.slc.cpg/sg51_3_cif.got.tgz:5274.got - 2010.04.16 13:43:02.
