data_PCOD8208669
_publ_section_title
;
Structure prediction by ZEFSAII (Michael W. Deem and Ramdas Pophale) SiO2 
 PCOD8208669
Probable space group: P M M A
;
_chemical_formula_sum "Si O2"
_cell_formula_units_Z 64
_cell_length_a 25.991312
_cell_length_b 12.763030
_cell_length_c 11.000254
_cell_angle_alpha 90.000000
_cell_angle_beta 90.000000
_cell_angle_gamma 90.000000
_cell_volume 3649.091102
_symmetry_space_group_name_H-M "P M M A"
_symmetry_group_IT_number 51
_symmetry_cell_setting 'orthorhombic'
loop_
_space_group_symop_operation_xyz
x,y,z
1/2-x,-y,z
1/2+x,-y,-z
-x,y,-z
-x,-y,-z
1/2+x,y,-z
1/2-x,y,z
x,-y,z
loop_
_atom_site_type_symbol
_atom_site_label
_atom_site_fract_x
_atom_site_fract_y
_atom_site_fract_z
Si Si1 0.970025 0.878614 0.381790
Si Si2 0.192217 0.616818 0.506427
Si Si3 0.933174 0.376099 0.137563
Si Si4 0.692216 0.615058 0.775830
Si Si5 0.127843 0.246525 0.677161
Si Si6 0.485283 0.798779 0.131689
Si Si7 0.189680 0.123611 0.876188
Si Si8 0.123435 0.249729 0.060952
O O1 0.913347 0.831720 0.379337
O O2 0.000000 0.830581 0.500000
O O3 0.996934 0.862076 0.250412
O O4 0.963399 0.000000 0.404216
O O5 0.250000 0.625350 0.557703
O O6 0.170967 0.500000 0.533093
O O7 0.191581 0.641269 0.365043
O O8 0.157626 0.704129 0.566091
O O9 0.943225 0.500000 0.137957
O O10 0.901110 0.341204 0.254982
O O11 0.988232 0.316755 0.134857
O O12 0.898505 0.341975 0.023717
O O13 0.750000 0.616893 0.826427
O O14 0.668197 0.500000 0.800142
O O15 0.661637 0.704185 0.842219
O O16 0.168681 0.183740 0.758593
O O17 0.423763 0.797762 0.137301
O O18 0.500000 0.851448 0.000000
O O19 0.250000 0.151356 0.896621
O O20 0.182189 0.000000 0.858592
O O21 0.154386 0.160117 0.988795
#
# Coordination Sequence:
#
# PCOD8208669 Si02
#       8
#     8   8   8   8   8   8   8   8
#     4  10  22  38  55  76 105 138 175 226 274 312
#     4   9  18  32  51  76 105 138 173 208 251 305
#     4   9  18  32  49  76 108 135 169 209 252 303
#     4   9  18  31  47  71 102 133 167 206 249 304
#     4  10  19  33  56  76 101 138 175 214 258 313
#     4   9  20  34  52  78 104 137 177 214 259 315
#     4  10  21  36  54  78 105 133 170 219 271 315
#     4  10  19  31  53  76  99 137 171 208 256 310
#
# _framework density 17.538613999999999
#
# number of rings (size 3 to 8) (size 9 to 14) (size 15 to 20)
#    0.000    2.500    0.000    3.375    1.750    3.500 
#    0.000    0.000    0.000    7.875    0.000    3.500 
#    0.000    0.000    0.000    0.000    0.000    0.000 
#
# Total GULP energy -793247.799960 kJ/mol
# GULP energy per Si atom -12394.496874 kJ/mol
# Density = 1.749870 g / cm^3
# Si number density = 17.538614 Si / 1000 Ang^3
#
#
#
# Elastic Constant Matrix: (Units=GPa)
#
#
# Indices 1 2 3 4 5 6 
#
# 1 101.4662 41.7515 40.6938 0.0000 0.0000 0.0000
# 2 41.7515 73.8645 28.4114 0.0000 0.0000 0.0000
# 3 40.6938 28.4114 73.9201 0.0000 0.0000 0.0000
# 4 0.0000 0.0000 0.0000 23.4463 0.0000 0.0000
# 5 0.0000 0.0000 0.0000 0.0000 55.0450 0.0000
# 6 0.0000 0.0000 0.0000 0.0000 0.0000 21.8033
#
#
#
# Elastic Compliance Matrix: (Units=1/GPa)
#
#
# Indices 1 2 3 4 5 6 
#
# 1 0.014656 -0.006080 -0.005731 0.000000 0.000000 0.000000
# 2 -0.006080 0.018409 -0.003729 0.000000 0.000000 0.000000
# 3 -0.005731 -0.003729 0.018116 0.000000 0.000000 0.000000
# 4 0.000000 0.000000 0.000000 0.042651 0.000000 0.000000
# 5 0.000000 0.000000 0.000000 0.000000 0.018167 0.000000
# 6 0.000000 0.000000 0.000000 0.000000 0.000000 0.045865
#
#
# Mechanical properties :
#
#
# Convention : Reuss Voigt Hill
#
# Bulk Modulus (GPa) = 49.74672 52.32935 51.03803
# Shear Modulus (GPa) = 25.55671 29.28520 27.42096
#
# Velocity S-wave (km/s) = 3.82143 4.09070 3.95835
# Velocity P-wave (km/s) = 6.92075 7.22587 7.07495
#
# Compressibility (1/GPa) = 0.02010183
#
# Stress axis : x y z
#
# Youngs Moduli (GPa) = 68.23256 54.32150 55.19838
#
# Poissons Ratio (x) = 0.33025 0.31637
# Poissons Ratio (y) = 0.41482 0.20582
# Poissons Ratio (z) = 0.39107 0.20255
#
# Static dielectric constant tensor:
#      x y z
#    x 3.390850 0.000000 0.000000 
#    y 0.000000 3.060610 0.000000 
#    z 0.000000 0.000000 3.294200 
# 
# 
# High freq. dielectric constant tensor:
#      x y z
#    x 1.686790 0.000000 0.000000 
#    y 0.000000 1.666340 0.000000 
#    z 0.000000 0.000000 1.678330 
# 
# From -- ./inp_files/18830.got.cif
#   From: 2010.03.12/outbox.cif.g09.slc.cpg/sg51_10_cif.got.tgz:18830.got - 2010.04.16 13:43:02.
