data_PCOD8208788
_publ_section_title
;
Structure prediction by ZEFSAII (Michael W. Deem and Ramdas Pophale) SiO2 
 PCOD8208788
Probable space group: P M M A
;
_chemical_formula_sum "Si O2"
_cell_formula_units_Z 64
_cell_length_a 8.916556
_cell_length_b 22.838847
_cell_length_c 15.997500
_cell_angle_alpha 90.000000
_cell_angle_beta 90.000000
_cell_angle_gamma 90.000000
_cell_volume 3257.792622
_symmetry_space_group_name_H-M "P M M A"
_symmetry_group_IT_number 51
_symmetry_cell_setting 'orthorhombic'
loop_
_space_group_symop_operation_xyz
x,y,z
1/2-x,-y,z
1/2+x,-y,-z
-x,y,-z
-x,-y,-z
1/2+x,y,-z
1/2-x,y,z
x,-y,z
loop_
_atom_site_type_symbol
_atom_site_label
_atom_site_fract_x
_atom_site_fract_y
_atom_site_fract_z
Si Si1 0.919585 0.106854 0.089786
Si Si2 0.923767 0.565966 0.251222
Si Si3 0.927088 0.325069 0.805767
Si Si4 0.077093 0.396663 0.418820
Si Si5 0.075205 0.066786 0.732302
Si Si6 0.070535 0.855967 0.412351
Si Si7 0.077730 0.270790 0.362854
Si Si8 0.419353 0.236010 0.916889
O O1 0.750000 0.087197 0.071427
O O2 0.984347 0.072187 0.170925
O O3 0.922704 0.173139 0.127992
O O4 0.000000 0.095369 0.000000
O O5 0.750000 0.581026 0.260399
O O6 0.949011 0.500000 0.218389
O O7 0.999113 0.610758 0.185957
O O8 0.000264 0.573665 0.340356
O O9 0.750000 0.333771 0.800098
O O10 0.994141 0.290557 0.725539
O O11 0.974462 0.286711 0.883323
O O12 0.250000 0.414119 0.416357
O O13 0.056116 0.326145 0.423770
O O14 0.000000 0.424189 0.500000
O O15 0.250000 0.085216 0.728568
O O16 0.982348 0.105761 0.666488
O O17 0.052562 0.000000 0.704096
O O18 0.250000 0.859176 0.419282
O O19 0.007917 0.789197 0.398747
O O20 0.000000 0.878689 0.500000
O O21 0.250000 0.256975 0.345427
O O22 0.250000 0.260018 0.926265
O O23 0.500000 0.217322 0.000000
#
# Coordination Sequence:
#
# PCOD8208788 Si02
#       8
#     8   8   8   8   8   8   8   8
#     4   9  19  35  57  86 117 148 179 217 268 325
#     4  10  21  36  52  71  97 133 177 218 256 302
#     4  10  19  33  54  79 107 137 171 213 262 313
#     4  10  19  32  50  73 102 133 167 209 260 314
#     4  10  22  40  58  78 108 145 186 230 273 320
#     4  11  22  37  57  80 107 140 182 230 280 331
#     4   8  17  32  51  77 105 133 166 210 264 320
#     4  10  19  32  52  80 112 141 171 206 252 310
#
# _framework density 19.645205000000001
#
# number of rings (size 3 to 8) (size 9 to 14) (size 15 to 20)
#    0.000    2.250    0.000    3.750    0.000    3.000 
#    0.000    6.250    0.000    0.375    0.000    0.000 
#    0.000    0.000    0.000    0.000    0.000    0.000 
#
# Total GULP energy -793001.310833 kJ/mol
# GULP energy per Si atom -12390.645482 kJ/mol
# Density = 1.960049 g / cm^3
# Si number density = 19.645205 Si / 1000 Ang^3
#
#
#
# Elastic Constant Matrix: (Units=GPa)
#
#
# Indices 1 2 3 4 5 6 
#
# 1 93.2120 36.8579 31.3091 0.0000 0.0000 0.0000
# 2 36.8579 80.9047 26.9408 0.0000 0.0000 0.0000
# 3 31.3091 26.9408 70.6393 0.0000 0.0000 0.0000
# 4 0.0000 0.0000 0.0000 18.5251 0.0000 0.0000
# 5 0.0000 0.0000 0.0000 0.0000 33.7080 0.0000
# 6 0.0000 0.0000 0.0000 0.0000 0.0000 25.2173
#
#
#
# Elastic Compliance Matrix: (Units=1/GPa)
#
#
# Indices 1 2 3 4 5 6 
#
# 1 0.014175 -0.005001 -0.004376 0.000000 0.000000 0.000000
# 2 -0.005001 0.015923 -0.003856 0.000000 0.000000 0.000000
# 3 -0.004376 -0.003856 0.017566 0.000000 0.000000 0.000000
# 4 0.000000 0.000000 0.000000 0.053981 0.000000 0.000000
# 5 0.000000 0.000000 0.000000 0.000000 0.029667 0.000000
# 6 0.000000 0.000000 0.000000 0.000000 0.000000 0.039655
#
#
# Mechanical properties :
#
#
# Convention : Reuss Voigt Hill
#
# Bulk Modulus (GPa) = 47.17162 48.33021 47.75091
# Shear Modulus (GPa) = 24.45003 25.46663 24.95833
#
# Velocity S-wave (km/s) = 3.53169 3.60436 3.56821
# Velocity P-wave (km/s) = 6.37921 6.47895 6.42928
#
# Compressibility (1/GPa) = 0.02119919
#
# Stress axis : x y z
#
# Youngs Moduli (GPa) = 70.54464 62.80406 56.92658
#
# Poissons Ratio (x) = 0.31407 0.24909
# Poissons Ratio (y) = 0.35278 0.21952
# Poissons Ratio (z) = 0.30868 0.24218
#
# Static dielectric constant tensor:
#      x y z
#    x 3.513170 0.000000 0.000000 
#    y 0.000000 3.640530 0.000000 
#    z 0.000000 0.000000 3.416410 
# 
# 
# High freq. dielectric constant tensor:
#      x y z
#    x 1.759920 0.000000 0.000000 
#    y 0.000000 1.766430 0.000000 
#    z 0.000000 0.000000 1.750990 
# 
# From -- ./inp_files/22276.got.cif
#   From: 2010.03.12/outbox.cif.g09.slc.cpg/sg51_12_cif.got.tgz:22276.got - 2010.04.16 13:43:02.
