data_PCOD8208428
_publ_section_title
;
Structure prediction by ZEFSAII (Michael W. Deem and Ramdas Pophale) SiO2 
 PCOD8208428
Probable space group: P M M A
;
_chemical_formula_sum "Si O2"
_cell_formula_units_Z 56
_cell_length_a 21.297058
_cell_length_b 9.151046
_cell_length_c 16.727687
_cell_angle_alpha 90.000000
_cell_angle_beta 90.000000
_cell_angle_gamma 90.000000
_cell_volume 3260.064898
_symmetry_space_group_name_H-M "P M M A"
_symmetry_group_IT_number 51
_symmetry_cell_setting 'orthorhombic'
loop_
_space_group_symop_operation_xyz
x,y,z
1/2-x,-y,z
1/2+x,-y,-z
-x,y,-z
-x,-y,-z
1/2+x,y,-z
1/2-x,y,z
x,-y,z
loop_
_atom_site_type_symbol
_atom_site_label
_atom_site_fract_x
_atom_site_fract_y
_atom_site_fract_z
Si Si1 0.123719 0.330536 0.200719
Si Si2 0.028040 0.826997 0.629855
Si Si3 0.820269 0.170811 0.654213
Si Si4 0.479039 0.670366 0.795362
Si Si5 0.939417 0.828552 0.051965
Si Si6 0.321207 0.169020 0.054626
Si Si7 0.087501 0.830828 0.473640
O O1 0.139852 0.500000 0.205658
O O2 0.136395 0.258357 0.285659
O O3 0.168602 0.260124 0.134832
O O4 0.051238 0.301030 0.181021
O O5 0.040017 0.742501 0.711732
O O6 0.082018 0.777079 0.565554
O O7 0.963937 0.768687 0.588783
O O8 0.027886 0.000000 0.648823
O O9 0.750000 0.229787 0.659846
O O10 0.844132 0.201228 0.563563
O O11 0.824980 0.000000 0.675074
O O12 0.463562 0.500000 0.790133
O O13 0.437756 0.742579 0.864858
O O14 0.943024 0.000000 0.069897
O O15 0.873780 0.784976 0.009699
O O16 0.000000 0.779553 0.000000
O O17 0.250000 0.198863 0.022771
O O18 0.329839 0.000000 0.077263
O O19 0.071042 0.000000 0.477677
#
# Coordination Sequence:
#
# PCOD8208428 Si02
#       7
#     8   8   8   8   8   8   8
#     4  11  22  33  47  72 107 141 169 200 246 303
#     4   9  16  30  52  71  93 127 164 205 249 294
#     4  10  19  31  49  72 100 133 167 205 248 298
#     4  11  22  33  49  76 107 135 167 210 253 294
#     4  10  20  35  56  78  99 131 171 209 255 306
#     4  10  21  37  56  77 101 130 169 214 254 299
#     4   8  15  28  48  73  95 122 164 204 242 289
#
# _framework density 17.177572999999999
#
# number of rings (size 3 to 8) (size 9 to 14) (size 15 to 20)
#    0.000    2.143    2.857    2.143    0.000    4.286 
#    0.000    2.143    0.000    0.857    0.000    4.000 
#    0.000    0.000    0.000    0.000    0.000    0.000 
#
# Total GULP energy -694161.356407 kJ/mol
# GULP energy per Si atom -12395.738507 kJ/mol
# Density = 1.713848 g / cm^3
# Si number density = 17.177573 Si / 1000 Ang^3
#
#
#
# Elastic Constant Matrix: (Units=GPa)
#
#
# Indices 1 2 3 4 5 6 
#
# 1 82.2097 32.7604 47.3953 0.0000 0.0000 0.0000
# 2 32.7604 57.1175 48.9741 0.0000 0.0000 0.0000
# 3 47.3953 48.9741 131.2404 0.0000 0.0000 0.0000
# 4 0.0000 0.0000 0.0000 -6.7152 0.0000 0.0000
# 5 0.0000 0.0000 0.0000 0.0000 24.5992 0.0000
# 6 0.0000 0.0000 0.0000 0.0000 0.0000 15.4089
#
#
#
# Elastic Compliance Matrix: (Units=1/GPa)
#
#
# Indices 1 2 3 4 5 6 
#
# 1 0.016879 -0.006551 -0.003651 0.000000 0.000000 0.000000
# 2 -0.006551 0.028287 -0.008190 0.000000 0.000000 0.000000
# 3 -0.003651 -0.008190 0.011994 0.000000 0.000000 0.000000
# 4 0.000000 0.000000 0.000000 -0.148915 0.000000 0.000000
# 5 0.000000 0.000000 0.000000 0.000000 0.040652 0.000000
# 6 0.000000 0.000000 0.000000 0.000000 0.000000 0.064897
#
#
# Mechanical properties :
#
#
# Convention : Reuss Voigt Hill
#
# Bulk Modulus (GPa) = 49.07463 58.75858 53.91661
# Shear Modulus (GPa) = 87.15094 16.08777 51.61936
#
# Velocity S-wave (km/s) = 7.13060 3.06364 5.48777
# Velocity P-wave (km/s) = 9.81962 6.84071 8.46228
#
# Compressibility (1/GPa) = 0.02037713
#
# Stress axis : x y z
#
# Youngs Moduli (GPa) = 59.24359 35.35136 83.37176
#
# Poissons Ratio (x) = 0.23158 0.30441
# Poissons Ratio (y) = 0.38809 0.68283
# Poissons Ratio (z) = 0.21631 0.28953
#
# Static dielectric constant tensor:
#      x y z
#    x 3.177470 0.000000 0.000000 
#    y 0.000000 3.029380 0.000000 
#    z 0.000000 0.000000 3.223710 
# 
# 
# High freq. dielectric constant tensor:
#      x y z
#    x 1.645900 0.000000 0.000000 
#    y 0.000000 1.646830 0.000000 
#    z 0.000000 0.000000 1.663790 
# 
# From -- ./inp_files/30447.got.cif
#   From: 2010.03.12/outbox.cif.g09.slc.cpg/sg51_16_cif.got.tgz:30447.got - 2010.04.16 13:43:02.
