data_PCOD8208784
_publ_section_title
;
Structure prediction by ZEFSAII (Michael W. Deem and Ramdas Pophale) SiO2 
 PCOD8208784
Probable space group: P M M A
;
_chemical_formula_sum "Si O2"
_cell_formula_units_Z 52
_cell_length_a 9.145759
_cell_length_b 23.445507
_cell_length_c 14.291634
_cell_angle_alpha 90.000000
_cell_angle_beta 90.000000
_cell_angle_gamma 90.000000
_cell_volume 3064.511584
_symmetry_space_group_name_H-M "P M M A"
_symmetry_group_IT_number 51
_symmetry_cell_setting 'orthorhombic'
loop_
_space_group_symop_operation_xyz
x,y,z
1/2-x,-y,z
1/2+x,-y,-z
-x,y,-z
-x,-y,-z
1/2+x,y,-z
1/2-x,y,z
x,-y,z
loop_
_atom_site_type_symbol
_atom_site_label
_atom_site_fract_x
_atom_site_fract_y
_atom_site_fract_z
Si Si1 0.917227 0.064309 0.771018
Si Si2 0.082162 0.500000 0.095618
Si Si3 0.079792 0.105093 0.593595
Si Si4 0.922200 0.272478 0.775589
Si Si5 0.920921 0.376741 0.901264
Si Si6 0.579158 0.762004 0.405931
Si Si7 0.920956 0.834475 0.902164
O O1 0.750000 0.079065 0.743270
O O2 0.970880 0.106947 0.852226
O O3 0.016891 0.069947 0.680002
O O4 0.931351 0.000000 0.809751
O O5 0.250000 0.500000 0.068395
O O6 0.044995 0.439475 0.146131
O O7 0.000000 0.500000 0.000000
O O8 0.250000 0.091749 0.582848
O O9 0.048392 0.171464 0.611276
O O10 0.000000 0.083838 0.500000
O O11 0.750000 0.272470 0.753838
O O12 0.975108 0.329075 0.829284
O O13 0.967631 0.217909 0.836657
O O14 0.010169 0.272820 0.679211
O O15 0.750000 0.368521 0.920964
O O16 0.000000 0.368808 0.000000
O O17 0.500000 0.741170 0.500000
O O18 0.750000 0.748510 0.414183
O O19 0.750000 0.833841 0.922595
O O20 0.000000 0.828391 0.000000
#
# Coordination Sequence:
#
# PCOD8208784 Si02
#       7
#     8   4   8   8   8   8   8
#     4  10  21  37  54  71  94 126 162 199 241 288
#     4   8  14  26  42  64  97 134 171 204 237 280
#     4  10  20  34  54  77  99 124 154 192 241 294
#     4  10  19  32  50  73 100 130 162 199 243 287
#     4   9  17  28  45  70 101 137 171 204 241 282
#     4  10  20  33  52  76 100 127 157 194 241 293
#     4  10  21  35  51  70  95 125 159 200 242 284
#
# _framework density 16.968444999999999
#
# number of rings (size 3 to 8) (size 9 to 14) (size 15 to 20)
#    0.000    2.308    1.538    1.385    0.000    4.000 
#    0.000    0.000    0.000    0.000    0.000    0.538 
#    0.000    0.000    0.000    0.000    0.000    0.000 
#
# Total GULP energy -644716.556991 kJ/mol
# GULP energy per Si atom -12398.395327 kJ/mol
# Density = 1.692982 g / cm^3
# Si number density = 16.968445 Si / 1000 Ang^3
#
#
#
# Elastic Constant Matrix: (Units=GPa)
#
#
# Indices 1 2 3 4 5 6 
#
# 1 59.1657 36.4334 47.8735 0.0000 0.0000 0.0000
# 2 36.4334 123.7835 60.3881 0.0000 0.0000 0.0000
# 3 47.8735 60.3881 118.3813 0.0000 0.0000 0.0000
# 4 0.0000 0.0000 0.0000 21.9819 0.0000 0.0000
# 5 0.0000 0.0000 0.0000 0.0000 34.0430 0.0000
# 6 0.0000 0.0000 0.0000 0.0000 0.0000 10.3338
#
#
#
# Elastic Compliance Matrix: (Units=1/GPa)
#
#
# Indices 1 2 3 4 5 6 
#
# 1 0.026141 -0.003377 -0.008849 0.000000 0.000000 0.000000
# 2 -0.003377 0.011192 -0.004343 0.000000 0.000000 0.000000
# 3 -0.008849 -0.004343 0.014241 0.000000 0.000000 0.000000
# 4 0.000000 0.000000 0.000000 0.045492 0.000000 0.000000
# 5 0.000000 0.000000 0.000000 0.000000 0.029375 0.000000
# 6 0.000000 0.000000 0.000000 0.000000 0.000000 0.096770
#
#
# Mechanical properties :
#
#
# Convention : Reuss Voigt Hill
#
# Bulk Modulus (GPa) = 54.24298 65.63561 59.93929
# Shear Modulus (GPa) = 19.04806 23.71410 21.38108
#
# Velocity S-wave (km/s) = 3.35409 3.74243 3.55357
# Velocity P-wave (km/s) = 6.85830 7.57887 7.22757
#
# Compressibility (1/GPa) = 0.01843557
#
# Stress axis : x y z
#
# Youngs Moduli (GPa) = 38.25367 89.35351 70.21868
#
# Poissons Ratio (x) = 0.30178 0.62135
# Poissons Ratio (y) = 0.12920 0.30497
# Poissons Ratio (z) = 0.33850 0.38808
#
# Static dielectric constant tensor:
#      x y z
#    x 3.142580 0.000000 0.000000 
#    y 0.000000 3.505530 0.000000 
#    z 0.000000 0.000000 2.999670 
# 
# 
# High freq. dielectric constant tensor:
#      x y z
#    x 1.657010 0.000000 0.000000 
#    y 0.000000 1.650500 0.000000 
#    z 0.000000 0.000000 1.638040 
# 
# From -- ./inp_files/21505.got.cif
#   From: 2010.03.12/outbox.cif.g09.slc.cpg/sg51_11_cif.got.tgz:21505.got - 2010.04.16 13:43:02.
