data_PCOD8208113
_publ_section_title
;
Structure prediction by ZEFSAII (Michael W. Deem and Ramdas Pophale) SiO2 
 PCOD8208113
Probable space group: P M M A
;
_chemical_formula_sum "Si O2"
_cell_formula_units_Z 64
_cell_length_a 9.329623
_cell_length_b 24.260507
_cell_length_c 15.236308
_cell_angle_alpha 90.000000
_cell_angle_beta 90.000000
_cell_angle_gamma 90.000000
_cell_volume 3448.607041
_symmetry_space_group_name_H-M "P M M A"
_symmetry_group_IT_number 51
_symmetry_cell_setting 'orthorhombic'
loop_
_space_group_symop_operation_xyz
x,y,z
1/2-x,-y,z
1/2+x,-y,-z
-x,y,-z
-x,-y,-z
1/2+x,y,-z
1/2-x,y,z
x,-y,z
loop_
_atom_site_type_symbol
_atom_site_label
_atom_site_fract_x
_atom_site_fract_y
_atom_site_fract_z
Si Si1 0.081465 0.855684 0.739480
Si Si2 0.083257 0.365638 0.588247
Si Si3 0.910640 0.285178 0.863932
Si Si4 0.414638 0.563832 0.272453
Si Si5 0.088288 0.595649 0.080443
Si Si6 0.412820 0.266555 0.701894
Si Si7 0.420476 0.835499 0.085990
Si Si8 0.083330 0.936504 0.585866
O O1 0.250000 0.859726 0.763045
O O2 0.042609 0.797433 0.692756
O O3 0.034043 0.902554 0.671127
O O4 0.988150 0.863968 0.827577
O O5 0.250000 0.380220 0.575705
O O6 0.062590 0.300776 0.612317
O O7 0.000000 0.378847 0.500000
O O8 0.019376 0.403565 0.663955
O O9 0.750000 0.276544 0.830291
O O10 0.923865 0.337872 0.926532
O O11 0.959827 0.229488 0.912633
O O12 0.000856 0.297383 0.777443
O O13 0.250000 0.585168 0.281298
O O14 0.424574 0.500000 0.297180
O O15 0.469982 0.573428 0.173167
O O16 0.250000 0.575405 0.068323
O O17 0.000000 0.569732 0.000000
O O18 0.250000 0.270265 0.732557
O O19 0.250000 0.847038 0.081437
O O20 0.500000 0.860145 0.000000
O O21 0.250000 0.927056 0.566960
O O22 0.000000 0.915281 0.500000
O O23 0.046702 0.000000 0.605294
#
# Coordination Sequence:
#
# PCOD8208113 Si02
#       8
#     8   8   8   8   8   8   8   8
#     4   9  18  33  52  76 109 144 178 219 262 309
#     4  11  23  38  58  82 106 135 170 211 261 317
#     4   9  17  30  49  73 102 137 172 208 252 302
#     4  10  22  41  61  78 101 134 172 217 263 308
#     4  10  20  33  52  78 106 135 168 206 253 305
#     4   9  18  32  51  76 105 137 171 207 254 307
#     4  10  19  30  47  74 107 143 181 218 261 311
#     4   9  18  33  54  79 107 141 180 222 268 314
#
# _framework density 18.558216999999999
#
# number of rings (size 3 to 8) (size 9 to 14) (size 15 to 20)
#    0.000    2.375    1.250    1.125    0.000    3.750 
#    0.000    0.000    0.000    0.375    0.000    0.000 
#    0.000    0.000    0.000    0.000    0.000    0.000 
#
# Total GULP energy -793480.629799 kJ/mol
# GULP energy per Si atom -12398.134841 kJ/mol
# Density = 1.851598 g / cm^3
# Si number density = 18.558217 Si / 1000 Ang^3
#
#
#
# Elastic Constant Matrix: (Units=GPa)
#
#
# Indices 1 2 3 4 5 6 
#
# 1 85.7626 30.8372 75.1232 0.0000 0.0000 0.0000
# 2 30.8372 58.9632 46.7031 0.0000 0.0000 0.0000
# 3 75.1232 46.7031 146.7884 0.0000 0.0000 0.0000
# 4 0.0000 0.0000 0.0000 16.2236 0.0000 0.0000
# 5 0.0000 0.0000 0.0000 0.0000 37.5896 0.0000
# 6 0.0000 0.0000 0.0000 0.0000 0.0000 18.7004
#
#
#
# Elastic Compliance Matrix: (Units=1/GPa)
#
#
# Indices 1 2 3 4 5 6 
#
# 1 0.021633 -0.003402 -0.009989 0.000000 0.000000 0.000000
# 2 -0.003402 0.023209 -0.005643 0.000000 0.000000 0.000000
# 3 -0.009989 -0.005643 0.013720 0.000000 0.000000 0.000000
# 4 0.000000 0.000000 0.000000 0.061638 0.000000 0.000000
# 5 0.000000 0.000000 0.000000 0.000000 0.026603 0.000000
# 6 0.000000 0.000000 0.000000 0.000000 0.000000 0.053475
#
#
# Mechanical properties :
#
#
# Convention : Reuss Voigt Hill
#
# Bulk Modulus (GPa) = 48.79532 66.31567 57.55549
# Shear Modulus (GPa) = 20.39336 23.75943 22.07640
#
# Velocity S-wave (km/s) = 3.31854 3.58196 3.45276
# Velocity P-wave (km/s) = 6.40576 7.27452 6.85392
#
# Compressibility (1/GPa) = 0.02049377
#
# Stress axis : x y z
#
# Youngs Moduli (GPa) = 46.22548 43.08728 72.88557
#
# Poissons Ratio (x) = 0.14658 0.72805
# Poissons Ratio (y) = 0.15726 0.41131
# Poissons Ratio (z) = 0.46175 0.24315
#
# Static dielectric constant tensor:
#      x y z
#    x 3.451760 0.000000 0.000000 
#    y 0.000000 3.328250 0.000000 
#    z 0.000000 0.000000 3.307450 
# 
# 
# High freq. dielectric constant tensor:
#      x y z
#    x 1.720660 0.000000 0.000000 
#    y 0.000000 1.701940 0.000000 
#    z 0.000000 0.000000 1.715110 
# 
# From -- ./inp_files/22270.got.cif
#   From: 2010.03.12/outbox.cif.g09.slc.cpg/sg51_12_cif.got.tgz:22270.got - 2010.04.16 13:43:02.
