data_PCOD8208963
_publ_section_title
;
Structure prediction by ZEFSAII (Michael W. Deem and Ramdas Pophale) SiO2 
 PCOD8208963
Probable space group: P M M A
;
_chemical_formula_sum "Si O2"
_cell_formula_units_Z 64
_cell_length_a 18.595224
_cell_length_b 9.058989
_cell_length_c 20.603319
_cell_angle_alpha 90.000000
_cell_angle_beta 90.000000
_cell_angle_gamma 90.000000
_cell_volume 3470.710050
_symmetry_space_group_name_H-M "P M M A"
_symmetry_group_IT_number 51
_symmetry_cell_setting 'orthorhombic'
loop_
_space_group_symop_operation_xyz
x,y,z
1/2-x,-y,z
1/2+x,-y,-z
-x,y,-z
-x,-y,-z
1/2+x,y,-z
1/2-x,y,z
x,-y,z
loop_
_atom_site_type_symbol
_atom_site_label
_atom_site_fract_x
_atom_site_fract_y
_atom_site_fract_z
Si Si1 0.417181 0.670428 0.126262
Si Si2 0.832558 0.326991 0.748973
Si Si3 0.667257 0.326548 0.379216
Si Si4 0.666289 0.828660 0.245862
Si Si5 0.913766 0.671102 0.129627
Si Si6 0.585524 0.833494 0.001163
Si Si7 0.916115 0.828077 0.493029
Si Si8 0.832243 0.172645 0.619918
O O1 0.398444 0.500000 0.113983
O O2 0.377818 0.732045 0.190090
O O3 0.501421 0.694141 0.136167
O O4 0.386124 0.759913 0.064995
O O5 0.750000 0.282642 0.760543
O O6 0.842886 0.500000 0.740189
O O7 0.862749 0.251393 0.684016
O O8 0.750000 0.288657 0.396557
O O9 0.655671 0.500000 0.370695
O O10 0.643938 0.248119 0.312862
O O11 0.615688 0.267258 0.435002
O O12 0.750000 0.805083 0.231437
O O13 0.622446 0.754245 0.188692
O O14 0.645776 0.000000 0.250375
O O15 0.892059 0.500000 0.130696
O O16 0.885393 0.741187 0.062422
O O17 0.615051 0.000000 0.006118
O O18 0.500000 0.830376 0.000000
O O19 0.878712 0.774130 0.559046
O O20 0.000000 0.796006 0.500000
O O21 0.900093 0.000000 0.479468
O O22 0.750000 0.219331 0.606778
O O23 0.840101 0.000000 0.631334
#
# Coordination Sequence:
#
# PCOD8208963 Si02
#       8
#     8   8   8   8   8   8   8   8
#     4   9  18  32  50  74 102 133 170 212 259 305
#     4   9  18  33  52  73  99 131 167 207 249 295
#     4  10  21  37  57  79 103 136 177 215 255 309
#     4  10  21  37  56  77 103 135 171 213 259 309
#     4  10  19  32  52  76 103 134 169 212 259 309
#     4   9  17  30  49  73 100 133 174 214 253 302
#     4  10  21  36  54  79 109 138 170 212 261 308
#     4   9  18  33  52  72  97 132 170 205 245 297
#
# _framework density 18.440031000000001
#
# number of rings (size 3 to 8) (size 9 to 14) (size 15 to 20)
#    0.000    2.500    0.000    1.875    0.000    6.250 
#    0.000    4.375    0.000    2.250    0.000    0.000 
#    0.000    0.000    0.000    0.000    0.000    0.000 
#
# Total GULP energy -793775.818136 kJ/mol
# GULP energy per Si atom -12402.747158 kJ/mol
# Density = 1.839806 g / cm^3
# Si number density = 18.440031 Si / 1000 Ang^3
#
#
#
# Elastic Constant Matrix: (Units=GPa)
#
#
# Indices 1 2 3 4 5 6 
#
# 1 53.8224 41.3449 64.6204 0.0000 0.0000 0.0000
# 2 41.3449 104.1305 84.0842 0.0000 0.0000 0.0000
# 3 64.6204 84.0842 189.2303 0.0000 0.0000 0.0000
# 4 0.0000 0.0000 0.0000 42.8080 0.0000 0.0000
# 5 0.0000 0.0000 0.0000 0.0000 37.5908 0.0000
# 6 0.0000 0.0000 0.0000 0.0000 0.0000 22.9682
#
#
#
# Elastic Compliance Matrix: (Units=1/GPa)
#
#
# Indices 1 2 3 4 5 6 
#
# 1 0.034053 -0.006442 -0.008766 0.000000 0.000000 0.000000
# 2 -0.006442 0.016196 -0.004997 0.000000 0.000000 0.000000
# 3 -0.008766 -0.004997 0.010499 0.000000 0.000000 0.000000
# 4 0.000000 0.000000 0.000000 0.023360 0.000000 0.000000
# 5 0.000000 0.000000 0.000000 0.000000 0.026602 0.000000
# 6 0.000000 0.000000 0.000000 0.000000 0.000000 0.043538
#
#
# Mechanical properties :
#
#
# Convention : Reuss Voigt Hill
#
# Bulk Modulus (GPa) = 49.17043 80.80914 64.98978
# Shear Modulus (GPa) = 24.82149 31.14897 27.98523
#
# Velocity S-wave (km/s) = 3.67286 4.11445 3.89991
# Velocity P-wave (km/s) = 6.68651 8.15410 7.45650
#
# Compressibility (1/GPa) = 0.02033743
#
# Stress axis : x y z
#
# Youngs Moduli (GPa) = 29.36563 61.74374 95.25170
#
# Poissons Ratio (x) = 0.39776 0.83501
# Poissons Ratio (y) = 0.18918 0.47595
# Poissons Ratio (z) = 0.25743 0.30852
#
# Static dielectric constant tensor:
#      x y z
#    x 3.233980 0.000000 0.000000 
#    y 0.000000 3.448670 0.000000 
#    z 0.000000 0.000000 3.590870 
# 
# 
# High freq. dielectric constant tensor:
#      x y z
#    x 1.693380 0.000000 0.000000 
#    y 0.000000 1.719270 0.000000 
#    z 0.000000 0.000000 1.730280 
# 
# From -- ./inp_files/33867.got.cif
#   From: 2010.03.12/outbox.cif.g09.slc.cpg/sg51_17_cif.got.tgz:33867.got - 2010.04.16 13:43:02.
