data_PCOD8208059
_publ_section_title
;
Structure prediction by ZEFSAII (Michael W. Deem and Ramdas Pophale) SiO2 
 PCOD8208059
Probable space group: P M M A
;
_chemical_formula_sum "Si O2"
_cell_formula_units_Z 52
_cell_length_a 8.931719
_cell_length_b 18.412837
_cell_length_c 18.130537
_cell_angle_alpha 90.000000
_cell_angle_beta 90.000000
_cell_angle_gamma 90.000000
_cell_volume 2981.717041
_symmetry_space_group_name_H-M "P M M A"
_symmetry_group_IT_number 51
_symmetry_cell_setting 'orthorhombic'
loop_
_space_group_symop_operation_xyz
x,y,z
1/2-x,-y,z
1/2+x,-y,-z
-x,y,-z
-x,-y,-z
1/2+x,y,-z
1/2-x,y,z
x,-y,z
loop_
_atom_site_type_symbol
_atom_site_label
_atom_site_fract_x
_atom_site_fract_y
_atom_site_fract_z
Si Si1 0.919615 0.296570 0.708011
Si Si2 0.927551 0.220224 0.421220
Si Si3 0.417053 0.147989 0.202925
Si Si4 0.428182 0.500000 0.080264
Si Si5 0.922613 0.919121 0.332295
Si Si6 0.077682 0.630671 0.835705
Si Si7 0.420232 0.219815 0.922562
O O1 0.750000 0.322789 0.691634
O O2 0.917697 0.223540 0.754559
O O3 0.007649 0.282639 0.631994
O O4 0.008403 0.357600 0.754278
O O5 0.750000 0.228370 0.426309
O O6 0.976193 0.140178 0.392136
O O7 0.000000 0.232122 0.500000
O O8 0.250000 0.122658 0.183674
O O9 0.491119 0.087654 0.255035
O O10 0.506920 0.156435 0.126830
O O11 0.250000 0.500000 0.072280
O O12 0.479994 0.429438 0.123999
O O13 0.500000 0.500000 0.000000
O O14 0.750000 0.905274 0.313866
O O15 0.950942 0.000000 0.364504
O O16 0.250000 0.605689 0.827929
O O17 0.064793 0.703142 0.883192
O O18 0.250000 0.197934 0.935908
O O19 0.500000 0.225133 0.000000
#
# Coordination Sequence:
#
# PCOD8208059 Si02
#       7
#     8   8   8   4   8   8   8
#     4   9  17  31  50  71  95 125 162 202 242 286
#     4  10  19  31  48  72 101 130 161 200 245 289
#     4   9  17  29  46  67  90 117 154 198 239 283
#     4  12  24  36  50  72 105 142 175 208 246 288
#     4   9  18  32  48  66  92 127 162 194 234 288
#     4  10  20  34  51  72  99 132 167 202 241 288
#     4  10  19  30  47  69  93 121 155 197 243 287
#
# _framework density 17.439616999999998
#
# number of rings (size 3 to 8) (size 9 to 14) (size 15 to 20)
#    0.000    2.308    0.000    3.462    0.000    8.000 
#    0.000    0.000    0.000    0.462    0.000    0.538 
#    0.000    0.000    0.000    0.000    0.000    0.000 
#
# Total GULP energy -644799.930288 kJ/mol
# GULP energy per Si atom -12399.998659 kJ/mol
# Density = 1.739992 g / cm^3
# Si number density = 17.439617 Si / 1000 Ang^3
#
#
#
# Elastic Constant Matrix: (Units=GPa)
#
#
# Indices 1 2 3 4 5 6 
#
# 1 136.0051 31.2769 77.9827 0.0000 0.0000 0.0000
# 2 31.2769 46.3597 42.3340 0.0000 0.0000 0.0000
# 3 77.9827 42.3340 118.2527 0.0000 0.0000 0.0000
# 4 0.0000 0.0000 0.0000 49.7442 0.0000 0.0000
# 5 0.0000 0.0000 0.0000 0.0000 35.2831 0.0000
# 6 0.0000 0.0000 0.0000 0.0000 0.0000 23.3948
#
#
#
# Elastic Compliance Matrix: (Units=1/GPa)
#
#
# Indices 1 2 3 4 5 6 
#
# 1 0.011874 -0.001278 -0.007373 0.000000 0.000000 0.000000
# 2 -0.001278 0.032185 -0.010679 0.000000 0.000000 0.000000
# 3 -0.007373 -0.010679 0.017142 0.000000 0.000000 0.000000
# 4 0.000000 0.000000 0.000000 0.020103 0.000000 0.000000
# 5 0.000000 0.000000 0.000000 0.000000 0.028342 0.000000
# 6 0.000000 0.000000 0.000000 0.000000 0.000000 0.042745
#
#
# Mechanical properties :
#
#
# Convention : Reuss Voigt Hill
#
# Bulk Modulus (GPa) = 44.36562 67.08943 55.72753
# Shear Modulus (GPa) = 25.18090 31.61934 28.40012
#
# Velocity S-wave (km/s) = 3.80398 4.26264 4.03982
# Velocity P-wave (km/s) = 6.69242 7.92338 7.33377
#
# Compressibility (1/GPa) = 0.02253997
#
# Stress axis : x y z
#
# Youngs Moduli (GPa) = 84.21709 31.07083 58.33783
#
# Poissons Ratio (x) = 0.03972 0.43011
# Poissons Ratio (y) = 0.10766 0.62299
# Poissons Ratio (z) = 0.62092 0.33180
#
# Static dielectric constant tensor:
#      x y z
#    x 3.500910 0.000000 0.000000 
#    y 0.000000 3.022590 0.000000 
#    z 0.000000 0.000000 3.254500 
# 
# 
# High freq. dielectric constant tensor:
#      x y z
#    x 1.693170 0.000000 0.000000 
#    y 0.000000 1.637800 0.000000 
#    z 0.000000 0.000000 1.668310 
# 
# From -- ./inp_files/27922.got.cif
#   From: 2010.03.12/outbox.cif.g09.slc.cpg/sg51_14_cif.got.tgz:27922.got - 2010.04.16 13:43:02.
