data_PCOD8208503
_publ_section_title
;
Structure prediction by ZEFSAII (Michael W. Deem and Ramdas Pophale) SiO2 
 PCOD8208503
Probable space group: P M M A
;
_chemical_formula_sum "Si O2"
_cell_formula_units_Z 56
_cell_length_a 14.239549
_cell_length_b 13.705021
_cell_length_c 14.194490
_cell_angle_alpha 90.000000
_cell_angle_beta 90.000000
_cell_angle_gamma 90.000000
_cell_volume 2770.101822
_symmetry_space_group_name_H-M "P M M A"
_symmetry_group_IT_number 51
_symmetry_cell_setting 'orthorhombic'
loop_
_space_group_symop_operation_xyz
x,y,z
1/2-x,-y,z
1/2+x,-y,-z
-x,y,-z
-x,-y,-z
1/2+x,y,-z
1/2-x,y,z
x,-y,z
loop_
_atom_site_type_symbol
_atom_site_label
_atom_site_fract_x
_atom_site_fract_y
_atom_site_fract_z
Si Si1 0.146969 0.614591 0.245095
Si Si2 0.645815 0.190837 0.018682
Si Si3 0.522325 0.115264 0.643564
Si Si4 0.639216 0.392982 0.554189
Si Si5 0.100445 0.607425 0.043661
Si Si6 0.983954 0.115540 0.857349
Si Si7 0.360475 0.805202 0.523170
O O1 0.250000 0.663022 0.230267
O O2 0.159233 0.500000 0.255247
O O3 0.098483 0.646117 0.344477
O O4 0.086008 0.640438 0.152910
O O5 0.750000 0.147158 0.033744
O O6 0.656515 0.308505 0.011039
O O7 0.580978 0.163705 0.107277
O O8 0.602187 0.147698 0.922879
O O9 0.537241 0.151366 0.750900
O O10 0.606536 0.152859 0.577631
O O11 0.419667 0.149225 0.607891
O O12 0.523654 0.000000 0.639198
O O13 0.750000 0.400968 0.569910
O O14 0.599148 0.500000 0.523791
O O15 0.616777 0.311570 0.475745
O O16 0.150778 0.500000 0.037347
O O17 0.000000 0.598519 0.000000
O O18 0.996249 0.000000 0.862799
O O19 0.250000 0.827156 0.537251
#
# Coordination Sequence:
#
# PCOD8208503 Si02
#       7
#     8   8   8   8   8   8   8
#     4   8  14  25  42  68 102 140 180 218 262 315
#     4  11  22  37  61  88 114 148 191 238 287 341
#     4  10  23  41  58  80 115 150 183 237 295 341
#     4   8  15  28  49  79 112 143 176 220 269 318
#     4  10  19  31  49  77 116 155 187 226 275 330
#     4  10  23  43  60  81 115 148 187 241 297 351
#     4  10  20  35  60  88 113 147 191 234 277 337
#
# _framework density 20.215862000000001
#
# number of rings (size 3 to 8) (size 9 to 14) (size 15 to 20)
#    0.000    2.429    1.429    3.000    2.000    4.286 
#    0.000    4.286    0.000    1.714    0.000    2.000 
#    0.000    0.000    0.000    0.000    0.000    0.000 
#
# Total GULP energy -693831.232895 kJ/mol
# GULP energy per Si atom -12389.843445 kJ/mol
# Density = 2.016985 g / cm^3
# Si number density = 20.215862 Si / 1000 Ang^3
#
#
#
# Elastic Constant Matrix: (Units=GPa)
#
#
# Indices 1 2 3 4 5 6 
#
# 1 81.8998 -2.7321 9.6986 0.0000 0.0000 0.0000
# 2 -2.7321 74.8548 14.4361 0.0000 0.0000 0.0000
# 3 9.6986 14.4361 69.8525 0.0000 0.0000 0.0000
# 4 0.0000 0.0000 0.0000 29.3449 0.0000 0.0000
# 5 0.0000 0.0000 0.0000 0.0000 17.7014 0.0000
# 6 0.0000 0.0000 0.0000 0.0000 0.0000 15.8549
#
#
#
# Elastic Compliance Matrix: (Units=1/GPa)
#
#
# Indices 1 2 3 4 5 6 
#
# 1 0.012462 0.000821 -0.001900 0.000000 0.000000 0.000000
# 2 0.000821 0.013968 -0.003001 0.000000 0.000000 0.000000
# 3 -0.001900 -0.003001 0.015200 0.000000 0.000000 0.000000
# 4 0.000000 0.000000 0.000000 0.034077 0.000000 0.000000
# 5 0.000000 0.000000 0.000000 0.000000 0.056493 0.000000
# 6 0.000000 0.000000 0.000000 0.000000 0.000000 0.063072
#
#
# Mechanical properties :
#
#
# Convention : Reuss Voigt Hill
#
# Bulk Modulus (GPa) = 29.87644 29.93471 29.90558
# Shear Modulus (GPa) = 23.30040 26.26053 24.78046
#
# Velocity S-wave (km/s) = 3.39865 3.60808 3.50493
# Velocity P-wave (km/s) = 5.49653 5.67427 5.58611
#
# Compressibility (1/GPa) = 0.03347119
#
# Stress axis : x y z
#
# Youngs Moduli (GPa) = 80.24101 71.59288 65.79019
#
# Poissons Ratio (x) = -0.05880 0.12501
# Poissons Ratio (y) = -0.06590 0.19742
# Poissons Ratio (z) = 0.15246 0.21483
#
# Static dielectric constant tensor:
#      x y z
#    x 3.327970 0.000000 0.000000 
#    y 0.000000 4.114850 0.000000 
#    z 0.000000 0.000000 3.791270 
# 
# 
# High freq. dielectric constant tensor:
#      x y z
#    x 1.766980 0.000000 0.000000 
#    y 0.000000 1.804660 0.000000 
#    z 0.000000 0.000000 1.777800 
# 
# From -- ./inp_files/24326.got.cif
#   From: 2010.03.12/outbox.cif.g09.slc.cpg/sg51_13_cif.got.tgz:24326.got - 2010.04.16 13:43:02.
