data_PCOD8208658
_publ_section_title
;
Structure prediction by ZEFSAII (Michael W. Deem and Ramdas Pophale) SiO2 
 PCOD8208658
Probable space group: P M M A
;
_chemical_formula_sum "Si O2"
_cell_formula_units_Z 64
_cell_length_a 30.977087
_cell_length_b 8.977277
_cell_length_c 12.100185
_cell_angle_alpha 90.000000
_cell_angle_beta 90.000000
_cell_angle_gamma 90.000000
_cell_volume 3364.939124
_symmetry_space_group_name_H-M "P M M A"
_symmetry_group_IT_number 51
_symmetry_cell_setting 'orthorhombic'
loop_
_space_group_symop_operation_xyz
x,y,z
1/2-x,-y,z
1/2+x,-y,-z
-x,y,-z
-x,-y,-z
1/2+x,y,-z
1/2-x,y,z
x,-y,z
loop_
_atom_site_type_symbol
_atom_site_label
_atom_site_fract_x
_atom_site_fract_y
_atom_site_fract_z
Si Si1 0.951396 0.175422 0.487527
Si Si2 0.200530 0.168349 0.736918
Si Si3 0.628296 0.177346 0.632273
Si Si4 0.055855 0.825430 0.759197
Si Si5 0.199893 0.326340 0.513734
Si Si6 0.884863 0.325712 0.860147
Si Si7 0.515486 0.673226 0.882721
Si Si8 0.632203 0.174509 0.083728
O O1 0.916445 0.237754 0.576174
O O2 0.932318 0.216229 0.366819
O O3 0.000000 0.244197 0.500000
O O4 0.954983 0.000000 0.504225
O O5 0.250000 0.182238 0.770826
O O6 0.188479 0.279810 0.638623
O O7 0.174635 0.211118 0.846363
O O8 0.188680 0.000000 0.698704
O O9 0.670220 0.231806 0.567240
O O10 0.633827 0.241459 0.754655
O O11 0.628509 0.000000 0.635485
O O12 0.091859 0.765078 0.843885
O O13 0.009754 0.753698 0.784786
O O14 0.050882 0.000000 0.772044
O O15 0.250000 0.289540 0.487790
O O16 0.189953 0.500000 0.498954
O O17 0.875252 0.500000 0.849185
O O18 0.935028 0.288723 0.867397
O O19 0.862582 0.264438 0.970581
O O20 0.505032 0.500000 0.875757
O O21 0.500000 0.738801 0.000000
O O22 0.627198 0.000000 0.057582
#
# Coordination Sequence:
#
# PCOD8208658 Si02
#       8
#     8   8   8   8   8   8   8   8
#     4   9  18  33  53  80 113 145 180 229 283 332
#     4   9  18  35  60  87 114 143 177 222 273 325
#     4  11  22  38  61  84 112 150 193 238 287 340
#     4  10  19  31  52  79 105 136 180 229 274 325
#     4  10  21  38  61  89 119 149 184 228 281 341
#     4  11  23  38  55  76 109 149 191 236 283 336
#     4  10  20  35  51  72 106 146 186 227 275 329
#     4  10  20  34  53  80 110 141 184 230 276 329
#
# _framework density 19.019662
#
# number of rings (size 3 to 8) (size 9 to 14) (size 15 to 20)
#    0.000    2.000    1.250    2.625    0.000    5.500 
#    0.000    3.125    0.000    5.625    0.000    0.000 
#    0.000    0.000    0.000    0.000    0.000    0.000 
#
# Total GULP energy -793684.920145 kJ/mol
# GULP energy per Si atom -12401.326877 kJ/mol
# Density = 1.897637 g / cm^3
# Si number density = 19.019662 Si / 1000 Ang^3
#
#
#
# Elastic Constant Matrix: (Units=GPa)
#
#
# Indices 1 2 3 4 5 6 
#
# 1 91.3136 43.9631 65.7311 0.0000 0.0000 0.0000
# 2 43.9631 55.9189 45.0405 0.0000 0.0000 0.0000
# 3 65.7311 45.0405 131.0342 0.0000 0.0000 0.0000
# 4 0.0000 0.0000 0.0000 18.1477 0.0000 0.0000
# 5 0.0000 0.0000 0.0000 0.0000 35.6381 0.0000
# 6 0.0000 0.0000 0.0000 0.0000 0.0000 23.4988
#
#
#
# Elastic Compliance Matrix: (Units=1/GPa)
#
#
# Indices 1 2 3 4 5 6 
#
# 1 0.021255 -0.011232 -0.006801 0.000000 0.000000 0.000000
# 2 -0.011232 0.030666 -0.004906 0.000000 0.000000 0.000000
# 3 -0.006801 -0.004906 0.012730 0.000000 0.000000 0.000000
# 4 0.000000 0.000000 0.000000 0.055104 0.000000 0.000000
# 5 0.000000 0.000000 0.000000 0.000000 0.028060 0.000000
# 6 0.000000 0.000000 0.000000 0.000000 0.000000 0.042555
#
#
# Mechanical properties :
#
#
# Convention : Reuss Voigt Hill
#
# Bulk Modulus (GPa) = 53.27468 65.30402 59.28935
# Shear Modulus (GPa) = 20.61809 23.69237 22.15523
#
# Velocity S-wave (km/s) = 3.29605 3.53325 3.41671
# Velocity P-wave (km/s) = 6.52353 7.14525 6.84146
#
# Compressibility (1/GPa) = 0.01877064
#
# Stress axis : x y z
#
# Youngs Moduli (GPa) = 47.04790 32.60988 78.55612
#
# Poissons Ratio (x) = 0.36628 0.53428
# Poissons Ratio (y) = 0.52846 0.38541
# Poissons Ratio (z) = 0.31999 0.15999
#
# Static dielectric constant tensor:
#      x y z
#    x 3.545170 0.000000 0.000000 
#    y 0.000000 3.311770 0.000000 
#    z 0.000000 0.000000 3.587680 
# 
# 
# High freq. dielectric constant tensor:
#      x y z
#    x 1.737590 0.000000 0.000000 
#    y 0.000000 1.723150 0.000000 
#    z 0.000000 0.000000 1.745120 
# 
# From -- ./inp_files/19605.got.cif
#   From: 2010.03.12/outbox.cif.g09.slc.cpg/sg51_10_cif.got.tgz:19605.got - 2010.04.16 13:43:02.
