data_PCOD8208257
_publ_section_title
;
Structure prediction by ZEFSAII (Michael W. Deem and Ramdas Pophale) SiO2 
 PCOD8208257
Probable space group: P M M A
;
_chemical_formula_sum "Si O2"
_cell_formula_units_Z 52
_cell_length_a 9.400112
_cell_length_b 21.957405
_cell_length_c 15.272286
_cell_angle_alpha 90.000000
_cell_angle_beta 90.000000
_cell_angle_gamma 90.000000
_cell_volume 3152.231386
_symmetry_space_group_name_H-M "P M M A"
_symmetry_group_IT_number 51
_symmetry_cell_setting 'orthorhombic'
loop_
_space_group_symop_operation_xyz
x,y,z
1/2-x,-y,z
1/2+x,-y,-z
-x,y,-z
-x,-y,-z
1/2+x,y,-z
1/2-x,y,z
x,-y,z
loop_
_atom_site_type_symbol
_atom_site_label
_atom_site_fract_x
_atom_site_fract_y
_atom_site_fract_z
Si Si1 0.917423 0.867650 0.591880
Si Si2 0.914731 0.356121 0.272674
Si Si3 0.910043 0.000000 0.585261
Si Si4 0.406803 0.788362 0.921788
Si Si5 0.085197 0.571261 0.414277
Si Si6 0.085054 0.786370 0.725920
Si Si7 0.593748 0.355969 0.077282
O O1 0.750000 0.853405 0.577422
O O2 0.000000 0.861608 0.500000
O O3 0.982489 0.820419 0.659512
O O4 0.939367 0.935763 0.634740
O O5 0.750000 0.374765 0.287971
O O6 0.934215 0.284972 0.291603
O O7 0.963550 0.372298 0.173767
O O8 0.020081 0.393687 0.332815
O O9 0.000000 0.000000 0.500000
O O10 0.750000 0.000000 0.551236
O O11 0.250000 0.816347 0.932192
O O12 0.465044 0.803757 0.824611
O O13 0.399778 0.716272 0.932521
O O14 0.500000 0.817519 0.000000
O O15 0.250000 0.589006 0.426246
O O16 0.065886 0.500000 0.397060
O O17 0.000000 0.592193 0.500000
O O18 0.250000 0.804878 0.712049
O O19 0.750000 0.383848 0.065609
O O20 0.500000 0.385291 0.000000
#
# Coordination Sequence:
#
# PCOD8208257 Si02
#       7
#     8   8   4   8   8   8   8
#     4  10  19  31  47  66  90 121 154 188 226 268
#     4   9  18  32  49  69  95 124 151 183 225 270
#     4   8  16  30  46  64  85 112 151 192 225 262
#     4   8  14  25  41  61  88 119 149 182 218 259
#     4  10  21  36  53  71  89 113 150 193 231 269
#     4   9  18  31  45  67  98 125 150 183 224 270
#     4   8  14  25  42  65  91 119 148 178 216 261
#
# _framework density 16.49625
#
# number of rings (size 3 to 8) (size 9 to 14) (size 15 to 20)
#    0.000    3.077    0.000    2.769    0.000    4.000 
#    0.000    3.077    0.000    0.462    0.000    0.538 
#    0.000    0.000    0.000    0.000    0.000    0.000 
#
# Total GULP energy -644294.792519 kJ/mol
# GULP energy per Si atom -12390.284472 kJ/mol
# Density = 1.645870 g / cm^3
# Si number density = 16.496250 Si / 1000 Ang^3
#
#
#
# Elastic Constant Matrix: (Units=GPa)
#
#
# Indices 1 2 3 4 5 6 
#
# 1 105.7811 41.4962 77.0986 0.0000 0.0000 0.0000
# 2 41.4962 40.1095 44.9956 0.0000 0.0000 0.0000
# 3 77.0986 44.9956 131.1186 0.0000 0.0000 0.0000
# 4 0.0000 0.0000 0.0000 -5.4757 0.0000 0.0000
# 5 0.0000 0.0000 0.0000 0.0000 36.5948 0.0000
# 6 0.0000 0.0000 0.0000 0.0000 0.0000 19.7762
#
#
#
# Elastic Compliance Matrix: (Units=1/GPa)
#
#
# Indices 1 2 3 4 5 6 
#
# 1 0.019501 -0.011888 -0.007387 0.000000 0.000000 0.000000
# 2 -0.011888 0.047785 -0.009408 0.000000 0.000000 0.000000
# 3 -0.007387 -0.009408 0.015199 0.000000 0.000000 0.000000
# 4 0.000000 0.000000 0.000000 -0.182625 0.000000 0.000000
# 5 0.000000 0.000000 0.000000 0.000000 0.027326 0.000000
# 6 0.000000 0.000000 0.000000 0.000000 0.000000 0.050566
#
#
# Mechanical properties :
#
#
# Convention : Reuss Voigt Hill
#
# Bulk Modulus (GPa) = 39.81150 67.13221 53.47186
# Shear Modulus (GPa) = 114.96525 17.74032 66.35279
#
# Velocity S-wave (km/s) = 8.35722 3.28291 6.34904
# Velocity P-wave (km/s) = 10.83098 7.42656 9.28612
#
# Compressibility (1/GPa) = 0.02511837
#
# Stress axis : x y z
#
# Youngs Moduli (GPa) = 51.27885 20.92710 65.79459
#
# Poissons Ratio (x) = 0.24879 0.48603
# Poissons Ratio (y) = 0.60962 0.61898
# Poissons Ratio (z) = 0.37880 0.19688
#
# Static dielectric constant tensor:
#      x y z
#    x 3.373060 0.000000 0.000000 
#    y 0.000000 2.990060 0.000000 
#    z 0.000000 0.000000 3.139390 
# 
# 
# High freq. dielectric constant tensor:
#      x y z
#    x 1.642520 0.000000 0.000000 
#    y 0.000000 1.598270 0.000000 
#    z 0.000000 0.000000 1.633480 
# 
# From -- ./inp_files/22101.got.cif
#   From: 2010.03.12/outbox.cif.g09.slc.cpg/sg51_12_cif.got.tgz:22101.got - 2010.04.16 13:43:02.
