data_PCOD8208958
_publ_section_title
;
Structure prediction by ZEFSAII (Michael W. Deem and Ramdas Pophale) SiO2 
 PCOD8208958
Probable space group: P M M A
;
_chemical_formula_sum "Si O2"
_cell_formula_units_Z 64
_cell_length_a 31.048491
_cell_length_b 9.555467
_cell_length_c 11.949588
_cell_angle_alpha 90.000000
_cell_angle_beta 90.000000
_cell_angle_gamma 90.000000
_cell_volume 3545.237599
_symmetry_space_group_name_H-M "P M M A"
_symmetry_group_IT_number 51
_symmetry_cell_setting 'orthorhombic'
loop_
_space_group_symop_operation_xyz
x,y,z
1/2-x,-y,z
1/2+x,-y,-z
-x,y,-z
-x,-y,-z
1/2+x,y,-z
1/2-x,y,z
x,-y,z
loop_
_atom_site_type_symbol
_atom_site_label
_atom_site_fract_x
_atom_site_fract_y
_atom_site_fract_z
Si Si1 0.200960 0.657926 0.063442
Si Si2 0.367643 0.341237 0.892383
Si Si3 0.801006 0.157581 0.736163
Si Si4 0.932481 0.842638 0.991357
Si Si5 0.471500 0.334834 0.605319
Si Si6 0.700175 0.335490 0.520686
Si Si7 0.999538 0.842044 0.812350
Si Si8 0.125129 0.334651 0.644046
O O1 0.250000 0.698003 0.044032
O O2 0.195618 0.500000 0.110660
O O3 0.180249 0.764337 0.154144
O O4 0.180577 0.669879 0.939854
O O5 0.384284 0.500000 0.885090
O O6 0.370959 0.270778 0.769600
O O7 0.394565 0.264854 0.988193
O O8 0.750000 0.151859 0.744564
O O9 0.813994 0.247705 0.628442
O O10 0.820142 0.000000 0.728346
O O11 0.953799 0.809323 0.871066
O O12 0.914289 0.000000 0.991031
O O13 0.965330 0.823243 0.092504
O O14 0.500000 0.285355 0.500000
O O15 0.474646 0.500000 0.622264
O O16 0.492436 0.265804 0.713639
O O17 0.421131 0.289145 0.591120
O O18 0.750000 0.304426 0.484996
O O19 0.694540 0.500000 0.546492
O O20 0.666477 0.282612 0.426283
O O21 0.000308 0.000000 0.764360
O O22 0.128029 0.500000 0.652293
#
# Coordination Sequence:
#
# PCOD8208958 Si02
#       8
#     8   8   8   8   8   8   8   8
#     4   9  18  32  50  74 103 134 168 205 249 302
#     4  10  19  32  52  76 102 134 169 209 254 301
#     4   9  17  31  51  72  97 130 168 211 255 298
#     4   9  18  33  53  76 102 130 163 207 255 300
#     4  10  20  35  54  75 103 138 170 209 260 306
#     4   9  17  31  53  76 100 136 175 211 255 302
#     4   9  18  34  55  76  99 131 168 206 250 302
#     4   9  18  33  51  74 104 132 167 212 254 303
#
# _framework density 18.052385999999998
#
# number of rings (size 3 to 8) (size 9 to 14) (size 15 to 20)
#    0.000    2.750    1.250    1.125    0.000    3.250 
#    2.250    5.000    0.000    0.000    0.000    3.500 
#    0.000    0.000    0.000    0.000    0.000    0.000 
#
# Total GULP energy -793188.729558 kJ/mol
# GULP energy per Si atom -12393.573899 kJ/mol
# Density = 1.801130 g / cm^3
# Si number density = 18.052386 Si / 1000 Ang^3
#
#
#
# Elastic Constant Matrix: (Units=GPa)
#
#
# Indices 1 2 3 4 5 6 
#
# 1 87.1022 33.1784 58.7849 0.0000 0.0000 0.0000
# 2 33.1784 60.1238 39.2895 0.0000 0.0000 0.0000
# 3 58.7849 39.2895 102.2991 0.0000 0.0000 0.0000
# 4 0.0000 0.0000 0.0000 20.5050 0.0000 0.0000
# 5 0.0000 0.0000 0.0000 0.0000 27.6848 0.0000
# 6 0.0000 0.0000 0.0000 0.0000 0.0000 16.2325
#
#
#
# Elastic Compliance Matrix: (Units=1/GPa)
#
#
# Indices 1 2 3 4 5 6 
#
# 1 0.019675 -0.004632 -0.009527 0.000000 0.000000 0.000000
# 2 -0.004632 0.023296 -0.006286 0.000000 0.000000 0.000000
# 3 -0.009527 -0.006286 0.017664 0.000000 0.000000 0.000000
# 4 0.000000 0.000000 0.000000 0.048769 0.000000 0.000000
# 5 0.000000 0.000000 0.000000 0.000000 0.036121 0.000000
# 6 0.000000 0.000000 0.000000 0.000000 0.000000 0.061605
#
#
# Mechanical properties :
#
#
# Convention : Reuss Voigt Hill
#
# Bulk Modulus (GPa) = 50.64313 56.89232 53.76773
# Shear Modulus (GPa) = 19.63874 20.76929 20.20401
#
# Velocity S-wave (km/s) = 3.30187 3.39558 3.34906
# Velocity P-wave (km/s) = 6.53076 6.85251 6.69357
#
# Compressibility (1/GPa) = 0.01974601
#
# Stress axis : x y z
#
# Youngs Moduli (GPa) = 50.82667 42.92637 56.61253
#
# Poissons Ratio (x) = 0.19881 0.53935
# Poissons Ratio (y) = 0.23540 0.35585
# Poissons Ratio (z) = 0.48423 0.26982
#
# Static dielectric constant tensor:
#      x y z
#    x 5.786040 0.000000 0.000000 
#    y 0.000000 3.309930 0.000000 
#    z 0.000000 0.000000 3.866340 
# 
# 
# High freq. dielectric constant tensor:
#      x y z
#    x 1.689240 0.000000 0.000000 
#    y 0.000000 1.683760 0.000000 
#    z 0.000000 0.000000 1.695540 
# 
# From -- ./inp_files/19629.got.cif
#   From: 2010.03.12/outbox.cif.g09.slc.cpg/sg51_10_cif.got.tgz:19629.got - 2010.04.16 13:43:02.
