data_PCOD8208740
_publ_section_title
;
Structure prediction by ZEFSAII (Michael W. Deem and Ramdas Pophale) SiO2 
 PCOD8208740
Probable space group: P M M A
;
_chemical_formula_sum "Si O2"
_cell_formula_units_Z 44
_cell_length_a 9.757447
_cell_length_b 19.244101
_cell_length_c 13.848016
_cell_angle_alpha 90.000000
_cell_angle_beta 90.000000
_cell_angle_gamma 90.000000
_cell_volume 2600.287601
_symmetry_space_group_name_H-M "P M M A"
_symmetry_group_IT_number 51
_symmetry_cell_setting 'orthorhombic'
loop_
_space_group_symop_operation_xyz
x,y,z
1/2-x,-y,z
1/2+x,-y,-z
-x,y,-z
-x,-y,-z
1/2+x,y,-z
1/2-x,y,z
x,-y,z
loop_
_atom_site_type_symbol
_atom_site_label
_atom_site_fract_x
_atom_site_fract_y
_atom_site_fract_z
Si Si1 0.250000 0.921128 0.621234
Si Si2 0.589106 0.299810 0.732733
Si Si3 0.599073 0.500000 0.087463
Si Si4 0.750000 0.923772 0.607707
Si Si5 0.094229 0.420997 0.412476
Si Si6 0.412608 0.651391 0.901232
Si Si7 0.996320 0.168265 0.614346
O O1 0.250000 0.929439 0.507012
O O2 0.375058 0.873690 0.655351
O O3 0.250000 0.000000 0.665778
O O4 0.750000 0.285991 0.757288
O O5 0.571491 0.373633 0.680717
O O6 0.493193 0.298702 0.827468
O O7 0.525767 0.242061 0.663165
O O8 0.750000 0.500000 0.041275
O O9 0.578637 0.572782 0.144286
O O10 0.500000 0.500000 0.000000
O O11 0.621823 0.882894 0.646999
O O12 0.750000 0.000000 0.654057
O O13 0.250000 0.415192 0.449395
O O14 0.057110 0.500000 0.382745
O O15 0.000000 0.394799 0.500000
O O16 0.250000 0.672357 0.914567
O O17 0.500000 0.655899 0.000000
O O18 0.000000 0.181479 0.500000
#
# Coordination Sequence:
#
# PCOD8208740 Si02
#       7
#     4   8   4   4   8   8   8
#     4   9  18  30  50  76 104 138 177 214 252 302
#     4  11  22  34  50  74 105 139 177 218 262 315
#     4   8  16  32  52  74  95 118 155 204 263 316
#     4   9  16  30  50  72 102 142 175 206 252 306
#     4   9  19  35  51  69  97 137 183 224 259 297
#     4  10  21  37  56  77 101 130 167 217 271 325
#     4  10  19  32  49  74 109 143 177 214 254 303
#
# _framework density 16.921203999999999
#
# number of rings (size 3 to 8) (size 9 to 14) (size 15 to 20)
#    0.000    2.364    0.909    1.636    2.545    3.636 
#    0.000    0.000    0.000    0.000    0.000    0.000 
#    0.000    4.364    0.000    0.000    0.000    0.000 
#
# Total GULP energy -545088.235184 kJ/mol
# GULP energy per Si atom -12388.368981 kJ/mol
# Density = 1.688269 g / cm^3
# Si number density = 16.921204 Si / 1000 Ang^3
#
#
#
# Elastic Constant Matrix: (Units=GPa)
#
#
# Indices 1 2 3 4 5 6 
#
# 1 138.2674 51.1701 43.5864 0.0000 0.0000 0.0000
# 2 51.1701 95.6015 34.6174 0.0000 0.0000 0.0000
# 3 43.5864 34.6174 57.2272 0.0000 0.0000 0.0000
# 4 0.0000 0.0000 0.0000 7.2615 0.0000 0.0000
# 5 0.0000 0.0000 0.0000 0.0000 28.5668 0.0000
# 6 0.0000 0.0000 0.0000 0.0000 0.0000 723.0790
#
#
#
# Elastic Compliance Matrix: (Units=1/GPa)
#
#
# Indices 1 2 3 4 5 6 
#
# 1 0.010327 -0.003431 -0.005790 0.000000 0.000000 0.000000
# 2 -0.003431 0.014534 -0.006178 0.000000 0.000000 0.000000
# 3 -0.005790 -0.006178 0.025622 0.000000 0.000000 0.000000
# 4 0.000000 0.000000 0.000000 0.137712 0.000000 0.000000
# 5 0.000000 0.000000 0.000000 0.000000 0.035006 0.000000
# 6 0.000000 0.000000 0.000000 0.000000 0.000000 0.001383
#
#
# Mechanical properties :
#
#
# Convention : Reuss Voigt Hill
#
# Bulk Modulus (GPa) = 50.80428 61.09379 55.94903
# Shear Modulus (GPa) = 19.08802 162.56294 90.82548
#
# Velocity S-wave (km/s) = 3.36229 9.81219 7.33431
# Velocity P-wave (km/s) = 6.72031 12.82791 10.24007
#
# Compressibility (1/GPa) = 0.01968338
#
# Stress axis : x y z
#
# Youngs Moduli (GPa) = 96.82990 68.80545 39.02941
#
# Poissons Ratio (x) = 0.23607 0.22599
# Poissons Ratio (y) = 0.33222 0.24114
# Poissons Ratio (z) = 0.56067 0.42511
#
# Static dielectric constant tensor:
#      x y z
#    x 3.453900 0.000000 0.000000 
#    y 0.000000 3.312590 0.000000 
#    z 0.000000 0.000000 2.723340 
# 
# 
# High freq. dielectric constant tensor:
#      x y z
#    x 1.675420 0.000000 0.000000 
#    y 0.000000 1.651400 0.000000 
#    z 0.000000 0.000000 1.599380 
# 
# From -- ./inp_files/20987.got.cif
#   From: 2010.03.12/outbox.cif.g09.slc.cpg/sg51_11_cif.got.tgz:20987.got - 2010.04.16 13:43:02.
