data_PCOD8208536
_publ_section_title
;
Structure prediction by ZEFSAII (Michael W. Deem and Ramdas Pophale) SiO2 
 PCOD8208536
Probable space group: P M M A
;
_chemical_formula_sum "Si O2"
_cell_formula_units_Z 40
_cell_length_a 9.032358
_cell_length_b 13.608126
_cell_length_c 18.610722
_cell_angle_alpha 90.000000
_cell_angle_beta 90.000000
_cell_angle_gamma 90.000000
_cell_volume 2287.508341
_symmetry_space_group_name_H-M "P M M A"
_symmetry_group_IT_number 51
_symmetry_cell_setting 'orthorhombic'
loop_
_space_group_symop_operation_xyz
x,y,z
1/2-x,-y,z
1/2+x,-y,-z
-x,y,-z
-x,-y,-z
1/2+x,y,-z
1/2-x,y,z
x,-y,z
loop_
_atom_site_type_symbol
_atom_site_label
_atom_site_fract_x
_atom_site_fract_y
_atom_site_fract_z
Si Si1 0.080362 0.889785 0.836552
Si Si2 0.423284 0.886916 0.574293
Si Si3 0.422713 0.796709 0.292731
Si Si4 0.577701 0.704252 0.074519
Si Si5 0.419567 0.610437 0.203693
O O1 0.250000 0.873943 0.811422
O O2 0.040829 0.815780 0.901140
O O3 0.975573 0.871719 0.768622
O O4 0.053976 0.000000 0.865201
O O5 0.500000 0.858115 0.500000
O O6 0.250000 0.867656 0.566642
O O7 0.488527 0.815972 0.634716
O O8 0.457176 0.000000 0.594639
O O9 0.250000 0.814012 0.306861
O O10 0.458861 0.685255 0.268061
O O11 0.750000 0.686592 0.063853
O O12 0.520546 0.629006 0.134485
O O13 0.500000 0.681105 0.000000
O O14 0.250000 0.626377 0.179793
O O15 0.447718 0.500000 0.231920
#
# Coordination Sequence:
#
# PCOD8208536 Si02
#       5
#     8   8   8   8   8
#     4   9  18  32  48  67  94 129 165 198 235 283
#     4  10  20  33  50  74 105 138 167 195 230 274
#     4  10  19  31  50  75 100 126 159 200 242 285
#     4  10  20  33  49  70  96 125 159 200 245 292
#     4   9  19  36  55  73  94 123 160 201 245 291
#
# _framework density 17.486274999999999
#
# number of rings (size 3 to 8) (size 9 to 14) (size 15 to 20)
#    0.000    2.400    0.000    2.400    0.000    6.800 
#    0.000    0.000    0.000    0.600    0.000    0.000 
#    0.000    0.000    0.000    0.000    0.000    0.000 
#
# Total GULP energy -496095.181765 kJ/mol
# GULP energy per Si atom -12402.379544 kJ/mol
# Density = 1.744648 g / cm^3
# Si number density = 17.486275 Si / 1000 Ang^3
#
#
#
# Elastic Constant Matrix: (Units=GPa)
#
#
# Indices 1 2 3 4 5 6 
#
# 1 90.2293 34.5221 61.6343 0.0000 0.0000 0.0000
# 2 34.5221 97.0703 42.7694 0.0000 0.0000 0.0000
# 3 61.6343 42.7694 116.2686 0.0000 0.0000 0.0000
# 4 0.0000 0.0000 0.0000 15.5030 0.0000 0.0000
# 5 0.0000 0.0000 0.0000 0.0000 34.5886 0.0000
# 6 0.0000 0.0000 0.0000 0.0000 0.0000 23.1777
#
#
#
# Elastic Compliance Matrix: (Units=1/GPa)
#
#
# Indices 1 2 3 4 5 6 
#
# 1 0.017911 -0.002609 -0.008535 0.000000 0.000000 0.000000
# 2 -0.002609 0.012675 -0.003279 0.000000 0.000000 0.000000
# 3 -0.008535 -0.003279 0.014331 0.000000 0.000000 0.000000
# 4 0.000000 0.000000 0.000000 0.064503 0.000000 0.000000
# 5 0.000000 0.000000 0.000000 0.000000 0.028911 0.000000
# 6 0.000000 0.000000 0.000000 0.000000 0.000000 0.043145
#
#
# Mechanical properties :
#
#
# Convention : Reuss Voigt Hill
#
# Bulk Modulus (GPa) = 62.22640 64.60220 63.41430
# Shear Modulus (GPa) = 23.18240 25.63004 24.40622
#
# Velocity S-wave (km/s) = 3.64503 3.83263 3.74001
# Velocity P-wave (km/s) = 7.30603 7.52397 7.41580
#
# Compressibility (1/GPa) = 0.01607035
#
# Stress axis : x y z
#
# Youngs Moduli (GPa) = 55.83038 78.89795 69.77684
#
# Poissons Ratio (x) = 0.20588 0.59554
# Poissons Ratio (y) = 0.14569 0.22880
# Poissons Ratio (z) = 0.47651 0.25871
#
# Static dielectric constant tensor:
#      x y z
#    x 3.361930 0.000000 0.000000 
#    y 0.000000 3.256610 0.000000 
#    z 0.000000 0.000000 3.102390 
# 
# 
# High freq. dielectric constant tensor:
#      x y z
#    x 1.688330 0.000000 0.000000 
#    y 0.000000 1.667710 0.000000 
#    z 0.000000 0.000000 1.661490 
# 
# From -- ./inp_files/20496.got.cif
#   From: 2010.03.12/outbox.cif.g09.slc.cpg/sg51_11_cif.got.tgz:20496.got - 2010.04.16 13:43:02.
