data_PCOD8208247
_publ_section_title
;
Structure prediction by ZEFSAII (Michael W. Deem and Ramdas Pophale) SiO2 
 PCOD8208247
Probable space group: P M M A
;
_chemical_formula_sum "Si O2"
_cell_formula_units_Z 56
_cell_length_a 9.489500
_cell_length_b 20.023519
_cell_length_c 15.341548
_cell_angle_alpha 90.000000
_cell_angle_beta 90.000000
_cell_angle_gamma 90.000000
_cell_volume 2915.096376
_symmetry_space_group_name_H-M "P M M A"
_symmetry_group_IT_number 51
_symmetry_cell_setting 'orthorhombic'
loop_
_space_group_symop_operation_xyz
x,y,z
1/2-x,-y,z
1/2+x,-y,-z
-x,y,-z
-x,-y,-z
1/2+x,y,-z
1/2-x,y,z
x,-y,z
loop_
_atom_site_type_symbol
_atom_site_label
_atom_site_fract_x
_atom_site_fract_y
_atom_site_fract_z
Si Si1 0.584367 0.815177 0.274891
Si Si2 0.089909 0.282325 0.578455
Si Si3 0.905846 0.571938 0.371384
Si Si4 0.085881 0.076429 0.585253
Si Si5 0.407927 0.803961 0.919142
Si Si6 0.589945 0.425777 0.791029
Si Si7 0.092952 0.646325 0.922440
O O1 0.750000 0.811522 0.259589
O O2 0.536767 0.748401 0.328685
O O3 0.539201 0.879635 0.331428
O O4 0.520809 0.819518 0.176231
O O5 0.250000 0.258630 0.564129
O O6 0.075135 0.362430 0.570135
O O7 0.000000 0.250525 0.500000
O O8 0.750000 0.577510 0.325772
O O9 0.910599 0.500000 0.422909
O O10 0.037055 0.570715 0.307064
O O11 0.250000 0.087287 0.564427
O O12 0.000000 0.098958 0.500000
O O13 0.051997 0.000000 0.609494
O O14 0.250000 0.834566 0.926540
O O15 0.398220 0.725090 0.928927
O O16 0.500000 0.833343 0.000000
O O17 0.750000 0.398768 0.793979
O O18 0.581466 0.500000 0.833073
O O19 0.484925 0.373787 0.834752
O O20 0.250000 0.615391 0.926106
O O21 0.000000 0.615459 0.000000
#
# Coordination Sequence:
#
# PCOD8208247 Si02
#       7
#     8   8   8   8   8   8   8
#     4   9  17  31  51  73 101 134 165 200 245 296
#     4  10  20  33  49  71  98 128 162 201 247 296
#     4   9  18  33  50  65  85 119 160 197 238 291
#     4   9  17  30  50  76 105 138 173 205 239 284
#     4   9  18  33  52  73  96 125 162 203 245 290
#     4  10  20  32  46  65  87 112 148 195 244 294
#     4  10  19  31  47  65  87 116 150 191 242 297
#
# _framework density 19.210342000000001
#
# number of rings (size 3 to 8) (size 9 to 14) (size 15 to 20)
#    0.000    2.571    0.000    2.143    0.000    4.857 
#    0.000    1.429    0.000    0.429    0.000    0.000 
#    0.000    0.000    0.000    0.000    0.000    0.000 
#
# Total GULP energy -693756.617590 kJ/mol
# GULP energy per Si atom -12388.511028 kJ/mol
# Density = 1.916662 g / cm^3
# Si number density = 19.210342 Si / 1000 Ang^3
#
#
#
# Elastic Constant Matrix: (Units=GPa)
#
#
# Indices 1 2 3 4 5 6 
#
# 1 100.7647 18.2483 51.4601 0.0000 0.0000 0.0000
# 2 18.2483 63.3735 30.9555 0.0000 0.0000 0.0000
# 3 51.4601 30.9555 139.4850 0.0000 0.0000 0.0000
# 4 0.0000 0.0000 0.0000 23.1045 0.0000 0.0000
# 5 0.0000 0.0000 0.0000 0.0000 31.9603 0.0000
# 6 0.0000 0.0000 0.0000 0.0000 0.0000 12.0448
#
#
#
# Elastic Compliance Matrix: (Units=1/GPa)
#
#
# Indices 1 2 3 4 5 6 
#
# 1 0.012353 -0.001493 -0.004226 0.000000 0.000000 0.000000
# 2 -0.001493 0.017878 -0.003417 0.000000 0.000000 0.000000
# 3 -0.004226 -0.003417 0.009487 0.000000 0.000000 0.000000
# 4 0.000000 0.000000 0.000000 0.043282 0.000000 0.000000
# 5 0.000000 0.000000 0.000000 0.000000 0.031289 0.000000
# 6 0.000000 0.000000 0.000000 0.000000 0.000000 0.083023
#
#
# Mechanical properties :
#
#
# Convention : Reuss Voigt Hill
#
# Bulk Modulus (GPa) = 46.62808 56.10565 51.36687
# Shear Modulus (GPa) = 22.44858 26.95254 24.70056
#
# Velocity S-wave (km/s) = 3.42214 3.74976 3.58969
# Velocity P-wave (km/s) = 6.31979 6.92943 6.63162
#
# Compressibility (1/GPa) = 0.02144630
#
# Stress axis : x y z
#
# Youngs Moduli (GPa) = 80.95445 55.93352 105.41140
#
# Poissons Ratio (x) = 0.08349 0.44547
# Poissons Ratio (y) = 0.12084 0.36019
# Poissons Ratio (z) = 0.34211 0.19112
#
# Static dielectric constant tensor:
#      x y z
#    x 3.589270 0.000000 0.000000 
#    y 0.000000 3.443860 0.000000 
#    z 0.000000 0.000000 3.497230 
# 
# 
# High freq. dielectric constant tensor:
#      x y z
#    x 1.736540 0.000000 0.000000 
#    y 0.000000 1.725750 0.000000 
#    z 0.000000 0.000000 1.734850 
# 
# From -- ./inp_files/21821.got.cif
#   From: 2010.03.12/outbox.cif.g09.slc.cpg/sg51_11_cif.got.tgz:21821.got - 2010.04.16 13:43:02.
