data_PCOD8208114
_publ_section_title
;
Structure prediction by ZEFSAII (Michael W. Deem and Ramdas Pophale) SiO2 
 PCOD8208114
Probable space group: P M M A
;
_chemical_formula_sum "Si O2"
_cell_formula_units_Z 52
_cell_length_a 30.316572
_cell_length_b 7.689421
_cell_length_c 13.484546
_cell_angle_alpha 90.000000
_cell_angle_beta 90.000000
_cell_angle_gamma 90.000000
_cell_volume 3143.475364
_symmetry_space_group_name_H-M "P M M A"
_symmetry_group_IT_number 51
_symmetry_cell_setting 'orthorhombic'
loop_
_space_group_symop_operation_xyz
x,y,z
1/2-x,-y,z
1/2+x,-y,-z
-x,y,-z
-x,-y,-z
1/2+x,y,-z
1/2-x,y,z
x,-y,z
loop_
_atom_site_type_symbol
_atom_site_label
_atom_site_fract_x
_atom_site_fract_y
_atom_site_fract_z
Si Si1 0.422563 0.301331 0.721104
Si Si2 0.974945 0.693343 0.717553
Si Si3 0.038868 0.804604 0.069439
Si Si4 0.613201 0.699340 0.065826
Si Si5 0.799332 0.300009 0.155910
Si Si6 0.957061 0.000000 0.572786
Si Si7 0.799743 0.000000 0.313405
Si Si8 0.387637 0.000000 0.588944
O O1 0.411246 0.500000 0.692878
O O2 0.473969 0.267818 0.729435
O O3 0.402031 0.246543 0.825112
O O4 0.403723 0.176677 0.638414
O O5 0.965785 0.500000 0.675607
O O6 0.954497 0.703638 0.827724
O O7 0.955168 0.829096 0.640314
O O8 0.024595 0.000000 0.095733
O O9 0.086283 0.808545 0.014699
O O10 0.000000 0.721134 0.000000
O O11 0.602144 0.500000 0.043043
O O12 0.666036 0.737776 0.066109
O O13 0.750000 0.270911 0.113549
O O14 0.805975 0.500000 0.192921
O O15 0.808011 0.172573 0.248011
O O16 0.909629 0.000000 0.518914
O O17 0.000000 0.000000 0.500000
O O18 0.750000 0.000000 0.356312
O O19 0.834003 0.000000 0.405902
#
# Coordination Sequence:
#
# PCOD8208114 Si02
#       8
#     8   8   8   8   8   4   4   4
#     4  10  20  31  50  76 102 135 173 206 244 295
#     4  11  22  38  53  71 104 139 175 214 249 292
#     4  11  22  31  50  74 104 140 175 210 246 289
#     4  10  19  30  47  75 104 137 173 200 241 297
#     4   9  18  32  49  73 107 137 164 202 246 300
#     4  12  24  38  51  76 101 131 174 213 261 310
#     4  10  20  32  51  76  98 132 171 204 254 304
#     4  12  22  34  55  69 106 135 167 213 256 300
#
# _framework density 16.542202
#
# number of rings (size 3 to 8) (size 9 to 14) (size 15 to 20)
#    0.000    1.538    5.385    0.462    2.154    1.538 
#    0.000    0.000    0.000    0.000    0.000    1.077 
#    0.000    1.231    0.000    0.000    0.000    0.000 
#
# Total GULP energy -644576.632528 kJ/mol
# GULP energy per Si atom -12395.704472 kJ/mol
# Density = 1.650455 g / cm^3
# Si number density = 16.542202 Si / 1000 Ang^3
#
#
#
# Elastic Constant Matrix: (Units=GPa)
#
#
# Indices 1 2 3 4 5 6 
#
# 1 118.1455 34.1173 46.4262 0.0000 0.0000 0.0000
# 2 34.1173 82.0869 35.2526 0.0000 0.0000 0.0000
# 3 46.4262 35.2526 79.9262 0.0000 0.0000 0.0000
# 4 0.0000 0.0000 0.0000 16.9775 0.0000 0.0000
# 5 0.0000 0.0000 0.0000 0.0000 -60.5593 0.0000
# 6 0.0000 0.0000 0.0000 0.0000 0.0000 22.4781
#
#
#
# Elastic Compliance Matrix: (Units=1/GPa)
#
#
# Indices 1 2 3 4 5 6 
#
# 1 0.011315 -0.002319 -0.005549 0.000000 0.000000 0.000000
# 2 -0.002319 0.015504 -0.005491 0.000000 0.000000 0.000000
# 3 -0.005549 -0.005491 0.018157 0.000000 0.000000 0.000000
# 4 0.000000 0.000000 0.000000 0.058902 0.000000 0.000000
# 5 0.000000 0.000000 0.000000 0.000000 -0.016513 0.000000
# 6 0.000000 0.000000 0.000000 0.000000 0.000000 0.044488
#
#
# Mechanical properties :
#
#
# Convention : Reuss Voigt Hill
#
# Bulk Modulus (GPa) = 54.77598 56.86122 55.81860
# Shear Modulus (GPa) = 30.36609 6.73676 18.55142
#
# Velocity S-wave (km/s) = 4.28912 2.02022 3.35245
# Velocity P-wave (km/s) = 7.59694 6.31584 6.98582
#
# Compressibility (1/GPa) = 0.01825618
#
# Stress axis : x y z
#
# Youngs Moduli (GPa) = 88.38192 64.49765 55.07572
#
# Poissons Ratio (x) = 0.14960 0.30562
# Poissons Ratio (y) = 0.20500 0.30243
# Poissons Ratio (z) = 0.49045 0.35417
#
# Static dielectric constant tensor:
#      x y z
#    x 3.269420 0.000000 0.000000 
#    y 0.000000 3.353400 0.000000 
#    z 0.000000 0.000000 2.805880 
# 
# 
# High freq. dielectric constant tensor:
#      x y z
#    x 1.629290 0.000000 0.000000 
#    y 0.000000 1.657000 0.000000 
#    z 0.000000 0.000000 1.592660 
# 
# From -- ./inp_files/19343.got.cif
#   From: 2010.03.12/outbox.cif.g09.slc.cpg/sg51_10_cif.got.tgz:19343.got - 2010.04.16 13:43:02.
