data_PCOD8208121
_publ_section_title
;
Structure prediction by ZEFSAII (Michael W. Deem and Ramdas Pophale) SiO2 
 PCOD8208121
Probable space group: P M M A
;
_chemical_formula_sum "Si O2"
_cell_formula_units_Z 64
_cell_length_a 28.303873
_cell_length_b 9.124509
_cell_length_c 14.184636
_cell_angle_alpha 90.000000
_cell_angle_beta 90.000000
_cell_angle_gamma 90.000000
_cell_volume 3663.309113
_symmetry_space_group_name_H-M "P M M A"
_symmetry_group_IT_number 51
_symmetry_cell_setting 'orthorhombic'
loop_
_space_group_symop_operation_xyz
x,y,z
1/2-x,-y,z
1/2+x,-y,-z
-x,y,-z
-x,-y,-z
1/2+x,y,-z
1/2-x,y,z
x,-y,z
loop_
_atom_site_type_symbol
_atom_site_label
_atom_site_fract_x
_atom_site_fract_y
_atom_site_fract_z
Si Si1 0.616727 0.170241 0.460680
Si Si2 0.696709 0.169976 0.162859
Si Si3 0.468644 0.667664 0.637072
Si Si4 0.562354 0.168960 0.641495
Si Si5 0.111412 0.831401 0.962323
Si Si6 0.563983 0.830957 0.852772
Si Si7 0.195176 0.671141 0.646271
Si Si8 0.029121 0.333947 0.859546
O O1 0.573718 0.237133 0.402764
O O2 0.606769 0.192350 0.572159
O O3 0.665293 0.252409 0.436221
O O4 0.621601 0.000000 0.434304
O O5 0.750000 0.211699 0.133495
O O6 0.663938 0.209215 0.073321
O O7 0.680138 0.263219 0.252912
O O8 0.692702 0.000000 0.191076
O O9 0.465059 0.500000 0.602116
O O10 0.518780 0.733817 0.603581
O O11 0.465065 0.679693 0.748484
O O12 0.578272 0.218465 0.746820
O O13 0.545780 0.000000 0.640512
O O14 0.074517 0.735997 0.905924
O O15 0.100005 0.000000 0.940075
O O16 0.107306 0.800687 0.074938
O O17 0.518771 0.744852 0.892384
O O18 0.549546 0.000000 0.852383
O O19 0.250000 0.702313 0.625108
O O20 0.183387 0.500000 0.647856
O O21 0.025377 0.500000 0.893510
#
# Coordination Sequence:
#
# PCOD8208121 Si02
#       8
#     8   8   8   8   8   8   8   8
#     4  11  21  32  50  73  96 126 163 199 238 285
#     4   9  18  33  52  74  99 124 151 187 232 282
#     4  10  20  32  47  70 100 131 162 197 238 283
#     4   9  19  34  49  67  95 130 165 200 237 278
#     4  10  19  30  48  71  93 123 160 193 231 279
#     4   9  18  33  49  65  92 128 162 195 231 273
#     4  10  21  36  53  74  99 125 154 191 237 287
#     4  10  20  31  44  67  98 127 157 194 234 277
#
# _framework density 17.470542999999999
#
# number of rings (size 3 to 8) (size 9 to 14) (size 15 to 20)
#    0.000    2.250    0.000    3.000    0.000    9.250 
#    0.000    0.000    0.000    0.750    0.000    3.500 
#    0.000    2.000    0.000    0.000    0.000    0.000 
#
# Total GULP energy -793628.018624 kJ/mol
# GULP energy per Si atom -12400.437791 kJ/mol
# Density = 1.743078 g / cm^3
# Si number density = 17.470543 Si / 1000 Ang^3
#
#
#
# Elastic Constant Matrix: (Units=GPa)
#
#
# Indices 1 2 3 4 5 6 
#
# 1 101.5199 50.5583 66.6037 0.0000 0.0000 0.0000
# 2 50.5583 87.0717 43.2445 0.0000 0.0000 0.0000
# 3 66.6037 43.2445 64.2488 0.0000 0.0000 0.0000
# 4 0.0000 0.0000 0.0000 16.6803 0.0000 0.0000
# 5 0.0000 0.0000 0.0000 0.0000 30.4738 0.0000
# 6 0.0000 0.0000 0.0000 0.0000 0.0000 21.6578
#
#
#
# Elastic Compliance Matrix: (Units=1/GPa)
#
#
# Indices 1 2 3 4 5 6 
#
# 1 0.031339 -0.003097 -0.030403 0.000000 0.000000 0.000000
# 2 -0.003097 0.017558 -0.008607 0.000000 0.000000 0.000000
# 3 -0.030403 -0.008607 0.052875 0.000000 0.000000 0.000000
# 4 0.000000 0.000000 0.000000 0.059951 0.000000 0.000000
# 5 0.000000 0.000000 0.000000 0.000000 0.032815 0.000000
# 6 0.000000 0.000000 0.000000 0.000000 0.000000 0.046173
#
#
# Mechanical properties :
#
#
# Convention : Reuss Voigt Hill
#
# Bulk Modulus (GPa) = 56.95609 63.73928 60.34768
# Shear Modulus (GPa) = 15.11580 19.92462 17.52021
#
# Velocity S-wave (km/s) = 2.94465 3.38075 3.17021
# Velocity P-wave (km/s) = 6.65081 7.19738 6.92949
#
# Compressibility (1/GPa) = 0.01755739
#
# Stress axis : x y z
#
# Youngs Moduli (GPa) = 31.90872 56.95417 18.91237
#
# Poissons Ratio (x) = 0.17641 0.57500
# Poissons Ratio (y) = 0.09883 0.16278
# Poissons Ratio (z) = 0.97013 0.49021
#
# Static dielectric constant tensor:
#      x y z
#    x 3.198570 0.000000 0.000000 
#    y 0.000000 3.391350 0.000000 
#    z 0.000000 0.000000 3.430220 
# 
# 
# High freq. dielectric constant tensor:
#      x y z
#    x 1.654160 0.000000 0.000000 
#    y 0.000000 1.683070 0.000000 
#    z 0.000000 0.000000 1.675210 
# 
# From -- ./inp_files/26692.got.cif
#   From: 2010.03.12/outbox.cif.g09.slc.cpg/sg51_14_cif.got.tgz:26692.got - 2010.04.16 13:43:02.
