data_PCOD8208087
_publ_section_title
;
Structure prediction by ZEFSAII (Michael W. Deem and Ramdas Pophale) SiO2 
 PCOD8208087
Probable space group: P M M A
;
_chemical_formula_sum "Si O2"
_cell_formula_units_Z 64
_cell_length_a 9.217236
_cell_length_b 22.203111
_cell_length_c 15.869554
_cell_angle_alpha 90.000000
_cell_angle_beta 90.000000
_cell_angle_gamma 90.000000
_cell_volume 3247.725079
_symmetry_space_group_name_H-M "P M M A"
_symmetry_group_IT_number 51
_symmetry_cell_setting 'orthorhombic'
loop_
_space_group_symop_operation_xyz
x,y,z
1/2-x,-y,z
1/2+x,-y,-z
-x,y,-z
-x,-y,-z
1/2+x,y,-z
1/2-x,y,z
x,-y,z
loop_
_atom_site_type_symbol
_atom_site_label
_atom_site_fract_x
_atom_site_fract_y
_atom_site_fract_z
Si Si1 0.417872 0.567806 0.738475
Si Si2 0.077200 0.856628 0.086497
Si Si3 0.085574 0.099728 0.582169
Si Si4 0.082233 0.394690 0.923761
Si Si5 0.090326 0.320435 0.302143
Si Si6 0.590399 0.281613 0.888052
Si Si7 0.582223 0.930775 0.231111
Si Si8 0.585852 0.757895 0.420500
O O1 0.250000 0.584984 0.724323
O O2 0.450515 0.500000 0.707679
O O3 0.457153 0.572432 0.837097
O O4 0.517318 0.613810 0.686403
O O5 0.250000 0.867781 0.080720
O O6 0.038157 0.786807 0.100718
O O7 0.014682 0.892615 0.166582
O O8 0.000000 0.878789 0.000000
O O9 0.250000 0.077419 0.570926
O O10 0.024568 0.076022 0.672070
O O11 0.073826 0.171046 0.585177
O O12 0.000000 0.074552 0.500000
O O13 0.250000 0.397471 0.943122
O O14 0.031188 0.324903 0.926783
O O15 0.000000 0.428988 0.000000
O O16 0.250000 0.322711 0.344771
O O17 0.106382 0.299839 0.207805
O O18 0.987789 0.269542 0.339161
O O19 0.750000 0.290593 0.930194
O O20 0.750000 0.908801 0.226591
O O21 0.568545 0.000000 0.203995
O O22 0.500000 0.731905 0.500000
O O23 0.750000 0.735649 0.426682
#
# Coordination Sequence:
#
# PCOD8208087 Si02
#       8
#     8   8   8   8   8   8   8   8
#     4   9  19  35  51  68  94 132 176 214 250 298
#     4  11  23  38  57  80 106 140 183 230 280 329
#     4   9  19  35  57  86 117 147 178 215 263 320
#     4  10  19  30  47  71  99 131 166 207 255 306
#     4  10  19  32  52  78 106 134 168 212 260 309
#     4   9  19  34  52  76 104 133 167 211 263 318
#     4  10  22  40  59  80 109 145 185 227 269 317
#     4  10  19  32  52  79 110 140 169 203 249 305
#
# _framework density 19.706102000000001
#
# number of rings (size 3 to 8) (size 9 to 14) (size 15 to 20)
#    0.000    2.250    0.000    2.625    0.000    5.250 
#    0.000    0.000    0.000    0.375    0.000    0.000 
#    0.000    0.000    0.000    0.000    0.000    0.000 
#
# Total GULP energy -793354.847162 kJ/mol
# GULP energy per Si atom -12396.169487 kJ/mol
# Density = 1.966125 g / cm^3
# Si number density = 19.706102 Si / 1000 Ang^3
#
#
#
# Elastic Constant Matrix: (Units=GPa)
#
#
# Indices 1 2 3 4 5 6 
#
# 1 103.8092 26.9747 32.6323 0.0000 0.0000 0.0000
# 2 26.9747 40.8838 22.2344 0.0000 0.0000 0.0000
# 3 32.6323 22.2344 66.7329 0.0000 0.0000 0.0000
# 4 0.0000 0.0000 0.0000 19.6025 0.0000 0.0000
# 5 0.0000 0.0000 0.0000 0.0000 36.6598 0.0000
# 6 0.0000 0.0000 0.0000 0.0000 0.0000 -199.8807
#
#
#
# Elastic Compliance Matrix: (Units=1/GPa)
#
#
# Indices 1 2 3 4 5 6 
#
# 1 0.012483 -0.006005 -0.004104 0.000000 0.000000 0.000000
# 2 -0.006005 0.032761 -0.007979 0.000000 0.000000 0.000000
# 3 -0.004104 -0.007979 0.019650 0.000000 0.000000 0.000000
# 4 0.000000 0.000000 0.000000 0.051014 0.000000 0.000000
# 5 0.000000 0.000000 0.000000 0.000000 0.027278 0.000000
# 6 0.000000 0.000000 0.000000 0.000000 0.000000 -0.005003
#
#
# Mechanical properties :
#
#
# Convention : Reuss Voigt Hill
#
# Bulk Modulus (GPa) = 34.81949 41.67873 38.24911
# Shear Modulus (GPa) = 27.18407 -20.08472 3.54968
#
# Velocity S-wave (km/s) = 3.71816 -3.19598 1.34358
# Velocity P-wave (km/s) = 6.01171 2.75265 4.67535
#
# Compressibility (1/GPa) = 0.02871955
#
# Stress axis : x y z
#
# Youngs Moduli (GPa) = 80.10683 30.52431 50.88972
#
# Poissons Ratio (x) = 0.18329 0.20883
# Poissons Ratio (y) = 0.48101 0.40606
# Poissons Ratio (z) = 0.32873 0.24356
#
# Static dielectric constant tensor:
#      x y z
#    x 3.821140 0.000000 0.000000 
#    y 0.000000 3.454430 0.000000 
#    z 0.000000 0.000000 3.611100 
# 
# 
# High freq. dielectric constant tensor:
#      x y z
#    x 1.772740 0.000000 0.000000 
#    y 0.000000 1.757820 0.000000 
#    z 0.000000 0.000000 1.761890 
# 
# From -- ./inp_files/22374.got.cif
#   From: 2010.03.12/outbox.cif.g09.slc.cpg/sg51_12_cif.got.tgz:22374.got - 2010.04.16 13:43:02.
