data_PCOD8208149
_publ_section_title
;
Structure prediction by ZEFSAII (Michael W. Deem and Ramdas Pophale) SiO2 
 PCOD8208149
Probable space group: P M M A
;
_chemical_formula_sum "Si O2"
_cell_formula_units_Z 64
_cell_length_a 14.873476
_cell_length_b 9.484111
_cell_length_c 23.619698
_cell_angle_alpha 90.000000
_cell_angle_beta 90.000000
_cell_angle_gamma 90.000000
_cell_volume 3331.834691
_symmetry_space_group_name_H-M "P M M A"
_symmetry_group_IT_number 51
_symmetry_cell_setting 'orthorhombic'
loop_
_space_group_symop_operation_xyz
x,y,z
1/2-x,-y,z
1/2+x,-y,-z
-x,y,-z
-x,-y,-z
1/2+x,y,-z
1/2-x,y,z
x,-y,z
loop_
_atom_site_type_symbol
_atom_site_label
_atom_site_fract_x
_atom_site_fract_y
_atom_site_fract_z
Si Si1 0.350053 0.850124 0.929867
Si Si2 0.001264 0.661421 0.369361
Si Si3 0.401810 0.339783 0.025390
Si Si4 0.648489 0.667494 0.850691
Si Si5 0.147394 0.662094 0.461530
Si Si6 0.492796 0.662654 0.241047
Si Si7 0.352825 0.166582 0.808167
Si Si8 0.854100 0.834661 0.427009
O O1 0.250000 0.885270 0.909682
O O2 0.391347 0.790011 0.871191
O O3 0.396422 0.000000 0.947581
O O4 0.340825 0.746158 0.982450
O O5 0.970967 0.500000 0.379929
O O6 0.915955 0.762920 0.379325
O O7 0.083762 0.704251 0.409634
O O8 0.038232 0.680416 0.305765
O O9 0.368892 0.500000 0.023798
O O10 0.392840 0.280408 0.089031
O O11 0.500000 0.319528 0.000000
O O12 0.750000 0.727412 0.843960
O O13 0.650999 0.500000 0.849433
O O14 0.586162 0.723840 0.799642
O O15 0.250000 0.687130 0.442155
O O16 0.132310 0.500000 0.480246
O O17 0.121608 0.762219 0.513497
O O18 0.511948 0.500000 0.225659
O O19 0.584786 0.749075 0.235037
O O20 0.250000 0.214359 0.797190
O O21 0.364046 0.000000 0.798449
O O22 0.750000 0.808577 0.410940
O O23 0.875721 0.000000 0.431173
#
# Coordination Sequence:
#
# PCOD8208149 Si02
#       8
#     8   8   8   8   8   8   8   8
#     4   9  18  32  49  70  95 123 158 201 251 308
#     4  10  21  35  53  79 108 138 175 219 264 307
#     4  10  19  30  48  75 103 130 164 208 258 312
#     4   9  18  33  52  74 104 142 179 217 264 313
#     4   9  18  34  56  81 110 142 174 212 260 310
#     4  10  21  36  54  77 103 135 180 226 260 300
#     4   9  19  36  55  74 101 137 172 211 267 329
#     4  10  21  36  55  81 111 142 175 210 254 312
#
# _framework density 19.208635999999998
#
# number of rings (size 3 to 8) (size 9 to 14) (size 15 to 20)
#    0.000    2.500    0.000    2.625    0.000    7.000 
#    0.000    6.875    0.000    1.125    0.000    1.750 
#    0.000    0.000    0.000    0.000    0.000    0.000 
#
# Total GULP energy -793259.798033 kJ/mol
# GULP energy per Si atom -12394.684344 kJ/mol
# Density = 1.916492 g / cm^3
# Si number density = 19.208636 Si / 1000 Ang^3
#
#
#
# Elastic Constant Matrix: (Units=GPa)
#
#
# Indices 1 2 3 4 5 6 
#
# 1 93.3713 34.6151 48.4553 0.0000 0.0000 0.0000
# 2 34.6151 59.9736 36.5154 0.0000 0.0000 0.0000
# 3 48.4553 36.5154 106.3582 0.0000 0.0000 0.0000
# 4 0.0000 0.0000 0.0000 8.8339 0.0000 0.0000
# 5 0.0000 0.0000 0.0000 0.0000 26.8605 0.0000
# 6 0.0000 0.0000 0.0000 0.0000 0.0000 12.0321
#
#
#
# Elastic Compliance Matrix: (Units=1/GPa)
#
#
# Indices 1 2 3 4 5 6 
#
# 1 0.015508 -0.005878 -0.005047 0.000000 0.000000 0.000000
# 2 -0.005878 0.023308 -0.005324 0.000000 0.000000 0.000000
# 3 -0.005047 -0.005324 0.013530 0.000000 0.000000 0.000000
# 4 0.000000 0.000000 0.000000 0.113200 0.000000 0.000000
# 5 0.000000 0.000000 0.000000 0.000000 0.037229 0.000000
# 6 0.000000 0.000000 0.000000 0.000000 0.000000 0.083111
#
#
# Mechanical properties :
#
#
# Convention : Reuss Voigt Hill
#
# Bulk Modulus (GPa) = 50.38531 55.43052 52.90792
# Shear Modulus (GPa) = 15.38449 18.88644 17.13547
#
# Velocity S-wave (km/s) = 2.83311 3.13905 2.99000
# Velocity P-wave (km/s) = 6.08190 6.48520 6.28679
#
# Compressibility (1/GPa) = 0.01984705
#
# Stress axis : x y z
#
# Youngs Moduli (GPa) = 64.48140 42.90293 73.91133
#
# Poissons Ratio (x) = 0.25218 0.37306
# Poissons Ratio (y) = 0.37901 0.39354
# Poissons Ratio (z) = 0.32546 0.22844
#
# Static dielectric constant tensor:
#      x y z
#    x 3.366640 0.000000 0.000000 
#    y 0.000000 3.344900 0.000000 
#    z 0.000000 0.000000 3.504240 
# 
# 
# High freq. dielectric constant tensor:
#      x y z
#    x 1.746210 0.000000 0.000000 
#    y 0.000000 1.727200 0.000000 
#    z 0.000000 0.000000 1.747280 
# 
# From -- ./inp_files/35867.got.cif
#   From: 2010.03.12/outbox.cif.g09.slc.cpg/sg51_18_cif.got.tgz:35867.got - 2010.04.16 13:43:02.
