data_PCOD8208249
_publ_section_title
;
Structure prediction by ZEFSAII (Michael W. Deem and Ramdas Pophale) SiO2 
 PCOD8208249
Probable space group: P M M A
;
_chemical_formula_sum "Si O2"
_cell_formula_units_Z 64
_cell_length_a 9.017309
_cell_length_b 14.796715
_cell_length_c 26.155758
_cell_angle_alpha 90.000000
_cell_angle_beta 90.000000
_cell_angle_gamma 90.000000
_cell_volume 3489.872588
_symmetry_space_group_name_H-M "P M M A"
_symmetry_group_IT_number 51
_symmetry_cell_setting 'orthorhombic'
loop_
_space_group_symop_operation_xyz
x,y,z
1/2-x,-y,z
1/2+x,-y,-z
-x,y,-z
-x,-y,-z
1/2+x,y,-z
1/2-x,y,z
x,-y,z
loop_
_atom_site_type_symbol
_atom_site_label
_atom_site_fract_x
_atom_site_fract_y
_atom_site_fract_z
Si Si1 0.584235 0.399523 0.861835
Si Si2 0.925862 0.783865 0.748356
Si Si3 0.075783 0.399139 0.757300
Si Si4 0.417356 0.107717 0.549814
Si Si5 0.911068 0.872015 0.047488
Si Si6 0.077255 0.896040 0.349596
Si Si7 0.424245 0.103217 0.837693
Si Si8 0.912588 0.664855 0.046512
O O1 0.750000 0.366174 0.845692
O O2 0.593864 0.500000 0.884642
O O3 0.469833 0.397100 0.815958
O O4 0.515995 0.335461 0.904130
O O5 0.750000 0.779871 0.754767
O O6 0.975427 0.846253 0.701404
O O7 0.986087 0.684097 0.732520
O O8 0.993343 0.825226 0.800599
O O9 0.250000 0.381341 0.751749
O O10 0.035450 0.500000 0.734772
O O11 0.500000 0.147093 0.500000
O O12 0.250000 0.143148 0.548355
O O13 0.493304 0.145073 0.601307
O O14 0.425839 0.000000 0.549298
O O15 0.750000 0.919398 0.049550
O O16 0.984705 0.886083 0.103858
O O17 0.888425 0.768353 0.033331
O O18 0.000000 0.917213 0.000000
O O19 0.250000 0.882808 0.360096
O O20 0.034806 0.000000 0.341682
O O21 0.250000 0.126917 0.835621
O O22 0.454765 0.000000 0.819412
O O23 0.750000 0.618786 0.054582
O O24 0.000000 0.616296 0.000000
#
# Coordination Sequence:
#
# PCOD8208249 Si02
#       8
#     8   8   8   8   8   8   8   8
#     4  10  20  33  49  69  91 114 144 185 235 293
#     4  11  22  35  54  78 105 137 172 213 259 306
#     4  10  21  37  56  76  98 126 161 202 250 306
#     4   9  16  26  43  68  99 139 185 227 264 300
#     4   9  19  34  50  68  88 114 152 197 243 289
#     4   9  18  32  48  70 105 145 182 219 257 299
#     4  10  21  36  53  74 102 134 167 205 251 306
#     4  10  19  31  47  65  88 117 149 187 231 283
#
# _framework density 18.338778000000001
#
# number of rings (size 3 to 8) (size 9 to 14) (size 15 to 20)
#    0.000    2.250    0.000    3.000    0.000    7.250 
#    0.000    1.250    0.000    0.000    0.000    0.000 
#    0.000    0.500    0.000    1.625    0.000    2.375 
#
# Total GULP energy -793097.143240 kJ/mol
# GULP energy per Si atom -12392.142863 kJ/mol
# Density = 1.829704 g / cm^3
# Si number density = 18.338778 Si / 1000 Ang^3
#
#
#
# Elastic Constant Matrix: (Units=GPa)
#
#
# Indices 1 2 3 4 5 6 
#
# 1 85.9306 33.8779 49.8022 0.0000 0.0000 0.0000
# 2 33.8779 68.3045 33.6523 0.0000 0.0000 0.0000
# 3 49.8022 33.6523 122.8911 0.0000 0.0000 0.0000
# 4 0.0000 0.0000 0.0000 17.1754 0.0000 0.0000
# 5 0.0000 0.0000 0.0000 0.0000 31.0944 0.0000
# 6 0.0000 0.0000 0.0000 0.0000 0.0000 3.5751
#
#
#
# Elastic Compliance Matrix: (Units=1/GPa)
#
#
# Indices 1 2 3 4 5 6 
#
# 1 0.017002 -0.005824 -0.005296 0.000000 0.000000 0.000000
# 2 -0.005824 0.018918 -0.002820 0.000000 0.000000 0.000000
# 3 -0.005296 -0.002820 0.011056 0.000000 0.000000 0.000000
# 4 0.000000 0.000000 0.000000 0.058223 0.000000 0.000000
# 5 0.000000 0.000000 0.000000 0.000000 0.032160 0.000000
# 6 0.000000 0.000000 0.000000 0.000000 0.000000 0.279715
#
#
# Mechanical properties :
#
#
# Convention : Reuss Voigt Hill
#
# Bulk Modulus (GPa) = 52.36472 56.86569 54.61520
# Shear Modulus (GPa) = 11.07861 21.02189 16.05025
#
# Velocity S-wave (km/s) = 2.46053 3.38939 2.96160
# Velocity P-wave (km/s) = 6.05709 6.81124 6.44521
#
# Compressibility (1/GPa) = 0.01909683
#
# Stress axis : x y z
#
# Youngs Moduli (GPa) = 58.81507 52.85836 90.45141
#
# Poissons Ratio (x) = 0.30784 0.47899
# Poissons Ratio (y) = 0.34254 0.25511
# Poissons Ratio (z) = 0.31146 0.14908
#
# Static dielectric constant tensor:
#      x y z
#    x 3.637080 0.000000 0.000000 
#    y 0.000000 3.421230 0.000000 
#    z 0.000000 0.000000 3.271870 
# 
# 
# High freq. dielectric constant tensor:
#      x y z
#    x 1.719960 0.000000 0.000000 
#    y 0.000000 1.691250 0.000000 
#    z 0.000000 0.000000 1.686320 
# 
# From -- ./inp_files/34912.got.cif
#   From: 2010.03.12/outbox.cif.g09.slc.cpg/sg51_18_cif.got.tgz:34912.got - 2010.04.16 13:43:02.
