data_PCOD8208786
_publ_section_title
;
Structure prediction by ZEFSAII (Michael W. Deem and Ramdas Pophale) SiO2 
 PCOD8208786
Probable space group: P M M A
;
_chemical_formula_sum "Si O2"
_cell_formula_units_Z 40
_cell_length_a 15.020065
_cell_length_b 8.680961
_cell_length_c 15.439676
_cell_angle_alpha 90.000000
_cell_angle_beta 90.000000
_cell_angle_gamma 90.000000
_cell_volume 2013.157715
_symmetry_space_group_name_H-M "P M M A"
_symmetry_group_IT_number 51
_symmetry_cell_setting 'orthorhombic'
loop_
_space_group_symop_operation_xyz
x,y,z
1/2-x,-y,z
1/2+x,-y,-z
-x,y,-z
-x,-y,-z
1/2+x,y,-z
1/2-x,y,z
x,-y,z
loop_
_atom_site_type_symbol
_atom_site_label
_atom_site_fract_x
_atom_site_fract_y
_atom_site_fract_z
Si Si1 0.112445 0.818514 0.330122
Si Si2 0.750000 0.183334 0.338568
Si Si3 0.750000 0.817889 0.000203
Si Si4 0.067887 0.182370 0.746940
Si Si5 0.750000 0.816168 0.532285
Si Si6 0.250000 0.182972 0.192425
Si Si7 0.927685 0.318669 0.070103
O O1 0.161308 0.755612 0.416944
O O2 0.163010 0.757612 0.244133
O O3 0.008322 0.773564 0.323920
O O4 0.124243 0.000000 0.332265
O O5 0.837657 0.243028 0.288780
O O6 0.750000 0.252997 0.435623
O O7 0.750000 0.000000 0.342221
O O8 0.664876 0.763464 0.052423
O O9 0.750000 0.000000 0.997423
O O10 0.750000 0.744746 0.903678
O O11 0.041025 0.267439 0.835001
O O12 0.069717 0.000000 0.763709
O O13 0.750000 0.000000 0.526758
O O14 0.250000 0.000000 0.184017
O O15 0.914361 0.500000 0.065883
O O16 0.000000 0.262472 0.000000
#
# Coordination Sequence:
#
# PCOD8208786 Si02
#       7
#     8   4   4   8   4   4   8
#     4   8  14  25  44  69  99 130 161 203 255 308
#     4   9  18  29  44  71 105 134 164 205 255 313
#     4  11  21  34  56  80 105 140 180 225 271 315
#     4  10  19  32  50  73 100 133 174 216 257 305
#     4   8  14  26  43  71 107 132 155 202 266 315
#     4   8  14  25  42  68  95 122 161 208 256 301
#     4  11  24  39  54  76 108 144 182 223 269 322
#
# _framework density 19.869281999999998
#
# number of rings (size 3 to 8) (size 9 to 14) (size 15 to 20)
#    0.000    2.600    0.000    3.900    0.000    4.800 
#    0.000    4.000    0.000    0.000    0.000    4.200 
#    0.000    0.000    0.000    0.000    0.000    0.000 
#
# Total GULP energy -495828.600916 kJ/mol
# GULP energy per Si atom -12395.715023 kJ/mol
# Density = 1.982406 g / cm^3
# Si number density = 19.869282 Si / 1000 Ang^3
#
#
#
# Elastic Constant Matrix: (Units=GPa)
#
#
# Indices 1 2 3 4 5 6 
#
# 1 155.7569 21.1055 52.4946 0.0000 0.0000 0.0000
# 2 21.1055 27.6708 15.6741 0.0000 0.0000 0.0000
# 3 52.4946 15.6741 131.0070 0.0000 0.0000 0.0000
# 4 0.0000 0.0000 0.0000 7.9735 0.0000 0.0000
# 5 0.0000 0.0000 0.0000 0.0000 29.2367 0.0000
# 6 0.0000 0.0000 0.0000 0.0000 0.0000 -8.5890
#
#
#
# Elastic Compliance Matrix: (Units=1/GPa)
#
#
# Indices 1 2 3 4 5 6 
#
# 1 0.007924 -0.004554 -0.002630 0.000000 0.000000 0.000000
# 2 -0.004554 0.041384 -0.003127 0.000000 0.000000 0.000000
# 3 -0.002630 -0.003127 0.009061 0.000000 0.000000 0.000000
# 4 0.000000 0.000000 0.000000 0.125415 0.000000 0.000000
# 5 0.000000 0.000000 0.000000 0.000000 0.034204 0.000000
# 6 0.000000 0.000000 0.000000 0.000000 0.000000 -0.116427
#
#
# Mechanical properties :
#
#
# Convention : Reuss Voigt Hill
#
# Bulk Modulus (GPa) = 26.49195 54.77591 40.63393
# Shear Modulus (GPa) = 37.10196 20.73493 28.91845
#
# Velocity S-wave (km/s) = 4.32592 3.23393 3.81915
# Velocity P-wave (km/s) = 6.18979 6.44767 6.32004
#
# Compressibility (1/GPa) = 0.03774731
#
# Stress axis : x y z
#
# Youngs Moduli (GPa) = 126.20225 24.16417 110.36085
#
# Poissons Ratio (x) = 0.11004 0.29027
# Poissons Ratio (y) = 0.57471 0.34505
# Poissons Ratio (z) = 0.33194 0.07555
#
# Static dielectric constant tensor:
#      x y z
#    x 4.154230 0.000000 0.000000 
#    y 0.000000 3.003710 0.000000 
#    z 0.000000 0.000000 3.830510 
# 
# 
# High freq. dielectric constant tensor:
#      x y z
#    x 1.788180 0.000000 0.000000 
#    y 0.000000 1.712220 0.000000 
#    z 0.000000 0.000000 1.780550 
# 
# From -- ./inp_files/23872.got.cif
#   From: 2010.03.12/outbox.cif.g09.slc.cpg/sg51_12_cif.got.tgz:23872.got - 2010.04.16 13:43:02.
