data_PCOD8208099
_publ_section_title
;
Structure prediction by ZEFSAII (Michael W. Deem and Ramdas Pophale) SiO2 
 PCOD8208099
Probable space group: P M M A
;
_chemical_formula_sum "Si O2"
_cell_formula_units_Z 64
_cell_length_a 18.309204
_cell_length_b 9.288471
_cell_length_c 20.721553
_cell_angle_alpha 90.000000
_cell_angle_beta 90.000000
_cell_angle_gamma 90.000000
_cell_volume 3524.000765
_symmetry_space_group_name_H-M "P M M A"
_symmetry_group_IT_number 51
_symmetry_cell_setting 'orthorhombic'
loop_
_space_group_symop_operation_xyz
x,y,z
1/2-x,-y,z
1/2+x,-y,-z
-x,y,-z
-x,-y,-z
1/2+x,y,-z
1/2-x,y,z
x,-y,z
loop_
_atom_site_type_symbol
_atom_site_label
_atom_site_fract_x
_atom_site_fract_y
_atom_site_fract_z
Si Si1 0.833914 0.669026 0.760915
Si Si2 0.667544 0.171520 0.997745
Si Si3 0.417020 0.829161 0.878109
Si Si4 0.664715 0.167240 0.248909
Si Si5 0.162788 0.161914 0.503382
Si Si6 0.583164 0.829141 0.871407
Si Si7 0.663297 0.659406 0.616436
Si Si8 0.336919 0.337477 0.625939
O O1 0.750000 0.713929 0.772609
O O2 0.844116 0.500000 0.773227
O O3 0.884993 0.759101 0.807498
O O4 0.858872 0.709904 0.688233
O O5 0.750000 0.231244 0.998402
O O6 0.624953 0.234545 0.059711
O O7 0.667055 0.000000 0.999579
O O8 0.628096 0.226625 0.933147
O O9 0.378184 0.773428 0.813252
O O10 0.500228 0.776298 0.879948
O O11 0.412605 0.000000 0.880499
O O12 0.750000 0.192853 0.236172
O O13 0.635655 0.256681 0.309996
O O14 0.648380 0.000000 0.262407
O O15 0.250000 0.161853 0.503740
O O16 0.132337 0.230827 0.437007
O O17 0.132429 0.253789 0.563549
O O18 0.132443 0.000000 0.508734
O O19 0.588018 0.000000 0.864092
O O20 0.750000 0.651835 0.612284
O O21 0.631658 0.500000 0.602218
O O22 0.250000 0.337697 0.624145
O O23 0.367602 0.500000 0.625566
#
# Coordination Sequence:
#
# PCOD8208099 Si02
#       8
#     8   8   8   8   8   8   8   8
#     4   9  18  32  48  66  92 127 162 194 232 280
#     4   9  16  27  46  72  98 124 157 195 233 276
#     4   9  17  29  45  67  96 126 154 191 240 284
#     4   9  16  27  44  64  86 117 159 200 234 275
#     4   9  15  22  35  59  90 120 150 187 231 277
#     4  10  19  30  47  72  98 122 153 195 238 280
#     4   8  14  25  40  58  83 117 154 189 227 272
#     4   9  16  25  38  58  87 121 153 189 235 282
#
# _framework density 18.161176999999999
#
# number of rings (size 3 to 8) (size 9 to 14) (size 15 to 20)
#    0.000    3.000    0.000    2.625    0.000    7.250 
#    0.000    1.875    0.000    2.250    0.000    2.625 
#    0.000    7.000    0.000    0.000    0.000    0.000 
#
# Total GULP energy -793467.692857 kJ/mol
# GULP energy per Si atom -12397.932701 kJ/mol
# Density = 1.811984 g / cm^3
# Si number density = 18.161177 Si / 1000 Ang^3
#
#
#
# Elastic Constant Matrix: (Units=GPa)
#
#
# Indices 1 2 3 4 5 6 
#
# 1 79.7652 28.8292 62.6675 0.0000 0.0000 0.0000
# 2 28.8292 74.8323 67.2982 0.0000 0.0000 0.0000
# 3 62.6675 67.2982 185.9422 0.0000 0.0000 0.0000
# 4 0.0000 0.0000 0.0000 10.9116 0.0000 0.0000
# 5 0.0000 0.0000 0.0000 0.0000 4.5225 0.0000
# 6 0.0000 0.0000 0.0000 0.0000 0.0000 10.0630
#
#
#
# Elastic Compliance Matrix: (Units=1/GPa)
#
#
# Indices 1 2 3 4 5 6 
#
# 1 0.017272 -0.002104 -0.005060 0.000000 0.000000 0.000000
# 2 -0.002104 0.020068 -0.006554 0.000000 0.000000 0.000000
# 3 -0.005060 -0.006554 0.009455 0.000000 0.000000 0.000000
# 4 0.000000 0.000000 0.000000 0.091646 0.000000 0.000000
# 5 0.000000 0.000000 0.000000 0.000000 0.221117 0.000000
# 6 0.000000 0.000000 0.000000 0.000000 0.000000 0.099374
#
#
# Mechanical properties :
#
#
# Convention : Reuss Voigt Hill
#
# Bulk Modulus (GPa) = 51.65218 73.12549 62.38883
# Shear Modulus (GPa) = 10.14565 17.21573 13.68069
#
# Velocity S-wave (km/s) = 2.36613 3.08221 2.74760
# Velocity P-wave (km/s) = 5.99729 7.28140 6.67032
#
# Compressibility (1/GPa) = 0.01936027
#
# Stress axis : x y z
#
# Youngs Moduli (GPa) = 57.89576 49.83053 105.75881
#
# Poissons Ratio (x) = 0.10483 0.53512
# Poissons Ratio (y) = 0.12180 0.69316
# Poissons Ratio (z) = 0.29294 0.32660
#
# Static dielectric constant tensor:
#      x y z
#    x 3.017590 0.000000 0.000000 
#    y 0.000000 3.152140 0.000000 
#    z 0.000000 0.000000 3.609380 
# 
# 
# High freq. dielectric constant tensor:
#      x y z
#    x 1.661670 0.000000 0.000000 
#    y 0.000000 1.674060 0.000000 
#    z 0.000000 0.000000 1.723040 
# 
# From -- ./inp_files/33898.got.cif
#   From: 2010.03.12/outbox.cif.g09.slc.cpg/sg51_17_cif.got.tgz:33898.got - 2010.04.16 13:43:02.
