data_PCOD8208323
_publ_section_title
;
Structure prediction by ZEFSAII (Michael W. Deem and Ramdas Pophale) SiO2 
 PCOD8208323
Probable space group: P M M A
;
_chemical_formula_sum "Si O2"
_cell_formula_units_Z 48
_cell_length_a 9.102891
_cell_length_b 16.013834
_cell_length_c 18.392135
_cell_angle_alpha 90.000000
_cell_angle_beta 90.000000
_cell_angle_gamma 90.000000
_cell_volume 2681.061713
_symmetry_space_group_name_H-M "P M M A"
_symmetry_group_IT_number 51
_symmetry_cell_setting 'orthorhombic'
loop_
_space_group_symop_operation_xyz
x,y,z
1/2-x,-y,z
1/2+x,-y,-z
-x,y,-z
-x,-y,-z
1/2+x,y,-z
1/2-x,y,z
x,-y,z
loop_
_atom_site_type_symbol
_atom_site_label
_atom_site_fract_x
_atom_site_fract_y
_atom_site_fract_z
Si Si1 0.421003 0.336437 0.164842
Si Si2 0.917472 0.000000 0.573953
Si Si3 0.082883 0.092336 0.801161
Si Si4 0.921887 0.748048 0.291330
Si Si5 0.923264 0.500000 0.922044
Si Si6 0.420347 0.827518 0.075499
Si Si7 0.576758 0.817588 0.578035
O O1 0.250000 0.339255 0.185911
O O2 0.512520 0.323943 0.239213
O O3 0.473003 0.420392 0.125016
O O4 0.456388 0.262610 0.109017
O O5 0.952927 0.088905 0.612937
O O6 0.000000 0.000000 0.500000
O O7 0.750000 0.000000 0.551017
O O8 0.250000 0.104194 0.827570
O O9 0.043439 0.161295 0.741888
O O10 0.978760 0.101092 0.870893
O O11 0.057859 0.000000 0.767291
O O12 0.750000 0.731143 0.302797
O O13 0.004592 0.748667 0.368793
O O14 0.750000 0.500000 0.936301
O O15 0.000000 0.500000 0.000000
O O16 0.250000 0.841489 0.062640
O O17 0.500000 0.836119 0.000000
O O18 0.500000 0.808716 0.500000
O O19 0.750000 0.799586 0.570386
#
# Coordination Sequence:
#
# PCOD8208323 Si02
#       7
#     8   4   8   8   4   8   8
#     4   9  19  35  52  74 103 133 165 200 245 303
#     4   8  16  28  42  64  94 128 165 208 255 298
#     4   9  19  34  48  64  88 122 165 208 248 292
#     4  10  20  33  51  73  99 133 169 209 256 301
#     4  10  20  34  56  84 111 138 167 204 252 306
#     4  10  19  31  48  68  92 123 158 200 246 292
#     4  10  19  32  49  72 101 134 173 215 258 304
#
# _framework density 17.903354
#
# number of rings (size 3 to 8) (size 9 to 14) (size 15 to 20)
#    0.000    2.500    0.000    2.000    1.167    3.333 
#    0.000    0.000    0.000    0.000    0.000    0.583 
#    0.000    0.000    0.000    0.000    0.000    0.000 
#
# Total GULP energy -594974.604761 kJ/mol
# GULP energy per Si atom -12395.304266 kJ/mol
# Density = 1.786261 g / cm^3
# Si number density = 17.903354 Si / 1000 Ang^3
#
#
#
# Elastic Constant Matrix: (Units=GPa)
#
#
# Indices 1 2 3 4 5 6 
#
# 1 74.2540 25.3714 53.6362 0.0000 0.0000 0.0000
# 2 25.3714 77.7184 36.5407 0.0000 0.0000 0.0000
# 3 53.6362 36.5407 101.2244 0.0000 0.0000 0.0000
# 4 0.0000 0.0000 0.0000 22.4410 0.0000 0.0000
# 5 0.0000 0.0000 0.0000 0.0000 33.0881 0.0000
# 6 0.0000 0.0000 0.0000 0.0000 0.0000 21.0882
#
#
#
# Elastic Compliance Matrix: (Units=1/GPa)
#
#
# Indices 1 2 3 4 5 6 
#
# 1 0.022088 -0.002057 -0.010961 0.000000 0.000000 0.000000
# 2 -0.002057 0.015689 -0.004573 0.000000 0.000000 0.000000
# 3 -0.010961 -0.004573 0.017338 0.000000 0.000000 0.000000
# 4 0.000000 0.000000 0.000000 0.044561 0.000000 0.000000
# 5 0.000000 0.000000 0.000000 0.000000 0.030222 0.000000
# 6 0.000000 0.000000 0.000000 0.000000 0.000000 0.047420
#
#
# Mechanical properties :
#
#
# Convention : Reuss Voigt Hill
#
# Bulk Modulus (GPa) = 50.17249 53.81037 51.99143
# Shear Modulus (GPa) = 22.81592 24.50004 23.65798
#
# Velocity S-wave (km/s) = 3.57374 3.70328 3.63909
# Velocity P-wave (km/s) = 6.71667 6.95752 6.83816
#
# Compressibility (1/GPa) = 0.01993124
#
# Stress axis : x y z
#
# Youngs Moduli (GPa) = 45.27389 63.73981 57.67664
#
# Poissons Ratio (x) = 0.13111 0.63220
# Poissons Ratio (y) = 0.09313 0.26378
# Poissons Ratio (z) = 0.49626 0.29151
#
# Static dielectric constant tensor:
#      x y z
#    x 3.338530 0.000000 0.000000 
#    y 0.000000 3.350990 0.000000 
#    z 0.000000 0.000000 3.143320 
# 
# 
# High freq. dielectric constant tensor:
#      x y z
#    x 1.702720 0.000000 0.000000 
#    y 0.000000 1.665050 0.000000 
#    z 0.000000 0.000000 1.684580 
# 
# From -- ./inp_files/27661.got.cif
#   From: 2010.03.12/outbox.cif.g09.slc.cpg/sg51_14_cif.got.tgz:27661.got - 2010.04.16 13:43:02.
