data_PCOD8208001
_publ_section_title
;
Structure prediction by ZEFSAII (Michael W. Deem and Ramdas Pophale) SiO2 
 PCOD8208001
Probable space group: P M M A
;
_chemical_formula_sum "Si O2"
_cell_formula_units_Z 40
_cell_length_a 8.768152
_cell_length_b 18.845033
_cell_length_c 13.798755
_cell_angle_alpha 90.000000
_cell_angle_beta 90.000000
_cell_angle_gamma 90.000000
_cell_volume 2280.052651
_symmetry_space_group_name_H-M "P M M A"
_symmetry_group_IT_number 51
_symmetry_cell_setting 'orthorhombic'
loop_
_space_group_symop_operation_xyz
x,y,z
1/2-x,-y,z
1/2+x,-y,-z
-x,y,-z
-x,-y,-z
1/2+x,y,-z
1/2-x,y,z
x,-y,z
loop_
_atom_site_type_symbol
_atom_site_label
_atom_site_fract_x
_atom_site_fract_y
_atom_site_fract_z
Si Si1 0.070663 0.422218 0.712639
Si Si2 0.568733 0.285558 0.396689
Si Si3 0.429823 0.336844 0.898695
Si Si4 0.428592 0.920902 0.100521
Si Si5 0.429709 0.787039 0.218504
O O1 0.250000 0.427336 0.699405
O O2 0.996692 0.500000 0.692701
O O3 0.008176 0.363436 0.637082
O O4 0.031507 0.398569 0.821821
O O5 0.500000 0.266475 0.500000
O O6 0.750000 0.283247 0.400589
O O7 0.511993 0.226963 0.320555
O O8 0.250000 0.323935 0.907577
O O9 0.508190 0.264259 0.865191
O O10 0.500000 0.361840 0.000000
O O11 0.250000 0.920928 0.083567
O O12 0.471806 0.867128 0.186907
O O13 0.487452 0.000000 0.128283
O O14 0.500000 0.894527 0.000000
O O15 0.250000 0.775447 0.230677
#
# Coordination Sequence:
#
# PCOD8208001 Si02
#       5
#     8   8   8   8   8
#     4   8  16  31  48  67  93 124 157 195 239 285
#     4  10  20  34  53  74  96 122 156 198 242 289
#     4  10  19  30  46  68  96 129 164 200 236 280
#     4   9  18  31  48  73 103 133 162 192 229 274
#     4  10  19  32  51  72  97 127 160 199 239 282
#
# _framework density 17.543454000000001
#
# number of rings (size 3 to 8) (size 9 to 14) (size 15 to 20)
#    0.000    2.600    0.000    3.600    0.000    4.000 
#    0.000    0.000    0.000   21.000    0.000    0.000 
#    0.000    0.000    0.000    0.000    0.000    0.000 
#
# Total GULP energy -495901.613569 kJ/mol
# GULP energy per Si atom -12397.540339 kJ/mol
# Density = 1.750352 g / cm^3
# Si number density = 17.543454 Si / 1000 Ang^3
#
#
#
# Elastic Constant Matrix: (Units=GPa)
#
#
# Indices 1 2 3 4 5 6 
#
# 1 61.2721 35.4684 37.8335 0.0000 0.0000 0.0000
# 2 35.4684 115.3235 58.3545 0.0000 0.0000 0.0000
# 3 37.8335 58.3545 126.6967 0.0000 0.0000 0.0000
# 4 0.0000 0.0000 0.0000 12.6943 0.0000 0.0000
# 5 0.0000 0.0000 0.0000 0.0000 30.4090 0.0000
# 6 0.0000 0.0000 0.0000 0.0000 0.0000 20.0454
#
#
#
# Elastic Compliance Matrix: (Units=1/GPa)
#
#
# Indices 1 2 3 4 5 6 
#
# 1 0.021601 -0.004407 -0.004421 0.000000 0.000000 0.000000
# 2 -0.004407 0.012205 -0.004306 0.000000 0.000000 0.000000
# 3 -0.004421 -0.004306 0.011196 0.000000 0.000000 0.000000
# 4 0.000000 0.000000 0.000000 0.078776 0.000000 0.000000
# 5 0.000000 0.000000 0.000000 0.000000 0.032885 0.000000
# 6 0.000000 0.000000 0.000000 0.000000 0.000000 0.049887
#
#
# Mechanical properties :
#
#
# Convention : Reuss Voigt Hill
#
# Bulk Modulus (GPa) = 53.37214 62.95612 58.16413
# Shear Modulus (GPa) = 20.91513 24.07214 22.49363
#
# Velocity S-wave (km/s) = 3.45656 3.70826 3.58462
# Velocity P-wave (km/s) = 6.81317 7.36876 7.09641
#
# Compressibility (1/GPa) = 0.01873637
#
# Stress axis : x y z
#
# Youngs Moduli (GPa) = 46.29373 81.93212 89.31674
#
# Poissons Ratio (x) = 0.36104 0.39485
# Poissons Ratio (y) = 0.20400 0.38457
# Poissons Ratio (z) = 0.20466 0.35277
#
# Static dielectric constant tensor:
#      x y z
#    x 3.174410 0.000000 0.000000 
#    y 0.000000 3.592170 0.000000 
#    z 0.000000 0.000000 3.072040 
# 
# 
# High freq. dielectric constant tensor:
#      x y z
#    x 1.672630 0.000000 0.000000 
#    y 0.000000 1.672680 0.000000 
#    z 0.000000 0.000000 1.669690 
# 
# From -- ./inp_files/14017.got.cif
#   From: 2010.03.12/outbox.cif.g09.slc.cpg/sg51_8_cif.got.tgz:14017.got - 2010.04.16 13:43:02.
