data_PCOD8208365
_publ_section_title
;
Structure prediction by ZEFSAII (Michael W. Deem and Ramdas Pophale) SiO2 
 PCOD8208365
Probable space group: P M M A
;
_chemical_formula_sum "Si O2"
_cell_formula_units_Z 40
_cell_length_a 8.935272
_cell_length_b 18.590429
_cell_length_c 13.544147
_cell_angle_alpha 90.000000
_cell_angle_beta 90.000000
_cell_angle_gamma 90.000000
_cell_volume 2249.825568
_symmetry_space_group_name_H-M "P M M A"
_symmetry_group_IT_number 51
_symmetry_cell_setting 'orthorhombic'
loop_
_space_group_symop_operation_xyz
x,y,z
1/2-x,-y,z
1/2+x,-y,-z
-x,y,-z
-x,-y,-z
1/2+x,y,-z
1/2-x,y,z
x,-y,z
loop_
_atom_site_type_symbol
_atom_site_label
_atom_site_fract_x
_atom_site_fract_y
_atom_site_fract_z
Si Si1 0.075159 0.709301 0.100000
Si Si2 0.925111 0.662768 0.400796
Si Si3 0.424010 0.581909 0.796587
Si Si4 0.926326 0.208140 0.704118
Si Si5 0.575487 0.082752 0.396323
O O1 0.250000 0.703466 0.082967
O O2 0.033861 0.765883 0.185597
O O3 0.015849 0.630120 0.126956
O O4 0.000000 0.737705 0.000000
O O5 0.750000 0.675073 0.417005
O O6 0.958360 0.604983 0.315563
O O7 0.000000 0.631949 0.500000
O O8 0.000607 0.738715 0.375350
O O9 0.250000 0.591956 0.820777
O O10 0.476134 0.500000 0.810199
O O11 0.750000 0.205645 0.686189
O O12 0.998151 0.129631 0.689429
O O13 0.500000 0.102273 0.500000
O O14 0.750000 0.100952 0.403675
O O15 0.547505 0.000000 0.368164
#
# Coordination Sequence:
#
# PCOD8208365 Si02
#       5
#     8   8   8   8   8
#     4  10  21  36  55  77  98 125 162 205 253 300
#     4  10  19  31  48  70  98 132 168 205 245 291
#     4   9  19  35  52  71  97 129 165 205 249 297
#     4  10  20  34  52  74 100 130 166 206 246 290
#     4  10  20  33  51  77 108 140 170 200 238 284
#
# _framework density 17.779157000000001
#
# number of rings (size 3 to 8) (size 9 to 14) (size 15 to 20)
#    0.000    2.200    0.000    3.000    0.000    5.600 
#    0.000    0.000    0.000    0.600    0.000    0.000 
#    0.000    0.000    0.000    0.000    0.000    0.000 
#
# Total GULP energy -496171.392152 kJ/mol
# GULP energy per Si atom -12404.284804 kJ/mol
# Density = 1.773869 g / cm^3
# Si number density = 17.779157 Si / 1000 Ang^3
#
#
#
# Elastic Constant Matrix: (Units=GPa)
#
#
# Indices 1 2 3 4 5 6 
#
# 1 99.4899 51.9069 54.2288 0.0000 0.0000 0.0000
# 2 51.9069 105.6939 46.3664 0.0000 0.0000 0.0000
# 3 54.2288 46.3664 103.3883 0.0000 0.0000 0.0000
# 4 0.0000 0.0000 0.0000 17.0190 0.0000 0.0000
# 5 0.0000 0.0000 0.0000 0.0000 34.5887 0.0000
# 6 0.0000 0.0000 0.0000 0.0000 0.0000 29.5630
#
#
#
# Elastic Compliance Matrix: (Units=1/GPa)
#
#
# Indices 1 2 3 4 5 6 
#
# 1 0.016108 -0.005234 -0.006102 0.000000 0.000000 0.000000
# 2 -0.005234 0.013479 -0.003300 0.000000 0.000000 0.000000
# 3 -0.006102 -0.003300 0.014352 0.000000 0.000000 0.000000
# 4 0.000000 0.000000 0.000000 0.058758 0.000000 0.000000
# 5 0.000000 0.000000 0.000000 0.000000 0.028911 0.000000
# 6 0.000000 0.000000 0.000000 0.000000 0.000000 0.033826
#
#
# Mechanical properties :
#
#
# Convention : Reuss Voigt Hill
#
# Bulk Modulus (GPa) = 68.17075 68.17515 68.17295
# Shear Modulus (GPa) = 25.05077 26.63880 25.84479
#
# Velocity S-wave (km/s) = 3.75773 3.87501 3.81682
# Velocity P-wave (km/s) = 7.56662 7.64524 7.60603
#
# Compressibility (1/GPa) = 0.01466905
#
# Stress axis : x y z
#
# Youngs Moduli (GPa) = 62.08202 74.18811 69.67457
#
# Poissons Ratio (x) = 0.38830 0.42512
# Poissons Ratio (y) = 0.32493 0.22991
# Poissons Ratio (z) = 0.37879 0.24480
#
# Static dielectric constant tensor:
#      x y z
#    x 3.380740 0.000000 0.000000 
#    y 0.000000 3.236900 0.000000 
#    z 0.000000 0.000000 3.251040 
# 
# 
# High freq. dielectric constant tensor:
#      x y z
#    x 1.703110 0.000000 0.000000 
#    y 0.000000 1.677250 0.000000 
#    z 0.000000 0.000000 1.680110 
# 
# From -- ./inp_files/13998.got.cif
#   From: 2010.03.12/outbox.cif.g09.slc.cpg/sg51_7_cif.got.tgz:13998.got - 2010.04.16 13:43:02.
