data_PCOD8208392
_publ_section_title
;
Structure prediction by ZEFSAII (Michael W. Deem and Ramdas Pophale) SiO2 
 PCOD8208392
Probable space group: P M M A
;
_chemical_formula_sum "Si O2"
_cell_formula_units_Z 48
_cell_length_a 16.887440
_cell_length_b 28.479988
_cell_length_c 5.115924
_cell_angle_alpha 90.000000
_cell_angle_beta 90.000000
_cell_angle_gamma 90.000000
_cell_volume 2460.524565
_symmetry_space_group_name_H-M "P M M A"
_symmetry_group_IT_number 51
_symmetry_cell_setting 'orthorhombic'
loop_
_space_group_symop_operation_xyz
x,y,z
1/2-x,-y,z
1/2+x,-y,-z
-x,y,-z
-x,-y,-z
1/2+x,y,-z
1/2-x,y,z
x,-y,z
loop_
_atom_site_type_symbol
_atom_site_label
_atom_site_fract_x
_atom_site_fract_y
_atom_site_fract_z
Si Si1 0.587622 0.554336 0.589534
Si Si2 0.657895 0.401170 0.102836
Si Si3 0.054606 0.950489 0.249527
Si Si4 0.055032 0.151158 0.250310
Si Si5 0.844010 0.241481 0.721731
Si Si6 0.343981 0.297113 0.777585
O O1 0.500000 0.568769 0.500000
O O2 0.593111 0.500000 0.667542
O O3 0.609964 0.583652 0.846225
O O4 0.645918 0.563854 0.346299
O O5 0.750000 0.399928 0.024992
O O6 0.625792 0.350420 0.195738
O O7 0.099873 0.900201 0.240245
O O8 0.000000 0.949987 0.500000
O O9 0.105842 0.000000 0.253878
O O10 0.000000 0.952142 0.000000
O O11 0.124060 0.188882 0.275179
O O12 0.000000 0.155004 0.500000
O O13 0.000000 0.159894 0.000000
O O14 0.750000 0.238186 0.709662
O O15 0.877983 0.272031 0.480718
O O16 0.875154 0.267566 0.978143
O O17 0.250000 0.297493 0.766215
#
# Coordination Sequence:
#
# PCOD8208392 Si02
#       6
#     8   8   8   8   8   8
#     4  11  24  41  59  83 118 150 172 208 271 332
#     4  11  22  39  63  86 107 138 187 232 258 299
#     4   8  14  25  42  64  91 125 162 201 249 301
#     4  10  19  31  48  73 102 128 165 216 257 292
#     4  10  19  34  53  72 100 138 172 201 252 317
#     4   9  19  35  55  77 102 135 172 211 253 301
#
# _framework density 19.508036000000001
#
# number of rings (size 3 to 8) (size 9 to 14) (size 15 to 20)
#    0.000    2.167    0.000    3.500    0.000    6.000 
#    0.000    8.333    0.000    0.500    0.000    0.000 
#    0.000   17.333    0.000    0.000    0.000    2.667 
#
# Total GULP energy -594817.697659 kJ/mol
# GULP energy per Si atom -12392.035368 kJ/mol
# Density = 1.946363 g / cm^3
# Si number density = 19.508036 Si / 1000 Ang^3
#
#
#
# Elastic Constant Matrix: (Units=GPa)
#
#
# Indices 1 2 3 4 5 6 
#
# 1 34.6002 41.3817 19.2993 0.0000 0.0000 0.0000
# 2 41.3817 143.8526 38.6255 0.0000 0.0000 0.0000
# 3 19.2993 38.6255 141.9018 0.0000 0.0000 0.0000
# 4 0.0000 0.0000 0.0000 32.4748 0.0000 0.0000
# 5 0.0000 0.0000 0.0000 0.0000 18.3859 0.0000
# 6 0.0000 0.0000 0.0000 0.0000 0.0000 26.3584
#
#
#
# Elastic Compliance Matrix: (Units=1/GPa)
#
#
# Indices 1 2 3 4 5 6 
#
# 1 0.045073 -0.012213 -0.002806 0.000000 0.000000 0.000000
# 2 -0.012213 0.010809 -0.001281 0.000000 0.000000 0.000000
# 3 -0.002806 -0.001281 0.007777 0.000000 0.000000 0.000000
# 4 0.000000 0.000000 0.000000 0.030793 0.000000 0.000000
# 5 0.000000 0.000000 0.000000 0.000000 0.054390 0.000000
# 6 0.000000 0.000000 0.000000 0.000000 0.000000 0.037939
#
#
# Mechanical properties :
#
#
# Convention : Reuss Voigt Hill
#
# Bulk Modulus (GPa) = 32.19593 57.66307 44.92950
# Shear Modulus (GPa) = 21.76440 30.18034 25.97237
#
# Velocity S-wave (km/s) = 3.34378 3.93755 3.65275
# Velocity P-wave (km/s) = 5.60781 7.09191 6.39307
#
# Compressibility (1/GPa) = 0.03105983
#
# Stress axis : x y z
#
# Youngs Moduli (GPa) = 22.18630 92.51781 128.57660
#
# Poissons Ratio (x) = 1.12988 0.36077
# Poissons Ratio (y) = 0.27095 0.16473
# Poissons Ratio (z) = 0.06225 0.11853
#
# Static dielectric constant tensor:
#      x y z
#    x 3.038910 0.000000 0.000000 
#    y 0.000000 4.266700 0.000000 
#    z 0.000000 0.000000 3.849140 
# 
# 
# High freq. dielectric constant tensor:
#      x y z
#    x 1.701130 0.000000 0.000000 
#    y 0.000000 1.786430 0.000000 
#    z 0.000000 0.000000 1.787290 
# 
# From -- ./inp_files/1445.got.cif
#   From: 2010.03.12/outbox.cif.g09.slc.cpg/sg51_1_cif.got.tgz:1445.got - 2010.04.16 13:43:02.
