data_PCOD8208874
_publ_section_title
;
Structure prediction by ZEFSAII (Michael W. Deem and Ramdas Pophale) SiO2 
 PCOD8208874
Probable space group: P M M A
;
_chemical_formula_sum "Si O2"
_cell_formula_units_Z 36
_cell_length_a 8.819720
_cell_length_b 16.062185
_cell_length_c 13.349677
_cell_angle_alpha 90.000000
_cell_angle_beta 90.000000
_cell_angle_gamma 90.000000
_cell_volume 1891.168299
_symmetry_space_group_name_H-M "P M M A"
_symmetry_group_IT_number 51
_symmetry_cell_setting 'orthorhombic'
loop_
_space_group_symop_operation_xyz
x,y,z
1/2-x,-y,z
1/2+x,-y,-z
-x,y,-z
-x,-y,-z
1/2+x,y,-z
1/2-x,y,z
x,-y,z
loop_
_atom_site_type_symbol
_atom_site_label
_atom_site_fract_x
_atom_site_fract_y
_atom_site_fract_z
Si Si1 0.073060 0.251842 0.898561
Si Si2 0.927409 0.319800 0.599942
Si Si3 0.929041 0.836456 0.304950
Si Si4 0.573687 0.405952 0.804578
Si Si5 0.429890 0.000000 0.389943
O O1 0.250000 0.255560 0.914095
O O2 0.027985 0.190746 0.807943
O O3 0.016824 0.345493 0.878066
O O4 0.000000 0.216234 0.000000
O O5 0.750000 0.302677 0.586119
O O6 0.960017 0.384150 0.689073
O O7 0.000000 0.359506 0.500000
O O8 0.012452 0.232849 0.618411
O O9 0.750000 0.848501 0.319112
O O10 0.015736 0.921059 0.327087
O O11 0.750000 0.394885 0.828499
O O12 0.518947 0.500000 0.824227
O O13 0.500000 0.000000 0.500000
O O14 0.250000 0.000000 0.399777
#
# Coordination Sequence:
#
# PCOD8208874 Si02
#       5
#     8   8   8   8   4
#     4  10  21  37  59  82 106 139 177 220 269 319
#     4  10  19  32  51  75 105 142 181 220 266 319
#     4  10  21  38  57  80 109 140 178 221 263 311
#     4   9  19  35  53  75 105 140 180 225 269 316
#     4  12  24  38  59  86 115 146 177 214 260 308
#
# _framework density 19.035851999999998
#
# number of rings (size 3 to 8) (size 9 to 14) (size 15 to 20)
#    0.000    2.000    0.000    3.667    0.000    4.889 
#    0.000    0.556    0.000    0.000    0.000    0.000 
#    0.000    0.000    0.000    0.000    0.000    0.000 
#
# Total GULP energy -446531.669050 kJ/mol
# GULP energy per Si atom -12403.657474 kJ/mol
# Density = 1.899253 g / cm^3
# Si number density = 19.035852 Si / 1000 Ang^3
#
#
#
# Elastic Constant Matrix: (Units=GPa)
#
#
# Indices 1 2 3 4 5 6 
#
# 1 96.8346 44.7785 50.1750 0.0000 0.0000 0.0000
# 2 44.7785 106.2536 33.5721 0.0000 0.0000 0.0000
# 3 50.1750 33.5721 115.2432 0.0000 0.0000 0.0000
# 4 0.0000 0.0000 0.0000 18.9306 0.0000 0.0000
# 5 0.0000 0.0000 0.0000 0.0000 37.5362 0.0000
# 6 0.0000 0.0000 0.0000 0.0000 0.0000 31.1578
#
#
#
# Elastic Compliance Matrix: (Units=1/GPa)
#
#
# Indices 1 2 3 4 5 6 
#
# 1 0.015253 -0.004769 -0.005252 0.000000 0.000000 0.000000
# 2 -0.004769 0.011856 -0.001378 0.000000 0.000000 0.000000
# 3 -0.005252 -0.001378 0.011365 0.000000 0.000000 0.000000
# 4 0.000000 0.000000 0.000000 0.052825 0.000000 0.000000
# 5 0.000000 0.000000 0.000000 0.000000 0.026641 0.000000
# 6 0.000000 0.000000 0.000000 0.000000 0.000000 0.032095
#
#
# Mechanical properties :
#
#
# Convention : Reuss Voigt Hill
#
# Bulk Modulus (GPa) = 63.78242 63.93141 63.85692
# Shear Modulus (GPa) = 28.08071 30.17862 29.12967
#
# Velocity S-wave (km/s) = 3.84493 3.98597 3.91609
# Velocity P-wave (km/s) = 7.30004 7.40551 7.35297
#
# Compressibility (1/GPa) = 0.01567830
#
# Stress axis : x y z
#
# Youngs Moduli (GPa) = 65.55931 84.34204 87.98783
#
# Poissons Ratio (x) = 0.40221 0.46210
# Poissons Ratio (y) = 0.31264 0.12122
# Poissons Ratio (z) = 0.34431 0.11620
#
# Static dielectric constant tensor:
#      x y z
#    x 3.548500 0.000000 0.000000 
#    y 0.000000 3.434940 0.000000 
#    z 0.000000 0.000000 3.606540 
# 
# 
# High freq. dielectric constant tensor:
#      x y z
#    x 1.751540 0.000000 0.000000 
#    y 0.000000 1.727720 0.000000 
#    z 0.000000 0.000000 1.747400 
# 
# From -- ./inp_files/20315.got.cif
#   From: 2010.03.12/outbox.cif.g09.slc.cpg/sg51_11_cif.got.tgz:20315.got - 2010.04.16 13:43:02.
