data_PCOD8208538
_publ_section_title
;
Structure prediction by ZEFSAII (Michael W. Deem and Ramdas Pophale) SiO2 
 PCOD8208538
Probable space group: P M M A
;
_chemical_formula_sum "Si O2"
_cell_formula_units_Z 64
_cell_length_a 8.825325
_cell_length_b 17.647744
_cell_length_c 20.917765
_cell_angle_alpha 90.000000
_cell_angle_beta 90.000000
_cell_angle_gamma 90.000000
_cell_volume 3257.880742
_symmetry_space_group_name_H-M "P M M A"
_symmetry_group_IT_number 51
_symmetry_cell_setting 'orthorhombic'
loop_
_space_group_symop_operation_xyz
x,y,z
1/2-x,-y,z
1/2+x,-y,-z
-x,y,-z
-x,-y,-z
1/2+x,y,-z
1/2-x,y,z
x,-y,z
loop_
_atom_site_type_symbol
_atom_site_label
_atom_site_fract_x
_atom_site_fract_y
_atom_site_fract_z
Si Si1 0.075780 0.584995 0.198680
Si Si2 0.571495 0.759349 0.563442
Si Si3 0.923141 0.085218 0.411187
Si Si4 0.428198 0.211406 0.063332
Si Si5 0.071938 0.289677 0.298405
Si Si6 0.080393 0.138665 0.727945
Si Si7 0.920409 0.918487 0.840871
Si Si8 0.930279 0.372035 0.068094
O O1 0.250000 0.607713 0.184271
O O2 0.064316 0.500000 0.226790
O O3 0.007867 0.641296 0.254022
O O4 0.986655 0.583930 0.131087
O O5 0.500000 0.720277 0.500000
O O6 0.750000 0.751879 0.560215
O O7 0.528535 0.848768 0.560409
O O8 0.509120 0.716220 0.627710
O O9 0.750000 0.099535 0.433058
O O10 0.937891 0.090104 0.335469
O O11 0.975880 0.000000 0.432114
O O12 0.250000 0.228622 0.056267
O O13 0.468843 0.149285 0.114497
O O14 0.517682 0.286852 0.081135
O O15 0.500000 0.176712 0.000000
O O16 0.250000 0.299150 0.302081
O O17 0.029937 0.210865 0.265320
O O18 0.250000 0.169639 0.736011
O O19 0.035837 0.079963 0.782411
O O20 0.750000 0.906129 0.815674
O O21 0.934134 0.000000 0.876138
O O22 0.750000 0.379122 0.062720
O O23 0.000000 0.401816 0.000000
#
# Coordination Sequence:
#
# PCOD8208538 Si02
#       8
#     8   8   8   8   8   8   8   8
#     4  10  21  38  60  85 113 143 174 212 259 310
#     4  10  20  34  53  77 104 137 179 222 264 313
#     4   9  18  32  48  69 101 137 172 214 262 309
#     4  10  20  35  53  71  94 127 170 216 260 309
#     4   9  19  36  57  80 106 139 177 215 259 316
#     4  10  19  31  50  75 100 130 170 214 259 307
#     4  10  21  34  47  66  95 131 169 213 266 318
#     4  11  22  37  58  83 112 145 180 216 256 308
#
# _framework density 19.644673999999998
#
# number of rings (size 3 to 8) (size 9 to 14) (size 15 to 20)
#    0.000    2.125    0.000    4.125    0.000    7.500 
#    0.000    0.000    0.000    0.375    0.000    0.000 
#    0.000    0.000    0.000    0.000    0.000    0.375 
#
# Total GULP energy -793037.227239 kJ/mol
# GULP energy per Si atom -12391.206676 kJ/mol
# Density = 1.959996 g / cm^3
# Si number density = 19.644674 Si / 1000 Ang^3
#
#
#
# Elastic Constant Matrix: (Units=GPa)
#
#
# Indices 1 2 3 4 5 6 
#
# 1 60.5206 19.2674 35.8186 0.0000 0.0000 0.0000
# 2 19.2674 74.1973 47.9936 0.0000 0.0000 0.0000
# 3 35.8186 47.9936 110.1690 0.0000 0.0000 0.0000
# 4 0.0000 0.0000 0.0000 -26.1986 0.0000 0.0000
# 5 0.0000 0.0000 0.0000 0.0000 31.9117 0.0000
# 6 0.0000 0.0000 0.0000 0.0000 0.0000 16.4555
#
#
#
# Elastic Compliance Matrix: (Units=1/GPa)
#
#
# Indices 1 2 3 4 5 6 
#
# 1 0.020566 -0.001414 -0.006071 0.000000 0.000000 0.000000
# 2 -0.001414 0.018863 -0.007758 0.000000 0.000000 0.000000
# 3 -0.006071 -0.007758 0.014430 0.000000 0.000000 0.000000
# 4 0.000000 0.000000 0.000000 -0.038170 0.000000 0.000000
# 5 0.000000 0.000000 0.000000 0.000000 0.031336 0.000000
# 6 0.000000 0.000000 0.000000 0.000000 0.000000 0.060770
#
#
# Mechanical properties :
#
#
# Convention : Reuss Voigt Hill
#
# Bulk Modulus (GPa) = 42.78101 50.11625 46.44863
# Shear Modulus (GPa) = 34.22990 13.88755 24.05873
#
# Velocity S-wave (km/s) = 4.17880 2.66171 3.50336
# Velocity P-wave (km/s) = 6.71624 5.91718 6.32933
#
# Compressibility (1/GPa) = 0.02337486
#
# Stress axis : x y z
#
# Youngs Moduli (GPa) = 48.62326 53.01498 69.29943
#
# Poissons Ratio (x) = 0.07496 0.42069
# Poissons Ratio (y) = 0.06875 0.53759
# Poissons Ratio (z) = 0.29517 0.41127
#
# Static dielectric constant tensor:
#      x y z
#    x 3.538300 0.000000 0.000000 
#    y 0.000000 3.450610 0.000000 
#    z 0.000000 0.000000 3.765560 
# 
# 
# High freq. dielectric constant tensor:
#      x y z
#    x 1.759690 0.000000 0.000000 
#    y 0.000000 1.746390 0.000000 
#    z 0.000000 0.000000 1.771870 
# 
# From -- ./inp_files/32325.got.cif
#   From: 2010.03.12/outbox.cif.g09.slc.cpg/sg51_17_cif.got.tgz:32325.got - 2010.04.16 13:43:02.
