data_PCOD8208050
_publ_section_title
;
Structure prediction by ZEFSAII (Michael W. Deem and Ramdas Pophale) SiO2 
 PCOD8208050
Probable space group: P M M A
;
_chemical_formula_sum "Si O2"
_cell_formula_units_Z 64
_cell_length_a 8.979643
_cell_length_b 24.777413
_cell_length_c 15.181718
_cell_angle_alpha 90.000000
_cell_angle_beta 90.000000
_cell_angle_gamma 90.000000
_cell_volume 3377.815708
_symmetry_space_group_name_H-M "P M M A"
_symmetry_group_IT_number 51
_symmetry_cell_setting 'orthorhombic'
loop_
_space_group_symop_operation_xyz
x,y,z
1/2-x,-y,z
1/2+x,-y,-z
-x,y,-z
-x,-y,-z
1/2+x,y,-z
1/2-x,y,z
x,-y,z
loop_
_atom_site_type_symbol
_atom_site_label
_atom_site_fract_x
_atom_site_fract_y
_atom_site_fract_z
Si Si1 0.074560 0.561184 0.590400
Si Si2 0.579397 0.938405 0.263919
Si Si3 0.925054 0.094492 0.911816
Si Si4 0.417629 0.216765 0.125412
Si Si5 0.574216 0.652128 0.278607
Si Si6 0.582012 0.242640 0.675795
Si Si7 0.926255 0.133984 0.590564
Si Si8 0.075510 0.677630 0.914231
O O1 0.250000 0.566218 0.577628
O O2 0.026531 0.500000 0.613004
O O3 0.018419 0.598659 0.670776
O O4 0.000000 0.580871 0.500000
O O5 0.750000 0.918330 0.257597
O O6 0.502721 0.934730 0.169255
O O7 0.490524 0.902101 0.332050
O O8 0.572244 0.000000 0.296475
O O9 0.750000 0.081714 0.910150
O O10 0.957345 0.158268 0.910456
O O11 0.000000 0.070839 0.000000
O O12 0.250000 0.234695 0.098938
O O13 0.433885 0.214112 0.230155
O O14 0.534585 0.259024 0.085036
O O15 0.750000 0.655057 0.276113
O O16 0.519997 0.704551 0.331984
O O17 0.514119 0.651478 0.177403
O O18 0.750000 0.262059 0.658698
O O19 0.533605 0.197109 0.605849
O O20 0.750000 0.125308 0.587213
O O21 0.000000 0.114965 0.500000
O O22 0.250000 0.669672 0.922564
O O23 0.000000 0.649581 0.000000
#
# Coordination Sequence:
#
# PCOD8208050 Si02
#       8
#     8   8   8   8   8   8   8   8
#     4   9  18  34  55  78 106 140 181 229 275 322
#     4  11  25  44  64  85 109 141 183 231 281 332
#     4  11  22  37  58  85 114 146 183 225 274 331
#     4   9  17  32  52  76 106 140 178 217 261 315
#     4   9  19  33  51  78 109 144 185 222 268 325
#     4   9  18  34  54  79 112 145 178 217 266 320
#     4  11  23  41  63  88 114 145 182 223 274 334
#     4  10  19  30  46  72 105 143 182 221 264 314
#
# _framework density 18.947156
#
# number of rings (size 3 to 8) (size 9 to 14) (size 15 to 20)
#    0.000    2.125    1.250    1.875    0.000    6.000 
#    0.000    2.500    0.000    0.375    0.000    0.000 
#    0.000    0.000    0.000    0.000    0.000    0.375 
#
# Total GULP energy -793612.384137 kJ/mol
# GULP energy per Si atom -12400.193502 kJ/mol
# Density = 1.890403 g / cm^3
# Si number density = 18.947156 Si / 1000 Ang^3
#
#
#
# Elastic Constant Matrix: (Units=GPa)
#
#
# Indices 1 2 3 4 5 6 
#
# 1 75.7288 38.4594 46.6614 0.0000 0.0000 0.0000
# 2 38.4594 79.4177 52.6104 0.0000 0.0000 0.0000
# 3 46.6614 52.6104 117.7473 0.0000 0.0000 0.0000
# 4 0.0000 0.0000 0.0000 7.6205 0.0000 0.0000
# 5 0.0000 0.0000 0.0000 0.0000 33.0396 0.0000
# 6 0.0000 0.0000 0.0000 0.0000 0.0000 22.4847
#
#
#
# Elastic Compliance Matrix: (Units=1/GPa)
#
#
# Indices 1 2 3 4 5 6 
#
# 1 0.019346 -0.006094 -0.004944 0.000000 0.000000 0.000000
# 2 -0.006094 0.019805 -0.006434 0.000000 0.000000 0.000000
# 3 -0.004944 -0.006434 0.013327 0.000000 0.000000 0.000000
# 4 0.000000 0.000000 0.000000 0.131225 0.000000 0.000000
# 5 0.000000 0.000000 0.000000 0.000000 0.030267 0.000000
# 6 0.000000 0.000000 0.000000 0.000000 0.000000 0.044475
#
#
# Mechanical properties :
#
#
# Convention : Reuss Voigt Hill
#
# Bulk Modulus (GPa) = 57.03069 60.92847 58.97958
# Shear Modulus (GPa) = 16.70944 21.63980 19.17462
#
# Velocity S-wave (km/s) = 2.97290 3.38318 3.18465
# Velocity P-wave (km/s) = 6.47683 6.89116 6.68721
#
# Compressibility (1/GPa) = 0.01753442
#
# Stress axis : x y z
#
# Youngs Moduli (GPa) = 51.69065 50.49257 75.03683
#
# Poissons Ratio (x) = 0.30768 0.37097
# Poissons Ratio (y) = 0.31498 0.48280
# Poissons Ratio (z) = 0.25555 0.32488
#
# Static dielectric constant tensor:
#      x y z
#    x 3.457910 0.000000 0.000000 
#    y 0.000000 3.347700 0.000000 
#    z 0.000000 0.000000 3.792760 
# 
# 
# High freq. dielectric constant tensor:
#      x y z
#    x 1.738240 0.000000 0.000000 
#    y 0.000000 1.712350 0.000000 
#    z 0.000000 0.000000 1.744470 
# 
# From -- ./inp_files/22208.got.cif
#   From: 2010.03.12/outbox.cif.g09.slc.cpg/sg51_12_cif.got.tgz:22208.got - 2010.04.16 13:43:02.
