data_PCOD8208131
_publ_section_title
;
Structure prediction by ZEFSAII (Michael W. Deem and Ramdas Pophale) SiO2 
 PCOD8208131
Probable space group: P M M A
;
_chemical_formula_sum "Si O2"
_cell_formula_units_Z 48
_cell_length_a 24.645786
_cell_length_b 9.065747
_cell_length_c 12.594642
_cell_angle_alpha 90.000000
_cell_angle_beta 90.000000
_cell_angle_gamma 90.000000
_cell_volume 2814.051851
_symmetry_space_group_name_H-M "P M M A"
_symmetry_group_IT_number 51
_symmetry_cell_setting 'orthorhombic'
loop_
_space_group_symop_operation_xyz
x,y,z
1/2-x,-y,z
1/2+x,-y,-z
-x,y,-z
-x,-y,-z
1/2+x,y,-z
1/2-x,y,z
x,-y,z
loop_
_atom_site_type_symbol
_atom_site_label
_atom_site_fract_x
_atom_site_fract_y
_atom_site_fract_z
Si Si1 0.814372 0.331358 0.282852
Si Si2 0.392702 0.327550 0.112535
Si Si3 0.685463 0.166228 0.491124
Si Si4 0.497322 0.162420 0.125914
Si Si5 0.187814 0.329085 0.300237
Si Si6 0.883684 0.174810 0.110619
O O1 0.750000 0.319792 0.276259
O O2 0.834016 0.500000 0.279967
O O3 0.836713 0.258069 0.390947
O O4 0.837446 0.244428 0.182713
O O5 0.395397 0.500000 0.087013
O O6 0.450881 0.277070 0.160879
O O7 0.346652 0.288152 0.197203
O O8 0.377582 0.240605 0.006661
O O9 0.750000 0.169618 0.490604
O O10 0.664322 0.238561 0.599987
O O11 0.663103 0.000000 0.483124
O O12 0.557442 0.213830 0.162507
O O13 0.483476 0.000000 0.172347
O O14 0.500000 0.152402 0.000000
O O15 0.250000 0.286584 0.275566
O O16 0.182438 0.500000 0.330018
O O17 0.875742 0.000000 0.102619
#
# Coordination Sequence:
#
# PCOD8208131 Si02
#       6
#     8   8   8   8   8   8
#     4  10  20  33  50  72  98 127 157 192 237 285
#     4  10  19  30  48  73  98 127 162 198 238 283
#     4   9  17  30  49  71  93 121 160 198 230 273
#     4   8  16  31  48  66  91 124 160 198 238 280
#     4   9  18  32  48  68  97 129 158 191 233 280
#     4  10  20  33  49  70  97 128 161 197 238 283
#
# _framework density 17.057255000000001
#
# number of rings (size 3 to 8) (size 9 to 14) (size 15 to 20)
#    0.000    2.667    0.000    3.000    0.000    8.667 
#    0.000    1.667    0.000    1.000    0.000    7.000 
#    0.000    0.000    0.000    0.000    0.000    0.000 
#
# Total GULP energy -595107.603720 kJ/mol
# GULP energy per Si atom -12398.075077 kJ/mol
# Density = 1.701843 g / cm^3
# Si number density = 17.057255 Si / 1000 Ang^3
#
#
#
# Elastic Constant Matrix: (Units=GPa)
#
#
# Indices 1 2 3 4 5 6 
#
# 1 50.9739 42.2502 39.6943 0.0000 0.0000 0.0000
# 2 42.2502 119.1356 68.5745 0.0000 0.0000 0.0000
# 3 39.6943 68.5745 99.7086 0.0000 0.0000 0.0000
# 4 0.0000 0.0000 0.0000 20.7368 0.0000 0.0000
# 5 0.0000 0.0000 0.0000 0.0000 2.3163 0.0000
# 6 0.0000 0.0000 0.0000 0.0000 0.0000 27.3476
#
#
#
# Elastic Compliance Matrix: (Units=1/GPa)
#
#
# Indices 1 2 3 4 5 6 
#
# 1 0.031186 -0.006478 -0.007960 0.000000 0.000000 0.000000
# 2 -0.006478 0.015240 -0.007902 0.000000 0.000000 0.000000
# 3 -0.007960 -0.007902 0.018633 0.000000 0.000000 0.000000
# 4 0.000000 0.000000 0.000000 0.048223 0.000000 0.000000
# 5 0.000000 0.000000 0.000000 0.000000 0.431715 0.000000
# 6 0.000000 0.000000 0.000000 0.000000 0.000000 0.036566
#
#
# Mechanical properties :
#
#
# Convention : Reuss Voigt Hill
#
# Bulk Modulus (GPa) = 49.07232 63.42846 56.25039
# Shear Modulus (GPa) = 7.89845 18.03343 12.96594
#
# Velocity S-wave (km/s) = 2.15421 3.25503 2.76006
# Velocity P-wave (km/s) = 5.91769 7.16891 6.57314
#
# Compressibility (1/GPa) = 0.02037809
#
# Stress axis : x y z
#
# Youngs Moduli (GPa) = 32.06593 65.61857 53.66886
#
# Poissons Ratio (x) = 0.42507 0.42720
# Poissons Ratio (y) = 0.20772 0.42410
# Poissons Ratio (z) = 0.25524 0.51853
#
# Static dielectric constant tensor:
#      x y z
#    x 3.307470 0.000000 0.000000 
#    y 0.000000 3.355210 0.000000 
#    z 0.000000 0.000000 3.048960 
# 
# 
# High freq. dielectric constant tensor:
#      x y z
#    x 1.638460 0.000000 0.000000 
#    y 0.000000 1.672060 0.000000 
#    z 0.000000 0.000000 1.641250 
# 
# From -- ./inp_files/18593.got.cif
#   From: 2010.03.12/outbox.cif.g09.slc.cpg/sg51_10_cif.got.tgz:18593.got - 2010.04.16 13:43:02.
