data_PCOD8208893
_publ_section_title
;
Structure prediction by ZEFSAII (Michael W. Deem and Ramdas Pophale) SiO2 
 PCOD8208893
Probable space group: P M M A
;
_chemical_formula_sum "Si O2"
_cell_formula_units_Z 48
_cell_length_a 8.690682
_cell_length_b 30.739097
_cell_length_c 9.599193
_cell_angle_alpha 90.000000
_cell_angle_beta 90.000000
_cell_angle_gamma 90.000000
_cell_volume 2564.364098
_symmetry_space_group_name_H-M "P M M A"
_symmetry_group_IT_number 51
_symmetry_cell_setting 'orthorhombic'
loop_
_space_group_symop_operation_xyz
x,y,z
1/2-x,-y,z
1/2+x,-y,-z
-x,y,-z
-x,-y,-z
1/2+x,y,-z
1/2-x,y,z
x,-y,z
loop_
_atom_site_type_symbol
_atom_site_label
_atom_site_fract_x
_atom_site_fract_y
_atom_site_fract_z
Si Si1 0.431989 0.287904 0.649191
Si Si2 0.069000 0.882076 0.151934
Si Si3 0.070243 0.050492 0.645112
Si Si4 0.070026 0.545900 0.151048
Si Si5 0.432637 0.640085 0.154129
Si Si6 0.568305 0.803653 0.648607
O O1 0.500000 0.300437 0.500000
O O2 0.250000 0.284996 0.638477
O O3 0.480906 0.324396 0.756539
O O4 0.497125 0.241692 0.700818
O O5 0.250000 0.887166 0.140310
O O6 0.021027 0.839814 0.239775
O O7 0.003225 0.924918 0.224921
O O8 0.000000 0.876929 0.000000
O O9 0.250000 0.059745 0.640778
O O10 0.000000 0.067741 0.500000
O O11 0.031016 0.000000 0.666109
O O12 0.250000 0.546011 0.129570
O O13 0.020774 0.500000 0.229351
O O14 0.025933 0.592212 0.221906
O O15 0.000000 0.545170 0.000000
O O16 0.250000 0.648768 0.152856
O O17 0.500000 0.643140 0.000000
O O18 0.500000 0.817636 0.500000
O O19 0.750000 0.798392 0.633528
#
# Coordination Sequence:
#
# PCOD8208893 Si02
#       6
#     8   8   8   8   8   8
#     4  11  22  37  57  79 105 139 178 220 267 319
#     4  11  24  39  58  84 115 149 183 224 273 323
#     4  10  21  38  61  87 115 149 189 230 270 317
#     4   8  14  25  43  68  98 132 169 210 256 306
#     4  10  19  32  51  77 108 139 174 217 264 315
#     4  10  21  38  59  82 106 137 179 222 267 320
#
# _framework density 18.718091000000001
#
# number of rings (size 3 to 8) (size 9 to 14) (size 15 to 20)
#    0.000    2.000    0.000    5.000    0.000    6.667 
#    0.000    1.667    0.000    0.500    0.000    0.000 
#    0.000    0.000    0.000    0.000    0.000    0.000 
#
# Total GULP energy -594918.419559 kJ/mol
# GULP energy per Si atom -12394.133741 kJ/mol
# Density = 1.867549 g / cm^3
# Si number density = 18.718091 Si / 1000 Ang^3
#
#
#
# Elastic Constant Matrix: (Units=GPa)
#
#
# Indices 1 2 3 4 5 6 
#
# 1 88.2183 61.8948 45.6420 0.0000 0.0000 0.0000
# 2 61.8948 141.0207 82.5948 0.0000 0.0000 0.0000
# 3 45.6420 82.5948 105.8740 0.0000 0.0000 0.0000
# 4 0.0000 0.0000 0.0000 -7.2262 0.0000 0.0000
# 5 0.0000 0.0000 0.0000 0.0000 32.8978 0.0000
# 6 0.0000 0.0000 0.0000 0.0000 0.0000 -28.3378
#
#
#
# Elastic Compliance Matrix: (Units=1/GPa)
#
#
# Indices 1 2 3 4 5 6 
#
# 1 0.016801 -0.005767 -0.002744 0.000000 0.000000 0.000000
# 2 -0.005767 0.015037 -0.009244 0.000000 0.000000 0.000000
# 3 -0.002744 -0.009244 0.017840 0.000000 0.000000 0.000000
# 4 0.000000 0.000000 0.000000 -0.138385 0.000000 0.000000
# 5 0.000000 0.000000 0.000000 0.000000 0.030397 0.000000
# 6 0.000000 0.000000 0.000000 0.000000 0.000000 -0.035289
#
#
# Mechanical properties :
#
#
# Convention : Reuss Voigt Hill
#
# Bulk Modulus (GPa) = 70.58587 79.48626 75.03606
# Shear Modulus (GPa) = -93.69360 9.13218 -42.28071
#
# Velocity S-wave (km/s) = -7.08264 2.21120 -4.75786
# Velocity P-wave (km/s) = 5.39381 7.00545 3.16094
#
# Compressibility (1/GPa) = 0.01416714
#
# Stress axis : x y z
#
# Youngs Moduli (GPa) = 59.51867 66.50397 56.05438
#
# Poissons Ratio (x) = 0.38354 0.15381
# Poissons Ratio (y) = 0.34325 0.51818
# Poissons Ratio (z) = 0.16332 0.61478
#
# Static dielectric constant tensor:
#      x y z
#    x 3.595850 0.000000 0.000000 
#    y 0.000000 4.009110 0.000000 
#    z 0.000000 0.000000 3.191460 
# 
# 
# High freq. dielectric constant tensor:
#      x y z
#    x 1.743290 0.000000 0.000000 
#    y 0.000000 1.751970 0.000000 
#    z 0.000000 0.000000 1.696950 
# 
# From -- ./inp_files/6047.got.cif
#   From: 2010.03.12/outbox.cif.g09.slc.cpg/sg51_4_cif.got.tgz:6047.got - 2010.04.16 13:43:02.
