data_PCOD8208639
_publ_section_title
;
Structure prediction by ZEFSAII (Michael W. Deem and Ramdas Pophale) SiO2 
 PCOD8208639
Probable space group: P M M A
;
_chemical_formula_sum "Si O2"
_cell_formula_units_Z 40
_cell_length_a 10.175546
_cell_length_b 8.943147
_cell_length_c 24.373296
_cell_angle_alpha 90.000000
_cell_angle_beta 90.000000
_cell_angle_gamma 90.000000
_cell_volume 2218.004148
_symmetry_space_group_name_H-M "P M M A"
_symmetry_group_IT_number 51
_symmetry_cell_setting 'orthorhombic'
loop_
_space_group_symop_operation_xyz
x,y,z
1/2-x,-y,z
1/2+x,-y,-z
-x,y,-z
-x,-y,-z
1/2+x,y,-z
1/2-x,y,z
x,-y,z
loop_
_atom_site_type_symbol
_atom_site_label
_atom_site_fract_x
_atom_site_fract_y
_atom_site_fract_z
Si Si1 0.405753 0.834289 0.335089
Si Si2 0.003207 0.825378 0.878318
Si Si3 0.750000 0.827602 0.950257
Si Si4 0.595289 0.327636 0.772482
Si Si5 0.897340 0.178397 0.544167
Si Si6 0.250000 0.676506 0.934077
O O1 0.250000 0.846414 0.334009
O O2 0.455283 0.723020 0.287573
O O3 0.446582 0.771660 0.395125
O O4 0.465603 0.000000 0.324968
O O5 0.876177 0.788732 0.914329
O O6 0.981213 0.770857 0.816607
O O7 0.122710 0.737718 0.904217
O O8 0.035545 0.000000 0.877601
O O9 0.750000 0.000000 0.969284
O O10 0.750000 0.723506 0.002847
O O11 0.750000 0.298624 0.778842
O O12 0.559284 0.500000 0.780982
O O13 0.750000 0.239647 0.531787
O O14 0.000000 0.244792 0.500000
O O15 0.894666 0.000000 0.542022
O O16 0.250000 0.500000 0.930423
#
# Coordination Sequence:
#
# PCOD8208639 Si02
#       6
#     8   8   4   8   8   4
#     4   8  14  25  43  67  95 129 168 208 254 307
#     4  11  22  39  61  83 108 142 182 222 264 315
#     4  10  22  40  62  86 108 138 181 224 263 310
#     4  10  19  31  51  79 107 133 171 222 269 314
#     4   8  13  22  39  64  92 122 159 205 252 298
#     4  12  26  40  56  82 116 148 175 214 267 320
#
# _framework density 18.034233
#
# number of rings (size 3 to 8) (size 9 to 14) (size 15 to 20)
#    0.000    2.400    1.000    3.900    0.000    4.800 
#    0.000    0.000    2.200    0.600    0.000    0.000 
#    0.000    0.000    0.000    0.000    0.000    0.000 
#
# Total GULP energy -495933.967562 kJ/mol
# GULP energy per Si atom -12398.349189 kJ/mol
# Density = 1.799319 g / cm^3
# Si number density = 18.034233 Si / 1000 Ang^3
#
#
#
# Elastic Constant Matrix: (Units=GPa)
#
#
# Indices 1 2 3 4 5 6 
#
# 1 91.4360 46.5081 60.4279 0.0000 0.0000 0.0000
# 2 46.5081 86.8020 61.0919 0.0000 0.0000 0.0000
# 3 60.4279 61.0919 162.4740 0.0000 0.0000 0.0000
# 4 0.0000 0.0000 0.0000 6.7601 0.0000 0.0000
# 5 0.0000 0.0000 0.0000 0.0000 26.0547 0.0000
# 6 0.0000 0.0000 0.0000 0.0000 0.0000 20.2782
#
#
#
# Elastic Compliance Matrix: (Units=1/GPa)
#
#
# Indices 1 2 3 4 5 6 
#
# 1 0.016640 -0.006201 -0.003857 0.000000 0.000000 0.000000
# 2 -0.006201 0.017977 -0.004453 0.000000 0.000000 0.000000
# 3 -0.003857 -0.004453 0.009264 0.000000 0.000000 0.000000
# 4 0.000000 0.000000 0.000000 0.147926 0.000000 0.000000
# 5 0.000000 0.000000 0.000000 0.000000 0.038381 0.000000
# 6 0.000000 0.000000 0.000000 0.000000 0.000000 0.049314
#
#
# Mechanical properties :
#
#
# Convention : Reuss Voigt Hill
#
# Bulk Modulus (GPa) = 67.30313 75.19641 71.24977
# Shear Modulus (GPa) = 15.95013 22.13088 19.04051
#
# Velocity S-wave (km/s) = 2.97717 3.50688 3.25283
# Velocity P-wave (km/s) = 7.01561 7.62789 7.32814
#
# Compressibility (1/GPa) = 0.01485815
#
# Stress axis : x y z
#
# Youngs Moduli (GPa) = 60.09739 55.62616 107.94589
#
# Poissons Ratio (x) = 0.34493 0.41636
# Poissons Ratio (y) = 0.37265 0.48072
# Poissons Ratio (z) = 0.23180 0.24772
#
# Static dielectric constant tensor:
#      x y z
#    x 3.017630 0.000000 0.000000 
#    y 0.000000 3.201280 0.000000 
#    z 0.000000 0.000000 3.688990 
# 
# 
# High freq. dielectric constant tensor:
#      x y z
#    x 1.668320 0.000000 0.000000 
#    y 0.000000 1.681060 0.000000 
#    z 0.000000 0.000000 1.715510 
# 
# From -- ./inp_files/36021.got.cif
#   From: 2010.03.12/outbox.cif.g09.slc.cpg/sg51_19_cif.got.tgz:36021.got - 2010.04.16 13:43:02.
