data_PCOD8208225
_publ_section_title
;
Structure prediction by ZEFSAII (Michael W. Deem and Ramdas Pophale) SiO2 
 PCOD8208225
Probable space group: P M M A
;
_chemical_formula_sum "Si O2"
_cell_formula_units_Z 64
_cell_length_a 8.736276
_cell_length_b 28.555450
_cell_length_c 14.839960
_cell_angle_alpha 90.000000
_cell_angle_beta 90.000000
_cell_angle_gamma 90.000000
_cell_volume 3702.099482
_symmetry_space_group_name_H-M "P M M A"
_symmetry_group_IT_number 51
_symmetry_cell_setting 'orthorhombic'
loop_
_space_group_symop_operation_xyz
x,y,z
1/2-x,-y,z
1/2+x,-y,-z
-x,y,-z
-x,-y,-z
1/2+x,y,-z
1/2-x,y,z
x,-y,z
loop_
_atom_site_type_symbol
_atom_site_label
_atom_site_fract_x
_atom_site_fract_y
_atom_site_fract_z
Si Si1 0.569019 0.623089 0.093314
Si Si2 0.069587 0.150756 0.598387
Si Si3 0.569804 0.049358 0.402377
Si Si4 0.069028 0.686776 0.407065
Si Si5 0.426296 0.552306 0.232447
Si Si6 0.931821 0.585815 0.406074
Si Si7 0.071840 0.270649 0.908327
Si Si8 0.069988 0.237462 0.716438
O O1 0.750000 0.619277 0.090182
O O2 0.508492 0.590194 0.171327
O O3 0.513198 0.676419 0.110907
O O4 0.500000 0.604431 0.000000
O O5 0.250000 0.153260 0.585255
O O6 0.017837 0.099552 0.639223
O O7 0.016100 0.188560 0.672273
O O8 0.000000 0.161158 0.500000
O O9 0.500000 0.047221 0.500000
O O10 0.750000 0.050248 0.412407
O O11 0.521652 0.000000 0.351248
O O12 0.250000 0.680307 0.416826
O O13 0.000000 0.707295 0.500000
O O14 0.990997 0.637730 0.384093
O O15 0.029450 0.721757 0.327133
O O16 0.250000 0.566690 0.243680
O O17 0.442005 0.500000 0.191344
O O18 0.508417 0.551447 0.329060
O O19 0.750000 0.585770 0.410706
O O20 0.000000 0.567506 0.500000
O O21 0.250000 0.272093 0.925773
O O22 0.031237 0.237500 0.823186
O O23 0.000000 0.249815 0.000000
O O24 0.250000 0.247080 0.700610
#
# Coordination Sequence:
#
# PCOD8208225 Si02
#       8
#     8   8   8   8   8   8   8   8
#     4  10  20  36  58  80 101 126 156 191 235 285
#     4   9  17  27  40  60  90 126 160 196 236 279
#     4   8  13  22  36  54  78 113 157 199 236 274
#     4  11  21  33  50  72  98 128 161 194 229 272
#     4  11  24  40  57  79 105 130 158 193 233 279
#     4  11  22  38  58  77  99 128 163 200 236 275
#     4   9  19  34  52  72  93 118 149 188 229 275
#     4  10  19  31  46  67  96 126 156 192 238 285
#
# _framework density 17.287489000000001
#
# number of rings (size 3 to 8) (size 9 to 14) (size 15 to 20)
#    0.000    2.125    0.000    4.875    0.000    5.000 
#    0.000    0.000    0.000    0.000    0.000    0.000 
#    0.000    0.500    0.000    0.375    0.000    1.000 
#
# Total GULP energy -793176.592093 kJ/mol
# GULP energy per Si atom -12393.384251 kJ/mol
# Density = 1.724814 g / cm^3
# Si number density = 17.287489 Si / 1000 Ang^3
#
#
#
# Elastic Constant Matrix: (Units=GPa)
#
#
# Indices 1 2 3 4 5 6 
#
# 1 71.7608 22.6253 26.9779 0.0000 0.0000 0.0000
# 2 22.6253 83.0588 51.4297 0.0000 0.0000 0.0000
# 3 26.9779 51.4297 102.2015 0.0000 0.0000 0.0000
# 4 0.0000 0.0000 0.0000 24.6907 0.0000 0.0000
# 5 0.0000 0.0000 0.0000 0.0000 28.3212 0.0000
# 6 0.0000 0.0000 0.0000 0.0000 0.0000 11.3891
#
#
#
# Elastic Compliance Matrix: (Units=1/GPa)
#
#
# Indices 1 2 3 4 5 6 
#
# 1 0.015821 -0.002504 -0.002916 0.000000 0.000000 0.000000
# 2 -0.002504 0.017885 -0.008339 0.000000 0.000000 0.000000
# 3 -0.002916 -0.008339 0.014751 0.000000 0.000000 0.000000
# 4 0.000000 0.000000 0.000000 0.040501 0.000000 0.000000
# 5 0.000000 0.000000 0.000000 0.000000 0.035309 0.000000
# 6 0.000000 0.000000 0.000000 0.000000 0.000000 0.087803
#
#
# Mechanical properties :
#
#
# Convention : Reuss Voigt Hill
#
# Bulk Modulus (GPa) = 47.75925 51.00964 49.38444
# Shear Modulus (GPa) = 20.27828 23.27942 21.77885
#
# Velocity S-wave (km/s) = 3.42863 3.67359 3.55322
# Velocity P-wave (km/s) = 6.58487 6.89670 6.74258
#
# Compressibility (1/GPa) = 0.02093835
#
# Stress axis : x y z
#
# Youngs Moduli (GPa) = 63.20723 55.91145 67.79254
#
# Poissons Ratio (x) = 0.14000 0.19770
# Poissons Ratio (y) = 0.15827 0.56534
# Poissons Ratio (z) = 0.18432 0.46626
#
# Static dielectric constant tensor:
#      x y z
#    x 3.191190 0.000000 0.000000 
#    y 0.000000 3.663290 0.000000 
#    z 0.000000 0.000000 3.279050 
# 
# 
# High freq. dielectric constant tensor:
#      x y z
#    x 1.674420 0.000000 0.000000 
#    y 0.000000 1.660810 0.000000 
#    z 0.000000 0.000000 1.644120 
# 
# From -- ./inp_files/22586.got.cif
#   From: 2010.03.12/outbox.cif.g09.slc.cpg/sg51_12_cif.got.tgz:22586.got - 2010.04.16 13:43:02.
