data_PCOD8208381
_publ_section_title
;
Structure prediction by ZEFSAII (Michael W. Deem and Ramdas Pophale) SiO2 
 PCOD8208381
Probable space group: P M M A
;
_chemical_formula_sum "Si O2"
_cell_formula_units_Z 64
_cell_length_a 8.674331
_cell_length_b 28.896292
_cell_length_c 13.990053
_cell_angle_alpha 90.000000
_cell_angle_beta 90.000000
_cell_angle_gamma 90.000000
_cell_volume 3506.690745
_symmetry_space_group_name_H-M "P M M A"
_symmetry_group_IT_number 51
_symmetry_cell_setting 'orthorhombic'
loop_
_space_group_symop_operation_xyz
x,y,z
1/2-x,-y,z
1/2+x,-y,-z
-x,y,-z
-x,-y,-z
1/2+x,y,-z
1/2-x,y,z
x,-y,z
loop_
_atom_site_type_symbol
_atom_site_label
_atom_site_fract_x
_atom_site_fract_y
_atom_site_fract_z
Si Si1 0.931192 0.635561 0.102179
Si Si2 0.431155 0.603470 0.399835
Si Si3 0.430388 0.447518 0.208722
Si Si4 0.919798 0.053664 0.091125
Si Si5 0.573037 0.947133 0.713909
Si Si6 0.929500 0.132387 0.399284
Si Si7 0.932498 0.687226 0.292167
Si Si8 0.067599 0.771954 0.394837
O O1 0.750000 0.636087 0.091729
O O2 0.985395 0.671008 0.185816
O O3 0.982826 0.584009 0.131502
O O4 0.000000 0.650557 0.000000
O O5 0.500000 0.585364 0.500000
O O6 0.250000 0.610976 0.410697
O O7 0.471490 0.566302 0.317656
O O8 0.508485 0.651988 0.372640
O O9 0.250000 0.441453 0.190263
O O10 0.485028 0.500000 0.192663
O O11 0.750000 0.075760 0.111875
O O12 0.041255 0.060703 0.175241
O O13 0.894089 0.000000 0.069790
O O14 0.000000 0.077960 0.000000
O O15 0.750000 0.934742 0.690975
O O16 0.455619 0.913095 0.662508
O O17 0.536021 0.000000 0.683476
O O18 0.750000 0.143739 0.407941
O O19 0.000000 0.119494 0.500000
O O20 0.014911 0.177614 0.357654
O O21 0.750000 0.690542 0.298786
O O22 0.006808 0.736534 0.315188
O O23 0.250000 0.769212 0.401354
O O24 0.000000 0.761420 0.500000
#
# Coordination Sequence:
#
# PCOD8208381 Si02
#       8
#     8   8   8   8   8   8   8   8
#     4  10  21  36  56  79 104 134 170 214 260 308
#     4  10  19  31  48  72 102 135 170 210 257 307
#     4   9  19  35  52  71  99 136 178 220 260 305
#     4   9  16  27  45  70  98 128 164 207 254 301
#     4  10  20  34  52  75 104 139 179 221 264 310
#     4  11  22  37  55  76 105 139 176 216 257 305
#     4  10  20  35  54  78 104 131 166 207 253 305
#     4  11  21  35  56  81 108 137 168 205 252 304
#
# _framework density 18.250824999999999
#
# number of rings (size 3 to 8) (size 9 to 14) (size 15 to 20)
#    0.000    2.000    0.000    5.250    0.000    5.250 
#    0.000    0.000    0.000    0.750    0.000    3.500 
#    0.000    0.000    0.000    0.000    0.000    0.000 
#
# Total GULP energy -793564.094902 kJ/mol
# GULP energy per Si atom -12399.438983 kJ/mol
# Density = 1.820929 g / cm^3
# Si number density = 18.250825 Si / 1000 Ang^3
#
#
#
# Elastic Constant Matrix: (Units=GPa)
#
#
# Indices 1 2 3 4 5 6 
#
# 1 96.3404 31.9215 36.6676 0.0000 0.0000 0.0000
# 2 31.9215 95.0514 48.4436 0.0000 0.0000 0.0000
# 3 36.6676 48.4436 95.3268 0.0000 0.0000 0.0000
# 4 0.0000 0.0000 0.0000 18.3365 0.0000 0.0000
# 5 0.0000 0.0000 0.0000 0.0000 29.4618 0.0000
# 6 0.0000 0.0000 0.0000 0.0000 0.0000 27.9427
#
#
#
# Elastic Compliance Matrix: (Units=1/GPa)
#
#
# Indices 1 2 3 4 5 6 
#
# 1 0.012542 -0.002366 -0.003622 0.000000 0.000000 0.000000
# 2 -0.002366 0.014644 -0.006532 0.000000 0.000000 0.000000
# 3 -0.003622 -0.006532 0.015203 0.000000 0.000000 0.000000
# 4 0.000000 0.000000 0.000000 0.054536 0.000000 0.000000
# 5 0.000000 0.000000 0.000000 0.000000 0.033942 0.000000
# 6 0.000000 0.000000 0.000000 0.000000 0.000000 0.035787
#
#
# Mechanical properties :
#
#
# Convention : Reuss Voigt Hill
#
# Bulk Modulus (GPa) = 57.63869 57.86488 57.75178
# Shear Modulus (GPa) = 25.31921 26.46059 25.88990
#
# Velocity S-wave (km/s) = 3.72868 3.81179 3.77046
# Velocity P-wave (km/s) = 7.08430 7.15173 7.11810
#
# Compressibility (1/GPa) = 0.01734946
#
# Stress axis : x y z
#
# Youngs Moduli (GPa) = 79.72932 68.28612 65.77727
#
# Poissons Ratio (x) = 0.16158 0.23825
# Poissons Ratio (y) = 0.18865 0.42965
# Poissons Ratio (z) = 0.28878 0.44603
#
# Static dielectric constant tensor:
#      x y z
#    x 2.559060 0.000000 0.000000 
#    y 0.000000 3.283630 0.000000 
#    z 0.000000 0.000000 3.371970 
# 
# 
# High freq. dielectric constant tensor:
#      x y z
#    x 1.724650 0.000000 0.000000 
#    y 0.000000 1.685560 0.000000 
#    z 0.000000 0.000000 1.701890 
# 
# From -- ./inp_files/14805.got.cif
#   From: 2010.03.12/outbox.cif.g09.slc.cpg/sg51_8_cif.got.tgz:14805.got - 2010.04.16 13:43:02.
