data_PCOD8208364
_publ_section_title
;
Structure prediction by ZEFSAII (Michael W. Deem and Ramdas Pophale) SiO2 
 PCOD8208364
Probable space group: P M M A
;
_chemical_formula_sum "Si O2"
_cell_formula_units_Z 48
_cell_length_a 8.958466
_cell_length_b 18.143613
_cell_length_c 16.878092
_cell_angle_alpha 90.000000
_cell_angle_beta 90.000000
_cell_angle_gamma 90.000000
_cell_volume 2743.347186
_symmetry_space_group_name_H-M "P M M A"
_symmetry_group_IT_number 51
_symmetry_cell_setting 'orthorhombic'
loop_
_space_group_symop_operation_xyz
x,y,z
1/2-x,-y,z
1/2+x,-y,-z
-x,y,-z
-x,-y,-z
1/2+x,y,-z
1/2-x,y,z
x,-y,z
loop_
_atom_site_type_symbol
_atom_site_label
_atom_site_fract_x
_atom_site_fract_y
_atom_site_fract_z
Si Si1 0.073073 0.319422 0.918982
Si Si2 0.585190 0.302184 0.677726
Si Si3 0.425414 0.582326 0.770795
Si Si4 0.917815 0.197783 0.828813
Si Si5 0.421784 0.086432 0.726563
Si Si6 0.572050 0.165740 0.583392
O O1 0.250000 0.313575 0.927666
O O2 0.025233 0.378189 0.851978
O O3 0.006838 0.238851 0.898867
O O4 0.000000 0.348214 0.000000
O O5 0.750000 0.332481 0.658920
O O6 0.481220 0.372636 0.693714
O O7 0.588276 0.250575 0.753823
O O8 0.527391 0.250310 0.605972
O O9 0.250000 0.579075 0.764469
O O10 0.493705 0.500000 0.769818
O O11 0.750000 0.178441 0.857477
O O12 0.005050 0.123904 0.804054
O O13 0.250000 0.111848 0.719264
O O14 0.508048 0.108518 0.646907
O O15 0.436088 0.000000 0.739172
O O16 0.500000 0.145400 0.500000
O O17 0.750000 0.156782 0.580803
#
# Coordination Sequence:
#
# PCOD8208364 Si02
#       6
#     8   8   8   8   8   8
#     4  10  19  31  48  70  98 129 161 198 239 284
#     4   8  16  30  47  68  91 119 157 197 235 278
#     4   9  18  31  47  69  96 126 159 195 237 284
#     4   9  17  31  50  70  93 123 162 201 236 279
#     4  10  20  33  50  73 100 129 160 194 235 283
#     4  10  20  33  50  72  98 127 161 199 240 286
#
# _framework density 17.496873000000001
#
# number of rings (size 3 to 8) (size 9 to 14) (size 15 to 20)
#    0.000    2.667    0.000    3.000    0.000    7.667 
#    0.000    0.000    0.000    1.000    0.000    0.000 
#    0.000    0.000    0.000    0.000    0.000    0.000 
#
# Total GULP energy -595069.426352 kJ/mol
# GULP energy per Si atom -12397.279716 kJ/mol
# Density = 1.745705 g / cm^3
# Si number density = 17.496873 Si / 1000 Ang^3
#
#
#
# Elastic Constant Matrix: (Units=GPa)
#
#
# Indices 1 2 3 4 5 6 
#
# 1 85.0322 41.9192 12.1320 0.0000 0.0000 0.0000
# 2 41.9192 98.1560 18.2022 0.0000 0.0000 0.0000
# 3 12.1320 18.2022 12.6331 0.0000 0.0000 0.0000
# 4 0.0000 0.0000 0.0000 17.6359 0.0000 0.0000
# 5 0.0000 0.0000 0.0000 0.0000 28.2354 0.0000
# 6 0.0000 0.0000 0.0000 0.0000 0.0000 26.7473
#
#
#
# Elastic Compliance Matrix: (Units=1/GPa)
#
#
# Indices 1 2 3 4 5 6 
#
# 1 0.015366 -0.005221 -0.007234 0.000000 0.000000 0.000000
# 2 -0.005221 0.015676 -0.017573 0.000000 0.000000 0.000000
# 3 -0.007234 -0.017573 0.111425 0.000000 0.000000 0.000000
# 4 0.000000 0.000000 0.000000 0.056703 0.000000 0.000000
# 5 0.000000 0.000000 0.000000 0.000000 0.035416 0.000000
# 6 0.000000 0.000000 0.000000 0.000000 0.000000 0.037387
#
#
# Mechanical properties :
#
#
# Convention : Reuss Voigt Hill
#
# Bulk Modulus (GPa) = 12.13435 37.81423 24.97429
# Shear Modulus (GPa) = 13.90817 22.76158 18.33488
#
# Velocity S-wave (km/s) = 2.82245 3.61070 3.24063
# Velocity P-wave (km/s) = 4.19187 6.24835 5.32042
#
# Compressibility (1/GPa) = 0.08241069
#
# Stress axis : x y z
#
# Youngs Moduli (GPa) = 65.07804 63.79031 8.97464
#
# Poissons Ratio (x) = 0.33304 0.06492
# Poissons Ratio (y) = 0.33976 0.15771
# Poissons Ratio (z) = 0.47079 1.12101
#
# Static dielectric constant tensor:
#      x y z
#    x 3.405440 0.000000 0.000000 
#    y 0.000000 3.325920 0.000000 
#    z 0.000000 0.000000 3.166590 
# 
# 
# High freq. dielectric constant tensor:
#      x y z
#    x 1.687540 0.000000 0.000000 
#    y 0.000000 1.663930 0.000000 
#    z 0.000000 0.000000 1.650890 
# 
# From -- ./inp_files/21079.got.cif
#   From: 2010.03.12/outbox.cif.g09.slc.cpg/sg51_11_cif.got.tgz:21079.got - 2010.04.16 13:43:02.
