data_PCOD8208469
_publ_section_title
;
Structure prediction by ZEFSAII (Michael W. Deem and Ramdas Pophale) SiO2 
 PCOD8208469
Probable space group: P M M A
;
_chemical_formula_sum "Si O2"
_cell_formula_units_Z 40
_cell_length_a 9.331345
_cell_length_b 13.695595
_cell_length_c 18.502341
_cell_angle_alpha 90.000000
_cell_angle_beta 90.000000
_cell_angle_gamma 90.000000
_cell_volume 2364.568131
_symmetry_space_group_name_H-M "P M M A"
_symmetry_group_IT_number 51
_symmetry_cell_setting 'orthorhombic'
loop_
_space_group_symop_operation_xyz
x,y,z
1/2-x,-y,z
1/2+x,-y,-z
-x,y,-z
-x,-y,-z
1/2+x,y,-z
1/2-x,y,z
x,-y,z
loop_
_atom_site_type_symbol
_atom_site_label
_atom_site_fract_x
_atom_site_fract_y
_atom_site_fract_z
Si Si1 0.585844 0.707460 0.070499
Si Si2 0.583583 0.111334 0.569882
Si Si3 0.080746 0.215374 0.283044
Si Si4 0.417224 0.388340 0.780777
Si Si5 0.584762 0.110419 0.160659
O O1 0.750000 0.694594 0.049721
O O2 0.543161 0.636375 0.136401
O O3 0.550334 0.819079 0.093152
O O4 0.500000 0.676227 0.000000
O O5 0.500000 0.150616 0.500000
O O6 0.750000 0.117957 0.551784
O O7 0.542745 0.179765 0.636832
O O8 0.538837 0.000000 0.588161
O O9 0.250000 0.221504 0.269782
O O10 0.010488 0.321745 0.272766
O O11 0.015272 0.137031 0.227847
O O12 0.250000 0.366283 0.767302
O O13 0.456219 0.500000 0.764557
O O14 0.750000 0.125000 0.184678
O O15 0.553162 0.000000 0.136097
#
# Coordination Sequence:
#
# PCOD8208469 Si02
#       5
#     8   8   8   8   8
#     4   9  18  31  46  67  94 122 154 194 239 285
#     4   9  18  31  47  71 103 134 160 187 223 269
#     4  10  19  31  49  74 101 124 153 199 244 279
#     4   9  19  36  54  70  91 122 159 197 239 289
#     4   9  18  32  48  66  92 129 167 196 228 279
#
# _framework density 16.916407
#
# number of rings (size 3 to 8) (size 9 to 14) (size 15 to 20)
#    0.000    2.800    0.000    2.400    0.000    7.200 
#    0.000    2.000    0.000    0.600    0.000    0.000 
#    0.000    0.000    0.000    0.000    0.000    0.000 
#
# Total GULP energy -496000.339721 kJ/mol
# GULP energy per Si atom -12400.008493 kJ/mol
# Density = 1.687790 g / cm^3
# Si number density = 16.916407 Si / 1000 Ang^3
#
#
#
# Elastic Constant Matrix: (Units=GPa)
#
#
# Indices 1 2 3 4 5 6 
#
# 1 67.5006 35.1816 57.4431 0.0000 0.0000 0.0000
# 2 35.1816 93.4712 36.8219 0.0000 0.0000 0.0000
# 3 57.4431 36.8219 108.5704 0.0000 0.0000 0.0000
# 4 0.0000 0.0000 0.0000 16.2646 0.0000 0.0000
# 5 0.0000 0.0000 0.0000 0.0000 33.8442 0.0000
# 6 0.0000 0.0000 0.0000 0.0000 0.0000 23.0048
#
#
#
# Elastic Compliance Matrix: (Units=1/GPa)
#
#
# Indices 1 2 3 4 5 6 
#
# 1 0.029356 -0.005691 -0.013602 0.000000 0.000000 0.000000
# 2 -0.005691 0.013452 -0.001551 0.000000 0.000000 0.000000
# 3 -0.013602 -0.001551 0.016933 0.000000 0.000000 0.000000
# 4 0.000000 0.000000 0.000000 0.061483 0.000000 0.000000
# 5 0.000000 0.000000 0.000000 0.000000 0.029547 0.000000
# 6 0.000000 0.000000 0.000000 0.000000 0.000000 0.043469
#
#
# Mechanical properties :
#
#
# Convention : Reuss Voigt Hill
#
# Bulk Modulus (GPa) = 55.39242 58.71504 57.05373
# Shear Modulus (GPa) = 20.66582 23.96242 22.31412
#
# Velocity S-wave (km/s) = 3.49899 3.76775 3.63586
# Velocity P-wave (km/s) = 7.00998 7.32886 7.17119
#
# Compressibility (1/GPa) = 0.01805301
#
# Stress axis : x y z
#
# Youngs Moduli (GPa) = 34.06471 74.34087 59.05586
#
# Poissons Ratio (x) = 0.42308 0.80326
# Poissons Ratio (y) = 0.19386 0.09160
# Poissons Ratio (z) = 0.46334 0.11531
#
# Static dielectric constant tensor:
#      x y z
#    x 3.143100 0.000000 0.000000 
#    y 0.000000 3.240010 0.000000 
#    z 0.000000 0.000000 2.992010 
# 
# 
# High freq. dielectric constant tensor:
#      x y z
#    x 1.653760 0.000000 0.000000 
#    y 0.000000 1.648250 0.000000 
#    z 0.000000 0.000000 1.636990 
# 
# From -- ./inp_files/20523.got.cif
#   From: 2010.03.12/outbox.cif.g09.slc.cpg/sg51_11_cif.got.tgz:20523.got - 2010.04.16 13:43:02.
