data_PCOD8208079
_publ_section_title
;
Structure prediction by ZEFSAII (Michael W. Deem and Ramdas Pophale) SiO2 
 PCOD8208079
Probable space group: P M M A
;
_chemical_formula_sum "Si O2"
_cell_formula_units_Z 64
_cell_length_a 9.050096
_cell_length_b 16.003236
_cell_length_c 23.200190
_cell_angle_alpha 90.000000
_cell_angle_beta 90.000000
_cell_angle_gamma 90.000000
_cell_volume 3360.102591
_symmetry_space_group_name_H-M "P M M A"
_symmetry_group_IT_number 51
_symmetry_cell_setting 'orthorhombic'
loop_
_space_group_symop_operation_xyz
x,y,z
1/2-x,-y,z
1/2+x,-y,-z
-x,y,-z
-x,-y,-z
1/2+x,y,-z
1/2-x,y,z
x,-y,z
loop_
_atom_site_type_symbol
_atom_site_label
_atom_site_fract_x
_atom_site_fract_y
_atom_site_fract_z
Si Si1 0.081692 0.315825 0.151539
Si Si2 0.925730 0.255599 0.631883
Si Si3 0.083018 0.906946 0.839158
Si Si4 0.077138 0.906470 0.439783
Si Si5 0.419867 0.167748 0.061292
Si Si6 0.091549 0.594835 0.049835
Si Si7 0.575307 0.403760 0.438651
Si Si8 0.923192 0.234451 0.247188
O O1 0.250000 0.314290 0.175563
O O2 0.056747 0.250068 0.099673
O O3 0.036269 0.399840 0.116356
O O4 0.967357 0.309461 0.204000
O O5 0.750000 0.269096 0.629151
O O6 0.974452 0.168528 0.601788
O O7 0.004627 0.337350 0.605366
O O8 0.978969 0.245066 0.696687
O O9 0.250000 0.879269 0.853930
O O10 0.024856 0.848893 0.786716
O O11 0.989461 0.904061 0.898003
O O12 0.075378 0.000000 0.814193
O O13 0.250000 0.900817 0.450695
O O14 0.000000 0.890326 0.500000
O O15 0.035707 0.000000 0.415642
O O16 0.250000 0.145763 0.049943
O O17 0.500000 0.173401 0.000000
O O18 0.250000 0.641089 0.048585
O O19 0.108611 0.500000 0.031263
O O20 0.000000 0.641804 0.000000
O O21 0.500000 0.388061 0.500000
O O22 0.750000 0.386868 0.443830
O O23 0.545980 0.500000 0.418266
O O24 0.750000 0.236772 0.262520
#
# Coordination Sequence:
#
# PCOD8208079 Si02
#       8
#     8   8   8   8   8   8   8   8
#     4   9  18  33  50  68  94 128 165 205 251 304
#     4  11  22  36  57  83 113 150 189 229 272 320
#     4   9  19  36  54  71  95 128 167 214 266 318
#     4   9  19  35  54  80 114 149 184 222 266 316
#     4  10  19  30  47  71  96 124 160 203 255 315
#     4   9  17  29  47  72  99 125 155 194 242 297
#     4  10  21  38  61  89 120 151 184 225 273 324
#     4  10  21  36  54  75  99 131 174 219 262 310
#
# _framework density 19.047037
#
# number of rings (size 3 to 8) (size 9 to 14) (size 15 to 20)
#    0.000    2.375    0.000    2.250    0.000    5.250 
#    0.000    0.625    0.000    2.250    0.000    0.000 
#    0.000    0.000    0.000    0.000    0.000    0.000 
#
# Total GULP energy -792889.399941 kJ/mol
# GULP energy per Si atom -12388.896874 kJ/mol
# Density = 1.900369 g / cm^3
# Si number density = 19.047037 Si / 1000 Ang^3
#
#
#
# Elastic Constant Matrix: (Units=GPa)
#
#
# Indices 1 2 3 4 5 6 
#
# 1 85.0530 42.0016 54.7354 0.0000 0.0000 0.0000
# 2 42.0016 82.6401 55.9282 0.0000 0.0000 0.0000
# 3 54.7354 55.9282 131.8731 0.0000 0.0000 0.0000
# 4 0.0000 0.0000 0.0000 22.9026 0.0000 0.0000
# 5 0.0000 0.0000 0.0000 0.0000 37.7100 0.0000
# 6 0.0000 0.0000 0.0000 0.0000 0.0000 22.9695
#
#
#
# Elastic Compliance Matrix: (Units=1/GPa)
#
#
# Indices 1 2 3 4 5 6 
#
# 1 0.017748 -0.005659 -0.004966 0.000000 0.000000 0.000000
# 2 -0.005659 0.018777 -0.005614 0.000000 0.000000 0.000000
# 3 -0.004966 -0.005614 0.012025 0.000000 0.000000 0.000000
# 4 0.000000 0.000000 0.000000 0.043663 0.000000 0.000000
# 5 0.000000 0.000000 0.000000 0.000000 0.026518 0.000000
# 6 0.000000 0.000000 0.000000 0.000000 0.000000 0.043536
#
#
# Mechanical properties :
#
#
# Convention : Reuss Voigt Hill
#
# Bulk Modulus (GPa) = 62.22723 67.21073 64.71898
# Shear Modulus (GPa) = 24.98693 26.50981 25.74837
#
# Velocity S-wave (km/s) = 3.62588 3.73474 3.68071
# Velocity P-wave (km/s) = 7.09017 7.34582 7.21913
#
# Compressibility (1/GPa) = 0.01607014
#
# Stress axis : x y z
#
# Youngs Moduli (GPa) = 56.34353 53.25778 83.15673
#
# Poissons Ratio (x) = 0.30141 0.41299
# Poissons Ratio (y) = 0.31887 0.46687
# Poissons Ratio (z) = 0.27983 0.29900
#
# Static dielectric constant tensor:
#      x y z
#    x 3.729070 0.000000 0.000000 
#    y 0.000000 3.699570 0.000000 
#    z 0.000000 0.000000 3.181360 
# 
# 
# High freq. dielectric constant tensor:
#      x y z
#    x 1.745240 0.000000 0.000000 
#    y 0.000000 1.739070 0.000000 
#    z 0.000000 0.000000 1.733050 
# 
# From -- ./inp_files/32420.got.cif
#   From: 2010.03.12/outbox.cif.g09.slc.cpg/sg51_17_cif.got.tgz:32420.got - 2010.04.16 13:43:02.
