data_PCOD8208245
_publ_section_title
;
Structure prediction by ZEFSAII (Michael W. Deem and Ramdas Pophale) SiO2 
 PCOD8208245
Probable space group: P M M A
;
_chemical_formula_sum "Si O2"
_cell_formula_units_Z 56
_cell_length_a 9.149777
_cell_length_b 14.694344
_cell_length_c 22.880320
_cell_angle_alpha 90.000000
_cell_angle_beta 90.000000
_cell_angle_gamma 90.000000
_cell_volume 3076.258355
_symmetry_space_group_name_H-M "P M M A"
_symmetry_group_IT_number 51
_symmetry_cell_setting 'orthorhombic'
loop_
_space_group_symop_operation_xyz
x,y,z
1/2-x,-y,z
1/2+x,-y,-z
-x,y,-z
-x,-y,-z
1/2+x,y,-z
1/2-x,y,z
x,-y,z
loop_
_atom_site_type_symbol
_atom_site_label
_atom_site_fract_x
_atom_site_fract_y
_atom_site_fract_z
Si Si1 0.421104 0.396068 0.558888
Si Si2 0.412102 0.351349 0.219339
Si Si3 0.076511 0.213382 0.940411
Si Si4 0.415969 0.598329 0.887647
Si Si5 0.421796 0.710761 0.672074
Si Si6 0.913566 0.151289 0.831082
Si Si7 0.417565 0.099075 0.721696
O O1 0.500000 0.364628 0.500000
O O2 0.250000 0.387374 0.547983
O O3 0.463450 0.500000 0.575570
O O4 0.473572 0.326771 0.609403
O O5 0.250000 0.390131 0.231015
O O6 0.492316 0.412745 0.171655
O O7 0.500232 0.351413 0.279707
O O8 0.404385 0.251895 0.192986
O O9 0.250000 0.199510 0.944849
O O10 0.031747 0.319215 0.928989
O O11 0.011701 0.149147 0.889575
O O12 0.000000 0.182702 0.000000
O O13 0.250000 0.618945 0.868838
O O14 0.429375 0.500000 0.920374
O O15 0.250000 0.696786 0.679901
O O16 0.466907 0.817822 0.679186
O O17 0.750000 0.114036 0.844339
O O18 0.989423 0.091827 0.781017
O O19 0.250000 0.116127 0.739959
O O20 0.435584 0.000000 0.690026
#
# Coordination Sequence:
#
# PCOD8208245 Si02
#       7
#     8   8   8   8   8   8   8
#     4   9  18  32  49  69  94 127 167 206 241 277
#     4   9  17  28  43  65  90 116 149 190 235 281
#     4  10  19  31  47  65  86 116 156 198 239 286
#     4   9  18  31  44  59  84 119 155 192 238 291
#     4   9  17  30  48  70  97 128 160 195 237 285
#     4   9  17  30  47  67  92 120 150 186 230 279
#     4   9  17  30  50  75 100 126 156 190 231 283
#
# _framework density 18.203931999999998
#
# number of rings (size 3 to 8) (size 9 to 14) (size 15 to 20)
#    0.000    2.857    0.000    1.286    0.000    6.000 
#    0.000    1.429    0.000    0.857    0.000    0.000 
#    0.000    0.000    0.000    0.000    0.000    0.000 
#
# Total GULP energy -694039.616666 kJ/mol
# GULP energy per Si atom -12393.564583 kJ/mol
# Density = 1.816250 g / cm^3
# Si number density = 18.203932 Si / 1000 Ang^3
#
#
#
# Elastic Constant Matrix: (Units=GPa)
#
#
# Indices 1 2 3 4 5 6 
#
# 1 73.1366 16.8595 45.2857 0.0000 0.0000 0.0000
# 2 16.8595 65.2168 35.2168 0.0000 0.0000 0.0000
# 3 45.2857 35.2168 122.5896 0.0000 0.0000 0.0000
# 4 0.0000 0.0000 0.0000 18.0110 0.0000 0.0000
# 5 0.0000 0.0000 0.0000 0.0000 30.9527 0.0000
# 6 0.0000 0.0000 0.0000 0.0000 0.0000 9.0903
#
#
#
# Elastic Compliance Matrix: (Units=1/GPa)
#
#
# Indices 1 2 3 4 5 6 
#
# 1 0.017813 -0.001245 -0.006223 0.000000 0.000000 0.000000
# 2 -0.001245 0.018236 -0.004779 0.000000 0.000000 0.000000
# 3 -0.006223 -0.004779 0.011829 0.000000 0.000000 0.000000
# 4 0.000000 0.000000 0.000000 0.055522 0.000000 0.000000
# 5 0.000000 0.000000 0.000000 0.000000 0.032307 0.000000
# 6 0.000000 0.000000 0.000000 0.000000 0.000000 0.110007
#
#
# Mechanical properties :
#
#
# Convention : Reuss Voigt Hill
#
# Bulk Modulus (GPa) = 42.76220 50.62968 46.69594
# Shear Modulus (GPa) = 17.98551 22.51620 20.25086
#
# Velocity S-wave (km/s) = 3.14666 3.52076 3.33895
# Velocity P-wave (km/s) = 6.06165 6.66337 6.36962
#
# Compressibility (1/GPa) = 0.02338514
#
# Stress axis : x y z
#
# Youngs Moduli (GPa) = 56.13866 54.83716 84.53888
#
# Poissons Ratio (x) = 0.06825 0.52606
# Poissons Ratio (y) = 0.06987 0.40400
# Poissons Ratio (z) = 0.34934 0.26206
#
# Static dielectric constant tensor:
#      x y z
#    x 3.527740 0.000000 0.000000 
#    y 0.000000 3.288560 0.000000 
#    z 0.000000 0.000000 3.199240 
# 
# 
# High freq. dielectric constant tensor:
#      x y z
#    x 1.709040 0.000000 0.000000 
#    y 0.000000 1.693420 0.000000 
#    z 0.000000 0.000000 1.677650 
# 
# From -- ./inp_files/32030.got.cif
#   From: 2010.03.12/outbox.cif.g09.slc.cpg/sg51_17_cif.got.tgz:32030.got - 2010.04.16 13:43:02.
