data_PCOD8208372
_publ_section_title
;
Structure prediction by ZEFSAII (Michael W. Deem and Ramdas Pophale) SiO2 
 PCOD8208372
Probable space group: P M M A
;
_chemical_formula_sum "Si O2"
_cell_formula_units_Z 64
_cell_length_a 8.853837
_cell_length_b 28.744805
_cell_length_c 14.052330
_cell_angle_alpha 90.000000
_cell_angle_beta 90.000000
_cell_angle_gamma 90.000000
_cell_volume 3576.343533
_symmetry_space_group_name_H-M "P M M A"
_symmetry_group_IT_number 51
_symmetry_cell_setting 'orthorhombic'
loop_
_space_group_symop_operation_xyz
x,y,z
1/2-x,-y,z
1/2+x,-y,-z
-x,y,-z
-x,-y,-z
1/2+x,y,-z
1/2-x,y,z
x,-y,z
loop_
_atom_site_type_symbol
_atom_site_label
_atom_site_fract_x
_atom_site_fract_y
_atom_site_fract_z
Si Si1 0.427567 0.365546 0.100940
Si Si2 0.924113 0.052582 0.719337
Si Si3 0.929159 0.233130 0.398872
Si Si4 0.074884 0.871986 0.596164
Si Si5 0.928766 0.313087 0.709362
Si Si6 0.416185 0.946600 0.912089
Si Si7 0.925767 0.446921 0.210332
Si Si8 0.927421 0.604334 0.400841
O O1 0.250000 0.367401 0.086378
O O2 0.473130 0.328247 0.182898
O O3 0.482339 0.416227 0.134909
O O4 0.500000 0.351131 0.000000
O O5 0.750000 0.065084 0.701932
O O6 0.031750 0.090032 0.672547
O O7 0.963570 0.057603 0.828740
O O8 0.959248 0.000000 0.683099
O O9 0.750000 0.240463 0.403098
O O10 0.976019 0.180041 0.374893
O O11 0.000000 0.248286 0.500000
O O12 0.000402 0.262817 0.312696
O O13 0.250000 0.872584 0.578395
O O14 0.000000 0.888810 0.500000
O O15 0.750000 0.312194 0.696577
O O16 0.998415 0.347429 0.631086
O O17 0.250000 0.923973 0.890776
O O18 0.386898 0.000000 0.937767
O O19 0.500000 0.921167 0.000000
O O20 0.750000 0.438897 0.189347
O O21 0.974626 0.500000 0.194398
O O22 0.962757 0.433820 0.319668
O O23 0.750000 0.611815 0.415327
O O24 0.000000 0.587225 0.500000
#
# Coordination Sequence:
#
# PCOD8208372 Si02
#       8
#     8   8   8   8   8   8   8   8
#     4  10  21  36  55  78 102 131 167 208 254 301
#     4  10  20  33  50  73 101 135 174 214 256 300
#     4  10  20  34  54  79 105 133 164 201 247 298
#     4  10  21  36  53  74 101 134 171 209 250 298
#     4  10  20  34  53  77 102 128 162 203 248 300
#     4   9  16  27  45  69  96 125 159 201 247 293
#     4   9  19  35  52  71  98 134 175 215 254 297
#     4  10  19  31  48  71 101 134 167 206 251 299
#
# _framework density 17.895372999999999
#
# number of rings (size 3 to 8) (size 9 to 14) (size 15 to 20)
#    0.000    2.250    0.000    3.000    0.000    6.750 
#    0.000    0.000    0.000    0.750    0.000    1.750 
#    0.000    0.000    0.000    0.000    0.000    0.000 
#
# Total GULP energy -793466.343720 kJ/mol
# GULP energy per Si atom -12397.911621 kJ/mol
# Density = 1.785464 g / cm^3
# Si number density = 17.895373 Si / 1000 Ang^3
#
#
#
# Elastic Constant Matrix: (Units=GPa)
#
#
# Indices 1 2 3 4 5 6 
#
# 1 71.7363 30.1231 37.3038 0.0000 0.0000 0.0000
# 2 30.1231 81.1129 45.3242 0.0000 0.0000 0.0000
# 3 37.3038 45.3242 102.4278 0.0000 0.0000 0.0000
# 4 0.0000 0.0000 0.0000 14.7522 0.0000 0.0000
# 5 0.0000 0.0000 0.0000 0.0000 33.9089 0.0000
# 6 0.0000 0.0000 0.0000 0.0000 0.0000 28.1113
#
#
#
# Elastic Compliance Matrix: (Units=1/GPa)
#
#
# Indices 1 2 3 4 5 6 
#
# 1 0.018144 -0.004046 -0.004818 0.000000 0.000000 0.000000
# 2 -0.004046 0.017280 -0.006173 0.000000 0.000000 0.000000
# 3 -0.004818 -0.006173 0.014249 0.000000 0.000000 0.000000
# 4 0.000000 0.000000 0.000000 0.067786 0.000000 0.000000
# 5 0.000000 0.000000 0.000000 0.000000 0.029491 0.000000
# 6 0.000000 0.000000 0.000000 0.000000 0.000000 0.035573
#
#
# Mechanical properties :
#
#
# Convention : Reuss Voigt Hill
#
# Bulk Modulus (GPa) = 51.02010 53.41988 52.21999
# Shear Modulus (GPa) = 22.81742 24.85622 23.83682
#
# Velocity S-wave (km/s) = 3.57465 3.73094 3.65363
# Velocity P-wave (km/s) = 6.75349 6.96246 6.85877
#
# Compressibility (1/GPa) = 0.01960012
#
# Stress axis : x y z
#
# Youngs Moduli (GPa) = 55.11387 57.86875 70.18018
#
# Poissons Ratio (x) = 0.23415 0.33810
# Poissons Ratio (y) = 0.22301 0.43322
# Poissons Ratio (z) = 0.26552 0.35722
#
# Static dielectric constant tensor:
#      x y z
#    x 3.445980 0.000000 0.000000 
#    y 0.000000 3.229320 0.000000 
#    z 0.000000 0.000000 3.107050 
# 
# 
# High freq. dielectric constant tensor:
#      x y z
#    x 1.710100 0.000000 0.000000 
#    y 0.000000 1.669370 0.000000 
#    z 0.000000 0.000000 1.688580 
# 
# From -- ./inp_files/14859.got.cif
#   From: 2010.03.12/outbox.cif.g09.slc.cpg/sg51_8_cif.got.tgz:14859.got - 2010.04.16 13:43:02.
