data_PCOD8208254
_publ_section_title
;
Structure prediction by ZEFSAII (Michael W. Deem and Ramdas Pophale) SiO2 
 PCOD8208254
Probable space group: P M M A
;
_chemical_formula_sum "Si O2"
_cell_formula_units_Z 64
_cell_length_a 9.000670
_cell_length_b 23.683761
_cell_length_c 19.134411
_cell_angle_alpha 90.000000
_cell_angle_beta 90.000000
_cell_angle_gamma 90.000000
_cell_volume 4078.876980
_symmetry_space_group_name_H-M "P M M A"
_symmetry_group_IT_number 51
_symmetry_cell_setting 'orthorhombic'
loop_
_space_group_symop_operation_xyz
x,y,z
1/2-x,-y,z
1/2+x,-y,-z
-x,y,-z
-x,-y,-z
1/2+x,y,-z
1/2-x,y,z
x,-y,z
loop_
_atom_site_type_symbol
_atom_site_label
_atom_site_fract_x
_atom_site_fract_y
_atom_site_fract_z
Si Si1 0.573131 0.218145 0.925888
Si Si2 0.424701 0.112473 0.430039
Si Si3 0.424254 0.669977 0.151701
Si Si4 0.580323 0.064114 0.297988
Si Si5 0.078523 0.758135 0.432452
Si Si6 0.574412 0.437203 0.926516
Si Si7 0.575724 0.262720 0.719196
Si Si8 0.076238 0.164844 0.799562
O O1 0.750000 0.214048 0.931427
O O2 0.518527 0.279483 0.898149
O O3 0.514239 0.171178 0.871697
O O4 0.500000 0.206026 0.000000
O O5 0.500000 0.087698 0.500000
O O6 0.250000 0.105867 0.437643
O O7 0.476631 0.077270 0.363563
O O8 0.473742 0.177581 0.420223
O O9 0.250000 0.666672 0.143378
O O10 0.489467 0.609236 0.128236
O O11 0.466879 0.683398 0.232385
O O12 0.750000 0.074474 0.321558
O O13 0.542252 0.102962 0.231268
O O14 0.552953 0.000000 0.273920
O O15 0.250000 0.755597 0.449764
O O16 0.040009 0.723199 0.361806
O O17 0.000000 0.730687 0.500000
O O18 0.750000 0.432145 0.936573
O O19 0.530996 0.500000 0.899676
O O20 0.500000 0.423997 0.000000
O O21 0.750000 0.247062 0.728584
O O22 0.479630 0.209414 0.742223
O O23 0.250000 0.174532 0.814036
#
# Coordination Sequence:
#
# PCOD8208254 Si02
#       8
#     8   8   8   8   8   8   8   8
#     4  10  19  31  48  68  91 114 140 174 215 259
#     4  10  19  31  47  66  87 113 145 177 213 254
#     4   8  15  26  42  63  88 117 145 178 214 248
#     4  10  21  35  49  65  86 112 142 177 214 255
#     4   9  17  27  42  62  85 112 140 172 211 257
#     4   9  16  26  40  59  85 119 154 182 208 242
#     4   9  16  29  45  62  86 114 143 176 217 259
#     4  10  19  31  48  67  87 110 138 172 214 259
#
# _framework density 15.690593
#
# number of rings (size 3 to 8) (size 9 to 14) (size 15 to 20)
#    0.000    2.625    1.250    2.250    0.000    2.000 
#    0.000    2.500    0.000    0.375    0.000    0.000 
#    0.000    0.500    0.000    0.375    0.000    0.750 
#
# Total GULP energy -793333.828569 kJ/mol
# GULP energy per Si atom -12395.841071 kJ/mol
# Density = 1.565488 g / cm^3
# Si number density = 15.690593 Si / 1000 Ang^3
#
#
#
# Elastic Constant Matrix: (Units=GPa)
#
#
# Indices 1 2 3 4 5 6 
#
# 1 51.4360 28.9904 43.2948 0.0000 0.0000 0.0000
# 2 28.9904 92.7734 63.4414 0.0000 0.0000 0.0000
# 3 43.2948 63.4414 139.2823 0.0000 0.0000 0.0000
# 4 0.0000 0.0000 0.0000 24.0354 0.0000 0.0000
# 5 0.0000 0.0000 0.0000 0.0000 27.4789 0.0000
# 6 0.0000 0.0000 0.0000 0.0000 0.0000 13.2070
#
#
#
# Elastic Compliance Matrix: (Units=1/GPa)
#
#
# Indices 1 2 3 4 5 6 
#
# 1 0.027298 -0.003962 -0.006681 0.000000 0.000000 0.000000
# 2 -0.003962 0.016230 -0.006161 0.000000 0.000000 0.000000
# 3 -0.006681 -0.006161 0.012063 0.000000 0.000000 0.000000
# 4 0.000000 0.000000 0.000000 0.041605 0.000000 0.000000
# 5 0.000000 0.000000 0.000000 0.000000 0.036392 0.000000
# 6 0.000000 0.000000 0.000000 0.000000 0.000000 0.075717
#
#
# Mechanical properties :
#
#
# Convention : Reuss Voigt Hill
#
# Bulk Modulus (GPa) = 45.48890 61.66053 53.57471
# Shear Modulus (GPa) = 19.98082 22.79529 21.38805
#
# Velocity S-wave (km/s) = 3.57238 3.81570 3.69604
# Velocity P-wave (km/s) = 6.78749 7.66784 7.24106
#
# Compressibility (1/GPa) = 0.02198338
#
# Stress axis : x y z
#
# Youngs Moduli (GPa) = 36.63286 61.61386 82.90025
#
# Poissons Ratio (x) = 0.24409 0.55384
# Poissons Ratio (y) = 0.14513 0.51076
# Poissons Ratio (z) = 0.24474 0.37961
#
# Static dielectric constant tensor:
#      x y z
#    x 2.947720 0.000000 0.000000 
#    y 0.000000 3.023510 0.000000 
#    z 0.000000 0.000000 3.124920 
# 
# 
# High freq. dielectric constant tensor:
#      x y z
#    x 1.600220 0.000000 0.000000 
#    y 0.000000 1.568260 0.000000 
#    z 0.000000 0.000000 1.601930 
# 
# From -- ./inp_files/32675.got.cif
#   From: 2010.03.12/outbox.cif.g09.slc.cpg/sg51_17_cif.got.tgz:32675.got - 2010.04.16 13:43:02.
