data_PCOD8208567
_publ_section_title
;
Structure prediction by ZEFSAII (Michael W. Deem and Ramdas Pophale) SiO2 
 PCOD8208567
Probable space group: P M M A
;
_chemical_formula_sum "Si O2"
_cell_formula_units_Z 64
_cell_length_a 15.790005
_cell_length_b 9.142405
_cell_length_c 23.060557
_cell_angle_alpha 90.000000
_cell_angle_beta 90.000000
_cell_angle_gamma 90.000000
_cell_volume 3328.990200
_symmetry_space_group_name_H-M "P M M A"
_symmetry_group_IT_number 51
_symmetry_cell_setting 'orthorhombic'
loop_
_space_group_symop_operation_xyz
x,y,z
1/2-x,-y,z
1/2+x,-y,-z
-x,y,-z
-x,-y,-z
1/2+x,y,-z
1/2-x,y,z
x,-y,z
loop_
_atom_site_type_symbol
_atom_site_label
_atom_site_fract_x
_atom_site_fract_y
_atom_site_fract_z
Si Si1 0.155186 0.165182 0.525148
Si Si2 0.492124 0.327888 0.872908
Si Si3 0.429023 0.333683 0.427317
Si Si4 0.840530 0.667072 0.687255
Si Si5 0.011351 0.671906 0.740523
Si Si6 0.154005 0.830485 0.078549
Si Si7 0.346143 0.830965 0.942831
Si Si8 0.926917 0.167216 0.362085
O O1 0.250000 0.191529 0.503999
O O2 0.096685 0.280402 0.491279
O O3 0.153369 0.187728 0.595256
O O4 0.125237 0.000000 0.510334
O O5 0.497568 0.500000 0.883385
O O6 0.469691 0.288754 0.806712
O O7 0.584083 0.262783 0.887691
O O8 0.415488 0.265662 0.910599
O O9 0.462913 0.500000 0.431786
O O10 0.351119 0.324380 0.382230
O O11 0.498179 0.225625 0.402124
O O12 0.750000 0.743177 0.703058
O O13 0.836356 0.500000 0.707711
O O14 0.919456 0.738706 0.721942
O O15 0.013949 0.500000 0.728712
O O16 0.081916 0.744139 0.698422
O O17 0.250000 0.783756 0.096704
O O18 0.139549 0.000000 0.093275
O O19 0.141576 0.802867 0.010619
O O20 0.250000 0.787094 0.924437
O O21 0.362641 0.000000 0.927726
O O22 0.942815 0.000000 0.344904
#
# Coordination Sequence:
#
# PCOD8208567 Si02
#       8
#     8   8   8   8   8   8   8   8
#     4  10  21  35  50  72 101 127 157 205 259 306
#     4  11  22  34  53  83 116 147 180 225 279 327
#     4  10  19  31  50  76 103 129 160 199 247 309
#     4   8  14  27  47  68  92 125 163 201 240 288
#     4   9  20  36  51  71 101 136 174 214 257 310
#     4   9  19  36  57  82 114 150 185 221 263 317
#     4   9  19  37  59  81 107 144 189 231 271 319
#     4  10  20  35  54  72  94 130 171 210 255 301
#
# _framework density 19.225048999999999
#
# number of rings (size 3 to 8) (size 9 to 14) (size 15 to 20)
#    0.000    2.500    0.000    3.750    0.000    7.250 
#    0.000    3.125    0.000    5.625    0.000    0.000 
#    0.000    0.000    0.000    0.000    0.000    0.000 
#
# Total GULP energy -793139.666848 kJ/mol
# GULP energy per Si atom -12392.807295 kJ/mol
# Density = 1.918129 g / cm^3
# Si number density = 19.225049 Si / 1000 Ang^3
#
#
#
# Elastic Constant Matrix: (Units=GPa)
#
#
# Indices 1 2 3 4 5 6 
#
# 1 61.3047 33.6259 26.8441 0.0000 0.0000 0.0000
# 2 33.6259 74.5650 49.2585 0.0000 0.0000 0.0000
# 3 26.8441 49.2585 89.4197 0.0000 0.0000 0.0000
# 4 0.0000 0.0000 0.0000 30.5098 0.0000 0.0000
# 5 0.0000 0.0000 0.0000 0.0000 16.5580 0.0000
# 6 0.0000 0.0000 0.0000 0.0000 0.0000 22.0220
#
#
#
# Elastic Compliance Matrix: (Units=1/GPa)
#
#
# Indices 1 2 3 4 5 6 
#
# 1 0.021851 -0.008679 -0.001779 0.000000 0.000000 0.000000
# 2 -0.008679 0.024531 -0.010908 0.000000 0.000000 0.000000
# 3 -0.001779 -0.010908 0.017726 0.000000 0.000000 0.000000
# 4 0.000000 0.000000 0.000000 0.032776 0.000000 0.000000
# 5 0.000000 0.000000 0.000000 0.000000 0.060394 0.000000
# 6 0.000000 0.000000 0.000000 0.000000 0.000000 0.045409
#
#
# Mechanical properties :
#
#
# Convention : Reuss Voigt Hill
#
# Bulk Modulus (GPa) = 46.77948 49.41626 48.09787
# Shear Modulus (GPa) = 19.79850 21.52201 20.66026
#
# Velocity S-wave (km/s) = 3.21258 3.34949 3.28175
# Velocity P-wave (km/s) = 6.17626 6.38112 6.27953
#
# Compressibility (1/GPa) = 0.02137689
#
# Stress axis : x y z
#
# Youngs Moduli (GPa) = 45.76376 40.76512 56.41431
#
# Poissons Ratio (x) = 0.35380 0.10035
# Poissons Ratio (y) = 0.39718 0.61536
# Poissons Ratio (z) = 0.08141 0.44466
#
# Static dielectric constant tensor:
#      x y z
#    x 3.632950 0.000000 0.000000 
#    y 0.000000 3.386700 0.000000 
#    z 0.000000 0.000000 3.563080 
# 
# 
# High freq. dielectric constant tensor:
#      x y z
#    x 1.741790 0.000000 0.000000 
#    y 0.000000 1.735350 0.000000 
#    z 0.000000 0.000000 1.742920 
# 
# From -- ./inp_files/35642.got.cif
#   From: 2010.03.12/outbox.cif.g09.slc.cpg/sg51_18_cif.got.tgz:35642.got - 2010.04.16 13:43:02.
