data_PCOD8208924
_publ_section_title
;
Structure prediction by ZEFSAII (Michael W. Deem and Ramdas Pophale) SiO2 
 PCOD8208924
Probable space group: P M M A
;
_chemical_formula_sum "Si O2"
_cell_formula_units_Z 64
_cell_length_a 18.612443
_cell_length_b 9.127657
_cell_length_c 20.509596
_cell_angle_alpha 90.000000
_cell_angle_beta 90.000000
_cell_angle_gamma 90.000000
_cell_volume 3484.334156
_symmetry_space_group_name_H-M "P M M A"
_symmetry_group_IT_number 51
_symmetry_cell_setting 'orthorhombic'
loop_
_space_group_symop_operation_xyz
x,y,z
1/2-x,-y,z
1/2+x,-y,-z
-x,y,-z
-x,-y,-z
1/2+x,y,-z
1/2-x,y,z
x,-y,z
loop_
_atom_site_type_symbol
_atom_site_label
_atom_site_fract_x
_atom_site_fract_y
_atom_site_fract_z
Si Si1 0.418151 0.669588 0.127592
Si Si2 0.833095 0.330357 0.746220
Si Si3 0.667235 0.331164 0.373590
Si Si4 0.665666 0.831449 0.243206
Si Si5 0.913658 0.670401 0.127842
Si Si6 0.585458 0.834697 0.999665
Si Si7 0.916029 0.669621 0.502754
Si Si8 0.832416 0.172451 0.615475
O O1 0.401590 0.500000 0.114134
O O2 0.378281 0.726071 0.192136
O O3 0.502148 0.697906 0.137300
O O4 0.386630 0.759080 0.066399
O O5 0.750000 0.301729 0.761818
O O6 0.848893 0.500000 0.731854
O O7 0.858900 0.239864 0.683637
O O8 0.750000 0.303002 0.392461
O O9 0.654323 0.500000 0.354385
O O10 0.642975 0.231434 0.313324
O O11 0.618697 0.283735 0.434319
O O12 0.750000 0.812318 0.232194
O O13 0.625872 0.739685 0.188707
O O14 0.641768 0.000000 0.239362
O O15 0.894816 0.500000 0.123406
O O16 0.884983 0.746535 0.061929
O O17 0.615031 0.000000 0.002825
O O18 0.500000 0.830925 0.000000
O O19 0.900009 0.500000 0.518032
O O20 0.881858 0.766978 0.558679
O O21 0.000000 0.702880 0.500000
O O22 0.750000 0.218074 0.601789
O O23 0.841661 0.000000 0.619493
#
# Coordination Sequence:
#
# PCOD8208924 Si02
#       8
#     8   8   8   8   8   8   8   8
#     4   9  18  32  51  76 102 131 171 215 257 301
#     4   9  18  34  55  76 101 135 173 212 253 300
#     4   9  18  34  55  75  97 131 172 207 244 298
#     4  10  21  36  53  74 101 131 165 208 255 303
#     4  10  19  32  52  75 101 133 169 211 255 303
#     4   9  17  30  49  73 101 134 172 211 253 303
#     4  10  21  36  55  80 108 136 169 212 258 303
#     4  10  21  36  54  76 103 137 175 212 253 305
#
# _framework density 18.367929
#
# number of rings (size 3 to 8) (size 9 to 14) (size 15 to 20)
#    0.000    2.500    0.000    1.875    0.000    6.250 
#    0.000    6.875    0.000    2.250    0.000    0.000 
#    0.000    0.000    0.000    0.000    0.000    0.000 
#
# Total GULP energy -793810.117444 kJ/mol
# GULP energy per Si atom -12403.283085 kJ/mol
# Density = 1.832612 g / cm^3
# Si number density = 18.367929 Si / 1000 Ang^3
#
#
#
# Elastic Constant Matrix: (Units=GPa)
#
#
# Indices 1 2 3 4 5 6 
#
# 1 53.8647 43.7682 66.3782 0.0000 0.0000 0.0000
# 2 43.7682 106.4810 86.6852 0.0000 0.0000 0.0000
# 3 66.3782 86.6852 174.1193 0.0000 0.0000 0.0000
# 4 0.0000 0.0000 0.0000 8.2650 0.0000 0.0000
# 5 0.0000 0.0000 0.0000 0.0000 36.5672 0.0000
# 6 0.0000 0.0000 0.0000 0.0000 0.0000 22.3080
#
#
#
# Elastic Compliance Matrix: (Units=1/GPa)
#
#
# Indices 1 2 3 4 5 6 
#
# 1 0.037391 -0.006331 -0.011102 0.000000 0.000000 0.000000
# 2 -0.006331 0.016864 -0.005982 0.000000 0.000000 0.000000
# 3 -0.011102 -0.005982 0.012954 0.000000 0.000000 0.000000
# 4 0.000000 0.000000 0.000000 0.120992 0.000000 0.000000
# 5 0.000000 0.000000 0.000000 0.000000 0.027347 0.000000
# 6 0.000000 0.000000 0.000000 0.000000 0.000000 0.044827
#
#
# Mechanical properties :
#
#
# Convention : Reuss Voigt Hill
#
# Bulk Modulus (GPa) = 49.07346 80.90314 64.98830
# Shear Modulus (GPa) = 15.92368 22.60359 19.26363
#
# Velocity S-wave (km/s) = 2.94756 3.51180 3.24198
# Velocity P-wave (km/s) = 6.19347 7.78364 7.03364
#
# Compressibility (1/GPa) = 0.02037762
#
# Stress axis : x y z
#
# Youngs Moduli (GPa) = 26.74446 59.29964 77.19721
#
# Poissons Ratio (x) = 0.37542 0.85708
# Poissons Ratio (y) = 0.16932 0.46180
# Poissons Ratio (z) = 0.29693 0.35473
#
# Static dielectric constant tensor:
#      x y z
#    x 3.198590 0.000000 0.000000 
#    y 0.000000 3.446180 0.000000 
#    z 0.000000 0.000000 3.527890 
# 
# 
# High freq. dielectric constant tensor:
#      x y z
#    x 1.691360 0.000000 0.000000 
#    y 0.000000 1.716080 0.000000 
#    z 0.000000 0.000000 1.725370 
# 
# From -- ./inp_files/33869.got.cif
#   From: 2010.03.12/outbox.cif.g09.slc.cpg/sg51_17_cif.got.tgz:33869.got - 2010.04.16 13:43:02.
