data_PCOD8208143
_publ_section_title
;
Structure prediction by ZEFSAII (Michael W. Deem and Ramdas Pophale) SiO2 
 PCOD8208143
Probable space group: P M M A
;
_chemical_formula_sum "Si O2"
_cell_formula_units_Z 40
_cell_length_a 21.157588
_cell_length_b 9.884032
_cell_length_c 11.323771
_cell_angle_alpha 90.000000
_cell_angle_beta 90.000000
_cell_angle_gamma 90.000000
_cell_volume 2368.052774
_symmetry_space_group_name_H-M "P M M A"
_symmetry_group_IT_number 51
_symmetry_cell_setting 'orthorhombic'
loop_
_space_group_symop_operation_xyz
x,y,z
1/2-x,-y,z
1/2+x,-y,-z
-x,y,-z
-x,-y,-z
1/2+x,y,-z
1/2-x,y,z
x,-y,z
loop_
_atom_site_type_symbol
_atom_site_label
_atom_site_fract_x
_atom_site_fract_y
_atom_site_fract_z
Si Si1 0.320161 0.339228 0.954507
Si Si2 0.943912 0.340823 0.909212
Si Si3 0.467859 0.846115 0.312252
Si Si4 0.176562 0.350774 0.692354
Si Si5 0.403500 0.152879 0.553011
O O1 0.250000 0.286532 0.995060
O O2 0.318324 0.500000 0.948995
O O3 0.336185 0.287431 0.822348
O O4 0.376101 0.290138 0.040458
O O5 0.942663 0.500000 0.880541
O O6 0.955337 0.259873 0.790256
O O7 0.000000 0.306720 0.000000
O O8 0.535858 0.816636 0.367173
O O9 0.416572 0.823544 0.414893
O O10 0.463889 0.000000 0.264009
O O11 0.250000 0.364892 0.669927
O O12 0.145015 0.500000 0.681892
O O13 0.150871 0.254343 0.590875
O O14 0.380467 0.000000 0.573774
#
# Coordination Sequence:
#
# PCOD8208143 Si02
#       5
#     8   8   8   8   8
#     4   8  15  29  47  67  95 127 153 185 234 284
#     4  10  19  30  48  74  97 120 157 199 236 280
#     4   9  19  34  49  67  93 125 158 192 235 282
#     4   9  17  30  50  74  96 120 154 194 233 275
#     4   9  18  33  50  67  92 125 157 191 234 282
#
# _framework density 16.891515999999999
#
# number of rings (size 3 to 8) (size 9 to 14) (size 15 to 20)
#    0.000    3.000    0.000    3.600    0.000    4.000 
#    0.000    4.000    0.000    5.400    0.000    0.000 
#    0.000    0.000    0.000    0.000    0.000    0.000 
#
# Total GULP energy -495805.130891 kJ/mol
# GULP energy per Si atom -12395.128272 kJ/mol
# Density = 1.685307 g / cm^3
# Si number density = 16.891516 Si / 1000 Ang^3
#
#
#
# Elastic Constant Matrix: (Units=GPa)
#
#
# Indices 1 2 3 4 5 6 
#
# 1 67.8224 38.2729 48.1048 0.0000 0.0000 0.0000
# 2 38.2729 73.4239 60.5145 0.0000 0.0000 0.0000
# 3 48.1048 60.5145 101.9453 0.0000 0.0000 0.0000
# 4 0.0000 0.0000 0.0000 31.5098 0.0000 0.0000
# 5 0.0000 0.0000 0.0000 0.0000 25.8970 0.0000
# 6 0.0000 0.0000 0.0000 0.0000 0.0000 22.0519
#
#
#
# Elastic Compliance Matrix: (Units=1/GPa)
#
#
# Indices 1 2 3 4 5 6 
#
# 1 0.023471 -0.006082 -0.007465 0.000000 0.000000 0.000000
# 2 -0.006082 0.028241 -0.013894 0.000000 0.000000 0.000000
# 3 -0.007465 -0.013894 0.021579 0.000000 0.000000 0.000000
# 4 0.000000 0.000000 0.000000 0.031736 0.000000 0.000000
# 5 0.000000 0.000000 0.000000 0.000000 0.038614 0.000000
# 6 0.000000 0.000000 0.000000 0.000000 0.000000 0.045347
#
#
# Mechanical properties :
#
#
# Convention : Reuss Voigt Hill
#
# Bulk Modulus (GPa) = 54.32018 59.66400 56.99209
# Shear Modulus (GPa) = 19.99939 22.31172 21.15556
#
# Velocity S-wave (km/s) = 3.44465 3.63834 3.54282
# Velocity P-wave (km/s) = 6.93173 7.28344 7.10976
#
# Compressibility (1/GPa) = 0.01840937
#
# Stress axis : x y z
#
# Youngs Moduli (GPa) = 42.60506 35.40969 46.34138
#
# Poissons Ratio (x) = 0.21537 0.34594
# Poissons Ratio (y) = 0.25913 0.64385
# Poissons Ratio (z) = 0.31805 0.49197
#
# Static dielectric constant tensor:
#      x y z
#    x 3.272510 0.000000 0.000000 
#    y 0.000000 3.027760 0.000000 
#    z 0.000000 0.000000 3.142070 
# 
# 
# High freq. dielectric constant tensor:
#      x y z
#    x 1.650150 0.000000 0.000000 
#    y 0.000000 1.633430 0.000000 
#    z 0.000000 0.000000 1.643590 
# 
# From -- ./inp_files/10625.got.cif
#   From: 2010.03.12/outbox.cif.g09.slc.cpg/sg51_6_cif.got.tgz:10625.got - 2010.04.16 13:43:02.
