data_PCOD8208961
_publ_section_title
;
Structure prediction by ZEFSAII (Michael W. Deem and Ramdas Pophale) SiO2 
 PCOD8208961
Probable space group: P M M A
;
_chemical_formula_sum "Si O2"
_cell_formula_units_Z 64
_cell_length_a 9.120082
_cell_length_b 17.359505
_cell_length_c 20.603757
_cell_angle_alpha 90.000000
_cell_angle_beta 90.000000
_cell_angle_gamma 90.000000
_cell_volume 3261.989056
_symmetry_space_group_name_H-M "P M M A"
_symmetry_group_IT_number 51
_symmetry_cell_setting 'orthorhombic'
loop_
_space_group_symop_operation_xyz
x,y,z
1/2-x,-y,z
1/2+x,-y,-z
-x,y,-z
-x,-y,-z
1/2+x,y,-z
1/2-x,y,z
x,-y,z
loop_
_atom_site_type_symbol
_atom_site_label
_atom_site_fract_x
_atom_site_fract_y
_atom_site_fract_z
Si Si1 0.082910 0.415607 0.103482
Si Si2 0.413590 0.360432 0.779468
Si Si3 0.922930 0.876096 0.566958
Si Si4 0.575403 0.792507 0.793171
Si Si5 0.916830 0.697297 0.562195
Si Si6 0.081078 0.912619 0.699411
Si Si7 0.081543 0.248708 0.061861
Si Si8 0.912059 0.415231 0.358616
O O1 0.250000 0.407269 0.128011
O O2 0.060882 0.500000 0.068674
O O3 0.046589 0.340815 0.059999
O O4 0.976637 0.414059 0.164500
O O5 0.250000 0.331189 0.797960
O O6 0.516468 0.287128 0.763899
O O7 0.407917 0.416404 0.718556
O O8 0.750000 0.897361 0.564626
O O9 0.949769 0.785893 0.575493
O O10 0.000000 0.905155 0.500000
O O11 0.999240 0.912715 0.629763
O O12 0.750000 0.797789 0.783079
O O13 0.499897 0.862228 0.754309
O O14 0.533099 0.791458 0.870188
O O15 0.750000 0.680873 0.549205
O O16 0.000000 0.665412 0.500000
O O17 0.970631 0.648689 0.622761
O O18 0.250000 0.884538 0.690658
O O19 0.077382 0.000000 0.725135
O O20 0.250000 0.232033 0.050371
O O21 0.000000 0.211155 0.000000
O O22 0.750000 0.394318 0.385847
O O23 0.959040 0.500000 0.383223
#
# Coordination Sequence:
#
# PCOD8208961 Si02
#       8
#     8   8   8   8   8   8   8   8
#     4   9  18  32  48  70 106 147 184 227 278 329
#     4  10  19  32  52  76 102 135 178 225 271 323
#     4  10  21  38  61  87 116 151 189 227 269 322
#     4  10  21  38  59  83 112 146 184 226 275 332
#     4  10  21  36  54  74  95 126 170 216 262 314
#     4  11  24  40  60  89 121 150 182 221 267 322
#     4   9  19  34  53  79 109 144 188 235 283 335
#     4  10  21  34  47  67  97 131 169 218 272 321
#
# _framework density 19.61993
#
# number of rings (size 3 to 8) (size 9 to 14) (size 15 to 20)
#    0.000    2.125    0.000    3.750    0.000    9.750 
#    0.000    0.000    0.000    0.375    0.000    0.000 
#    0.000    0.000    0.000    0.000    0.000    0.000 
#
# Total GULP energy -793187.586315 kJ/mol
# GULP energy per Si atom -12393.556036 kJ/mol
# Density = 1.957527 g / cm^3
# Si number density = 19.619930 Si / 1000 Ang^3
#
#
#
# Elastic Constant Matrix: (Units=GPa)
#
#
# Indices 1 2 3 4 5 6 
#
# 1 90.9802 44.2811 47.3237 0.0000 0.0000 0.0000
# 2 44.2811 70.8532 37.8406 0.0000 0.0000 0.0000
# 3 47.3237 37.8406 100.7214 0.0000 0.0000 0.0000
# 4 0.0000 0.0000 0.0000 11.0137 0.0000 0.0000
# 5 0.0000 0.0000 0.0000 0.0000 36.5068 0.0000
# 6 0.0000 0.0000 0.0000 0.0000 0.0000 22.0411
#
#
#
# Elastic Compliance Matrix: (Units=1/GPa)
#
#
# Indices 1 2 3 4 5 6 
#
# 1 0.017748 -0.008305 -0.005219 0.000000 0.000000 0.000000
# 2 -0.008305 0.021542 -0.004191 0.000000 0.000000 0.000000
# 3 -0.005219 -0.004191 0.013955 0.000000 0.000000 0.000000
# 4 0.000000 0.000000 0.000000 0.090796 0.000000 0.000000
# 5 0.000000 0.000000 0.000000 0.000000 0.027392 0.000000
# 6 0.000000 0.000000 0.000000 0.000000 0.000000 0.045370
#
#
# Mechanical properties :
#
#
# Convention : Reuss Voigt Hill
#
# Bulk Modulus (GPa) = 56.13060 57.93838 57.03449
# Shear Modulus (GPa) = 19.36693 22.78629 21.07661
#
# Velocity S-wave (km/s) = 3.14523 3.41161 3.28112
# Velocity P-wave (km/s) = 6.47001 6.71664 6.59448
#
# Compressibility (1/GPa) = 0.01781559
#
# Stress axis : x y z
#
# Youngs Moduli (GPa) = 56.34439 46.42002 71.65832
#
# Poissons Ratio (x) = 0.38551 0.37397
# Poissons Ratio (y) = 0.46793 0.30035
# Poissons Ratio (z) = 0.29405 0.19457
#
# Static dielectric constant tensor:
#      x y z
#    x 3.826690 0.000000 0.000000 
#    y 0.000000 3.416700 0.000000 
#    z 0.000000 0.000000 3.478960 
# 
# 
# High freq. dielectric constant tensor:
#      x y z
#    x 1.775840 0.000000 0.000000 
#    y 0.000000 1.747480 0.000000 
#    z 0.000000 0.000000 1.756140 
# 
# From -- ./inp_files/32374.got.cif
#   From: 2010.03.12/outbox.cif.g09.slc.cpg/sg51_17_cif.got.tgz:32374.got - 2010.04.16 13:43:02.
