data_PCOD8208617
_publ_section_title
;
Structure prediction by ZEFSAII (Michael W. Deem and Ramdas Pophale) SiO2 
 PCOD8208617
Probable space group: P M M A
;
_chemical_formula_sum "Si O2"
_cell_formula_units_Z 64
_cell_length_a 15.017061
_cell_length_b 9.358939
_cell_length_c 23.690384
_cell_angle_alpha 90.000000
_cell_angle_beta 90.000000
_cell_angle_gamma 90.000000
_cell_volume 3329.535592
_symmetry_space_group_name_H-M "P M M A"
_symmetry_group_IT_number 51
_symmetry_cell_setting 'orthorhombic'
loop_
_space_group_symop_operation_xyz
x,y,z
1/2-x,-y,z
1/2+x,-y,-z
-x,y,-z
-x,-y,-z
1/2+x,y,-z
1/2-x,y,z
x,-y,z
loop_
_atom_site_type_symbol
_atom_site_label
_atom_site_fract_x
_atom_site_fract_y
_atom_site_fract_z
Si Si1 0.851772 0.333785 0.824424
Si Si2 0.147410 0.837021 0.554178
Si Si3 0.510713 0.329725 0.370919
Si Si4 0.517899 0.331717 0.244316
Si Si5 0.851970 0.835652 0.577236
Si Si6 0.097583 0.338208 0.974374
Si Si7 0.350767 0.669584 0.850472
Si Si8 0.349667 0.845089 0.072052
O O1 0.750000 0.293416 0.808227
O O2 0.859351 0.500000 0.839436
O O3 0.891958 0.253996 0.879378
O O4 0.916665 0.290793 0.773081
O O5 0.250000 0.807965 0.569451
O O6 0.129909 0.808579 0.488564
O O7 0.087483 0.727960 0.588713
O O8 0.121468 0.000000 0.569268
O O9 0.506404 0.500000 0.375621
O O10 0.534286 0.276758 0.307688
O O11 0.414587 0.267843 0.387069
O O12 0.529325 0.500000 0.242625
O O13 0.590549 0.264963 0.200940
O O14 0.750000 0.798782 0.592295
O O15 0.873070 0.000000 0.592191
O O16 0.134106 0.500000 0.979182
O O17 0.103625 0.285223 0.909761
O O18 0.156203 0.233026 0.011932
O O19 0.000000 0.325233 0.000000
O O20 0.250000 0.730349 0.846801
O O21 0.349104 0.500000 0.846041
O O22 0.250000 0.872443 0.092101
O O23 0.398816 0.000000 0.067712
#
# Coordination Sequence:
#
# PCOD8208617 Si02
#       8
#     8   8   8   8   8   8   8   8
#     4   9  17  32  54  73  93 129 174 215 253 301
#     4   9  19  37  59  80 106 145 189 226 262 314
#     4  11  22  33  52  84 116 143 175 223 281 331
#     4   9  19  34  49  71 103 136 172 212 257 310
#     4   9  19  37  59  81 108 146 187 222 262 319
#     4  10  19  31  51  76  97 122 163 212 256 304
#     4   9  17  30  49  71  96 130 172 214 252 297
#     4  10  20  32  47  71 102 129 153 192 253 317
#
# _framework density 19.221900999999999
#
# number of rings (size 3 to 8) (size 9 to 14) (size 15 to 20)
#    0.000    2.500    0.000    3.000    0.000    7.000 
#    0.000    5.000    0.000    3.000    0.000    1.750 
#    0.000    0.000    0.000    0.000    0.000    0.000 
#
# Total GULP energy -793296.594011 kJ/mol
# GULP energy per Si atom -12395.259281 kJ/mol
# Density = 1.917815 g / cm^3
# Si number density = 19.221901 Si / 1000 Ang^3
#
#
#
# Elastic Constant Matrix: (Units=GPa)
#
#
# Indices 1 2 3 4 5 6 
#
# 1 109.0112 32.8775 59.6850 0.0000 0.0000 0.0000
# 2 32.8775 69.8191 41.1415 0.0000 0.0000 0.0000
# 3 59.6850 41.1415 114.7841 0.0000 0.0000 0.0000
# 4 0.0000 0.0000 0.0000 1.8924 0.0000 0.0000
# 5 0.0000 0.0000 0.0000 0.0000 21.7585 0.0000
# 6 0.0000 0.0000 0.0000 0.0000 0.0000 22.2182
#
#
#
# Elastic Compliance Matrix: (Units=1/GPa)
#
#
# Indices 1 2 3 4 5 6 
#
# 1 0.013231 -0.002759 -0.005891 0.000000 0.000000 0.000000
# 2 -0.002759 0.018733 -0.005280 0.000000 0.000000 0.000000
# 3 -0.005891 -0.005280 0.013667 0.000000 0.000000 0.000000
# 4 0.000000 0.000000 0.000000 0.528430 0.000000 0.000000
# 5 0.000000 0.000000 0.000000 0.000000 0.045959 0.000000
# 6 0.000000 0.000000 0.000000 0.000000 0.000000 0.045008
#
#
# Mechanical properties :
#
#
# Convention : Reuss Voigt Hill
#
# Bulk Modulus (GPa) = 56.26796 62.33581 59.30188
# Shear Modulus (GPa) = 7.15500 19.83453 13.49476
#
# Velocity S-wave (km/s) = 1.93142 3.21576 2.65250
# Velocity P-wave (km/s) = 5.85749 6.80354 6.34816
#
# Compressibility (1/GPa) = 0.01777210
#
# Stress axis : x y z
#
# Youngs Moduli (GPa) = 75.58140 53.38144 73.16659
#
# Poissons Ratio (x) = 0.14729 0.43101
# Poissons Ratio (y) = 0.20854 0.38630
# Poissons Ratio (z) = 0.44523 0.28184
#
# Static dielectric constant tensor:
#      x y z
#    x 3.599910 0.000000 0.000000 
#    y 0.000000 3.381040 0.000000 
#    z 0.000000 0.000000 3.605740 
# 
# 
# High freq. dielectric constant tensor:
#      x y z
#    x 1.753290 0.000000 0.000000 
#    y 0.000000 1.717380 0.000000 
#    z 0.000000 0.000000 1.744310 
# 
# From -- ./inp_files/35715.got.cif
#   From: 2010.03.12/outbox.cif.g09.slc.cpg/sg51_18_cif.got.tgz:35715.got - 2010.04.16 13:43:02.
