data_PCOD8208580
_publ_section_title
;
Structure prediction by ZEFSAII (Michael W. Deem and Ramdas Pophale) SiO2 
 PCOD8208580
Probable space group: P M M A
;
_chemical_formula_sum "Si O2"
_cell_formula_units_Z 64
_cell_length_a 9.014189
_cell_length_b 15.283253
_cell_length_c 25.178798
_cell_angle_alpha 90.000000
_cell_angle_beta 90.000000
_cell_angle_gamma 90.000000
_cell_volume 3468.785586
_symmetry_space_group_name_H-M "P M M A"
_symmetry_group_IT_number 51
_symmetry_cell_setting 'orthorhombic'
loop_
_space_group_symop_operation_xyz
x,y,z
1/2-x,-y,z
1/2+x,-y,-z
-x,y,-z
-x,-y,-z
1/2+x,y,-z
1/2-x,y,z
x,-y,z
loop_
_atom_site_type_symbol
_atom_site_label
_atom_site_fract_x
_atom_site_fract_y
_atom_site_fract_z
Si Si1 0.920144 0.099102 0.634955
Si Si2 0.418740 0.651275 0.710618
Si Si3 0.424173 0.406293 0.596009
Si Si4 0.426219 0.223856 0.554028
Si Si5 0.420362 0.180886 0.257566
Si Si6 0.573329 0.215490 0.152174
Si Si7 0.424577 0.900173 0.945820
Si Si8 0.920220 0.406547 0.173999
O O1 0.750000 0.125330 0.622533
O O2 0.949266 0.106091 0.698423
O O3 0.029057 0.161345 0.602278
O O4 0.952838 0.000000 0.617691
O O5 0.250000 0.688204 0.706867
O O6 0.460174 0.596621 0.658626
O O7 0.533799 0.730014 0.713702
O O8 0.435412 0.591282 0.762401
O O9 0.250000 0.405171 0.586957
O O10 0.489208 0.500000 0.574956
O O11 0.489629 0.321974 0.565534
O O12 0.500000 0.189322 0.500000
O O13 0.250000 0.221964 0.548597
O O14 0.250000 0.185080 0.240063
O O15 0.515309 0.164869 0.204259
O O16 0.750000 0.216580 0.156013
O O17 0.517045 0.163176 0.100728
O O18 0.509727 0.316151 0.150482
O O19 0.250000 0.891540 0.953054
O O20 0.470146 0.000000 0.932242
O O21 0.500000 0.868485 0.000000
O O22 0.750000 0.406865 0.156491
O O23 0.991808 0.500000 0.153767
#
# Coordination Sequence:
#
# PCOD8208580 Si02
#       8
#     8   8   8   8   8   8   8   8
#     4  10  22  40  59  78 103 135 170 211 260 314
#     4   9  15  27  48  72  99 132 169 205 243 292
#     4   9  17  30  52  80 105 132 169 209 250 303
#     4  11  23  39  59  80 103 133 170 214 261 309
#     4  10  19  31  50  76 107 136 164 203 254 306
#     4   9  18  31  49  74 103 136 172 209 249 298
#     4   9  18  33  52  74 100 131 170 216 260 301
#     4   8  13  22  41  69  97 127 165 204 238 279
#
# _framework density 18.450261000000001
#
# number of rings (size 3 to 8) (size 9 to 14) (size 15 to 20)
#    0.000    2.625    1.250    1.875    0.000    3.750 
#    0.000    0.000    0.000   12.375    0.000    0.000 
#    0.000    0.000    0.000    0.000    0.000    0.000 
#
# Total GULP energy -793057.649719 kJ/mol
# GULP energy per Si atom -12391.525777 kJ/mol
# Density = 1.840827 g / cm^3
# Si number density = 18.450261 Si / 1000 Ang^3
#
#
#
# Elastic Constant Matrix: (Units=GPa)
#
#
# Indices 1 2 3 4 5 6 
#
# 1 38.0856 28.6145 30.8150 0.0000 0.0000 0.0000
# 2 28.6145 101.8305 54.9872 0.0000 0.0000 0.0000
# 3 30.8150 54.9872 104.1943 0.0000 0.0000 0.0000
# 4 0.0000 0.0000 0.0000 17.0379 0.0000 0.0000
# 5 0.0000 0.0000 0.0000 0.0000 26.0027 0.0000
# 6 0.0000 0.0000 0.0000 0.0000 0.0000 17.4201
#
#
#
# Elastic Compliance Matrix: (Units=1/GPa)
#
#
# Indices 1 2 3 4 5 6 
#
# 1 0.037207 -0.006312 -0.007673 0.000000 0.000000 0.000000
# 2 -0.006312 0.014805 -0.005946 0.000000 0.000000 0.000000
# 3 -0.007673 -0.005946 0.015005 0.000000 0.000000 0.000000
# 4 0.000000 0.000000 0.000000 0.058693 0.000000 0.000000
# 5 0.000000 0.000000 0.000000 0.000000 0.038458 0.000000
# 6 0.000000 0.000000 0.000000 0.000000 0.000000 0.057405
#
#
# Mechanical properties :
#
#
# Convention : Reuss Voigt Hill
#
# Bulk Modulus (GPa) = 36.82643 52.54932 44.68788
# Shear Modulus (GPa) = 18.48529 20.73838 19.61184
#
# Velocity S-wave (km/s) = 3.16871 3.35627 3.26384
# Velocity P-wave (km/s) = 5.77848 6.60022 6.20297
#
# Compressibility (1/GPa) = 0.02715441
#
# Stress axis : x y z
#
# Youngs Moduli (GPa) = 26.87671 67.54532 66.64569
#
# Poissons Ratio (x) = 0.42635 0.51135
# Poissons Ratio (y) = 0.16965 0.39630
# Poissons Ratio (z) = 0.20622 0.40165
#
# Static dielectric constant tensor:
#      x y z
#    x 3.097050 0.000000 0.000000 
#    y 0.000000 3.682100 0.000000 
#    z 0.000000 0.000000 3.318960 
# 
# 
# High freq. dielectric constant tensor:
#      x y z
#    x 1.684060 0.000000 0.000000 
#    y 0.000000 1.719540 0.000000 
#    z 0.000000 0.000000 1.699410 
# 
# From -- ./inp_files/34830.got.cif
#   From: 2010.03.12/outbox.cif.g09.slc.cpg/sg51_18_cif.got.tgz:34830.got - 2010.04.16 13:43:02.
