data_PCOD8208345
_publ_section_title
;
Structure prediction by ZEFSAII (Michael W. Deem and Ramdas Pophale) SiO2 
 PCOD8208345
Probable space group: P M M A
;
_chemical_formula_sum "Si O2"
_cell_formula_units_Z 44
_cell_length_a 8.956336
_cell_length_b 15.257441
_cell_length_c 17.354089
_cell_angle_alpha 90.000000
_cell_angle_beta 90.000000
_cell_angle_gamma 90.000000
_cell_volume 2371.449591
_symmetry_space_group_name_H-M "P M M A"
_symmetry_group_IT_number 51
_symmetry_cell_setting 'orthorhombic'
loop_
_space_group_symop_operation_xyz
x,y,z
1/2-x,-y,z
1/2+x,-y,-z
-x,y,-z
-x,-y,-z
1/2+x,y,-z
1/2-x,y,z
x,-y,z
loop_
_atom_site_type_symbol
_atom_site_label
_atom_site_fract_x
_atom_site_fract_y
_atom_site_fract_z
Si Si1 0.080673 0.684113 0.365353
Si Si2 0.924945 0.154189 0.423196
Si Si3 0.923732 0.099078 0.254918
Si Si4 0.424678 0.500000 0.419238
Si Si5 0.579708 0.739838 0.808590
Si Si6 0.074185 0.400484 0.918020
O O1 0.250000 0.697553 0.395331
O O2 0.023340 0.585154 0.372791
O O3 0.068611 0.703101 0.276250
O O4 0.972977 0.744409 0.416618
O O5 0.750000 0.144501 0.434003
O O6 0.979421 0.107256 0.344072
O O7 0.000000 0.112287 0.500000
O O8 0.750000 0.124195 0.252001
O O9 0.009136 0.162469 0.194865
O O10 0.953261 0.000000 0.227214
O O11 0.250000 0.500000 0.431705
O O12 0.500000 0.500000 0.500000
O O13 0.750000 0.746458 0.838025
O O14 0.489255 0.672971 0.861390
O O15 0.250000 0.386766 0.925916
O O16 0.037720 0.500000 0.889107
O O17 0.000000 0.384272 0.000000
#
# Coordination Sequence:
#
# PCOD8208345 Si02
#       6
#     8   8   8   4   8   8
#     4   9  19  33  48  67  94 131 174 215 262 314
#     4  10  19  31  48  69  96 129 171 221 275 327
#     4   9  19  36  55  75 103 140 181 225 274 326
#     4  10  20  32  44  62  89 126 171 216 259 306
#     4  10  20  34  56  82 109 141 176 220 269 318
#     4  10  21  37  58  86 118 150 182 216 255 307
#
# _framework density 18.554053
#
# number of rings (size 3 to 8) (size 9 to 14) (size 15 to 20)
#    0.000    2.364    0.000    2.182    1.273    5.455 
#    0.000    0.000    0.000    0.545    0.000    0.000 
#    0.000    0.000    0.000    0.000    0.000    0.000 
#
# Total GULP energy -545454.364990 kJ/mol
# GULP energy per Si atom -12396.690113 kJ/mol
# Density = 1.851182 g / cm^3
# Si number density = 18.554053 Si / 1000 Ang^3
#
#
#
# Elastic Constant Matrix: (Units=GPa)
#
#
# Indices 1 2 3 4 5 6 
#
# 1 81.4910 44.0915 35.7532 0.0000 0.0000 0.0000
# 2 44.0915 121.5113 35.4121 0.0000 0.0000 0.0000
# 3 35.7532 35.4121 56.0288 0.0000 0.0000 0.0000
# 4 0.0000 0.0000 0.0000 16.3320 0.0000 0.0000
# 5 0.0000 0.0000 0.0000 0.0000 33.1446 0.0000
# 6 0.0000 0.0000 0.0000 0.0000 0.0000 27.3524
#
#
#
# Elastic Compliance Matrix: (Units=1/GPa)
#
#
# Indices 1 2 3 4 5 6 
#
# 1 0.018513 -0.004014 -0.009277 0.000000 0.000000 0.000000
# 2 -0.004014 0.010958 -0.004364 0.000000 0.000000 0.000000
# 3 -0.009277 -0.004364 0.026526 0.000000 0.000000 0.000000
# 4 0.000000 0.000000 0.000000 0.061229 0.000000 0.000000
# 5 0.000000 0.000000 0.000000 0.000000 0.030171 0.000000
# 6 0.000000 0.000000 0.000000 0.000000 0.000000 0.036560
#
#
# Mechanical properties :
#
#
# Convention : Reuss Voigt Hill
#
# Bulk Modulus (GPa) = 48.33940 54.39384 51.36662
# Shear Modulus (GPa) = 22.10791 24.95077 23.52934
#
# Velocity S-wave (km/s) = 3.45561 3.67108 3.56497
# Velocity P-wave (km/s) = 6.48317 6.88107 6.68508
#
# Compressibility (1/GPa) = 0.02068706
#
# Stress axis : x y z
#
# Youngs Moduli (GPa) = 54.01549 91.25588 37.69885
#
# Poissons Ratio (x) = 0.36632 0.34972
# Poissons Ratio (y) = 0.21683 0.16453
# Poissons Ratio (z) = 0.50108 0.39828
#
# Static dielectric constant tensor:
#      x y z
#    x 3.329810 0.000000 0.000000 
#    y 0.000000 3.574050 0.000000 
#    z 0.000000 0.000000 3.294760 
# 
# 
# High freq. dielectric constant tensor:
#      x y z
#    x 1.723460 0.000000 0.000000 
#    y 0.000000 1.723640 0.000000 
#    z 0.000000 0.000000 1.698610 
# 
# From -- ./inp_files/27336.got.cif
#   From: 2010.03.12/outbox.cif.g09.slc.cpg/sg51_14_cif.got.tgz:27336.got - 2010.04.16 13:43:02.
