data_PCOD8208509
_publ_section_title
;
Structure prediction by ZEFSAII (Michael W. Deem and Ramdas Pophale) SiO2 
 PCOD8208509
Probable space group: P M M A
;
_chemical_formula_sum "Si O2"
_cell_formula_units_Z 64
_cell_length_a 13.662348
_cell_length_b 8.901344
_cell_length_c 30.892646
_cell_angle_alpha 90.000000
_cell_angle_beta 90.000000
_cell_angle_gamma 90.000000
_cell_volume 3756.955371
_symmetry_space_group_name_H-M "P M M A"
_symmetry_group_IT_number 51
_symmetry_cell_setting 'orthorhombic'
loop_
_space_group_symop_operation_xyz
x,y,z
1/2-x,-y,z
1/2+x,-y,-z
-x,y,-z
-x,-y,-z
1/2+x,y,-z
1/2-x,y,z
x,-y,z
loop_
_atom_site_type_symbol
_atom_site_label
_atom_site_fract_x
_atom_site_fract_y
_atom_site_fract_z
Si Si1 0.361520 0.676812 0.238589
Si Si2 0.361853 0.172163 0.149789
Si Si3 0.996592 0.175899 0.549766
Si Si4 0.136880 0.333480 0.387928
Si Si5 0.536301 0.822227 0.938220
Si Si6 0.469048 0.176866 0.315059
Si Si7 0.358796 0.822696 0.624018
Si Si8 0.862334 0.323435 0.017776
O O1 0.250000 0.731806 0.249421
O O2 0.367763 0.500000 0.243554
O O3 0.389566 0.723029 0.190015
O O4 0.444120 0.748061 0.269327
O O5 0.250000 0.197600 0.135212
O O6 0.431119 0.218661 0.110173
O O7 0.379153 0.000000 0.163570
O O8 0.906088 0.267894 0.568065
O O9 0.000000 0.223807 0.500000
O O10 0.093513 0.220766 0.577492
O O11 0.975600 0.000000 0.555008
O O12 0.250000 0.343403 0.395885
O O13 0.094234 0.500000 0.378080
O O14 0.115920 0.223140 0.348112
O O15 0.427895 0.755557 0.945334
O O16 0.536651 0.000000 0.946321
O O17 0.611959 0.746190 0.971274
O O18 0.572538 0.233045 0.335995
O O19 0.469253 0.000000 0.308512
O O20 0.250000 0.750116 0.627502
O O21 0.350067 0.000000 0.627097
O O22 0.750000 0.289906 0.028976
O O23 0.884725 0.500000 0.016670
#
# Coordination Sequence:
#
# PCOD8208509 Si02
#       8
#     8   8   8   8   8   8   8   8
#     4  10  20  32  48  72 100 128 154 184 232 291
#     4   9  18  32  49  71  99 128 158 193 235 285
#     4   9  18  31  48  71  95 121 155 192 231 275
#     4  10  20  32  46  66  94 126 155 185 226 274
#     4  10  19  31  50  73  97 127 164 207 249 289
#     4  10  19  31  50  72  93 120 155 195 235 275
#     4   8  15  29  48  69  92 119 153 193 234 273
#     4  10  20  32  47  69  98 132 168 205 247 295
#
# _framework density 17.035070000000001
#
# number of rings (size 3 to 8) (size 9 to 14) (size 15 to 20)
#    0.000    2.500    0.000    4.125    0.000    6.500 
#    0.000    2.500    0.000   10.125    0.000    1.750 
#    0.000    0.000    0.000    0.000    0.000    0.000 
#
# Total GULP energy -793377.144903 kJ/mol
# GULP energy per Si atom -12396.517889 kJ/mol
# Density = 1.699630 g / cm^3
# Si number density = 17.035070 Si / 1000 Ang^3
#
#
#
# Elastic Constant Matrix: (Units=GPa)
#
#
# Indices 1 2 3 4 5 6 
#
# 1 105.8247 38.9219 67.2398 0.0000 0.0000 0.0000
# 2 38.9219 62.6062 42.0059 0.0000 0.0000 0.0000
# 3 67.2398 42.0059 123.5078 0.0000 0.0000 0.0000
# 4 0.0000 0.0000 0.0000 9.4497 0.0000 0.0000
# 5 0.0000 0.0000 0.0000 0.0000 21.6195 0.0000
# 6 0.0000 0.0000 0.0000 0.0000 0.0000 22.3614
#
#
#
# Elastic Compliance Matrix: (Units=1/GPa)
#
#
# Indices 1 2 3 4 5 6 
#
# 1 0.015653 -0.005200 -0.006753 0.000000 0.000000 0.000000
# 2 -0.005200 0.022423 -0.004795 0.000000 0.000000 0.000000
# 3 -0.006753 -0.004795 0.013404 0.000000 0.000000 0.000000
# 4 0.000000 0.000000 0.000000 0.105823 0.000000 0.000000
# 5 0.000000 0.000000 0.000000 0.000000 0.046255 0.000000
# 6 0.000000 0.000000 0.000000 0.000000 0.000000 0.044720
#
#
# Mechanical properties :
#
#
# Convention : Reuss Voigt Hill
#
# Bulk Modulus (GPa) = 55.60785 65.36377 60.48581
# Shear Modulus (GPa) = 17.37499 20.27086 18.82292
#
# Velocity S-wave (km/s) = 3.19714 3.45331 3.32769
# Velocity P-wave (km/s) = 6.80756 7.37251 7.09566
#
# Compressibility (1/GPa) = 0.01798307
#
# Stress axis : x y z
#
# Youngs Moduli (GPa) = 63.88485 44.59662 74.60442
#
# Poissons Ratio (x) = 0.23192 0.50381
# Poissons Ratio (y) = 0.33223 0.35774
# Poissons Ratio (z) = 0.43142 0.21385
#
# Static dielectric constant tensor:
#      x y z
#    x 3.300620 0.000000 0.000000 
#    y 0.000000 3.217840 0.000000 
#    z 0.000000 0.000000 3.167100 
# 
# 
# High freq. dielectric constant tensor:
#      x y z
#    x 1.645610 0.000000 0.000000 
#    y 0.000000 1.658180 0.000000 
#    z 0.000000 0.000000 1.650810 
# 
# From -- ./inp_files/37837.got.cif
#   From: 2010.03.12/outbox.cif.g09.slc.cpg/sg51_19_cif.got.tgz:37837.got - 2010.04.16 13:43:02.
