data_PCOD8208044
_publ_section_title
;
Structure prediction by ZEFSAII (Michael W. Deem and Ramdas Pophale) SiO2 
 PCOD8208044
Probable space group: P M M A
;
_chemical_formula_sum "Si O2"
_cell_formula_units_Z 64
_cell_length_a 9.021192
_cell_length_b 18.876350
_cell_length_c 23.470128
_cell_angle_alpha 90.000000
_cell_angle_beta 90.000000
_cell_angle_gamma 90.000000
_cell_volume 3996.661855
_symmetry_space_group_name_H-M "P M M A"
_symmetry_group_IT_number 51
_symmetry_cell_setting 'orthorhombic'
loop_
_space_group_symop_operation_xyz
x,y,z
1/2-x,-y,z
1/2+x,-y,-z
-x,y,-z
-x,-y,-z
1/2+x,y,-z
1/2-x,y,z
x,-y,z
loop_
_atom_site_type_symbol
_atom_site_label
_atom_site_fract_x
_atom_site_fract_y
_atom_site_fract_z
Si Si1 0.423972 0.081390 0.558942
Si Si2 0.419058 0.278704 0.719174
Si Si3 0.924640 0.079661 0.776231
Si Si4 0.078470 0.419107 0.113560
Si Si5 0.079525 0.800103 0.835532
Si Si6 0.080176 0.578841 0.768866
Si Si7 0.424196 0.841468 0.338285
Si Si8 0.425849 0.708024 0.942182
O O1 0.500000 0.102994 0.500000
O O2 0.250000 0.094582 0.553397
O O3 0.490094 0.131557 0.606910
O O4 0.460272 0.000000 0.574354
O O5 0.250000 0.263131 0.700944
O O6 0.449946 0.252538 0.783232
O O7 0.453919 0.363098 0.719666
O O8 0.526782 0.239362 0.674709
O O9 0.750000 0.081697 0.782283
O O10 0.973225 0.109892 0.714832
O O11 0.991570 0.126688 0.826935
O O12 0.986308 0.000000 0.781575
O O13 0.250000 0.397575 0.109910
O O14 0.052485 0.500000 0.094476
O O15 0.026386 0.407989 0.178141
O O16 0.984680 0.370605 0.071002
O O17 0.250000 0.820718 0.840892
O O18 0.023223 0.761662 0.892515
O O19 0.250000 0.588812 0.790079
O O20 0.055759 0.500000 0.743222
O O21 0.250000 0.844502 0.349844
O O22 0.250000 0.705073 0.948552
O O23 0.500000 0.736196 0.000000
#
# Coordination Sequence:
#
# PCOD8208044 Si02
#       8
#     8   8   8   8   8   8   8   8
#     4  10  20  33  49  69  96 133 171 204 237 274
#     4   9  16  29  46  67  94 123 156 193 234 280
#     4   9  18  31  48  71  96 121 149 185 230 275
#     4  10  20  32  47  68  92 119 152 188 226 272
#     4   9  18  32  48  67  90 115 146 183 228 280
#     4   9  16  28  47  68  93 126 158 191 233 279
#     4  10  19  30  46  70  99 130 162 197 234 273
#     4  11  22  36  51  68  88 115 150 189 231 279
#
# _framework density 16.013363999999999
#
# number of rings (size 3 to 8) (size 9 to 14) (size 15 to 20)
#    0.000    2.375    1.250    1.875    0.000    4.500 
#    0.000    0.000    0.000    0.375    0.000    0.000 
#    0.000    0.500    0.000    1.375    0.000    2.000 
#
# Total GULP energy -793636.732142 kJ/mol
# GULP energy per Si atom -12400.573940 kJ/mol
# Density = 1.597692 g / cm^3
# Si number density = 16.013364 Si / 1000 Ang^3
#
#
#
# Elastic Constant Matrix: (Units=GPa)
#
#
# Indices 1 2 3 4 5 6 
#
# 1 64.7949 38.6178 43.0549 0.0000 0.0000 0.0000
# 2 38.6178 106.0098 52.2926 0.0000 0.0000 0.0000
# 3 43.0549 52.2926 91.5740 0.0000 0.0000 0.0000
# 4 0.0000 0.0000 0.0000 23.8730 0.0000 0.0000
# 5 0.0000 0.0000 0.0000 0.0000 26.9472 0.0000
# 6 0.0000 0.0000 0.0000 0.0000 0.0000 25.5627
#
#
#
# Elastic Compliance Matrix: (Units=1/GPa)
#
#
# Indices 1 2 3 4 5 6 
#
# 1 0.023829 -0.004391 -0.008696 0.000000 0.000000 0.000000
# 2 -0.004391 0.013941 -0.005897 0.000000 0.000000 0.000000
# 3 -0.008696 -0.005897 0.018376 0.000000 0.000000 0.000000
# 4 0.000000 0.000000 0.000000 0.041888 0.000000 0.000000
# 5 0.000000 0.000000 0.000000 0.000000 0.037110 0.000000
# 6 0.000000 0.000000 0.000000 0.000000 0.000000 0.039120
#
#
# Mechanical properties :
#
#
# Convention : Reuss Voigt Hill
#
# Bulk Modulus (GPa) = 55.00907 58.92324 56.96615
# Shear Modulus (GPa) = 22.90531 23.83746 23.37139
#
# Velocity S-wave (km/s) = 3.78615 3.86242 3.82448
# Velocity P-wave (km/s) = 7.31709 7.53440 7.42654
#
# Compressibility (1/GPa) = 0.01817882
#
# Stress axis : x y z
#
# Youngs Moduli (GPa) = 41.96641 71.72930 54.41900
#
# Poissons Ratio (x) = 0.31495 0.47323
# Poissons Ratio (y) = 0.18427 0.32089
# Poissons Ratio (z) = 0.36494 0.42296
#
# Static dielectric constant tensor:
#      x y z
#    x 3.084780 0.000000 0.000000 
#    y 0.000000 3.212550 0.000000 
#    z 0.000000 0.000000 2.810070 
# 
# 
# High freq. dielectric constant tensor:
#      x y z
#    x 1.623730 0.000000 0.000000 
#    y 0.000000 1.612850 0.000000 
#    z 0.000000 0.000000 1.581050 
# 
# From -- ./inp_files/32406.got.cif
#   From: 2010.03.12/outbox.cif.g09.slc.cpg/sg51_17_cif.got.tgz:32406.got - 2010.04.16 13:43:02.
