data_PCOD8208606
_publ_section_title
;
Structure prediction by ZEFSAII (Michael W. Deem and Ramdas Pophale) SiO2 
 PCOD8208606
Probable space group: P M M A
;
_chemical_formula_sum "Si O2"
_cell_formula_units_Z 52
_cell_length_a 8.823371
_cell_length_b 12.676249
_cell_length_c 22.702903
_cell_angle_alpha 90.000000
_cell_angle_beta 90.000000
_cell_angle_gamma 90.000000
_cell_volume 2539.257218
_symmetry_space_group_name_H-M "P M M A"
_symmetry_group_IT_number 51
_symmetry_cell_setting 'orthorhombic'
loop_
_space_group_symop_operation_xyz
x,y,z
1/2-x,-y,z
1/2+x,-y,-z
-x,y,-z
-x,-y,-z
1/2+x,y,-z
1/2-x,y,z
x,-y,z
loop_
_atom_site_type_symbol
_atom_site_label
_atom_site_fract_x
_atom_site_fract_y
_atom_site_fract_z
Si Si1 0.429429 0.704920 0.441122
Si Si2 0.079139 0.623034 0.318032
Si Si3 0.918159 0.878929 0.738171
Si Si4 0.425648 0.828336 0.855797
Si Si5 0.429100 0.000000 0.063858
Si Si6 0.074716 0.875973 0.621544
Si Si7 0.072931 0.381265 0.800482
O O1 0.500000 0.652758 0.500000
O O2 0.250000 0.700331 0.446617
O O3 0.492818 0.646114 0.382401
O O4 0.493939 0.824345 0.435380
O O5 0.250000 0.665561 0.318702
O O6 0.068489 0.500000 0.307319
O O7 0.000404 0.670232 0.258834
O O8 0.750000 0.833027 0.752955
O O9 0.033798 0.872420 0.791970
O O10 0.988598 0.825540 0.679043
O O11 0.902044 0.000000 0.721045
O O12 0.250000 0.850124 0.869091
O O13 0.461096 0.701262 0.854217
O O14 0.521806 0.891790 0.903966
O O15 0.250000 0.000000 0.059548
O O16 0.500000 0.000000 0.000000
O O17 0.250000 0.843795 0.625243
O O18 0.055062 0.000000 0.616353
O O19 0.250000 0.386203 0.787770
O O20 0.013085 0.500000 0.816391
#
# Coordination Sequence:
#
# PCOD8208606 Si02
#       7
#     8   8   8   8   4   8   8
#     4  11  23  37  53  72  97 132 177 228 282 345
#     4   9  19  36  56  79 108 141 179 227 283 340
#     4  10  19  31  50  79 113 146 182 229 285 344
#     4  11  21  35  59  88 122 161 201 244 287 339
#     4  12  26  44  64  90 126 166 207 248 289 338
#     4  10  21  36  53  73 100 135 175 224 280 340
#     4   9  19  35  57  88 122 155 191 235 290 347
#
# _framework density 20.478428999999998
#
# number of rings (size 3 to 8) (size 9 to 14) (size 15 to 20)
#    0.000    1.846    0.769    3.462    0.000    7.077 
#    0.000    0.000    0.000    0.462    0.000    0.000 
#    0.000    0.000    0.000    0.000    0.000    0.000 
#
# Total GULP energy -644478.684962 kJ/mol
# GULP energy per Si atom -12393.820865 kJ/mol
# Density = 2.043182 g / cm^3
# Si number density = 20.478429 Si / 1000 Ang^3
#
#
#
# Elastic Constant Matrix: (Units=GPa)
#
#
# Indices 1 2 3 4 5 6 
#
# 1 93.4920 31.9094 36.2292 0.0000 0.0000 0.0000
# 2 31.9094 77.4655 50.2246 0.0000 0.0000 0.0000
# 3 36.2292 50.2246 114.9217 0.0000 0.0000 0.0000
# 4 0.0000 0.0000 0.0000 22.8435 0.0000 0.0000
# 5 0.0000 0.0000 0.0000 0.0000 34.0408 0.0000
# 6 0.0000 0.0000 0.0000 0.0000 0.0000 23.1060
#
#
#
# Elastic Compliance Matrix: (Units=1/GPa)
#
#
# Indices 1 2 3 4 5 6 
#
# 1 0.012917 -0.003741 -0.002437 0.000000 0.000000 0.000000
# 2 -0.003741 0.019096 -0.007166 0.000000 0.000000 0.000000
# 3 -0.002437 -0.007166 0.012602 0.000000 0.000000 0.000000
# 4 0.000000 0.000000 0.000000 0.043776 0.000000 0.000000
# 5 0.000000 0.000000 0.000000 0.000000 0.029377 0.000000
# 6 0.000000 0.000000 0.000000 0.000000 0.000000 0.043279
#
#
# Mechanical properties :
#
#
# Convention : Reuss Voigt Hill
#
# Bulk Modulus (GPa) = 55.78326 58.06728 56.92527
# Shear Modulus (GPa) = 25.81163 27.16580 26.48872
#
# Velocity S-wave (km/s) = 3.55411 3.64614 3.60042
# Velocity P-wave (km/s) = 6.64390 6.79284 6.71878
#
# Compressibility (1/GPa) = 0.01792652
#
# Stress axis : x y z
#
# Youngs Moduli (GPa) = 77.41553 52.36676 79.35282
#
# Poissons Ratio (x) = 0.19588 0.19342
# Poissons Ratio (y) = 0.28958 0.56867
# Poissons Ratio (z) = 0.18870 0.37528
#
# Static dielectric constant tensor:
#      x y z
#    x 3.789380 0.000000 0.000000 
#    y 0.000000 4.122290 0.000000 
#    z 0.000000 0.000000 3.561640 
# 
# 
# High freq. dielectric constant tensor:
#      x y z
#    x 1.802180 0.000000 0.000000 
#    y 0.000000 1.820680 0.000000 
#    z 0.000000 0.000000 1.767690 
# 
# From -- ./inp_files/31736.got.cif
#   From: 2010.03.12/outbox.cif.g09.slc.cpg/sg51_16_cif.got.tgz:31736.got - 2010.04.16 13:43:02.
