data_PCOD8208034
_publ_section_title
;
Structure prediction by ZEFSAII (Michael W. Deem and Ramdas Pophale) SiO2 
 PCOD8208034
Probable space group: P M M A
;
_chemical_formula_sum "Si O2"
_cell_formula_units_Z 56
_cell_length_a 8.817462
_cell_length_b 20.140595
_cell_length_c 15.250348
_cell_angle_alpha 90.000000
_cell_angle_beta 90.000000
_cell_angle_gamma 90.000000
_cell_volume 2708.293000
_symmetry_space_group_name_H-M "P M M A"
_symmetry_group_IT_number 51
_symmetry_cell_setting 'orthorhombic'
loop_
_space_group_symop_operation_xyz
x,y,z
1/2-x,-y,z
1/2+x,-y,-z
-x,y,-z
-x,-y,-z
1/2+x,y,-z
1/2-x,y,z
x,-y,z
loop_
_atom_site_type_symbol
_atom_site_label
_atom_site_fract_x
_atom_site_fract_y
_atom_site_fract_z
Si Si1 0.569292 0.201998 0.672071
Si Si2 0.929389 0.675166 0.410612
Si Si3 0.423846 0.244183 0.139365
Si Si4 0.074712 0.925753 0.729481
Si Si5 0.074969 0.899252 0.086967
Si Si6 0.927520 0.615824 0.913171
Si Si7 0.074480 0.574634 0.278056
O O1 0.750000 0.201575 0.663089
O O2 0.496454 0.250492 0.600297
O O3 0.507044 0.228921 0.765180
O O4 0.510055 0.125990 0.664629
O O5 0.750000 0.678794 0.418230
O O6 0.000000 0.645723 0.500000
O O7 0.973783 0.626443 0.331481
O O8 0.250000 0.262087 0.156530
O O9 0.443608 0.180255 0.078311
O O10 0.497897 0.309409 0.096253
O O11 0.250000 0.905583 0.735811
O O12 0.006309 0.926170 0.827046
O O13 0.054677 0.000000 0.690502
O O14 0.250000 0.920352 0.092234
O O15 0.000000 0.930871 0.000000
O O16 0.750000 0.615487 0.929357
O O17 0.969787 0.576278 0.824808
O O18 0.000000 0.582604 0.000000
O O19 0.250000 0.595180 0.290057
O O20 0.044772 0.500000 0.312462
#
# Coordination Sequence:
#
# PCOD8208034 Si02
#       7
#     8   8   8   8   8   8   8
#     4  10  19  37  63  89 120 155 197 248 300 359
#     4  12  25  42  68  99 128 159 198 248 307 372
#     4   8  15  29  50  75 106 146 191 245 303 355
#     4  10  21  36  54  80 115 156 201 247 300 365
#     4  10  19  30  46  70 103 147 198 256 313 367
#     4  10  19  33  53  81 118 160 207 254 304 356
#     4  10  22  42  65  88 123 169 210 255 311 366
#
# _framework density 20.677232
#
# number of rings (size 3 to 8) (size 9 to 14) (size 15 to 20)
#    0.000    2.000    1.429    3.857    0.000    2.857 
#    0.000    0.714    0.000    0.429    0.000    0.000 
#    0.000    0.000    0.000    0.000    0.000    0.000 
#
# Total GULP energy -694218.339908 kJ/mol
# GULP energy per Si atom -12396.756070 kJ/mol
# Density = 2.063017 g / cm^3
# Si number density = 20.677232 Si / 1000 Ang^3
#
#
#
# Elastic Constant Matrix: (Units=GPa)
#
#
# Indices 1 2 3 4 5 6 
#
# 1 123.7413 46.2434 44.9805 0.0000 0.0000 0.0000
# 2 46.2434 106.5750 26.1354 0.0000 0.0000 0.0000
# 3 44.9805 26.1354 82.8478 0.0000 0.0000 0.0000
# 4 0.0000 0.0000 0.0000 7.5430 0.0000 0.0000
# 5 0.0000 0.0000 0.0000 0.0000 31.8315 0.0000
# 6 0.0000 0.0000 0.0000 0.0000 0.0000 22.5482
#
#
#
# Elastic Compliance Matrix: (Units=1/GPa)
#
#
# Indices 1 2 3 4 5 6 
#
# 1 0.011252 -0.003668 -0.004952 0.000000 0.000000 0.000000
# 2 -0.003668 0.011366 -0.001594 0.000000 0.000000 0.000000
# 3 -0.004952 -0.001594 0.015262 0.000000 0.000000 0.000000
# 4 0.000000 0.000000 0.000000 0.132573 0.000000 0.000000
# 5 0.000000 0.000000 0.000000 0.000000 0.031415 0.000000
# 6 0.000000 0.000000 0.000000 0.000000 0.000000 0.044349
#
#
# Mechanical properties :
#
#
# Convention : Reuss Voigt Hill
#
# Bulk Modulus (GPa) = 57.30152 60.87584 59.08868
# Shear Modulus (GPa) = 18.35117 25.43820 21.89469
#
# Velocity S-wave (km/s) = 2.98234 3.51130 3.25757
# Velocity P-wave (km/s) = 6.29537 6.77819 6.54124
#
# Compressibility (1/GPa) = 0.01745155
#
# Stress axis : x y z
#
# Youngs Moduli (GPa) = 88.87125 87.98552 65.52321
#
# Poissons Ratio (x) = 0.32273 0.32447
# Poissons Ratio (y) = 0.32598 0.10444
# Poissons Ratio (z) = 0.44009 0.14024
#
# Static dielectric constant tensor:
#      x y z
#    x 3.546260 0.000000 0.000000 
#    y 0.000000 3.903050 0.000000 
#    z 0.000000 0.000000 3.546080 
# 
# 
# High freq. dielectric constant tensor:
#      x y z
#    x 1.795580 0.000000 0.000000 
#    y 0.000000 1.814980 0.000000 
#    z 0.000000 0.000000 1.787710 
# 
# From -- ./inp_files/21794.got.cif
#   From: 2010.03.12/outbox.cif.g09.slc.cpg/sg51_11_cif.got.tgz:21794.got - 2010.04.16 13:43:02.
