data_PCOD8208041
_publ_section_title
;
Structure prediction by ZEFSAII (Michael W. Deem and Ramdas Pophale) SiO2 
 PCOD8208041
Probable space group: P M M A
;
_chemical_formula_sum "Si O2"
_cell_formula_units_Z 48
_cell_length_a 18.283959
_cell_length_b 9.171147
_cell_length_c 15.632312
_cell_angle_alpha 90.000000
_cell_angle_beta 90.000000
_cell_angle_gamma 90.000000
_cell_volume 2621.302295
_symmetry_space_group_name_H-M "P M M A"
_symmetry_group_IT_number 51
_symmetry_cell_setting 'orthorhombic'
loop_
_space_group_symop_operation_xyz
x,y,z
1/2-x,-y,z
1/2+x,-y,-z
-x,y,-z
-x,-y,-z
1/2+x,y,-z
1/2-x,y,z
x,-y,z
loop_
_atom_site_type_symbol
_atom_site_label
_atom_site_fract_x
_atom_site_fract_y
_atom_site_fract_z
Si Si1 0.332591 0.326402 0.004398
Si Si2 0.663038 0.337733 0.486227
Si Si3 0.168293 0.326330 0.326377
Si Si4 0.663469 0.167155 0.322066
Si Si5 0.078111 0.326377 0.166562
Si Si6 0.588172 0.673250 0.166628
O O1 0.250000 0.265582 0.008143
O O2 0.332450 0.500000 0.006284
O O3 0.370743 0.270341 0.917986
O O4 0.377477 0.264602 0.085239
O O5 0.750000 0.345862 0.487218
O O6 0.631336 0.500000 0.468396
O O7 0.637853 0.279381 0.579887
O O8 0.634871 0.228950 0.412919
O O9 0.250000 0.263993 0.310368
O O10 0.171419 0.500000 0.322808
O O11 0.114790 0.264244 0.253225
O O12 0.750000 0.186360 0.313852
O O13 0.626478 0.258357 0.247963
O O14 0.639455 0.000000 0.315493
O O15 0.080716 0.500000 0.165797
O O16 0.995094 0.271342 0.161421
O O17 0.592757 0.500000 0.175208
#
# Coordination Sequence:
#
# PCOD8208041 Si02
#       6
#     8   8   8   8   8   8
#     4   9  16  26  43  68  96 125 157 193 231 270
#     4   8  14  26  46  70  92 115 149 195 239 274
#     4   8  13  23  42  68  95 122 154 193 235 275
#     4  10  20  33  49  68  90 120 158 195 231 275
#     4   9  16  26  42  67  98 127 154 188 231 277
#     4  10  19  30  46  70  99 127 154 188 231 276
#
# _framework density 18.311508
#
# number of rings (size 3 to 8) (size 9 to 14) (size 15 to 20)
#    0.000    3.000    0.000    3.000    0.000    5.667 
#    0.000    0.833    0.000    8.000    0.000    0.000 
#    0.000    6.667    0.000    0.000    0.000    0.000 
#
# Total GULP energy -595023.161602 kJ/mol
# GULP energy per Si atom -12396.315867 kJ/mol
# Density = 1.826983 g / cm^3
# Si number density = 18.311508 Si / 1000 Ang^3
#
#
#
# Elastic Constant Matrix: (Units=GPa)
#
#
# Indices 1 2 3 4 5 6 
#
# 1 75.8822 22.8104 64.0833 0.0000 0.0000 0.0000
# 2 22.8104 27.2362 30.8302 0.0000 0.0000 0.0000
# 3 64.0833 30.8302 182.9234 0.0000 0.0000 0.0000
# 4 0.0000 0.0000 0.0000 -0.8058 0.0000 0.0000
# 5 0.0000 0.0000 0.0000 0.0000 -1.3193 0.0000
# 6 0.0000 0.0000 0.0000 0.0000 0.0000 8.6039
#
#
#
# Elastic Compliance Matrix: (Units=1/GPa)
#
#
# Indices 1 2 3 4 5 6 
#
# 1 0.021327 -0.011621 -0.005513 0.000000 0.000000 0.000000
# 2 -0.011621 0.051705 -0.004643 0.000000 0.000000 0.000000
# 3 -0.005513 -0.004643 0.008181 0.000000 0.000000 0.000000
# 4 0.000000 0.000000 0.000000 -1.240944 0.000000 0.000000
# 5 0.000000 0.000000 0.000000 0.000000 -0.758005 0.000000
# 6 0.000000 0.000000 0.000000 0.000000 0.000000 0.116227
#
#
# Mechanical properties :
#
#
# Convention : Reuss Voigt Hill
#
# Bulk Modulus (GPa) = 26.55483 57.94330 42.24907
# Shear Modulus (GPa) = -2.86467 12.51694 4.82614
#
# Velocity S-wave (km/s) = -1.25212 2.61733 1.62521
# Velocity P-wave (km/s) = 3.52743 6.39106 5.16180
#
# Compressibility (1/GPa) = 0.03765793
#
# Stress axis : x y z
#
# Youngs Moduli (GPa) = 46.88785 19.34059 122.23956
#
# Poissons Ratio (x) = 0.22477 0.67390
# Poissons Ratio (y) = 0.54491 0.56757
# Poissons Ratio (z) = 0.25849 0.08980
#
# Static dielectric constant tensor:
#      x y z
#    x 3.386160 0.000000 0.000000 
#    y 0.000000 2.837440 0.000000 
#    z 0.000000 0.000000 3.779580 
# 
# 
# High freq. dielectric constant tensor:
#      x y z
#    x 1.696360 0.000000 0.000000 
#    y 0.000000 1.643810 0.000000 
#    z 0.000000 0.000000 1.732680 
# 
# From -- ./inp_files/24796.got.cif
#   From: 2010.03.12/outbox.cif.g09.slc.cpg/sg51_13_cif.got.tgz:24796.got - 2010.04.16 13:43:02.
