data_PCOD8208622
_publ_section_title
;
Structure prediction by ZEFSAII (Michael W. Deem and Ramdas Pophale) SiO2 
 PCOD8208622
Probable space group: P M M A
;
_chemical_formula_sum "Si O2"
_cell_formula_units_Z 64
_cell_length_a 17.642279
_cell_length_b 8.841204
_cell_length_c 22.680448
_cell_angle_alpha 90.000000
_cell_angle_beta 90.000000
_cell_angle_gamma 90.000000
_cell_volume 3537.673319
_symmetry_space_group_name_H-M "P M M A"
_symmetry_group_IT_number 51
_symmetry_cell_setting 'orthorhombic'
loop_
_space_group_symop_operation_xyz
x,y,z
1/2-x,-y,z
1/2+x,-y,-z
-x,y,-z
-x,-y,-z
1/2+x,y,-z
1/2-x,y,z
x,-y,z
loop_
_atom_site_type_symbol
_atom_site_label
_atom_site_fract_x
_atom_site_fract_y
_atom_site_fract_z
Si Si1 0.537480 0.174934 0.126843
Si Si2 0.398207 0.676178 0.075441
Si Si3 0.426670 0.166717 0.459752
Si Si4 0.837478 0.677310 0.444641
Si Si5 0.490027 0.679085 0.244408
Si Si6 0.962802 0.820388 0.363817
Si Si7 0.667870 0.678077 0.800927
Si Si8 0.663907 0.828798 0.036785
O O1 0.474569 0.226365 0.079639
O O2 0.534597 0.276456 0.185361
O O3 0.617569 0.205415 0.096023
O O4 0.525643 0.000000 0.143782
O O5 0.419690 0.500000 0.076808
O O6 0.344888 0.719432 0.130647
O O7 0.355767 0.714159 0.015370
O O8 0.500000 0.152718 0.500000
O O9 0.364616 0.275663 0.489450
O O10 0.459554 0.230522 0.397696
O O11 0.390006 0.000000 0.451862
O O12 0.750000 0.724649 0.436500
O O13 0.848784 0.500000 0.438090
O O14 0.886969 0.757626 0.394452
O O15 0.493506 0.500000 0.252783
O O16 0.532194 0.758634 0.298106
O O17 0.402473 0.738226 0.238607
O O18 0.956049 0.000000 0.364047
O O19 0.750000 0.747215 0.781389
O O20 0.670700 0.500000 0.793399
O O21 0.750000 0.803768 0.055356
O O22 0.648269 0.000000 0.014804
#
# Coordination Sequence:
#
# PCOD8208622 Si02
#       8
#     8   8   8   8   8   8   8   8
#     4  10  20  35  53  71  97 134 172 212 258 311
#     4  10  19  31  51  77 101 127 163 207 256 312
#     4   8  16  31  51  75 102 133 168 203 243 295
#     4  10  20  33  52  81 112 138 170 215 260 298
#     4  10  20  34  54  77 101 133 174 219 260 301
#     4  10  20  35  55  77 103 139 179 213 250 303
#     4   8  15  29  48  71  98 126 158 200 253 308
#     4  10  21  35  50  71  99 130 166 209 258 311
#
# _framework density 18.090986000000001
#
# number of rings (size 3 to 8) (size 9 to 14) (size 15 to 20)
#    0.000    2.500    0.000    4.125    0.000    7.000 
#    0.000    1.250    0.000   12.000    0.000    0.000 
#    0.000    0.000    0.000    0.000    0.000    0.000 
#
# Total GULP energy -793367.293632 kJ/mol
# GULP energy per Si atom -12396.363963 kJ/mol
# Density = 1.804981 g / cm^3
# Si number density = 18.090986 Si / 1000 Ang^3
#
#
#
# Elastic Constant Matrix: (Units=GPa)
#
#
# Indices 1 2 3 4 5 6 
#
# 1 122.8249 46.8888 59.0094 0.0000 0.0000 0.0000
# 2 46.8888 63.0332 31.4159 0.0000 0.0000 0.0000
# 3 59.0094 31.4159 85.4190 0.0000 0.0000 0.0000
# 4 0.0000 0.0000 0.0000 29.4954 0.0000 0.0000
# 5 0.0000 0.0000 0.0000 0.0000 20.6381 0.0000
# 6 0.0000 0.0000 0.0000 0.0000 0.0000 22.7097
#
#
#
# Elastic Compliance Matrix: (Units=1/GPa)
#
#
# Indices 1 2 3 4 5 6 
#
# 1 0.014339 -0.007016 -0.007326 0.000000 0.000000 0.000000
# 2 -0.007016 0.022858 -0.003560 0.000000 0.000000 0.000000
# 3 -0.007326 -0.003560 0.018077 0.000000 0.000000 0.000000
# 4 0.000000 0.000000 0.000000 0.033904 0.000000 0.000000
# 5 0.000000 0.000000 0.000000 0.000000 0.048454 0.000000
# 6 0.000000 0.000000 0.000000 0.000000 0.000000 0.044034
#
#
# Mechanical properties :
#
#
# Convention : Reuss Voigt Hill
#
# Bulk Modulus (GPa) = 51.35780 60.65615 56.00698
# Shear Modulus (GPa) = 22.32543 23.49951 22.91247
#
# Velocity S-wave (km/s) = 3.51674 3.60802 3.56267
# Velocity P-wave (km/s) = 6.70374 7.13851 6.92454
#
# Compressibility (1/GPa) = 0.01947124
#
# Stress axis : x y z
#
# Youngs Moduli (GPa) = 69.73771 43.74878 55.31813
#
# Poissons Ratio (x) = 0.30692 0.40525
# Poissons Ratio (y) = 0.48925 0.19695
# Poissons Ratio (z) = 0.51088 0.15576
#
# Static dielectric constant tensor:
#      x y z
#    x 3.471460 0.000000 0.000000 
#    y 0.000000 3.298380 0.000000 
#    z 0.000000 0.000000 3.366980 
# 
# 
# High freq. dielectric constant tensor:
#      x y z
#    x 1.694560 0.000000 0.000000 
#    y 0.000000 1.698300 0.000000 
#    z 0.000000 0.000000 1.687990 
# 
# From -- ./inp_files/33919.got.cif
#   From: 2010.03.12/outbox.cif.g09.slc.cpg/sg51_17_cif.got.tgz:33919.got - 2010.04.16 13:43:02.
