data_PCOD8208238
_publ_section_title
;
Structure prediction by ZEFSAII (Michael W. Deem and Ramdas Pophale) SiO2 
 PCOD8208238
Probable space group: P M M A
;
_chemical_formula_sum "Si O2"
_cell_formula_units_Z 64
_cell_length_a 9.170577
_cell_length_b 18.197494
_cell_length_c 26.446547
_cell_angle_alpha 90.000000
_cell_angle_beta 90.000000
_cell_angle_gamma 90.000000
_cell_volume 4413.439960
_symmetry_space_group_name_H-M "P M M A"
_symmetry_group_IT_number 51
_symmetry_cell_setting 'orthorhombic'
loop_
_space_group_symop_operation_xyz
x,y,z
1/2-x,-y,z
1/2+x,-y,-z
-x,y,-z
-x,-y,-z
1/2+x,y,-z
1/2-x,y,z
x,-y,z
loop_
_atom_site_type_symbol
_atom_site_label
_atom_site_fract_x
_atom_site_fract_y
_atom_site_fract_z
Si Si1 0.084968 0.294148 0.100588
Si Si2 0.920442 0.584675 0.352268
Si Si3 0.919941 0.670742 0.252866
Si Si4 0.921652 0.830801 0.049582
Si Si5 0.419688 0.415458 0.847803
Si Si6 0.086014 0.205224 0.204034
Si Si7 0.419829 0.084176 0.849014
Si Si8 0.414558 0.412497 0.451505
O O1 0.250000 0.303828 0.080569
O O2 0.082114 0.250966 0.152852
O O3 0.990027 0.249463 0.059986
O O4 0.011946 0.373533 0.109259
O O5 0.750000 0.593476 0.363505
O O6 0.959254 0.500000 0.340895
O O7 0.970677 0.632366 0.304453
O O8 0.006979 0.615137 0.400664
O O9 0.750000 0.689602 0.253466
O O10 0.957604 0.614849 0.207708
O O11 0.005174 0.747616 0.247182
O O12 0.750000 0.822692 0.040322
O O13 0.957348 0.886031 0.095237
O O14 0.000000 0.863915 0.000000
O O15 0.250000 0.404064 0.859938
O O16 0.465842 0.500000 0.849482
O O17 0.250000 0.189140 0.222038
O O18 0.005525 0.127978 0.194549
O O19 0.250000 0.094152 0.837702
O O20 0.469565 0.000000 0.846451
O O21 0.500000 0.380561 0.500000
O O22 0.250000 0.382171 0.452472
O O23 0.416604 0.500000 0.453226
#
# Coordination Sequence:
#
# PCOD8208238 Si02
#       8
#     8   8   8   8   8   8   8   8
#     4   9  17  29  43  59  79 103 131 159 188 226
#     4   9  16  25  37  54  76 102 135 175 214 248
#     4   9  16  26  40  57  79 107 135 163 198 240
#     4  10  19  31  47  65  84 105 128 154 186 224
#     4   9  16  26  41  60  80 102 129 161 197 236
#     4   9  17  28  42  60  81 105 132 161 191 225
#     4   9  18  32  48  65  85 108 132 156 183 220
#     4   9  16  25  36  49  67  95 132 173 215 255
#
# _framework density 14.50116
#
# number of rings (size 3 to 8) (size 9 to 14) (size 15 to 20)
#    0.000    2.875    0.000    1.875    0.000    7.750 
#    0.000    0.000    0.000    2.625    0.000    0.000 
#    0.000    0.000    0.000    0.000    0.000    0.625 
#
# Total GULP energy -793570.676196 kJ/mol
# GULP energy per Si atom -12399.541816 kJ/mol
# Density = 1.446815 g / cm^3
# Si number density = 14.501160 Si / 1000 Ang^3
#
#
#
# Elastic Constant Matrix: (Units=GPa)
#
#
# Indices 1 2 3 4 5 6 
#
# 1 82.4320 47.7765 40.3807 0.0000 0.0000 0.0000
# 2 47.7765 94.3186 40.1053 0.0000 0.0000 0.0000
# 3 40.3807 40.1053 63.9047 0.0000 0.0000 0.0000
# 4 0.0000 0.0000 0.0000 11.9830 0.0000 0.0000
# 5 0.0000 0.0000 0.0000 0.0000 23.7237 0.0000
# 6 0.0000 0.0000 0.0000 0.0000 0.0000 17.0230
#
#
#
# Elastic Compliance Matrix: (Units=1/GPa)
#
#
# Indices 1 2 3 4 5 6 
#
# 1 0.020146 -0.006536 -0.008628 0.000000 0.000000 0.000000
# 2 -0.006536 0.016582 -0.006276 0.000000 0.000000 0.000000
# 3 -0.008628 -0.006276 0.025039 0.000000 0.000000 0.000000
# 4 0.000000 0.000000 0.000000 0.083452 0.000000 0.000000
# 5 0.000000 0.000000 0.000000 0.000000 0.042152 0.000000
# 6 0.000000 0.000000 0.000000 0.000000 0.000000 0.058744
#
#
# Mechanical properties :
#
#
# Convention : Reuss Voigt Hill
#
# Bulk Modulus (GPa) = 52.94933 55.24228 54.09581
# Shear Modulus (GPa) = 16.93240 18.03879 17.48559
#
# Velocity S-wave (km/s) = 3.42081 3.53080 3.47624
# Velocity P-wave (km/s) = 7.22466 7.40269 7.31422
#
# Compressibility (1/GPa) = 0.01888598
#
# Stress axis : x y z
#
# Youngs Moduli (GPa) = 49.63739 60.30644 39.93713
#
# Poissons Ratio (x) = 0.39417 0.34459
# Poissons Ratio (y) = 0.32443 0.25066
# Poissons Ratio (z) = 0.42828 0.37851
#
# Static dielectric constant tensor:
#      x y z
#    x 2.938670 0.000000 0.000000 
#    y 0.000000 2.665710 0.000000 
#    z 0.000000 0.000000 2.706150 
# 
# 
# High freq. dielectric constant tensor:
#      x y z
#    x 1.565000 0.000000 0.000000 
#    y 0.000000 1.522610 0.000000 
#    z 0.000000 0.000000 1.528640 
# 
# From -- ./inp_files/36417.got.cif
#   From: 2010.03.12/outbox.cif.g09.slc.cpg/sg51_19_cif.got.tgz:36417.got - 2010.04.16 13:43:02.
