data_PCOD8208933
_publ_section_title
;
Structure prediction by ZEFSAII (Michael W. Deem and Ramdas Pophale) SiO2 
 PCOD8208933
Probable space group: P M M A
;
_chemical_formula_sum "Si O2"
_cell_formula_units_Z 48
_cell_length_a 30.545560
_cell_length_b 9.224310
_cell_length_c 9.540662
_cell_angle_alpha 90.000000
_cell_angle_beta 90.000000
_cell_angle_gamma 90.000000
_cell_volume 2688.193283
_symmetry_space_group_name_H-M "P M M A"
_symmetry_group_IT_number 51
_symmetry_cell_setting 'orthorhombic'
loop_
_space_group_symop_operation_xyz
x,y,z
1/2-x,-y,z
1/2+x,-y,-z
-x,y,-z
-x,-y,-z
1/2+x,y,-z
1/2-x,y,z
x,-y,z
loop_
_atom_site_type_symbol
_atom_site_label
_atom_site_fract_x
_atom_site_fract_y
_atom_site_fract_z
Si Si1 0.367542 0.165082 0.081537
Si Si2 0.865136 0.671569 0.493488
Si Si3 0.300212 0.830633 0.311480
Si Si4 0.480085 0.666192 0.848424
Si Si5 0.393034 0.831460 0.779119
Si Si6 0.570221 0.334151 0.731317
O O1 0.322940 0.207488 0.162533
O O2 0.408837 0.253303 0.137154
O O3 0.379566 0.000000 0.112277
O O4 0.362469 0.192491 0.915758
O O5 0.859679 0.500000 0.477723
O O6 0.822073 0.736965 0.565805
O O7 0.869892 0.741721 0.342167
O O8 0.908265 0.714832 0.584115
O O9 0.250000 0.783820 0.298507
O O10 0.305121 0.000000 0.348550
O O11 0.463140 0.500000 0.843214
O O12 0.441613 0.774723 0.809744
O O13 0.518058 0.691169 0.731624
O O14 0.500000 0.702304 0.000000
O O15 0.396062 0.000000 0.737538
O O16 0.581774 0.500000 0.758717
#
# Coordination Sequence:
#
# PCOD8208933 Si02
#       6
#     8   8   8   8   8   8
#     4   9  18  32  52  77 104 133 168 212 258 309
#     4  10  21  36  54  76 107 142 175 214 262 313
#     4   9  18  36  61  83 102 128 165 209 259 316
#     4  10  19  32  52  75 102 138 183 227 268 313
#     4  11  22  34  50  76 110 143 179 219 264 312
#     4   9  18  33  52  74  99 136 181 221 260 308
#
# _framework density 17.855858999999999
#
# number of rings (size 3 to 8) (size 9 to 14) (size 15 to 20)
#    0.000    2.333    1.667    1.000    0.000    3.333 
#    0.000    4.167    0.000    3.000    0.000    0.000 
#    0.000    0.000    0.000    0.000    0.000    0.000 
#
# Total GULP energy -595167.229579 kJ/mol
# GULP energy per Si atom -12399.317283 kJ/mol
# Density = 1.781522 g / cm^3
# Si number density = 17.855859 Si / 1000 Ang^3
#
#
#
# Elastic Constant Matrix: (Units=GPa)
#
#
# Indices 1 2 3 4 5 6 
#
# 1 105.2635 46.7789 54.5644 0.0000 0.0000 0.0000
# 2 46.7789 76.5906 53.6530 0.0000 0.0000 0.0000
# 3 54.5644 53.6530 112.7534 0.0000 0.0000 0.0000
# 4 0.0000 0.0000 0.0000 29.3344 0.0000 0.0000
# 5 0.0000 0.0000 0.0000 0.0000 18.7978 0.0000
# 6 0.0000 0.0000 0.0000 0.0000 0.0000 29.4117
#
#
#
# Elastic Compliance Matrix: (Units=1/GPa)
#
#
# Indices 1 2 3 4 5 6 
#
# 1 0.014210 -0.005793 -0.004120 0.000000 0.000000 0.000000
# 2 -0.005793 0.021946 -0.007640 0.000000 0.000000 0.000000
# 3 -0.004120 -0.007640 0.014498 0.000000 0.000000 0.000000
# 4 0.000000 0.000000 0.000000 0.034090 0.000000 0.000000
# 5 0.000000 0.000000 0.000000 0.000000 0.053198 0.000000
# 6 0.000000 0.000000 0.000000 0.000000 0.000000 0.034000
#
#
# Mechanical properties :
#
#
# Convention : Reuss Voigt Hill
#
# Bulk Modulus (GPa) = 64.31257 67.17778 65.74517
# Shear Modulus (GPa) = 23.55938 24.81621 24.18780
#
# Velocity S-wave (km/s) = 3.63632 3.73206 3.68450
# Velocity P-wave (km/s) = 7.32982 7.50166 7.41624
#
# Compressibility (1/GPa) = 0.01554906
#
# Stress axis : x y z
#
# Youngs Moduli (GPa) = 70.37323 45.56612 68.97480
#
# Poissons Ratio (x) = 0.26395 0.28419
# Poissons Ratio (y) = 0.40765 0.52695
# Poissons Ratio (z) = 0.28995 0.34811
#
# Static dielectric constant tensor:
#      x y z
#    x 3.258590 0.000000 0.000000 
#    y 0.000000 3.341070 0.000000 
#    z 0.000000 0.000000 3.407190 
# 
# 
# High freq. dielectric constant tensor:
#      x y z
#    x 1.675260 0.000000 0.000000 
#    y 0.000000 1.695160 0.000000 
#    z 0.000000 0.000000 1.690340 
# 
# From -- ./inp_files/12765.got.cif
#   From: 2010.03.12/outbox.cif.g09.slc.cpg/sg51_7_cif.got.tgz:12765.got - 2010.04.16 13:43:02.
