data_PCOD8208405
_publ_section_title
;
Structure prediction by ZEFSAII (Michael W. Deem and Ramdas Pophale) SiO2 
 PCOD8208405
Probable space group: P M M A
;
_chemical_formula_sum "Si O2"
_cell_formula_units_Z 56
_cell_length_a 15.333252
_cell_length_b 13.690644
_cell_length_c 14.882549
_cell_angle_alpha 90.000000
_cell_angle_beta 90.000000
_cell_angle_gamma 90.000000
_cell_volume 3124.175857
_symmetry_space_group_name_H-M "P M M A"
_symmetry_group_IT_number 51
_symmetry_cell_setting 'orthorhombic'
loop_
_space_group_symop_operation_xyz
x,y,z
1/2-x,-y,z
1/2+x,-y,-z
-x,y,-z
-x,-y,-z
1/2+x,y,-z
1/2-x,y,z
x,-y,z
loop_
_atom_site_type_symbol
_atom_site_label
_atom_site_fract_x
_atom_site_fract_y
_atom_site_fract_z
Si Si1 0.651387 0.296126 0.584865
Si Si2 0.346278 0.390798 0.599499
Si Si3 0.649060 0.112842 0.097157
Si Si4 0.484529 0.389964 0.288348
Si Si5 0.501656 0.809538 0.218384
Si Si6 0.154607 0.885366 0.103105
Si Si7 0.545259 0.112781 0.596451
O O1 0.750000 0.316580 0.616314
O O2 0.638145 0.314475 0.479768
O O3 0.588215 0.370569 0.636432
O O4 0.630058 0.182074 0.601608
O O5 0.250000 0.374527 0.642286
O O6 0.353657 0.500000 0.559053
O O7 0.418311 0.374848 0.674462
O O8 0.750000 0.127294 0.123109
O O9 0.590767 0.174209 0.165587
O O10 0.621437 0.000000 0.105684
O O11 0.630624 0.153478 0.996693
O O12 0.472121 0.500000 0.249869
O O13 0.477764 0.305983 0.213235
O O14 0.418919 0.861747 0.174651
O O15 0.515348 0.851444 0.319997
O O16 0.250000 0.843281 0.132801
O O17 0.163492 0.000000 0.093471
O O18 0.500000 0.128063 0.500000
O O19 0.572766 0.000000 0.609216
#
# Coordination Sequence:
#
# PCOD8208405 Si02
#       7
#     8   8   8   8   8   8   8
#     4  10  19  31  49  70  92 126 172 218 264 305
#     4   9  17  31  52  72  88 115 163 222 274 307
#     4   9  18  33  55  84 110 127 154 205 263 312
#     4  10  21  34  47  69 100 130 166 215 261 300
#     4  11  20  32  54  76  99 138 176 207 250 303
#     4   9  18  33  55  83 108 127 157 207 261 309
#     4  10  21  35  48  68 104 146 182 210 238 287
#
# _framework density 17.924727000000001
#
# number of rings (size 3 to 8) (size 9 to 14) (size 15 to 20)
#    0.000    2.286    0.000    5.143    0.000    6.286 
#    0.000    0.714    0.000    2.571    0.000    2.000 
#    0.000    0.000    0.000    0.000    0.000    0.000 
#
# Total GULP energy -694066.592206 kJ/mol
# GULP energy per Si atom -12394.046289 kJ/mol
# Density = 1.788393 g / cm^3
# Si number density = 17.924727 Si / 1000 Ang^3
#
#
#
# Elastic Constant Matrix: (Units=GPa)
#
#
# Indices 1 2 3 4 5 6 
#
# 1 83.9416 12.5541 32.3290 0.0000 0.0000 0.0000
# 2 12.5541 76.1504 18.0530 0.0000 0.0000 0.0000
# 3 32.3290 18.0530 80.4023 0.0000 0.0000 0.0000
# 4 0.0000 0.0000 0.0000 17.8162 0.0000 0.0000
# 5 0.0000 0.0000 0.0000 0.0000 16.4824 0.0000
# 6 0.0000 0.0000 0.0000 0.0000 0.0000 23.2910
#
#
#
# Elastic Compliance Matrix: (Units=1/GPa)
#
#
# Indices 1 2 3 4 5 6 
#
# 1 0.014174 -0.001041 -0.005465 0.000000 0.000000 0.000000
# 2 -0.001041 0.013947 -0.002713 0.000000 0.000000 0.000000
# 3 -0.005465 -0.002713 0.015244 0.000000 0.000000 0.000000
# 4 0.000000 0.000000 0.000000 0.056129 0.000000 0.000000
# 5 0.000000 0.000000 0.000000 0.000000 0.060671 0.000000
# 6 0.000000 0.000000 0.000000 0.000000 0.000000 0.042935
#
#
# Mechanical properties :
#
#
# Convention : Reuss Voigt Hill
#
# Bulk Modulus (GPa) = 40.11881 40.70739 40.41310
# Shear Modulus (GPa) = 21.75370 23.35515 22.55443
#
# Velocity S-wave (km/s) = 3.48748 3.61357 3.55108
# Velocity P-wave (km/s) = 6.21668 6.33798 6.27762
#
# Compressibility (1/GPa) = 0.02492596
#
# Stress axis : x y z
#
# Youngs Moduli (GPa) = 70.55356 71.70164 65.59894
#
# Poissons Ratio (x) = 0.07464 0.35852
# Poissons Ratio (y) = 0.07344 0.17797
# Poissons Ratio (z) = 0.38560 0.19452
#
# Static dielectric constant tensor:
#      x y z
#    x 3.398980 0.000000 0.000000 
#    y 0.000000 3.382490 0.000000 
#    z 0.000000 0.000000 3.194710 
# 
# 
# High freq. dielectric constant tensor:
#      x y z
#    x 1.701250 0.000000 0.000000 
#    y 0.000000 1.684960 0.000000 
#    z 0.000000 0.000000 1.671100 
# 
# From -- ./inp_files/24328.got.cif
#   From: 2010.03.12/outbox.cif.g09.slc.cpg/sg51_13_cif.got.tgz:24328.got - 2010.04.16 13:43:02.
