data_PCOD8208276
_publ_section_title
;
Structure prediction by ZEFSAII (Michael W. Deem and Ramdas Pophale) SiO2 
 PCOD8208276
Probable space group: P M M A
;
_chemical_formula_sum "Si O2"
_cell_formula_units_Z 64
_cell_length_a 9.100384
_cell_length_b 23.335334
_cell_length_c 17.396382
_cell_angle_alpha 90.000000
_cell_angle_beta 90.000000
_cell_angle_gamma 90.000000
_cell_volume 3694.304383
_symmetry_space_group_name_H-M "P M M A"
_symmetry_group_IT_number 51
_symmetry_cell_setting 'orthorhombic'
loop_
_space_group_symop_operation_xyz
x,y,z
1/2-x,-y,z
1/2+x,-y,-z
-x,y,-z
-x,-y,-z
1/2+x,y,-z
1/2-x,y,z
x,-y,z
loop_
_atom_site_type_symbol
_atom_site_label
_atom_site_fract_x
_atom_site_fract_y
_atom_site_fract_z
Si Si1 0.420019 0.065667 0.215497
Si Si2 0.423977 0.562234 0.238155
Si Si3 0.578467 0.317422 0.714107
Si Si4 0.910158 0.567062 0.930257
Si Si5 0.076411 0.232490 0.420485
Si Si6 0.084146 0.235934 0.819206
Si Si7 0.084411 0.146859 0.681236
Si Si8 0.422862 0.151148 0.079091
O O1 0.250000 0.073643 0.236629
O O2 0.511853 0.088146 0.288750
O O3 0.458444 0.099966 0.138119
O O4 0.462356 0.000000 0.200738
O O5 0.250000 0.556828 0.229218
O O6 0.484669 0.500000 0.268206
O O7 0.464221 0.614992 0.294846
O O8 0.487529 0.576217 0.152947
O O9 0.750000 0.309008 0.731614
O O10 0.535721 0.285074 0.635933
O O11 0.491554 0.293423 0.787804
O O12 0.750000 0.596452 0.930786
O O13 0.893987 0.500000 0.946337
O O14 0.000000 0.596224 0.000000
O O15 0.250000 0.225347 0.431327
O O16 0.000000 0.248320 0.500000
O O17 0.010751 0.172933 0.388480
O O18 0.250000 0.249177 0.846416
O O19 0.083290 0.190770 0.750812
O O20 0.991267 0.210691 0.890148
O O21 0.250000 0.134799 0.652291
O O22 0.250000 0.159501 0.066594
O O23 0.500000 0.133659 0.000000
#
# Coordination Sequence:
#
# PCOD8208276 Si02
#       8
#     8   8   8   8   8   8   8   8
#     4   9  18  32  49  70  98 133 169 201 236 281
#     4   8  14  26  45  67  90 120 159 197 231 273
#     4   9  17  30  49  71  93 119 153 193 235 281
#     4   8  13  22  37  56  78 105 138 177 217 254
#     4  10  19  31  50  75  99 122 150 188 236 287
#     4   9  17  30  47  66  89 119 155 196 243 288
#     4   9  17  30  49  72  96 122 155 195 235 277
#     4  10  19  31  47  67  94 128 166 208 249 286
#
# _framework density 17.323964
#
# number of rings (size 3 to 8) (size 9 to 14) (size 15 to 20)
#    0.000    3.000    0.000    2.250    0.000    4.500 
#    0.000    1.250    0.000    3.375    0.000    0.000 
#    0.000    0.000    0.000    0.000    0.000    0.375 
#
# Total GULP energy -793214.645707 kJ/mol
# GULP energy per Si atom -12393.978839 kJ/mol
# Density = 1.728453 g / cm^3
# Si number density = 17.323964 Si / 1000 Ang^3
#
#
#
# Elastic Constant Matrix: (Units=GPa)
#
#
# Indices 1 2 3 4 5 6 
#
# 1 89.0223 44.7939 46.3244 0.0000 0.0000 0.0000
# 2 44.7939 106.9701 52.2857 0.0000 0.0000 0.0000
# 3 46.3244 52.2857 86.0176 0.0000 0.0000 0.0000
# 4 0.0000 0.0000 0.0000 17.9254 0.0000 0.0000
# 5 0.0000 0.0000 0.0000 0.0000 29.3165 0.0000
# 6 0.0000 0.0000 0.0000 0.0000 0.0000 15.8122
#
#
#
# Elastic Compliance Matrix: (Units=1/GPa)
#
#
# Indices 1 2 3 4 5 6 
#
# 1 0.016558 -0.003664 -0.006690 0.000000 0.000000 0.000000
# 2 -0.003664 0.014111 -0.006604 0.000000 0.000000 0.000000
# 3 -0.006690 -0.006604 0.019243 0.000000 0.000000 0.000000
# 4 0.000000 0.000000 0.000000 0.055787 0.000000 0.000000
# 5 0.000000 0.000000 0.000000 0.000000 0.034110 0.000000
# 6 0.000000 0.000000 0.000000 0.000000 0.000000 0.063242
#
#
# Mechanical properties :
#
#
# Convention : Reuss Voigt Hill
#
# Bulk Modulus (GPa) = 62.51782 63.20200 62.85991
# Shear Modulus (GPa) = 20.63569 21.85122 21.24346
#
# Velocity S-wave (km/s) = 3.45507 3.55537 3.50558
# Velocity P-wave (km/s) = 7.21682 7.30861 7.26286
#
# Compressibility (1/GPa) = 0.01599544
#
# Stress axis : x y z
#
# Youngs Moduli (GPa) = 60.39375 70.86915 51.96722
#
# Poissons Ratio (x) = 0.25963 0.34768
# Poissons Ratio (y) = 0.22125 0.34320
# Poissons Ratio (z) = 0.40406 0.46803
#
# Static dielectric constant tensor:
#      x y z
#    x 3.323770 0.000000 0.000000 
#    y 0.000000 3.222890 0.000000 
#    z 0.000000 0.000000 3.061380 
# 
# 
# High freq. dielectric constant tensor:
#      x y z
#    x 1.664720 0.000000 0.000000 
#    y 0.000000 1.652500 0.000000 
#    z 0.000000 0.000000 1.644680 
# 
# From -- ./inp_files/22235.got.cif
#   From: 2010.03.12/outbox.cif.g09.slc.cpg/sg51_12_cif.got.tgz:22235.got - 2010.04.16 13:43:02.
