data_PCOD8208696
_publ_section_title
;
Structure prediction by ZEFSAII (Michael W. Deem and Ramdas Pophale) SiO2 
 PCOD8208696
Probable space group: P M M A
;
_chemical_formula_sum "Si O2"
_cell_formula_units_Z 40
_cell_length_a 8.918536
_cell_length_b 15.541914
_cell_length_c 19.532177
_cell_angle_alpha 90.000000
_cell_angle_beta 90.000000
_cell_angle_gamma 90.000000
_cell_volume 2707.376921
_symmetry_space_group_name_H-M "P M M A"
_symmetry_group_IT_number 51
_symmetry_cell_setting 'orthorhombic'
loop_
_space_group_symop_operation_xyz
x,y,z
1/2-x,-y,z
1/2+x,-y,-z
-x,y,-z
-x,-y,-z
1/2+x,y,-z
1/2-x,y,z
x,-y,z
loop_
_atom_site_type_symbol
_atom_site_label
_atom_site_fract_x
_atom_site_fract_y
_atom_site_fract_z
Si Si1 0.080849 0.102426 0.067079
Si Si2 0.427479 0.313138 0.425006
Si Si3 0.423071 0.902415 0.798318
Si Si4 0.428740 0.000000 0.425762
Si Si5 0.420935 0.500000 0.429152
Si Si6 0.573843 0.841245 0.349640
O O1 0.250000 0.134374 0.064114
O O2 0.009397 0.138623 0.137104
O O3 0.065894 0.000000 0.067390
O O4 0.000000 0.140707 0.000000
O O5 0.500000 0.303675 0.500000
O O6 0.250000 0.292562 0.429605
O O7 0.458143 0.408939 0.392189
O O8 0.510899 0.249700 0.373735
O O9 0.250000 0.901855 0.818215
O O10 0.456052 0.845822 0.731462
O O11 0.476629 0.000000 0.783088
O O12 0.500000 0.000000 0.500000
O O13 0.483083 0.084277 0.386870
O O14 0.250000 0.000000 0.431059
O O15 0.250000 0.500000 0.449642
O O16 0.500000 0.500000 0.500000
O O17 0.750000 0.851140 0.366388
#
# Coordination Sequence:
#
# PCOD8208696 Si02
#       6
#     8   8   8   4   4   8
#     4   9  16  25  39  59  80 104 137 175 210 247
#     4  10  19  32  48  67  86 110 141 179 221 266
#     4   9  17  30  44  57  79 111 142 175 213 251
#     4  12  24  36  48  60  79 110 149 188 220 256
#     4   8  16  30  48  66  86 106 133 172 219 266
#     4  11  21  34  47  63  86 114 145 181 221 260
#
# _framework density 14.774449000000001
#
# number of rings (size 3 to 8) (size 9 to 14) (size 15 to 20)
#    0.000    2.200    1.000    3.300    0.000    4.800 
#    0.000    0.000    0.000    0.000    0.000    0.000 
#    0.000    0.000    0.000    0.900    0.000   11.600 
#
# Total GULP energy -495757.815040 kJ/mol
# GULP energy per Si atom -12393.945376 kJ/mol
# Density = 1.474082 g / cm^3
# Si number density = 14.774449 Si / 1000 Ang^3
#
#
#
# Elastic Constant Matrix: (Units=GPa)
#
#
# Indices 1 2 3 4 5 6 
#
# 1 103.6396 41.3628 62.9005 0.0000 0.0000 0.0000
# 2 41.3628 85.1236 44.2500 0.0000 0.0000 0.0000
# 3 62.9005 44.2500 110.6195 0.0000 0.0000 0.0000
# 4 0.0000 0.0000 0.0000 -9.4582 0.0000 0.0000
# 5 0.0000 0.0000 0.0000 0.0000 28.2112 0.0000
# 6 0.0000 0.0000 0.0000 0.0000 0.0000 15.4271
#
#
#
# Elastic Compliance Matrix: (Units=1/GPa)
#
#
# Indices 1 2 3 4 5 6 
#
# 1 0.015630 -0.003756 -0.007385 0.000000 0.000000 0.000000
# 2 -0.003756 0.015734 -0.004158 0.000000 0.000000 0.000000
# 3 -0.007385 -0.004158 0.014903 0.000000 0.000000 0.000000
# 4 0.000000 0.000000 0.000000 -0.105728 0.000000 0.000000
# 5 0.000000 0.000000 0.000000 0.000000 0.035447 0.000000
# 6 0.000000 0.000000 0.000000 0.000000 0.000000 0.064821
#
#
# Mechanical properties :
#
#
# Convention : Reuss Voigt Hill
#
# Bulk Modulus (GPa) = 63.82282 66.26767 65.04524
# Shear Modulus (GPa) = 65.25008 16.89397 41.07203
#
# Velocity S-wave (km/s) = 6.65282 3.38517 5.27823
# Velocity P-wave (km/s) = 10.11461 7.76076 9.01484
#
# Compressibility (1/GPa) = 0.01566838
#
# Stress axis : x y z
#
# Youngs Moduli (GPa) = 63.98000 63.55545 67.10172
#
# Poissons Ratio (x) = 0.23870 0.49555
# Poissons Ratio (y) = 0.24030 0.27904
# Poissons Ratio (z) = 0.47250 0.26429
#
# Static dielectric constant tensor:
#      x y z
#    x 3.035540 0.000000 0.000000 
#    y 0.000000 2.635720 0.000000 
#    z 0.000000 0.000000 2.879860 
# 
# 
# High freq. dielectric constant tensor:
#      x y z
#    x 1.584050 0.000000 0.000000 
#    y 0.000000 1.527460 0.000000 
#    z 0.000000 0.000000 1.553670 
# 
# From -- ./inp_files/27771.got.cif
#   From: 2010.03.12/outbox.cif.g09.slc.cpg/sg51_14_cif.got.tgz:27771.got - 2010.04.16 13:43:02.
