data_PCOD8208638
_publ_section_title
;
Structure prediction by ZEFSAII (Michael W. Deem and Ramdas Pophale) SiO2 
 PCOD8208638
Probable space group: P M M A
;
_chemical_formula_sum "Si O2"
_cell_formula_units_Z 48
_cell_length_a 19.090785
_cell_length_b 9.373749
_cell_length_c 15.053944
_cell_angle_alpha 90.000000
_cell_angle_beta 90.000000
_cell_angle_gamma 90.000000
_cell_volume 2693.936801
_symmetry_space_group_name_H-M "P M M A"
_symmetry_group_IT_number 51
_symmetry_cell_setting 'orthorhombic'
loop_
_space_group_symop_operation_xyz
x,y,z
1/2-x,-y,z
1/2+x,-y,-z
-x,y,-z
-x,-y,-z
1/2+x,y,-z
1/2-x,y,z
x,-y,z
loop_
_atom_site_type_symbol
_atom_site_label
_atom_site_fract_x
_atom_site_fract_y
_atom_site_fract_z
Si Si1 0.575184 0.169687 0.529210
Si Si2 0.828639 0.169740 0.372269
Si Si3 0.331202 0.335188 0.131571
Si Si4 0.580845 0.168179 0.729498
Si Si5 0.425699 0.168427 0.788588
Si Si6 0.424098 0.666601 0.965496
O O1 0.500000 0.232343 0.500000
O O2 0.634509 0.227544 0.461992
O O3 0.592822 0.220208 0.628617
O O4 0.571444 0.000000 0.525281
O O5 0.750000 0.232161 0.367319
O O6 0.872437 0.221815 0.287191
O O7 0.827221 0.000000 0.374208
O O8 0.250000 0.300721 0.120574
O O9 0.345691 0.500000 0.153233
O O10 0.360711 0.243685 0.212153
O O11 0.367958 0.291561 0.039903
O O12 0.503719 0.214397 0.760847
O O13 0.590853 0.000000 0.738527
O O14 0.420430 0.000000 0.803072
O O15 0.403467 0.245928 0.878530
O O16 0.422900 0.500000 0.941914
O O17 0.500000 0.714579 0.000000
#
# Coordination Sequence:
#
# PCOD8208638 Si02
#       6
#     8   8   8   8   8   8
#     4   9  15  27  48  74 105 139 171 206 250 300
#     4   9  17  29  46  72 106 139 170 207 254 304
#     4  10  22  39  55  73 102 137 170 210 262 311
#     4  10  19  31  53  81 106 133 171 215 254 297
#     4  10  19  31  51  79 106 134 168 211 259 301
#     4  10  20  35  55  76  97 130 175 212 246 304
#
# _framework density 17.817789999999999
#
# number of rings (size 3 to 8) (size 9 to 14) (size 15 to 20)
#    0.000    2.333    3.333    0.000    0.000    2.667 
#    0.000    1.667    0.000    1.500    0.000    0.000 
#    0.000    0.000    0.000    0.000    0.000    0.000 
#
# Total GULP energy -595261.898116 kJ/mol
# GULP energy per Si atom -12401.289544 kJ/mol
# Density = 1.777724 g / cm^3
# Si number density = 17.817790 Si / 1000 Ang^3
#
#
#
# Elastic Constant Matrix: (Units=GPa)
#
#
# Indices 1 2 3 4 5 6 
#
# 1 139.5763 28.5017 83.4690 0.0000 0.0000 0.0000
# 2 28.5017 24.1848 42.1505 0.0000 0.0000 0.0000
# 3 83.4690 42.1505 177.2156 0.0000 0.0000 0.0000
# 4 0.0000 0.0000 0.0000 -1.2158 0.0000 0.0000
# 5 0.0000 0.0000 0.0000 0.0000 34.9535 0.0000
# 6 0.0000 0.0000 0.0000 0.0000 0.0000 16.2963
#
#
#
# Elastic Compliance Matrix: (Units=1/GPa)
#
#
# Indices 1 2 3 4 5 6 
#
# 1 0.010529 -0.006431 -0.003429 0.000000 0.000000 0.000000
# 2 -0.006431 0.074553 -0.014703 0.000000 0.000000 0.000000
# 3 -0.003429 -0.014703 0.010755 0.000000 0.000000 0.000000
# 4 0.000000 0.000000 0.000000 -0.822475 0.000000 0.000000
# 5 0.000000 0.000000 0.000000 0.000000 0.028609 0.000000
# 6 0.000000 0.000000 0.000000 0.000000 0.000000 0.061364
#
#
# Mechanical properties :
#
#
# Convention : Reuss Voigt Hill
#
# Bulk Modulus (GPa) = 21.40905 72.13548 46.77226
# Shear Modulus (GPa) = -8.74175 22.46382 6.86104
#
# Velocity S-wave (km/s) = -2.21740 3.55456 1.96444
# Velocity P-wave (km/s) = 2.34219 7.57757 5.60827
#
# Compressibility (1/GPa) = 0.04670922
#
# Stress axis : x y z
#
# Youngs Moduli (GPa) = 94.97941 13.41335 92.97789
#
# Poissons Ratio (x) = 0.08626 0.31886
# Poissons Ratio (y) = 0.61081 1.36708
# Poissons Ratio (z) = 0.32572 0.19722
#
# Static dielectric constant tensor:
#      x y z
#    x 3.431970 0.000000 0.000000 
#    y 0.000000 2.866520 0.000000 
#    z 0.000000 0.000000 3.446710 
# 
# 
# High freq. dielectric constant tensor:
#      x y z
#    x 1.694150 0.000000 0.000000 
#    y 0.000000 1.643700 0.000000 
#    z 0.000000 0.000000 1.704860 
# 
# From -- ./inp_files/17317.got.cif
#   From: 2010.03.12/outbox.cif.g09.slc.cpg/sg51_9_cif.got.tgz:17317.got - 2010.04.16 13:43:02.
