data_PCOD8208936
_publ_section_title
;
Structure prediction by ZEFSAII (Michael W. Deem and Ramdas Pophale) SiO2 
 PCOD8208936
Probable space group: P M M A
;
_chemical_formula_sum "Si O2"
_cell_formula_units_Z 64
_cell_length_a 16.040714
_cell_length_b 17.420693
_cell_length_c 12.140677
_cell_angle_alpha 90.000000
_cell_angle_beta 90.000000
_cell_angle_gamma 90.000000
_cell_volume 3392.595080
_symmetry_space_group_name_H-M "P M M A"
_symmetry_group_IT_number 51
_symmetry_cell_setting 'orthorhombic'
loop_
_space_group_symop_operation_xyz
x,y,z
1/2-x,-y,z
1/2+x,-y,-z
-x,y,-z
-x,-y,-z
1/2+x,y,-z
1/2-x,y,z
x,-y,z
loop_
_atom_site_type_symbol
_atom_site_label
_atom_site_fract_x
_atom_site_fract_y
_atom_site_fract_z
Si Si1 0.586359 0.692928 0.180437
Si Si2 0.157827 0.813810 0.195439
Si Si3 0.346905 0.913366 0.728131
Si Si4 0.154977 0.697696 0.390586
Si Si5 0.942698 0.410241 0.762827
Si Si6 0.344439 0.766495 0.609924
Si Si7 0.156916 0.667335 0.052723
Si Si8 0.510425 0.147688 0.126048
O O1 0.535684 0.622602 0.231983
O O2 0.648105 0.720592 0.276166
O O3 0.524653 0.761367 0.143886
O O4 0.637636 0.663337 0.076304
O O5 0.250000 0.853963 0.188242
O O6 0.150254 0.770292 0.310479
O O7 0.148054 0.754734 0.093718
O O8 0.079080 0.872227 0.185153
O O9 0.250000 0.897133 0.765068
O O10 0.374522 0.854455 0.631115
O O11 0.411077 0.901066 0.829036
O O12 0.355404 0.000000 0.683838
O O13 0.250000 0.669351 0.405008
O O14 0.104556 0.626610 0.341046
O O15 0.111292 0.724832 0.506013
O O16 0.946002 0.500000 0.742839
O O17 0.900565 0.390936 0.879789
O O18 0.250000 0.770044 0.571569
O O19 0.250000 0.637750 0.072894
O O20 0.500000 0.125160 0.000000
#
# Coordination Sequence:
#
# PCOD8208936 Si02
#       8
#     8   8   8   8   8   8   8   8
#     4  11  19  33  50  80 111 140 184 227 272 329
#     4   9  17  30  50  78 107 138 183 234 272 312
#     4   9  20  37  56  84 116 143 179 226 279 339
#     4   9  18  35  55  77 101 136 187 232 269 317
#     4  11  22  35  52  76 108 143 178 226 285 338
#     4   9  19  35  59  81 102 138 180 227 275 319
#     4  10  19  32  52  75 105 141 185 235 275 317
#     4  11  18  31  54  80 112 151 188 226 273 320
#
# _framework density 18.864615000000001
#
# number of rings (size 3 to 8) (size 9 to 14) (size 15 to 20)
#    0.000    2.125    3.750    1.875    0.000    3.750 
#    0.000    1.250    0.000    3.750    0.000    1.750 
#    0.000    0.000    0.000    0.000    0.000    0.000 
#
# Total GULP energy -793188.403599 kJ/mol
# GULP energy per Si atom -12393.568806 kJ/mol
# Density = 1.882168 g / cm^3
# Si number density = 18.864615 Si / 1000 Ang^3
#
#
#
# Elastic Constant Matrix: (Units=GPa)
#
#
# Indices 1 2 3 4 5 6 
#
# 1 70.8636 27.8417 10.1637 0.0000 0.0000 0.0000
# 2 27.8417 88.3925 47.6126 0.0000 0.0000 0.0000
# 3 10.1637 47.6126 116.0415 0.0000 0.0000 0.0000
# 4 0.0000 0.0000 0.0000 11.8536 0.0000 0.0000
# 5 0.0000 0.0000 0.0000 0.0000 21.4644 0.0000
# 6 0.0000 0.0000 0.0000 0.0000 0.0000 20.4048
#
#
#
# Elastic Compliance Matrix: (Units=1/GPa)
#
#
# Indices 1 2 3 4 5 6 
#
# 1 0.016172 -0.005560 0.000865 0.000000 0.000000 0.000000
# 2 -0.005560 0.016434 -0.006256 0.000000 0.000000 0.000000
# 3 0.000865 -0.006256 0.011109 0.000000 0.000000 0.000000
# 4 0.000000 0.000000 0.000000 0.084362 0.000000 0.000000
# 5 0.000000 0.000000 0.000000 0.000000 0.046589 0.000000
# 6 0.000000 0.000000 0.000000 0.000000 0.000000 0.049008
#
#
# Mechanical properties :
#
#
# Convention : Reuss Voigt Hill
#
# Bulk Modulus (GPa) = 45.84440 49.61482 47.72961
# Shear Modulus (GPa) = 19.77481 23.38988 21.58234
#
# Velocity S-wave (km/s) = 3.24118 3.52501 3.38607
# Velocity P-wave (km/s) = 6.19367 6.55173 6.37522
#
# Compressibility (1/GPa) = 0.02181291
#
# Stress axis : x y z
#
# Youngs Moduli (GPa) = 61.83564 60.84882 90.01871
#
# Poissons Ratio (x) = 0.33829 -0.07784
# Poissons Ratio (y) = 0.34378 0.56317
# Poissons Ratio (z) = -0.05347 0.38068
#
# Static dielectric constant tensor:
#      x y z
#    x 3.664320 0.000000 0.000000 
#    y 0.000000 3.102350 0.000000 
#    z 0.000000 0.000000 3.461610 
# 
# 
# High freq. dielectric constant tensor:
#      x y z
#    x 1.744410 0.000000 0.000000 
#    y 0.000000 1.686100 0.000000 
#    z 0.000000 0.000000 1.728410 
# 
# From -- ./inp_files/16816.got.cif
#   From: 2010.03.12/outbox.cif.g09.slc.cpg/sg51_9_cif.got.tgz:16816.got - 2010.04.16 13:43:02.
