data_PCOD8208494
_publ_section_title
;
Structure prediction by ZEFSAII (Michael W. Deem and Ramdas Pophale) SiO2 
 PCOD8208494
Probable space group: P M M A
;
_chemical_formula_sum "Si O2"
_cell_formula_units_Z 56
_cell_length_a 8.774183
_cell_length_b 22.739104
_cell_length_c 14.802836
_cell_angle_alpha 90.000000
_cell_angle_beta 90.000000
_cell_angle_gamma 90.000000
_cell_volume 2953.418315
_symmetry_space_group_name_H-M "P M M A"
_symmetry_group_IT_number 51
_symmetry_cell_setting 'orthorhombic'
loop_
_space_group_symop_operation_xyz
x,y,z
1/2-x,-y,z
1/2+x,-y,-z
-x,y,-z
-x,-y,-z
1/2+x,y,-z
1/2-x,y,z
x,-y,z
loop_
_atom_site_type_symbol
_atom_site_label
_atom_site_fract_x
_atom_site_fract_y
_atom_site_fract_z
Si Si1 0.927171 0.664371 0.768612
Si Si2 0.071251 0.233163 0.092393
Si Si3 0.429130 0.711100 0.594017
Si Si4 0.925385 0.934225 0.732022
Si Si5 0.570224 0.845169 0.406244
Si Si6 0.429588 0.433204 0.094380
Si Si7 0.568873 0.108082 0.094911
O O1 0.750000 0.657804 0.746200
O O2 0.960173 0.721668 0.827847
O O3 0.988093 0.607600 0.823659
O O4 0.015797 0.668956 0.674468
O O5 0.250000 0.220940 0.077775
O O6 0.985779 0.173641 0.119292
O O7 0.000000 0.258846 0.000000
O O8 0.500000 0.688748 0.500000
O O9 0.250000 0.706452 0.585091
O O10 0.481522 0.778195 0.613872
O O11 0.750000 0.915206 0.741349
O O12 0.010586 0.887267 0.671119
O O13 0.004846 0.935452 0.829523
O O14 0.939717 0.000000 0.691119
O O15 0.500000 0.867217 0.500000
O O16 0.750000 0.850472 0.412217
O O17 0.250000 0.426480 0.083965
O O18 0.479151 0.500000 0.116020
O O19 0.500000 0.411634 0.000000
O O20 0.750000 0.105504 0.091301
O O21 0.500000 0.087171 0.000000
#
# Coordination Sequence:
#
# PCOD8208494 Si02
#       7
#     8   8   8   8   8   8   8
#     4  10  20  32  50  77 108 142 177 217 264 310
#     4  10  19  31  49  75 107 138 170 211 259 312
#     4  10  21  36  56  81 107 136 170 213 262 314
#     4  11  24  40  57  78 104 135 173 216 260 308
#     4  10  21  38  60  84 109 138 171 209 260 317
#     4   9  18  33  52  76 109 148 187 224 261 303
#     4  11  22  37  56  76 102 136 173 214 262 315
#
# _framework density 18.961079000000002
#
# number of rings (size 3 to 8) (size 9 to 14) (size 15 to 20)
#    0.000    1.857    0.000    5.143    0.000    7.429 
#    0.000    0.000    0.000    0.429    0.000    0.000 
#    0.000    0.000    0.000    0.000    0.000    0.000 
#
# Total GULP energy -694567.052449 kJ/mol
# GULP energy per Si atom -12402.983079 kJ/mol
# Density = 1.891792 g / cm^3
# Si number density = 18.961079 Si / 1000 Ang^3
#
#
#
# Elastic Constant Matrix: (Units=GPa)
#
#
# Indices 1 2 3 4 5 6 
#
# 1 87.3287 27.4690 42.1535 0.0000 0.0000 0.0000
# 2 27.4690 68.7186 55.6422 0.0000 0.0000 0.0000
# 3 42.1535 55.6422 137.7134 0.0000 0.0000 0.0000
# 4 0.0000 0.0000 0.0000 24.1840 0.0000 0.0000
# 5 0.0000 0.0000 0.0000 0.0000 39.0887 0.0000
# 6 0.0000 0.0000 0.0000 0.0000 0.0000 20.4994
#
#
#
# Elastic Compliance Matrix: (Units=1/GPa)
#
#
# Indices 1 2 3 4 5 6 
#
# 1 0.013875 -0.003132 -0.002982 0.000000 0.000000 0.000000
# 2 -0.003132 0.022335 -0.008066 0.000000 0.000000 0.000000
# 3 -0.002982 -0.008066 0.011433 0.000000 0.000000 0.000000
# 4 0.000000 0.000000 0.000000 0.041350 0.000000 0.000000
# 5 0.000000 0.000000 0.000000 0.000000 0.025583 0.000000
# 6 0.000000 0.000000 0.000000 0.000000 0.000000 0.048782
#
#
# Mechanical properties :
#
#
# Convention : Reuss Voigt Hill
#
# Bulk Modulus (GPa) = 51.85496 60.47669 56.16583
# Shear Modulus (GPa) = 25.23409 27.98748 26.61079
#
# Velocity S-wave (km/s) = 3.65202 3.84611 3.75032
# Velocity P-wave (km/s) = 6.72239 7.18942 6.95982
#
# Compressibility (1/GPa) = 0.01928456
#
# Stress axis : x y z
#
# Youngs Moduli (GPa) = 72.06965 44.77310 87.46636
#
# Poissons Ratio (x) = 0.14024 0.26080
# Poissons Ratio (y) = 0.22573 0.70546
# Poissons Ratio (z) = 0.21489 0.36112
#
# Static dielectric constant tensor:
#      x y z
#    x 3.465500 0.000000 0.000000 
#    y 0.000000 3.440650 0.000000 
#    z 0.000000 0.000000 3.553770 
# 
# 
# High freq. dielectric constant tensor:
#      x y z
#    x 1.745930 0.000000 0.000000 
#    y 0.000000 1.720880 0.000000 
#    z 0.000000 0.000000 1.739820 
# 
# From -- ./inp_files/21851.got.cif
#   From: 2010.03.12/outbox.cif.g09.slc.cpg/sg51_11_cif.got.tgz:21851.got - 2010.04.16 13:43:02.
