data_PCOD8208768
_publ_section_title
;
Structure prediction by ZEFSAII (Michael W. Deem and Ramdas Pophale) SiO2 
 PCOD8208768
Probable space group: P M M A
;
_chemical_formula_sum "Si O2"
_cell_formula_units_Z 52
_cell_length_a 9.462178
_cell_length_b 10.345103
_cell_length_c 29.499730
_cell_angle_alpha 90.000000
_cell_angle_beta 90.000000
_cell_angle_gamma 90.000000
_cell_volume 2887.646148
_symmetry_space_group_name_H-M "P M M A"
_symmetry_group_IT_number 51
_symmetry_cell_setting 'orthorhombic'
loop_
_space_group_symop_operation_xyz
x,y,z
1/2-x,-y,z
1/2+x,-y,-z
-x,y,-z
-x,-y,-z
1/2+x,y,-z
1/2-x,y,z
x,-y,z
loop_
_atom_site_type_symbol
_atom_site_label
_atom_site_fract_x
_atom_site_fract_y
_atom_site_fract_z
Si Si1 0.088370 0.348132 0.292890
Si Si2 0.087924 0.500000 0.454298
Si Si3 0.095150 0.146897 0.539258
Si Si4 0.585359 0.350671 0.878464
Si Si5 0.586157 0.853236 0.955093
Si Si6 0.090825 0.653238 0.791153
Si Si7 0.086605 0.742133 0.391609
O O1 0.250000 0.317627 0.279679
O O2 0.067565 0.500000 0.299902
O O3 0.045260 0.279344 0.339474
O O4 0.988370 0.292175 0.253298
O O5 0.250000 0.500000 0.468686
O O6 0.050316 0.619513 0.422290
O O7 0.000000 0.500000 0.500000
O O8 0.250000 0.214929 0.541536
O O9 0.000000 0.215766 0.500000
O O10 0.015223 0.148382 0.587779
O O11 0.118879 0.000000 0.525020
O O12 0.750000 0.335859 0.866151
O O13 0.551740 0.500000 0.892093
O O14 0.540416 0.253267 0.918292
O O15 0.495002 0.304411 0.835505
O O16 0.750000 0.837902 0.967118
O O17 0.554094 0.000000 0.937890
O O18 0.500000 0.821314 0.000000
O O19 0.250000 0.709358 0.793259
O O20 0.093439 0.500000 0.788252
O O21 0.250000 0.782816 0.395647
#
# Coordination Sequence:
#
# PCOD8208768 Si02
#       7
#     8   4   8   8   8   8   8
#     4   9  16  29  48  69  96 129 158 187 229 284
#     4  10  20  32  44  66  98 126 150 182 225 276
#     4  10  21  36  52  69  89 116 153 195 236 278
#     4   9  17  30  48  70  96 128 166 205 247 293
#     4   9  18  32  49  70  98 132 168 204 243 291
#     4   9  17  28  44  69  98 125 156 198 241 281
#     4  10  19  32  50  71  96 123 154 189 229 279
#
# _framework density 18.007747999999999
#
# number of rings (size 3 to 8) (size 9 to 14) (size 15 to 20)
#    0.000    2.615    0.769    1.385    0.000    6.154 
#    0.000    0.000    0.000    0.923    0.000    2.154 
#    0.000    0.000    0.000    0.000    0.000    0.000 
#
# Total GULP energy -644593.498413 kJ/mol
# GULP energy per Si atom -12396.028816 kJ/mol
# Density = 1.796676 g / cm^3
# Si number density = 18.007748 Si / 1000 Ang^3
#
#
#
# Elastic Constant Matrix: (Units=GPa)
#
#
# Indices 1 2 3 4 5 6 
#
# 1 114.5676 32.3788 90.9071 0.0000 0.0000 0.0000
# 2 32.3788 43.2909 45.9875 0.0000 0.0000 0.0000
# 3 90.9071 45.9875 160.3061 0.0000 0.0000 0.0000
# 4 0.0000 0.0000 0.0000 20.2563 0.0000 0.0000
# 5 0.0000 0.0000 0.0000 0.0000 35.8693 0.0000
# 6 0.0000 0.0000 0.0000 0.0000 0.0000 17.1406
#
#
#
# Elastic Compliance Matrix: (Units=1/GPa)
#
#
# Indices 1 2 3 4 5 6 
#
# 1 0.016208 -0.003393 -0.008218 0.000000 0.000000 0.000000
# 2 -0.003393 0.033935 -0.007811 0.000000 0.000000 0.000000
# 3 -0.008218 -0.007811 0.013139 0.000000 0.000000 0.000000
# 4 0.000000 0.000000 0.000000 0.049367 0.000000 0.000000
# 5 0.000000 0.000000 0.000000 0.000000 0.027879 0.000000
# 6 0.000000 0.000000 0.000000 0.000000 0.000000 0.058341
#
#
# Mechanical properties :
#
#
# Convention : Reuss Voigt Hill
#
# Bulk Modulus (GPa) = 40.91921 72.96793 56.94357
# Shear Modulus (GPa) = 20.33684 24.57931 22.45808
#
# Velocity S-wave (km/s) = 3.36421 3.69850 3.53531
# Velocity P-wave (km/s) = 6.15329 7.67117 6.95377
#
# Compressibility (1/GPa) = 0.02443840
#
# Stress axis : x y z
#
# Youngs Moduli (GPa) = 61.69686 29.46851 76.10779
#
# Poissons Ratio (x) = 0.09998 0.62547
# Poissons Ratio (y) = 0.20931 0.59448
# Poissons Ratio (z) = 0.50704 0.23018
#
# Static dielectric constant tensor:
#      x y z
#    x 3.539170 0.000000 0.000000 
#    y 0.000000 3.236760 0.000000 
#    z 0.000000 0.000000 3.418360 
# 
# 
# High freq. dielectric constant tensor:
#      x y z
#    x 1.702690 0.000000 0.000000 
#    y 0.000000 1.663210 0.000000 
#    z 0.000000 0.000000 1.696160 
# 
# From -- ./inp_files/36203.got.cif
#   From: 2010.03.12/outbox.cif.g09.slc.cpg/sg51_19_cif.got.tgz:36203.got - 2010.04.16 13:43:02.
