data_PCOD8208010
_publ_section_title
;
Structure prediction by ZEFSAII (Michael W. Deem and Ramdas Pophale) SiO2 
 PCOD8208010
Probable space group: P M M A
;
_chemical_formula_sum "Si O2"
_cell_formula_units_Z 52
_cell_length_a 9.405454
_cell_length_b 10.641911
_cell_length_c 29.311099
_cell_angle_alpha 90.000000
_cell_angle_beta 90.000000
_cell_angle_gamma 90.000000
_cell_volume 2933.806650
_symmetry_space_group_name_H-M "P M M A"
_symmetry_group_IT_number 51
_symmetry_cell_setting 'orthorhombic'
loop_
_space_group_symop_operation_xyz
x,y,z
1/2-x,-y,z
1/2+x,-y,-z
-x,y,-z
-x,-y,-z
1/2+x,y,-z
1/2-x,y,z
x,-y,z
loop_
_atom_site_type_symbol
_atom_site_label
_atom_site_fract_x
_atom_site_fract_y
_atom_site_fract_z
Si Si1 0.584299 0.144983 0.381639
Si Si2 0.403547 0.644159 0.038355
Si Si3 0.913138 0.000000 0.953494
Si Si4 0.086469 0.787354 0.118929
Si Si5 0.410013 0.148239 0.292169
Si Si6 0.585047 0.642140 0.454167
Si Si7 0.412934 0.149262 0.793506
O O1 0.750000 0.157539 0.368806
O O2 0.491753 0.184088 0.338188
O O3 0.539989 0.247207 0.419537
O O4 0.551842 0.000000 0.397197
O O5 0.250000 0.710649 0.033229
O O6 0.392890 0.500000 0.025728
O O7 0.447088 0.657493 0.091885
O O8 0.500000 0.711698 0.000000
O O9 0.952207 0.116620 0.921277
O O10 0.750000 0.000000 0.967640
O O11 0.000000 0.000000 0.000000
O O12 0.250000 0.802229 0.136330
O O13 0.981546 0.794673 0.161209
O O14 0.250000 0.205225 0.292762
O O15 0.499189 0.202982 0.249611
O O16 0.401126 0.000000 0.287177
O O17 0.500000 0.667665 0.500000
O O18 0.750000 0.654712 0.466079
O O19 0.552510 0.500000 0.435311
O O20 0.250000 0.194187 0.789368
O O21 0.422456 0.000000 0.795603
#
# Coordination Sequence:
#
# PCOD8208010 Si02
#       7
#     8   8   4   8   8   8   8
#     4   9  17  30  48  71  99 129 164 207 251 291
#     4   9  18  32  49  67  86 112 147 185 224 266
#     4  10  20  30  42  62  90 120 146 176 219 268
#     4  10  19  31  46  65  91 120 148 182 224 271
#     4   9  17  29  47  70  96 125 155 192 237 283
#     4   9  18  32  49  70  99 136 173 207 246 293
#     4  10  19  30  46  69  95 123 154 188 228 279
#
# _framework density 17.724412000000001
#
# number of rings (size 3 to 8) (size 9 to 14) (size 15 to 20)
#    0.000    2.615    0.769    1.385    0.000    4.615 
#    0.000    0.000    0.000    0.923    0.000    0.000 
#    0.000    0.000    0.000    0.000    0.000    0.000 
#
# Total GULP energy -644275.709280 kJ/mol
# GULP energy per Si atom -12389.917486 kJ/mol
# Density = 1.768407 g / cm^3
# Si number density = 17.724412 Si / 1000 Ang^3
#
#
#
# Elastic Constant Matrix: (Units=GPa)
#
#
# Indices 1 2 3 4 5 6 
#
# 1 113.9969 34.2717 88.8811 0.0000 0.0000 0.0000
# 2 34.2717 53.0114 50.3155 0.0000 0.0000 0.0000
# 3 88.8811 50.3155 153.4226 0.0000 0.0000 0.0000
# 4 0.0000 0.0000 0.0000 25.8848 0.0000 0.0000
# 5 0.0000 0.0000 0.0000 0.0000 40.1226 0.0000
# 6 0.0000 0.0000 0.0000 0.0000 0.0000 9.9861
#
#
#
# Elastic Compliance Matrix: (Units=1/GPa)
#
#
# Indices 1 2 3 4 5 6 
#
# 1 0.016185 -0.002271 -0.008631 0.000000 0.000000 0.000000
# 2 -0.002271 0.027708 -0.007771 0.000000 0.000000 0.000000
# 3 -0.008631 -0.007771 0.014067 0.000000 0.000000 0.000000
# 4 0.000000 0.000000 0.000000 0.038633 0.000000 0.000000
# 5 0.000000 0.000000 0.000000 0.000000 0.024924 0.000000
# 6 0.000000 0.000000 0.000000 0.000000 0.000000 0.100139
#
#
# Mechanical properties :
#
#
# Convention : Reuss Voigt Hill
#
# Bulk Modulus (GPa) = 48.51451 74.15194 61.33323
# Shear Modulus (GPa) = 18.80599 24.99623 21.90111
#
# Velocity S-wave (km/s) = 3.26087 3.75943 3.51899
# Velocity P-wave (km/s) = 6.45048 7.79560 7.15472
#
# Compressibility (1/GPa) = 0.02061239
#
# Stress axis : x y z
#
# Youngs Moduli (GPa) = 61.78729 36.09047 71.08869
#
# Poissons Ratio (x) = 0.08196 0.61359
# Poissons Ratio (y) = 0.14031 0.55246
# Poissons Ratio (z) = 0.53331 0.28047
#
# Static dielectric constant tensor:
#      x y z
#    x 3.585200 0.000000 0.000000 
#    y 0.000000 3.588140 0.000000 
#    z 0.000000 0.000000 3.272880 
# 
# 
# High freq. dielectric constant tensor:
#      x y z
#    x 1.690920 0.000000 0.000000 
#    y 0.000000 1.657940 0.000000 
#    z 0.000000 0.000000 1.683760 
# 
# From -- ./inp_files/36248.got.cif
#   From: 2010.03.12/outbox.cif.g09.slc.cpg/sg51_19_cif.got.tgz:36248.got - 2010.04.16 13:43:02.
