data_PCOD8208019
_publ_section_title
;
Structure prediction by ZEFSAII (Michael W. Deem and Ramdas Pophale) SiO2 
 PCOD8208019
Probable space group: P M M A
;
_chemical_formula_sum "Si O2"
_cell_formula_units_Z 64
_cell_length_a 14.690395
_cell_length_b 9.562020
_cell_length_c 26.086899
_cell_angle_alpha 90.000000
_cell_angle_beta 90.000000
_cell_angle_gamma 90.000000
_cell_volume 3664.422810
_symmetry_space_group_name_H-M "P M M A"
_symmetry_group_IT_number 51
_symmetry_cell_setting 'orthorhombic'
loop_
_space_group_symop_operation_xyz
x,y,z
1/2-x,-y,z
1/2+x,-y,-z
-x,y,-z
-x,-y,-z
1/2+x,y,-z
1/2-x,y,z
x,-y,z
loop_
_atom_site_type_symbol
_atom_site_label
_atom_site_fract_x
_atom_site_fract_y
_atom_site_fract_z
Si Si1 0.850172 0.666288 0.762029
Si Si2 0.856944 0.340419 0.876174
Si Si3 0.002703 0.834399 0.581222
Si Si4 0.509539 0.163162 0.941749
Si Si5 0.852402 0.834784 0.501730
Si Si6 0.646347 0.838169 0.135666
Si Si7 0.002283 0.663495 0.684701
Si Si8 0.145809 0.340000 0.768670
O O1 0.750000 0.725332 0.748597
O O2 0.848176 0.500000 0.762983
O O3 0.880308 0.715336 0.818833
O O4 0.918807 0.720618 0.718902
O O5 0.750000 0.328491 0.886273
O O6 0.889780 0.500000 0.882909
O O7 0.907087 0.244667 0.916997
O O8 0.910276 0.788905 0.551626
O O9 0.091706 0.788224 0.548722
O O10 0.006187 0.752477 0.633759
O O11 0.003431 0.000000 0.591273
O O12 0.415083 0.198569 0.913218
O O13 0.532989 0.000000 0.938649
O O14 0.500000 0.213674 0.000000
O O15 0.750000 0.768590 0.502410
O O16 0.844460 0.000000 0.501589
O O17 0.750000 0.794987 0.122208
O O18 0.609261 0.752703 0.184445
O O19 0.639646 0.000000 0.150444
O O20 0.991440 0.500000 0.671207
O O21 0.093481 0.693677 0.716427
O O22 0.250000 0.305129 0.756824
O O23 0.130096 0.500000 0.785113
#
# Coordination Sequence:
#
# PCOD8208019 Si02
#       8
#     8   8   8   8   8   8   8   8
#     4   8  15  29  48  68  91 123 159 188 223 278
#     4   9  18  34  55  75  95 124 165 208 243 280
#     4   9  18  31  48  71  93 117 155 194 226 268
#     4  10  21  34  49  72 100 130 161 195 244 301
#     4   8  15  31  52  68  87 120 158 193 229 268
#     4   9  18  33  51  70  94 125 163 205 242 280
#     4  10  19  30  46  69  99 128 149 182 233 280
#     4   9  18  32  49  69  93 124 160 192 230 284
#
# _framework density 17.465233000000001
#
# number of rings (size 3 to 8) (size 9 to 14) (size 15 to 20)
#    0.000    3.000    0.000    2.250    0.000    4.000 
#    0.000    3.125    0.000    3.000    0.000    0.000 
#    0.000    0.000    0.000    0.000    0.000    0.000 
#
# Total GULP energy -793432.200818 kJ/mol
# GULP energy per Si atom -12397.378138 kJ/mol
# Density = 1.742548 g / cm^3
# Si number density = 17.465233 Si / 1000 Ang^3
#
#
#
# Elastic Constant Matrix: (Units=GPa)
#
#
# Indices 1 2 3 4 5 6 
#
# 1 112.6982 38.5440 76.8215 0.0000 0.0000 0.0000
# 2 38.5440 45.5262 59.0146 0.0000 0.0000 0.0000
# 3 76.8215 59.0146 163.9010 0.0000 0.0000 0.0000
# 4 0.0000 0.0000 0.0000 19.4931 0.0000 0.0000
# 5 0.0000 0.0000 0.0000 0.0000 18.2514 0.0000
# 6 0.0000 0.0000 0.0000 0.0000 0.0000 19.8340
#
#
#
# Elastic Compliance Matrix: (Units=1/GPa)
#
#
# Indices 1 2 3 4 5 6 
#
# 1 0.013925 -0.006243 -0.004279 0.000000 0.000000 0.000000
# 2 -0.006243 0.043989 -0.012913 0.000000 0.000000 0.000000
# 3 -0.004279 -0.012913 0.012756 0.000000 0.000000 0.000000
# 4 0.000000 0.000000 0.000000 0.051300 0.000000 0.000000
# 5 0.000000 0.000000 0.000000 0.000000 0.054790 0.000000
# 6 0.000000 0.000000 0.000000 0.000000 0.000000 0.050418
#
#
# Mechanical properties :
#
#
# Convention : Reuss Voigt Hill
#
# Bulk Modulus (GPa) = 42.01408 74.54285 58.27847
# Shear Modulus (GPa) = 17.73156 21.36539 19.54848
#
# Velocity S-wave (km/s) = 3.18975 3.50138 3.34919
# Velocity P-wave (km/s) = 6.13792 7.68893 6.95678
#
# Compressibility (1/GPa) = 0.02380154
#
# Stress axis : x y z
#
# Youngs Moduli (GPa) = 71.81241 22.73278 78.39221
#
# Poissons Ratio (x) = 0.14191 0.33545
# Poissons Ratio (y) = 0.44830 1.01228
# Poissons Ratio (z) = 0.30729 0.29355
#
# Static dielectric constant tensor:
#      x y z
#    x 3.677810 0.000000 0.000000 
#    y 0.000000 2.968160 0.000000 
#    z 0.000000 0.000000 3.221550 
# 
# 
# High freq. dielectric constant tensor:
#      x y z
#    x 1.687180 0.000000 0.000000 
#    y 0.000000 1.644690 0.000000 
#    z 0.000000 0.000000 1.672260 
# 
# From -- ./inp_files/35621.got.cif
#   From: 2010.03.12/outbox.cif.g09.slc.cpg/sg51_18_cif.got.tgz:35621.got - 2010.04.16 13:43:02.
