data_PCOD8208026
_publ_section_title
;
Structure prediction by ZEFSAII (Michael W. Deem and Ramdas Pophale) SiO2 
 PCOD8208026
Probable space group: P M M A
;
_chemical_formula_sum "Si O2"
_cell_formula_units_Z 64
_cell_length_a 9.115965
_cell_length_b 14.953636
_cell_length_c 24.856030
_cell_angle_alpha 90.000000
_cell_angle_beta 90.000000
_cell_angle_gamma 90.000000
_cell_volume 3388.295027
_symmetry_space_group_name_H-M "P M M A"
_symmetry_group_IT_number 51
_symmetry_cell_setting 'orthorhombic'
loop_
_space_group_symop_operation_xyz
x,y,z
1/2-x,-y,z
1/2+x,-y,-z
-x,y,-z
-x,-y,-z
1/2+x,y,-z
1/2-x,y,z
x,-y,z
loop_
_atom_site_type_symbol
_atom_site_label
_atom_site_fract_x
_atom_site_fract_y
_atom_site_fract_z
Si Si1 0.421518 0.715655 0.145174
Si Si2 0.577986 0.398056 0.056020
Si Si3 0.917109 0.136726 0.300849
Si Si4 0.418260 0.900516 0.192019
Si Si5 0.416767 0.096047 0.403701
Si Si6 0.576197 0.716490 0.553973
Si Si7 0.584663 0.400943 0.754733
Si Si8 0.581713 0.665282 0.341027
O O1 0.250000 0.697576 0.133766
O O2 0.516791 0.673187 0.098148
O O3 0.457558 0.822045 0.149258
O O4 0.471253 0.669360 0.200927
O O5 0.750000 0.381961 0.048800
O O6 0.545526 0.500000 0.074964
O O7 0.500000 0.378258 0.000000
O O8 0.750000 0.106399 0.299331
O O9 0.935715 0.241188 0.310971
O O10 0.986248 0.108683 0.244921
O O11 0.992494 0.084831 0.349368
O O12 0.250000 0.888210 0.209567
O O13 0.444393 0.000000 0.166663
O O14 0.250000 0.115729 0.386824
O O15 0.470382 0.178719 0.440239
O O16 0.431105 0.000000 0.434573
O O17 0.500000 0.680113 0.500000
O O18 0.750000 0.702010 0.550275
O O19 0.511568 0.661341 0.604077
O O20 0.750000 0.375556 0.737164
O O21 0.578752 0.500000 0.780485
O O22 0.483700 0.404102 0.701659
O O23 0.750000 0.642242 0.354676
#
# Coordination Sequence:
#
# PCOD8208026 Si02
#       8
#     8   8   8   8   8   8   8   8
#     4  10  20  35  56  82 117 154 189 230 275 322
#     4  10  21  37  59  87 118 152 190 231 277 330
#     4  10  19  30  46  70 100 135 176 222 267 313
#     4  10  20  33  51  75 106 148 193 231 270 320
#     4   9  18  31  46  65  92 128 168 211 263 323
#     4  10  20  34  52  71  94 127 170 217 267 323
#     4  10  20  34  55  83 112 144 179 215 266 330
#     4  10  20  34  52  74 103 137 174 215 264 321
#
# _framework density 18.888555
#
# number of rings (size 3 to 8) (size 9 to 14) (size 15 to 20)
#    0.000    2.125    1.250    2.250    0.000    6.250 
#    0.000    0.000    0.000    0.750    0.000    0.000 
#    0.000    0.000    0.000    0.000    0.000    0.000 
#
# Total GULP energy -793433.019387 kJ/mol
# GULP energy per Si atom -12397.390928 kJ/mol
# Density = 1.884556 g / cm^3
# Si number density = 18.888555 Si / 1000 Ang^3
#
#
#
# Elastic Constant Matrix: (Units=GPa)
#
#
# Indices 1 2 3 4 5 6 
#
# 1 92.6828 32.7772 56.5094 0.0000 0.0000 0.0000
# 2 32.7772 86.1837 45.1835 0.0000 0.0000 0.0000
# 3 56.5094 45.1835 107.0332 0.0000 0.0000 0.0000
# 4 0.0000 0.0000 0.0000 14.8131 0.0000 0.0000
# 5 0.0000 0.0000 0.0000 0.0000 34.5626 0.0000
# 6 0.0000 0.0000 0.0000 0.0000 0.0000 17.6883
#
#
#
# Elastic Compliance Matrix: (Units=1/GPa)
#
#
# Indices 1 2 3 4 5 6 
#
# 1 0.016217 -0.002156 -0.007652 0.000000 0.000000 0.000000
# 2 -0.002156 0.015188 -0.005273 0.000000 0.000000 0.000000
# 3 -0.007652 -0.005273 0.015609 0.000000 0.000000 0.000000
# 4 0.000000 0.000000 0.000000 0.067508 0.000000 0.000000
# 5 0.000000 0.000000 0.000000 0.000000 0.028933 0.000000
# 6 0.000000 0.000000 0.000000 0.000000 0.000000 0.056535
#
#
# Mechanical properties :
#
#
# Convention : Reuss Voigt Hill
#
# Bulk Modulus (GPa) = 59.34133 61.64886 60.49509
# Shear Modulus (GPa) = 21.20723 23.50811 22.35767
#
# Velocity S-wave (km/s) = 3.35439 3.53167 3.44417
# Velocity P-wave (km/s) = 6.81816 7.02420 6.92195
#
# Compressibility (1/GPa) = 0.01685166
#
# Stress axis : x y z
#
# Youngs Moduli (GPa) = 61.66184 65.84312 64.06619
#
# Poissons Ratio (x) = 0.14196 0.49024
# Poissons Ratio (y) = 0.13295 0.33782
# Poissons Ratio (z) = 0.47184 0.34719
#
# Static dielectric constant tensor:
#      x y z
#    x 3.471680 0.000000 0.000000 
#    y 0.000000 3.553960 0.000000 
#    z 0.000000 0.000000 3.176730 
# 
# 
# High freq. dielectric constant tensor:
#      x y z
#    x 1.737990 0.000000 0.000000 
#    y 0.000000 1.731060 0.000000 
#    z 0.000000 0.000000 1.705460 
# 
# From -- ./inp_files/35018.got.cif
#   From: 2010.03.12/outbox.cif.g09.slc.cpg/sg51_18_cif.got.tgz:35018.got - 2010.04.16 13:43:02.
