data_PCOD8208347
_publ_section_title
;
Structure prediction by ZEFSAII (Michael W. Deem and Ramdas Pophale) SiO2 
 PCOD8208347
Probable space group: P M M A
;
_chemical_formula_sum "Si O2"
_cell_formula_units_Z 44
_cell_length_a 8.996863
_cell_length_b 15.313257
_cell_length_c 17.552552
_cell_angle_alpha 90.000000
_cell_angle_beta 90.000000
_cell_angle_gamma 90.000000
_cell_volume 2418.237474
_symmetry_space_group_name_H-M "P M M A"
_symmetry_group_IT_number 51
_symmetry_cell_setting 'orthorhombic'
loop_
_space_group_symop_operation_xyz
x,y,z
1/2-x,-y,z
1/2+x,-y,-z
-x,y,-z
-x,-y,-z
1/2+x,y,-z
1/2-x,y,z
x,-y,z
loop_
_atom_site_type_symbol
_atom_site_label
_atom_site_fract_x
_atom_site_fract_y
_atom_site_fract_z
Si Si1 0.419463 0.350472 0.421965
Si Si2 0.580690 0.824601 0.656490
Si Si3 0.078254 0.000000 0.421511
Si Si4 0.922661 0.228584 0.196623
Si Si5 0.078795 0.402998 0.730715
Si Si6 0.575397 0.901135 0.919224
O O1 0.500000 0.378604 0.500000
O O2 0.250000 0.381578 0.428963
O O3 0.431346 0.246230 0.410889
O O4 0.487249 0.396042 0.347407
O O5 0.750000 0.826103 0.689328
O O6 0.529175 0.916559 0.625368
O O7 0.459793 0.808068 0.720760
O O8 0.000000 0.000000 0.500000
O O9 0.250000 0.000000 0.439118
O O10 0.750000 0.215469 0.177029
O O11 0.966556 0.332189 0.203607
O O12 0.017473 0.175308 0.135423
O O13 0.250000 0.386653 0.708767
O O14 0.053369 0.500000 0.764986
O O15 0.750000 0.888830 0.928969
O O16 0.539698 0.000000 0.888697
O O17 0.500000 0.886730 0.000000
#
# Coordination Sequence:
#
# PCOD8208347 Si02
#       6
#     8   8   4   8   8   8
#     4  10  19  31  48  69  96 130 171 221 273 322
#     4   9  19  33  47  67  96 133 174 214 259 312
#     4  10  20  32  46  64  91 128 171 216 260 304
#     4  10  20  34  55  81 107 136 172 214 258 307
#     4   9  19  36  55  75 101 135 175 218 266 317
#     4  10  21  37  58  84 115 147 175 207 248 298
#
# _framework density 18.195070000000001
#
# number of rings (size 3 to 8) (size 9 to 14) (size 15 to 20)
#    0.000    2.364    0.000    2.182    1.273    4.000 
#    0.000    0.000    0.000    0.545    0.000    0.000 
#    0.000    0.000    0.000    0.000    0.000    0.000 
#
# Total GULP energy -545361.771436 kJ/mol
# GULP energy per Si atom -12394.585714 kJ/mol
# Density = 1.815366 g / cm^3
# Si number density = 18.195070 Si / 1000 Ang^3
#
#
#
# Elastic Constant Matrix: (Units=GPa)
#
#
# Indices 1 2 3 4 5 6 
#
# 1 83.4597 48.7881 46.2979 0.0000 0.0000 0.0000
# 2 48.7881 147.7848 51.5220 0.0000 0.0000 0.0000
# 3 46.2979 51.5220 77.1091 0.0000 0.0000 0.0000
# 4 0.0000 0.0000 0.0000 23.4397 0.0000 0.0000
# 5 0.0000 0.0000 0.0000 0.0000 35.8236 0.0000
# 6 0.0000 0.0000 0.0000 0.0000 0.0000 21.2991
#
#
#
# Elastic Compliance Matrix: (Units=1/GPa)
#
#
# Indices 1 2 3 4 5 6 
#
# 1 0.018922 -0.002980 -0.009370 0.000000 0.000000 0.000000
# 2 -0.002980 0.009291 -0.004419 0.000000 0.000000 0.000000
# 3 -0.009370 -0.004419 0.021547 0.000000 0.000000 0.000000
# 4 0.000000 0.000000 0.000000 0.042663 0.000000 0.000000
# 5 0.000000 0.000000 0.000000 0.000000 0.027915 0.000000
# 6 0.000000 0.000000 0.000000 0.000000 0.000000 0.046950
#
#
# Mechanical properties :
#
#
# Convention : Reuss Voigt Hill
#
# Bulk Modulus (GPa) = 61.64280 66.84106 64.24193
# Shear Modulus (GPa) = 24.24468 26.89554 25.57011
#
# Velocity S-wave (km/s) = 3.65428 3.84888 3.75284
# Velocity P-wave (km/s) = 7.19426 7.52113 7.35951
#
# Compressibility (1/GPa) = 0.01622250
#
# Stress axis : x y z
#
# Youngs Moduli (GPa) = 52.84967 107.63299 46.41059
#
# Poissons Ratio (x) = 0.32075 0.43486
# Poissons Ratio (y) = 0.15749 0.20507
# Poissons Ratio (z) = 0.49519 0.47559
#
# Static dielectric constant tensor:
#      x y z
#    x 3.409000 0.000000 0.000000 
#    y 0.000000 3.799080 0.000000 
#    z 0.000000 0.000000 3.112580 
# 
# 
# High freq. dielectric constant tensor:
#      x y z
#    x 1.713390 0.000000 0.000000 
#    y 0.000000 1.716820 0.000000 
#    z 0.000000 0.000000 1.675140 
# 
# From -- ./inp_files/27373.got.cif
#   From: 2010.03.12/outbox.cif.g09.slc.cpg/sg51_14_cif.got.tgz:27373.got - 2010.04.16 13:43:02.
