data_PCOD8208356
_publ_section_title
;
Structure prediction by ZEFSAII (Michael W. Deem and Ramdas Pophale) SiO2 
 PCOD8208356
Probable space group: P M M A
;
_chemical_formula_sum "Si O2"
_cell_formula_units_Z 48
_cell_length_a 9.062422
_cell_length_b 13.691848
_cell_length_c 23.641183
_cell_angle_alpha 90.000000
_cell_angle_beta 90.000000
_cell_angle_gamma 90.000000
_cell_volume 2933.428827
_symmetry_space_group_name_H-M "P M M A"
_symmetry_group_IT_number 51
_symmetry_cell_setting 'orthorhombic'
loop_
_space_group_symop_operation_xyz
x,y,z
1/2-x,-y,z
1/2+x,-y,-z
-x,y,-z
-x,-y,-z
1/2+x,y,-z
1/2-x,y,z
x,-y,z
loop_
_atom_site_type_symbol
_atom_site_label
_atom_site_fract_x
_atom_site_fract_y
_atom_site_fract_z
Si Si1 0.422492 0.720611 0.667759
Si Si2 0.923620 0.781590 0.839551
Si Si3 0.422933 0.887406 0.941615
Si Si4 0.923935 0.611909 0.443465
Si Si5 0.576982 0.889656 0.725220
Si Si6 0.578230 0.612579 0.218421
O O1 0.250000 0.740291 0.664286
O O2 0.481980 0.674538 0.609561
O O3 0.500219 0.824427 0.677363
O O4 0.460929 0.645476 0.717963
O O5 0.750000 0.779788 0.851506
O O6 0.965420 0.851921 0.787484
O O7 0.007958 0.819920 0.893933
O O8 0.980478 0.672672 0.826220
O O9 0.250000 0.866413 0.946866
O O10 0.455028 0.000000 0.926461
O O11 0.500000 0.858424 0.000000
O O12 0.750000 0.621636 0.450492
O O13 0.970747 0.500000 0.432988
O O14 0.000000 0.653225 0.500000
O O15 0.750000 0.882931 0.715399
O O16 0.518914 0.000000 0.719198
O O17 0.750000 0.631014 0.205457
O O18 0.535189 0.500000 0.211781
#
# Coordination Sequence:
#
# PCOD8208356 Si02
#       6
#     8   8   8   8   8   8
#     4   9  17  29  46  68  92 119 152 189 228 270
#     4  10  19  31  48  70  97 126 155 189 229 274
#     4  10  20  33  50  72  97 125 157 192 230 273
#     4   9  17  29  45  66  92 120 149 183 225 272
#     4   9  18  31  46  66  93 123 152 185 228 273
#     4   9  17  30  48  69  94 124 156 190 229 273
#
# _framework density 16.363102999999999
#
# number of rings (size 3 to 8) (size 9 to 14) (size 15 to 20)
#    0.000    2.667    0.000    2.000    0.000    5.667 
#    0.000    0.000    0.000    4.000    0.000    0.000 
#    0.000    0.000    0.000    0.000    0.000    0.000 
#
# Total GULP energy -595290.847546 kJ/mol
# GULP energy per Si atom -12401.892657 kJ/mol
# Density = 1.632586 g / cm^3
# Si number density = 16.363103 Si / 1000 Ang^3
#
#
#
# Elastic Constant Matrix: (Units=GPa)
#
#
# Indices 1 2 3 4 5 6 
#
# 1 56.4311 46.2560 52.6379 0.0000 0.0000 0.0000
# 2 46.2560 124.7355 72.1232 0.0000 0.0000 0.0000
# 3 52.6379 72.1232 128.7470 0.0000 0.0000 0.0000
# 4 0.0000 0.0000 0.0000 27.3911 0.0000 0.0000
# 5 0.0000 0.0000 0.0000 0.0000 29.8901 0.0000
# 6 0.0000 0.0000 0.0000 0.0000 0.0000 27.7823
#
#
#
# Elastic Compliance Matrix: (Units=1/GPa)
#
#
# Indices 1 2 3 4 5 6 
#
# 1 0.031670 -0.006297 -0.009420 0.000000 0.000000 0.000000
# 2 -0.006297 0.013110 -0.004770 0.000000 0.000000 0.000000
# 3 -0.009420 -0.004770 0.014291 0.000000 0.000000 0.000000
# 4 0.000000 0.000000 0.000000 0.036508 0.000000 0.000000
# 5 0.000000 0.000000 0.000000 0.000000 0.033456 0.000000
# 6 0.000000 0.000000 0.000000 0.000000 0.000000 0.035994
#
#
# Mechanical properties :
#
#
# Convention : Reuss Voigt Hill
#
# Bulk Modulus (GPa) = 55.26113 72.43863 63.84988
# Shear Modulus (GPa) = 23.58106 26.27246 24.92676
#
# Velocity S-wave (km/s) = 3.80032 4.01133 3.90725
# Velocity P-wave (km/s) = 7.28709 8.11295 7.71108
#
# Compressibility (1/GPa) = 0.01809590
#
# Stress axis : x y z
#
# Youngs Moduli (GPa) = 31.57598 76.27800 69.97632
#
# Poissons Ratio (x) = 0.48033 0.65921
# Poissons Ratio (y) = 0.19884 0.33375
# Poissons Ratio (z) = 0.29746 0.36381
#
# Static dielectric constant tensor:
#      x y z
#    x 3.068220 0.000000 0.000000 
#    y 0.000000 3.108630 0.000000 
#    z 0.000000 0.000000 3.075770 
# 
# 
# High freq. dielectric constant tensor:
#      x y z
#    x 1.631830 0.000000 0.000000 
#    y 0.000000 1.620890 0.000000 
#    z 0.000000 0.000000 1.621360 
# 
# From -- ./inp_files/31564.got.cif
#   From: 2010.03.12/outbox.cif.g09.slc.cpg/sg51_16_cif.got.tgz:31564.got - 2010.04.16 13:43:02.
