data_PCOD8208155
_publ_section_title
;
Structure prediction by ZEFSAII (Michael W. Deem and Ramdas Pophale) SiO2 
 PCOD8208155
Probable space group: P M M A
;
_chemical_formula_sum "Si O2"
_cell_formula_units_Z 48
_cell_length_a 19.305388
_cell_length_b 9.213332
_cell_length_c 15.084395
_cell_angle_alpha 90.000000
_cell_angle_beta 90.000000
_cell_angle_gamma 90.000000
_cell_volume 2683.015317
_symmetry_space_group_name_H-M "P M M A"
_symmetry_group_IT_number 51
_symmetry_cell_setting 'orthorhombic'
loop_
_space_group_symop_operation_xyz
x,y,z
1/2-x,-y,z
1/2+x,-y,-z
-x,y,-z
-x,-y,-z
1/2+x,y,-z
1/2-x,y,z
x,-y,z
loop_
_atom_site_type_symbol
_atom_site_label
_atom_site_fract_x
_atom_site_fract_y
_atom_site_fract_z
Si Si1 0.064625 0.827461 0.226343
Si Si2 0.090199 0.827808 0.734631
Si Si3 0.829898 0.666676 0.113327
Si Si4 0.172528 0.827544 0.567250
Si Si5 0.929364 0.332086 0.954015
Si Si6 0.672294 0.172541 0.629365
O O1 0.085641 0.761278 0.132641
O O2 0.118243 0.765517 0.299215
O O3 0.988434 0.774192 0.254905
O O4 0.068260 0.000000 0.218901
O O5 0.136791 0.766895 0.812810
O O6 0.119029 0.767930 0.640654
O O7 0.095085 0.000000 0.739062
O O8 0.750000 0.708308 0.102689
O O9 0.840279 0.500000 0.141877
O O10 0.865618 0.696467 0.019298
O O11 0.250000 0.772472 0.590644
O O12 0.151165 0.771641 0.469135
O O13 0.171728 0.000000 0.567432
O O14 0.936386 0.500000 0.926874
O O15 0.000000 0.277757 0.000000
O O16 0.750000 0.226255 0.652908
O O17 0.670091 0.000000 0.630440
#
# Coordination Sequence:
#
# PCOD8208155 Si02
#       6
#     8   8   8   8   8   8
#     4  10  20  31  49  77 102 127 162 206 249 288
#     4  10  19  30  48  76 105 129 159 201 246 291
#     4  10  21  36  53  73  96 126 166 205 242 292
#     4   8  14  26  45  68  97 133 165 195 238 290
#     4  10  20  36  54  69  92 131 167 196 242 299
#     4   8  15  29  47  69 100 134 166 201 243 290
#
# _framework density 17.890319000000002
#
# number of rings (size 3 to 8) (size 9 to 14) (size 15 to 20)
#    0.000    2.667    1.667    1.500    0.000    3.333 
#    0.000    3.333    0.000    1.000    0.000    4.667 
#    0.000    0.000    0.000    0.000    0.000    0.000 
#
# Total GULP energy -595120.831772 kJ/mol
# GULP energy per Si atom -12398.350662 kJ/mol
# Density = 1.784960 g / cm^3
# Si number density = 17.890319 Si / 1000 Ang^3
#
#
#
# Elastic Constant Matrix: (Units=GPa)
#
#
# Indices 1 2 3 4 5 6 
#
# 1 139.5848 20.6400 82.5531 0.0000 0.0000 0.0000
# 2 20.6400 13.3301 24.5689 0.0000 0.0000 0.0000
# 3 82.5531 24.5689 145.7240 0.0000 0.0000 0.0000
# 4 0.0000 0.0000 0.0000 -5.5843 0.0000 0.0000
# 5 0.0000 0.0000 0.0000 0.0000 39.6992 0.0000
# 6 0.0000 0.0000 0.0000 0.0000 0.0000 16.9509
#
#
#
# Elastic Compliance Matrix: (Units=1/GPa)
#
#
# Indices 1 2 3 4 5 6 
#
# 1 0.011376 -0.008323 -0.005042 0.000000 0.000000 0.000000
# 2 -0.008323 0.114929 -0.014662 0.000000 0.000000 0.000000
# 3 -0.005042 -0.014662 0.012190 0.000000 0.000000 0.000000
# 4 0.000000 0.000000 0.000000 -0.179073 0.000000 0.000000
# 5 0.000000 0.000000 0.000000 0.000000 0.025189 0.000000
# 6 0.000000 0.000000 0.000000 0.000000 0.000000 0.058994
#
#
# Mechanical properties :
#
#
# Convention : Reuss Voigt Hill
#
# Bulk Modulus (GPa) = 12.12960 61.57365 36.85163
# Shear Modulus (GPa) = 39.32695 21.60496 30.46596
#
# Velocity S-wave (km/s) = 4.69361 3.47887 4.13113
# Velocity P-wave (km/s) = 6.01398 7.11539 6.58774
#
# Compressibility (1/GPa) = 0.08244295
#
# Stress axis : x y z
#
# Youngs Moduli (GPa) = 87.90079 8.70103 82.03219
#
# Poissons Ratio (x) = 0.07242 0.41357
# Poissons Ratio (y) = 0.73159 1.20275
# Poissons Ratio (z) = 0.44316 0.12757
#
# Static dielectric constant tensor:
#      x y z
#    x 3.575580 0.000000 0.000000 
#    y 0.000000 2.893740 0.000000 
#    z 0.000000 0.000000 3.527450 
# 
# 
# High freq. dielectric constant tensor:
#      x y z
#    x 1.700910 0.000000 0.000000 
#    y 0.000000 1.647080 0.000000 
#    z 0.000000 0.000000 1.703010 
# 
# From -- ./inp_files/17316.got.cif
#   From: 2010.03.12/outbox.cif.g09.slc.cpg/sg51_9_cif.got.tgz:17316.got - 2010.04.16 13:43:02.
