data_PCOD8208077
_publ_section_title
;
Structure prediction by ZEFSAII (Michael W. Deem and Ramdas Pophale) SiO2 
 PCOD8208077
Probable space group: P M M A
;
_chemical_formula_sum "Si O2"
_cell_formula_units_Z 64
_cell_length_a 23.328303
_cell_length_b 9.085526
_cell_length_c 18.955714
_cell_angle_alpha 90.000000
_cell_angle_beta 90.000000
_cell_angle_gamma 90.000000
_cell_volume 4017.661752
_symmetry_space_group_name_H-M "P M M A"
_symmetry_group_IT_number 51
_symmetry_cell_setting 'orthorhombic'
loop_
_space_group_symop_operation_xyz
x,y,z
1/2-x,-y,z
1/2+x,-y,-z
-x,y,-z
-x,-y,-z
1/2+x,y,-z
1/2-x,y,z
x,-y,z
loop_
_atom_site_type_symbol
_atom_site_label
_atom_site_fract_x
_atom_site_fract_y
_atom_site_fract_z
Si Si1 0.132782 0.674222 0.749130
Si Si2 0.814891 0.830677 0.382679
Si Si3 0.022727 0.673218 0.403002
Si Si4 0.418489 0.826217 0.521085
Si Si5 0.980103 0.827580 0.889946
Si Si6 0.503110 0.670524 0.247184
Si Si7 0.815142 0.673786 0.103510
Si Si8 0.910126 0.827175 0.023140
O O1 0.134733 0.500000 0.742718
O O2 0.169312 0.736198 0.685017
O O3 0.161308 0.730123 0.821444
O O4 0.067673 0.733325 0.745820
O O5 0.750000 0.794773 0.405909
O O6 0.855321 0.792593 0.449201
O O7 0.822538 0.000000 0.361073
O O8 0.019192 0.500000 0.420600
O O9 0.075678 0.749621 0.444168
O O10 0.031042 0.699283 0.319706
O O11 0.964144 0.751087 0.426904
O O12 0.430858 0.000000 0.515306
O O13 0.968916 0.749964 0.815393
O O14 0.040432 0.774306 0.922889
O O15 0.981771 0.000000 0.877163
O O16 0.928892 0.786185 0.943537
O O17 0.505937 0.500000 0.228081
O O18 0.750000 0.726819 0.094957
O O19 0.820599 0.500000 0.098008
O O20 0.851450 0.744091 0.040197
O O21 0.900375 0.000000 0.030524
#
# Coordination Sequence:
#
# PCOD8208077 Si02
#       8
#     8   8   8   8   8   8   8   8
#     4  10  19  32  46  65  95 129 163 192 223 267
#     4  10  21  34  47  66  93 125 161 197 230 268
#     4  10  19  31  47  67  94 121 151 191 232 276
#     4  10  19  31  47  67  90 120 157 193 232 275
#     4   9  18  31  48  68  93 121 152 192 234 277
#     4  10  19  30  47  71  95 123 155 187 231 278
#     4  10  20  32  46  66  93 126 162 196 227 265
#     4   9  18  32  47  67  92 121 156 193 233 273
#
# _framework density 15.929663
#
# number of rings (size 3 to 8) (size 9 to 14) (size 15 to 20)
#    0.000    2.250    2.500    2.625    0.000    4.000 
#    0.000    1.250    0.000    0.000    0.000    0.875 
#    0.000    3.000    0.000    0.000    0.000    0.000 
#
# Total GULP energy -793574.332675 kJ/mol
# GULP energy per Si atom -12399.598948 kJ/mol
# Density = 1.589341 g / cm^3
# Si number density = 15.929663 Si / 1000 Ang^3
#
#
#
# Elastic Constant Matrix: (Units=GPa)
#
#
# Indices 1 2 3 4 5 6 
#
# 1 94.0632 33.5755 60.1078 0.0000 0.0000 0.0000
# 2 33.5755 53.8476 48.2856 0.0000 0.0000 0.0000
# 3 60.1078 48.2856 125.3109 0.0000 0.0000 0.0000
# 4 0.0000 0.0000 0.0000 29.5802 0.0000 0.0000
# 5 0.0000 0.0000 0.0000 0.0000 24.6546 0.0000
# 6 0.0000 0.0000 0.0000 0.0000 0.0000 20.8429
#
#
#
# Elastic Compliance Matrix: (Units=1/GPa)
#
#
# Indices 1 2 3 4 5 6 
#
# 1 0.016089 -0.004755 -0.005885 0.000000 0.000000 0.000000
# 2 -0.004755 0.029780 -0.009195 0.000000 0.000000 0.000000
# 3 -0.005885 -0.009195 0.014346 0.000000 0.000000 0.000000
# 4 0.000000 0.000000 0.000000 0.033806 0.000000 0.000000
# 5 0.000000 0.000000 0.000000 0.000000 0.040560 0.000000
# 6 0.000000 0.000000 0.000000 0.000000 0.000000 0.047978
#
#
# Mechanical properties :
#
#
# Convention : Reuss Voigt Hill
#
# Bulk Modulus (GPa) = 48.66987 61.90661 55.28824
# Shear Modulus (GPa) = 21.82660 23.76573 22.79617
#
# Velocity S-wave (km/s) = 3.70562 3.86672 3.78703
# Velocity P-wave (km/s) = 6.99486 7.67348 7.34201
#
# Compressibility (1/GPa) = 0.02054659
#
# Stress axis : x y z
#
# Youngs Moduli (GPa) = 62.15377 33.57915 69.70527
#
# Poissons Ratio (x) = 0.15965 0.41024
# Poissons Ratio (y) = 0.29551 0.64091
# Poissons Ratio (z) = 0.36580 0.30875
#
# Static dielectric constant tensor:
#      x y z
#    x 2.953470 0.000000 0.000000 
#    y 0.000000 2.981400 0.000000 
#    z 0.000000 0.000000 3.058300 
# 
# 
# High freq. dielectric constant tensor:
#      x y z
#    x 1.586050 0.000000 0.000000 
#    y 0.000000 1.614640 0.000000 
#    z 0.000000 0.000000 1.607830 
# 
# From -- ./inp_files/34054.got.cif
#   From: 2010.03.12/outbox.cif.g09.slc.cpg/sg51_18_cif.got.tgz:34054.got - 2010.04.16 13:43:02.
