data_PCOD8208244
_publ_section_title
;
Structure prediction by ZEFSAII (Michael W. Deem and Ramdas Pophale) SiO2 
 PCOD8208244
Probable space group: P M M A
;
_chemical_formula_sum "Si O2"
_cell_formula_units_Z 52
_cell_length_a 9.001493
_cell_length_b 18.441799
_cell_length_c 18.619825
_cell_angle_alpha 90.000000
_cell_angle_beta 90.000000
_cell_angle_gamma 90.000000
_cell_volume 3090.960302
_symmetry_space_group_name_H-M "P M M A"
_symmetry_group_IT_number 51
_symmetry_cell_setting 'orthorhombic'
loop_
_space_group_symop_operation_xyz
x,y,z
1/2-x,-y,z
1/2+x,-y,-z
-x,y,-z
-x,-y,-z
1/2+x,y,-z
1/2-x,y,z
x,-y,z
loop_
_atom_site_type_symbol
_atom_site_label
_atom_site_fract_x
_atom_site_fract_y
_atom_site_fract_z
Si Si1 0.074812 0.794347 0.345637
Si Si2 0.081631 0.416895 0.712026
Si Si3 0.923119 0.658295 0.076988
Si Si4 0.081006 0.500000 0.926447
Si Si5 0.080010 0.666247 0.571571
Si Si6 0.078080 0.706950 0.208667
Si Si7 0.423318 0.915974 0.574544
O O1 0.250000 0.797494 0.359526
O O2 0.040096 0.772876 0.262825
O O3 0.003403 0.737012 0.399635
O O4 0.999977 0.871965 0.360661
O O5 0.250000 0.400855 0.739432
O O6 0.039428 0.500000 0.725740
O O7 0.070557 0.399813 0.627531
O O8 0.964902 0.368219 0.753925
O O9 0.750000 0.673474 0.066491
O O10 0.954478 0.577144 0.112087
O O11 0.988720 0.715929 0.133891
O O12 0.000000 0.667600 0.000000
O O13 0.250000 0.500000 0.948863
O O14 0.000000 0.500000 0.000000
O O15 0.250000 0.687692 0.555632
O O16 0.000000 0.638542 0.500000
O O17 0.250000 0.704828 0.189272
O O18 0.500000 0.893331 0.500000
O O19 0.250000 0.897149 0.569446
O O20 0.450543 0.000000 0.591641
#
# Coordination Sequence:
#
# PCOD8208244 Si02
#       7
#     8   8   8   4   8   8   8
#     4  10  20  34  50  68  95 127 160 195 230 277
#     4   9  19  34  48  62  83 114 153 195 241 289
#     4  10  19  32  49  69  94 123 156 196 240 289
#     4   8  16  28  42  62  86 114 147 184 231 282
#     4  10  19  31  47  65  86 115 152 195 240 284
#     4  10  21  34  48  69  93 122 158 195 238 284
#     4  10  20  33  51  76 104 132 162 195 233 278
#
# _framework density 16.823250000000002
#
# number of rings (size 3 to 8) (size 9 to 14) (size 15 to 20)
#    0.000    2.308    0.000    2.769    1.077    4.615 
#    0.000    0.000    0.000    0.000    0.000    0.000 
#    0.000    0.615    0.000    2.000    0.000    2.923 
#
# Total GULP energy -644616.477135 kJ/mol
# GULP energy per Si atom -12396.470714 kJ/mol
# Density = 1.678496 g / cm^3
# Si number density = 16.823250 Si / 1000 Ang^3
#
#
#
# Elastic Constant Matrix: (Units=GPa)
#
#
# Indices 1 2 3 4 5 6 
#
# 1 108.2949 40.1766 57.3303 0.0000 0.0000 0.0000
# 2 40.1766 64.9437 32.7412 0.0000 0.0000 0.0000
# 3 57.3303 32.7412 92.5419 0.0000 0.0000 0.0000
# 4 0.0000 0.0000 0.0000 21.1203 0.0000 0.0000
# 5 0.0000 0.0000 0.0000 0.0000 32.4436 0.0000
# 6 0.0000 0.0000 0.0000 0.0000 0.0000 22.9130
#
#
#
# Elastic Compliance Matrix: (Units=1/GPa)
#
#
# Indices 1 2 3 4 5 6 
#
# 1 0.015299 -0.005704 -0.007460 0.000000 0.000000 0.000000
# 2 -0.005704 0.020867 -0.003849 0.000000 0.000000 0.000000
# 3 -0.007460 -0.003849 0.016789 0.000000 0.000000 0.000000
# 4 0.000000 0.000000 0.000000 0.047348 0.000000 0.000000
# 5 0.000000 0.000000 0.000000 0.000000 0.030823 0.000000
# 6 0.000000 0.000000 0.000000 0.000000 0.000000 0.043643
#
#
# Mechanical properties :
#
#
# Convention : Reuss Voigt Hill
#
# Bulk Modulus (GPa) = 52.82716 58.47517 55.65116
# Shear Modulus (GPa) = 23.24438 24.33088 23.78763
#
# Velocity S-wave (km/s) = 3.72113 3.80711 3.76436
# Velocity P-wave (km/s) = 7.06625 7.35931 7.21427
#
# Compressibility (1/GPa) = 0.01892966
#
# Stress axis : x y z
#
# Youngs Moduli (GPa) = 65.36199 47.92235 59.56167
#
# Poissons Ratio (x) = 0.27334 0.44434
# Poissons Ratio (y) = 0.37281 0.22926
# Poissons Ratio (z) = 0.48761 0.18446
#
# Static dielectric constant tensor:
#      x y z
#    x 3.257340 0.000000 0.000000 
#    y 0.000000 2.858500 0.000000 
#    z 0.000000 0.000000 3.127260 
# 
# 
# High freq. dielectric constant tensor:
#      x y z
#    x 1.665420 0.000000 0.000000 
#    y 0.000000 1.612490 0.000000 
#    z 0.000000 0.000000 1.643540 
# 
# From -- ./inp_files/27916.got.cif
#   From: 2010.03.12/outbox.cif.g09.slc.cpg/sg51_14_cif.got.tgz:27916.got - 2010.04.16 13:43:02.
