data_PCOD8208068
_publ_section_title
;
Structure prediction by ZEFSAII (Michael W. Deem and Ramdas Pophale) SiO2 
 PCOD8208068
Probable space group: P M M A
;
_chemical_formula_sum "Si O2"
_cell_formula_units_Z 64
_cell_length_a 8.935062
_cell_length_b 14.439424
_cell_length_c 28.024096
_cell_angle_alpha 90.000000
_cell_angle_beta 90.000000
_cell_angle_gamma 90.000000
_cell_volume 3615.588960
_symmetry_space_group_name_H-M "P M M A"
_symmetry_group_IT_number 51
_symmetry_cell_setting 'orthorhombic'
loop_
_space_group_symop_operation_xyz
x,y,z
1/2-x,-y,z
1/2+x,-y,-z
-x,y,-z
-x,-y,-z
1/2+x,y,-z
1/2-x,y,z
x,-y,z
loop_
_atom_site_type_symbol
_atom_site_label
_atom_site_fract_x
_atom_site_fract_y
_atom_site_fract_z
Si Si1 0.425463 0.606722 0.049816
Si Si2 0.073319 0.718755 0.865657
Si Si3 0.578065 0.396892 0.315101
Si Si4 0.921625 0.106007 0.721625
Si Si5 0.573815 0.106402 0.451198
Si Si6 0.423253 0.213201 0.639364
Si Si7 0.574935 0.894538 0.831203
Si Si8 0.422388 0.392975 0.216600
O O1 0.250000 0.625956 0.046427
O O2 0.458813 0.500000 0.062777
O O3 0.495630 0.670725 0.089849
O O4 0.500000 0.634039 0.000000
O O5 0.250000 0.712881 0.871735
O O6 0.021617 0.825798 0.863975
O O7 0.024432 0.668176 0.817403
O O8 0.750000 0.388060 0.297842
O O9 0.545713 0.500000 0.335138
O O10 0.544841 0.323629 0.357526
O O11 0.471351 0.374814 0.270710
O O12 0.750000 0.132539 0.713658
O O13 0.967561 0.124191 0.776192
O O14 0.019994 0.169225 0.688042
O O15 0.950927 0.000000 0.707896
O O16 0.500000 0.141435 0.500000
O O17 0.750000 0.119223 0.456652
O O18 0.504660 0.168771 0.408265
O O19 0.530577 0.000000 0.440618
O O20 0.250000 0.190002 0.636664
O O21 0.750000 0.876103 0.839463
O O22 0.534462 0.000000 0.845238
O O23 0.250000 0.362548 0.210856
O O24 0.444090 0.500000 0.202631
#
# Coordination Sequence:
#
# PCOD8208068 Si02
#       8
#     8   8   8   8   8   8   8   8
#     4  10  21  38  59  82 108 136 167 206 253 304
#     4  12  23  33  51  78 106 137 173 211 251 299
#     4   9  18  32  48  68  96 128 161 198 241 289
#     4   9  18  31  47  70  99 129 161 197 239 288
#     4   9  18  32  48  67  91 117 148 189 237 289
#     4  10  19  30  47  70  94 123 158 195 238 287
#     4   9  19  36  54  72 100 138 176 213 251 292
#     4  10  20  33  49  71 101 136 172 209 248 291
#
# _framework density 17.701127
#
# number of rings (size 3 to 8) (size 9 to 14) (size 15 to 20)
#    0.000    2.250    0.000    4.125    0.000    7.500 
#    0.000    2.500    0.000    0.750    0.000    0.000 
#    0.000    0.000    0.000    0.000    0.000    0.000 
#
# Total GULP energy -793622.385852 kJ/mol
# GULP energy per Si atom -12400.349779 kJ/mol
# Density = 1.766084 g / cm^3
# Si number density = 17.701127 Si / 1000 Ang^3
#
#
#
# Elastic Constant Matrix: (Units=GPa)
#
#
# Indices 1 2 3 4 5 6 
#
# 1 59.4231 40.3457 37.3795 0.0000 0.0000 0.0000
# 2 40.3457 107.2260 72.4006 0.0000 0.0000 0.0000
# 3 37.3795 72.4006 88.5625 0.0000 0.0000 0.0000
# 4 0.0000 0.0000 0.0000 25.8047 0.0000 0.0000
# 5 0.0000 0.0000 0.0000 0.0000 27.9826 0.0000
# 6 0.0000 0.0000 0.0000 0.0000 0.0000 24.8285
#
#
#
# Elastic Compliance Matrix: (Units=1/GPa)
#
#
# Indices 1 2 3 4 5 6 
#
# 1 0.024008 -0.004892 -0.006134 0.000000 0.000000 0.000000
# 2 -0.004892 0.021814 -0.015768 0.000000 0.000000 0.000000
# 3 -0.006134 -0.015768 0.026771 0.000000 0.000000 0.000000
# 4 0.000000 0.000000 0.000000 0.038753 0.000000 0.000000
# 5 0.000000 0.000000 0.000000 0.000000 0.035737 0.000000
# 6 0.000000 0.000000 0.000000 0.000000 0.000000 0.040276
#
#
# Mechanical properties :
#
#
# Convention : Reuss Voigt Hill
#
# Bulk Modulus (GPa) = 52.61776 61.71812 57.16794
# Shear Modulus (GPa) = 20.21987 22.72887 21.47437
#
# Velocity S-wave (km/s) = 3.38345 3.58723 3.48683
# Velocity P-wave (km/s) = 6.71221 7.21804 6.96972
#
# Compressibility (1/GPa) = 0.01900499
#
# Stress axis : x y z
#
# Youngs Moduli (GPa) = 41.65213 45.84305 37.35368
#
# Poissons Ratio (x) = 0.22425 0.22914
# Poissons Ratio (y) = 0.20375 0.58900
# Poissons Ratio (z) = 0.25550 0.72286
#
# Static dielectric constant tensor:
#      x y z
#    x 3.317280 0.000000 0.000000 
#    y 0.000000 3.510010 0.000000 
#    z 0.000000 0.000000 3.281920 
# 
# 
# High freq. dielectric constant tensor:
#      x y z
#    x 1.683880 0.000000 0.000000 
#    y 0.000000 1.689890 0.000000 
#    z 0.000000 0.000000 1.663500 
# 
# From -- ./inp_files/34918.got.cif
#   From: 2010.03.12/outbox.cif.g09.slc.cpg/sg51_18_cif.got.tgz:34918.got - 2010.04.16 13:43:02.
