data_PCOD8208487
_publ_section_title
;
Structure prediction by ZEFSAII (Michael W. Deem and Ramdas Pophale) SiO2 
 PCOD8208487
Probable space group: P M M A
;
_chemical_formula_sum "Si O2"
_cell_formula_units_Z 40
_cell_length_a 20.055261
_cell_length_b 8.862418
_cell_length_c 14.047740
_cell_angle_alpha 90.000000
_cell_angle_beta 90.000000
_cell_angle_gamma 90.000000
_cell_volume 2496.818702
_symmetry_space_group_name_H-M "P M M A"
_symmetry_group_IT_number 51
_symmetry_cell_setting 'orthorhombic'
loop_
_space_group_symop_operation_xyz
x,y,z
1/2-x,-y,z
1/2+x,-y,-z
-x,y,-z
-x,-y,-z
1/2+x,y,-z
1/2-x,y,z
x,-y,z
loop_
_atom_site_type_symbol
_atom_site_label
_atom_site_fract_x
_atom_site_fract_y
_atom_site_fract_z
Si Si1 0.432144 0.178091 0.726502
Si Si2 0.672205 0.324937 0.405245
Si Si3 0.487364 0.328450 0.895614
Si Si4 0.435958 0.671093 0.282237
Si Si5 0.326500 0.823549 0.397710
O O1 0.365295 0.237558 0.678189
O O2 0.432173 0.230239 0.838021
O O3 0.497139 0.250929 0.673933
O O4 0.435810 0.000000 0.718741
O O5 0.750000 0.295935 0.388669
O O6 0.653538 0.500000 0.401695
O O7 0.649742 0.259662 0.506832
O O8 0.460784 0.500000 0.905600
O O9 0.556104 0.325574 0.833326
O O10 0.500000 0.257973 0.000000
O O11 0.430618 0.500000 0.320239
O O12 0.370440 0.763728 0.310281
O O13 0.250000 0.785110 0.373701
O O14 0.337691 0.000000 0.412127
#
# Coordination Sequence:
#
# PCOD8208487 Si02
#       5
#     8   8   8   8   8
#     4  10  19  31  49  75 101 126 159 201 245 286
#     4  10  20  34  51  70  96 132 168 199 235 285
#     4   8  16  32  52  73  97 125 159 199 242 288
#     4   9  18  32  50  73  97 127 164 200 237 284
#     4  10  20  33  49  71 100 131 161 198 243 287
#
# _framework density 16.020385999999998
#
# number of rings (size 3 to 8) (size 9 to 14) (size 15 to 20)
#    1.200    1.400    0.000    3.000    0.000    3.600 
#    0.000    4.000    0.000    1.200    0.000    2.800 
#    0.000    0.000    0.000    0.000    0.000    0.000 
#
# Total GULP energy -495703.393502 kJ/mol
# GULP energy per Si atom -12392.584838 kJ/mol
# Density = 1.598392 g / cm^3
# Si number density = 16.020386 Si / 1000 Ang^3
#
#
#
# Elastic Constant Matrix: (Units=GPa)
#
#
# Indices 1 2 3 4 5 6 
#
# 1 63.2497 39.1864 43.5560 0.0000 0.0000 0.0000
# 2 39.1864 100.8793 36.7589 0.0000 0.0000 0.0000
# 3 43.5560 36.7589 91.1732 0.0000 0.0000 0.0000
# 4 0.0000 0.0000 0.0000 20.2527 0.0000 0.0000
# 5 0.0000 0.0000 0.0000 0.0000 13.1432 0.0000
# 6 0.0000 0.0000 0.0000 0.0000 0.0000 29.0133
#
#
#
# Elastic Compliance Matrix: (Units=1/GPa)
#
#
# Indices 1 2 3 4 5 6 
#
# 1 0.027022 -0.006790 -0.010171 0.000000 0.000000 0.000000
# 2 -0.006790 0.013326 -0.002129 0.000000 0.000000 0.000000
# 3 -0.010171 -0.002129 0.016686 0.000000 0.000000 0.000000
# 4 0.000000 0.000000 0.000000 0.049376 0.000000 0.000000
# 5 0.000000 0.000000 0.000000 0.000000 0.076085 0.000000
# 6 0.000000 0.000000 0.000000 0.000000 0.000000 0.034467
#
#
# Mechanical properties :
#
#
# Convention : Reuss Voigt Hill
#
# Bulk Modulus (GPa) = 53.04346 54.92275 53.98311
# Shear Modulus (GPa) = 19.12581 21.53523 20.33052
#
# Velocity S-wave (km/s) = 3.45895 3.67036 3.56622
# Velocity P-wave (km/s) = 7.00959 7.23323 7.12228
#
# Compressibility (1/GPa) = 0.01885246
#
# Stress axis : x y z
#
# Youngs Moduli (GPa) = 37.00745 75.03998 59.93190
#
# Poissons Ratio (x) = 0.50954 0.60959
# Poissons Ratio (y) = 0.25129 0.12759
# Poissons Ratio (z) = 0.37642 0.15976
#
# Static dielectric constant tensor:
#      x y z
#    x 2.841120 0.000000 0.000000 
#    y 0.000000 3.088930 0.000000 
#    z 0.000000 0.000000 2.912320 
# 
# 
# High freq. dielectric constant tensor:
#      x y z
#    x 1.594410 0.000000 0.000000 
#    y 0.000000 1.631650 0.000000 
#    z 0.000000 0.000000 1.596560 
# 
# From -- ./inp_files/24555.got.cif
#   From: 2010.03.12/outbox.cif.g09.slc.cpg/sg51_13_cif.got.tgz:24555.got - 2010.04.16 13:43:02.
