data_PCOD8208912
_publ_section_title
;
Structure prediction by ZEFSAII (Michael W. Deem and Ramdas Pophale) SiO2 
 PCOD8208912
Probable space group: P M M A
;
_chemical_formula_sum "Si O2"
_cell_formula_units_Z 56
_cell_length_a 19.359777
_cell_length_b 8.860133
_cell_length_c 17.876031
_cell_angle_alpha 90.000000
_cell_angle_beta 90.000000
_cell_angle_gamma 90.000000
_cell_volume 3066.279156
_symmetry_space_group_name_H-M "P M M A"
_symmetry_group_IT_number 51
_symmetry_cell_setting 'orthorhombic'
loop_
_space_group_symop_operation_xyz
x,y,z
1/2-x,-y,z
1/2+x,-y,-z
-x,y,-z
-x,-y,-z
1/2+x,y,-z
1/2-x,y,z
x,-y,z
loop_
_atom_site_type_symbol
_atom_site_label
_atom_site_fract_x
_atom_site_fract_y
_atom_site_fract_z
Si Si1 0.924700 0.676870 0.372618
Si Si2 0.920545 0.321006 0.638963
Si Si3 0.571498 0.179007 0.795084
Si Si4 0.668652 0.828631 0.088903
Si Si5 0.926382 0.323895 0.204778
Si Si6 0.672115 0.320122 0.501805
Si Si7 0.826475 0.820721 0.922222
O O1 0.923682 0.500000 0.386481
O O2 0.901100 0.718426 0.288552
O O3 0.871045 0.749143 0.431853
O O4 0.003058 0.734517 0.386412
O O5 0.920391 0.500000 0.650230
O O6 0.900545 0.245625 0.717369
O O7 0.865024 0.267225 0.577950
O O8 0.494932 0.232378 0.815289
O O9 0.620853 0.242243 0.860628
O O10 0.573257 0.000000 0.790591
O O11 0.750000 0.818080 0.100830
O O12 0.633542 0.717599 0.147678
O O13 0.643055 0.000000 0.102235
O O14 0.648875 0.772830 0.005402
O O15 0.944002 0.500000 0.200130
O O16 0.750000 0.254889 0.499836
O O17 0.673915 0.500000 0.498023
O O18 0.750000 0.754901 0.905669
O O19 0.822991 0.000000 0.919821
#
# Coordination Sequence:
#
# PCOD8208912 Si02
#       7
#     8   8   8   8   8   8   8
#     4   8  15  28  45  64  90 126 160 189 226 278
#     4   9  17  30  47  68  95 123 152 192 243 289
#     4  10  19  32  52  74  96 126 165 204 241 288
#     4   9  18  34  54  73  96 128 165 202 240 287
#     4  10  20  33  50  74 103 130 160 203 249 290
#     4   9  16  26  44  70  94 118 155 198 234 276
#     4   8  16  32  52  72  94 126 168 205 237 284
#
# _framework density 18.263178
#
# number of rings (size 3 to 8) (size 9 to 14) (size 15 to 20)
#    0.000    3.000    0.000    3.000    0.000    3.714 
#    0.000    5.714    0.000   10.714    0.000    0.000 
#    0.000    0.000    0.000    0.000    0.000    0.000 
#
# Total GULP energy -694212.060554 kJ/mol
# GULP energy per Si atom -12396.643938 kJ/mol
# Density = 1.822161 g / cm^3
# Si number density = 18.263178 Si / 1000 Ang^3
#
#
#
# Elastic Constant Matrix: (Units=GPa)
#
#
# Indices 1 2 3 4 5 6 
#
# 1 107.4491 20.4479 90.9257 0.0000 0.0000 0.0000
# 2 20.4479 30.7726 30.0520 0.0000 0.0000 0.0000
# 3 90.9257 30.0520 152.1391 0.0000 0.0000 0.0000
# 4 0.0000 0.0000 0.0000 21.4606 0.0000 0.0000
# 5 0.0000 0.0000 0.0000 0.0000 34.3787 0.0000
# 6 0.0000 0.0000 0.0000 0.0000 0.0000 18.7148
#
#
#
# Elastic Compliance Matrix: (Units=1/GPa)
#
#
# Indices 1 2 3 4 5 6 
#
# 1 0.018918 -0.001895 -0.010932 0.000000 0.000000 0.000000
# 2 -0.001895 0.040453 -0.006858 0.000000 0.000000 0.000000
# 3 -0.010932 -0.006858 0.014461 0.000000 0.000000 0.000000
# 4 0.000000 0.000000 0.000000 0.046597 0.000000 0.000000
# 5 0.000000 0.000000 0.000000 0.000000 0.029088 0.000000
# 6 0.000000 0.000000 0.000000 0.000000 0.000000 0.053434
#
#
# Mechanical properties :
#
#
# Convention : Reuss Voigt Hill
#
# Bulk Modulus (GPa) = 29.01724 63.69023 46.35374
# Shear Modulus (GPa) = 19.69979 24.83981 22.26980
#
# Velocity S-wave (km/s) = 3.28786 3.69196 3.49575
# Velocity P-wave (km/s) = 5.50784 7.28858 6.45986
#
# Compressibility (1/GPa) = 0.03446227
#
# Stress axis : x y z
#
# Youngs Moduli (GPa) = 52.85839 24.71991 69.14983
#
# Poissons Ratio (x) = 0.04684 0.75597
# Poissons Ratio (y) = 0.10015 0.47425
# Poissons Ratio (z) = 0.57787 0.16954
#
# Static dielectric constant tensor:
#      x y z
#    x 3.522550 0.000000 0.000000 
#    y 0.000000 2.936870 0.000000 
#    z 0.000000 0.000000 3.595140 
# 
# 
# High freq. dielectric constant tensor:
#      x y z
#    x 1.706850 0.000000 0.000000 
#    y 0.000000 1.663740 0.000000 
#    z 0.000000 0.000000 1.720040 
# 
# From -- ./inp_files/25727.got.cif
#   From: 2010.03.12/outbox.cif.g09.slc.cpg/sg51_13_cif.got.tgz:25727.got - 2010.04.16 13:43:02.
