data_PCOD8208371
_publ_section_title
;
Structure prediction by ZEFSAII (Michael W. Deem and Ramdas Pophale) SiO2 
 PCOD8208371
Probable space group: P M M A
;
_chemical_formula_sum "Si O2"
_cell_formula_units_Z 64
_cell_length_a 8.522715
_cell_length_b 22.903712
_cell_length_c 16.309756
_cell_angle_alpha 90.000000
_cell_angle_beta 90.000000
_cell_angle_gamma 90.000000
_cell_volume 3183.693889
_symmetry_space_group_name_H-M "P M M A"
_symmetry_group_IT_number 51
_symmetry_cell_setting 'orthorhombic'
loop_
_space_group_symop_operation_xyz
x,y,z
1/2-x,-y,z
1/2+x,-y,-z
-x,y,-z
-x,-y,-z
1/2+x,y,-z
1/2-x,y,z
x,-y,z
loop_
_atom_site_type_symbol
_atom_site_label
_atom_site_fract_x
_atom_site_fract_y
_atom_site_fract_z
Si Si1 0.564474 0.101083 0.912756
Si Si2 0.435514 0.436870 0.749001
Si Si3 0.070216 0.066091 0.739781
Si Si4 0.433698 0.728094 0.366894
Si Si5 0.562379 0.146684 0.412435
Si Si6 0.569616 0.313899 0.202478
Si Si7 0.928330 0.230419 0.920147
Si Si8 0.064078 0.385659 0.579277
O O1 0.750000 0.096507 0.917174
O O2 0.513212 0.069930 0.828598
O O3 0.495851 0.166983 0.903326
O O4 0.500000 0.074582 0.000000
O O5 0.250000 0.440774 0.750050
O O6 0.506136 0.500000 0.777735
O O7 0.484748 0.381954 0.806001
O O8 0.491637 0.423337 0.657075
O O9 0.250000 0.082333 0.755423
O O10 0.004962 0.107582 0.666021
O O11 0.049538 0.000000 0.707993
O O12 0.250000 0.731432 0.342344
O O13 0.487583 0.789538 0.403427
O O14 0.549770 0.710326 0.293187
O O15 0.467200 0.675451 0.428951
O O16 0.500000 0.120963 0.500000
O O17 0.750000 0.149601 0.415115
O O18 0.750000 0.305770 0.174808
O O19 0.450860 0.275535 0.151585
O O20 0.750000 0.218104 0.936375
O O21 0.000000 0.260505 0.000000
O O22 0.250000 0.375258 0.580510
O O23 0.000000 0.420915 0.500000
#
# Coordination Sequence:
#
# PCOD8208371 Si02
#       8
#     8   8   8   8   8   8   8   8
#     4  10  21  37  60  89 118 149 181 219 269 326
#     4   8  16  31  49  69  95 131 174 215 256 306
#     4  10  23  42  61  82 111 148 188 229 272 321
#     4  11  21  34  53  77 106 137 174 218 267 323
#     4  11  23  39  59  82 110 144 185 233 283 332
#     4  10  19  32  53  79 107 139 174 215 266 318
#     4  10  20  34  54  82 114 142 172 210 258 315
#     4  10  19  31  48  71 100 132 167 210 262 315
#
# _framework density 20.102433999999999
#
# number of rings (size 3 to 8) (size 9 to 14) (size 15 to 20)
#    0.000    2.000    0.000    4.875    0.000    5.500 
#    0.000    0.000    0.000   13.500    0.000    0.000 
#    0.000    0.000    0.000    0.000    0.000    0.000 
#
# Total GULP energy -792894.058207 kJ/mol
# GULP energy per Si atom -12388.969659 kJ/mol
# Density = 2.005668 g / cm^3
# Si number density = 20.102434 Si / 1000 Ang^3
#
#
#
# Elastic Constant Matrix: (Units=GPa)
#
#
# Indices 1 2 3 4 5 6 
#
# 1 68.0741 18.4618 15.3536 0.0000 0.0000 0.0000
# 2 18.4618 83.3831 26.8238 0.0000 0.0000 0.0000
# 3 15.3536 26.8238 79.1510 0.0000 0.0000 0.0000
# 4 0.0000 0.0000 0.0000 17.1143 0.0000 0.0000
# 5 0.0000 0.0000 0.0000 0.0000 34.2487 0.0000
# 6 0.0000 0.0000 0.0000 0.0000 0.0000 36.4377
#
#
#
# Elastic Compliance Matrix: (Units=1/GPa)
#
#
# Indices 1 2 3 4 5 6 
#
# 1 0.015941 -0.002845 -0.002128 0.000000 0.000000 0.000000
# 2 -0.002845 0.013968 -0.004182 0.000000 0.000000 0.000000
# 3 -0.002128 -0.004182 0.014464 0.000000 0.000000 0.000000
# 4 0.000000 0.000000 0.000000 0.058431 0.000000 0.000000
# 5 0.000000 0.000000 0.000000 0.000000 0.029198 0.000000
# 6 0.000000 0.000000 0.000000 0.000000 0.000000 0.027444
#
#
# Mechanical properties :
#
#
# Convention : Reuss Voigt Hill
#
# Bulk Modulus (GPa) = 38.36762 39.09852 38.73307
# Shear Modulus (GPa) = 26.81768 28.89141 27.85454
#
# Velocity S-wave (km/s) = 3.65643 3.79517 3.72644
# Velocity P-wave (km/s) = 6.07894 6.22063 6.15019
#
# Compressibility (1/GPa) = 0.02606364
#
# Stress axis : x y z
#
# Youngs Moduli (GPa) = 62.72964 71.59223 69.13676
#
# Poissons Ratio (x) = 0.20368 0.14713
# Poissons Ratio (y) = 0.17846 0.28912
# Poissons Ratio (z) = 0.13350 0.29939
#
# Static dielectric constant tensor:
#      x y z
#    x 3.446520 0.000000 0.000000 
#    y 0.000000 4.026050 0.000000 
#    z 0.000000 0.000000 3.751760 
# 
# 
# High freq. dielectric constant tensor:
#      x y z
#    x 1.775650 0.000000 0.000000 
#    y 0.000000 1.780630 0.000000 
#    z 0.000000 0.000000 1.778800 
# 
# From -- ./inp_files/22340.got.cif
#   From: 2010.03.12/outbox.cif.g09.slc.cpg/sg51_12_cif.got.tgz:22340.got - 2010.04.16 13:43:02.
