data_PCOD8208841
_publ_section_title
;
Structure prediction by ZEFSAII (Michael W. Deem and Ramdas Pophale) SiO2 
 PCOD8208841
Probable space group: P M M A
;
_chemical_formula_sum "Si O2"
_cell_formula_units_Z 48
_cell_length_a 15.627429
_cell_length_b 8.626052
_cell_length_c 18.027258
_cell_angle_alpha 90.000000
_cell_angle_beta 90.000000
_cell_angle_gamma 90.000000
_cell_volume 2430.128734
_symmetry_space_group_name_H-M "P M M A"
_symmetry_group_IT_number 51
_symmetry_cell_setting 'orthorhombic'
loop_
_space_group_symop_operation_xyz
x,y,z
1/2-x,-y,z
1/2+x,-y,-z
-x,y,-z
-x,-y,-z
1/2+x,y,-z
1/2-x,y,z
x,-y,z
loop_
_atom_site_type_symbol
_atom_site_label
_atom_site_fract_x
_atom_site_fract_y
_atom_site_fract_z
Si Si1 0.750000 0.685085 0.204786
Si Si2 0.916175 0.684975 0.458345
Si Si3 0.250000 0.316340 0.289321
Si Si4 0.915112 0.316042 0.291378
Si Si5 0.250000 0.314984 0.455876
Si Si6 0.250000 0.317154 0.962419
Si Si7 0.085613 0.181920 0.041102
Si Si8 0.582308 0.316167 0.797114
O O1 0.750000 0.500000 0.204652
O O2 0.666323 0.750007 0.246729
O O3 0.750000 0.750598 0.121062
O O4 0.916830 0.500000 0.457254
O O5 0.914628 0.751037 0.374736
O O6 0.833371 0.747876 0.501635
O O7 0.000000 0.748675 0.500000
O O8 0.250000 0.500000 0.294418
O O9 0.250000 0.247615 0.372431
O O10 0.333644 0.258661 0.246059
O O11 0.910316 0.500000 0.294389
O O12 0.001273 0.262536 0.250906
O O13 0.250000 0.500000 0.454633
O O14 0.250000 0.500000 0.959745
O O15 0.166179 0.264536 0.005094
O O16 0.077907 0.227583 0.126107
O O17 0.098645 0.000000 0.032945
O O18 0.000000 0.238906 0.000000
O O19 0.583253 0.500000 0.811170
#
# Coordination Sequence:
#
# PCOD8208841 Si02
#       8
#     4   8   4   8   4   4   8   8
#     4   9  17  28  43  65  91 121 160 206 252 297
#     4   9  15  22  34  55  87 128 165 195 237 295
#     4   9  17  28  43  67  97 129 166 208 254 303
#     4   9  16  26  41  64  95 129 166 207 249 296
#     4   9  15  23  36  57  92 133 164 194 244 309
#     4  11  22  37  59  83 106 137 180 224 268 321
#     4  11  24  40  57  79 109 142 176 219 272 327
#     4  10  19  32  51  73  99 132 171 215 259 306
#
# _framework density 19.752039
#
# number of rings (size 3 to 8) (size 9 to 14) (size 15 to 20)
#    0.000    2.333    0.000    3.750    0.000    9.333 
#    0.000    0.000    0.000    0.000    0.000    0.000 
#    0.000    7.333    0.000    1.333    0.000    0.000 
#
# Total GULP energy -595266.585832 kJ/mol
# GULP energy per Si atom -12401.387205 kJ/mol
# Density = 1.970708 g / cm^3
# Si number density = 19.752039 Si / 1000 Ang^3
#
#
#
# Elastic Constant Matrix: (Units=GPa)
#
#
# Indices 1 2 3 4 5 6 
#
# 1 203.1858 15.7077 96.7126 0.0000 0.0000 0.0000
# 2 15.7077 17.9247 12.2908 0.0000 0.0000 0.0000
# 3 96.7126 12.2908 189.9745 0.0000 0.0000 0.0000
# 4 0.0000 0.0000 0.0000 3.1453 0.0000 0.0000
# 5 0.0000 0.0000 0.0000 0.0000 50.4222 0.0000
# 6 0.0000 0.0000 0.0000 0.0000 0.0000 21.6193
#
#
#
# Elastic Compliance Matrix: (Units=1/GPa)
#
#
# Indices 1 2 3 4 5 6 
#
# 1 0.006723 -0.003709 -0.003183 0.000000 0.000000 0.000000
# 2 -0.003709 0.060425 -0.002021 0.000000 0.000000 0.000000
# 3 -0.003183 -0.002021 0.007015 0.000000 0.000000 0.000000
# 4 0.000000 0.000000 0.000000 0.317938 0.000000 0.000000
# 5 0.000000 0.000000 0.000000 0.000000 0.019833 0.000000
# 6 0.000000 0.000000 0.000000 0.000000 0.000000 0.046255
#
#
# Mechanical properties :
#
#
# Convention : Reuss Voigt Hill
#
# Bulk Modulus (GPa) = 17.75022 73.38969 45.56996
# Shear Modulus (GPa) = 10.10522 34.12895 22.11708
#
# Velocity S-wave (km/s) = 2.26432 4.16127 3.34988
# Velocity P-wave (km/s) = 3.98023 7.76688 6.17117
#
# Compressibility (1/GPa) = 0.05633733
#
# Stress axis : x y z
#
# Youngs Moduli (GPa) = 148.73702 16.54937 142.55426
#
# Poissons Ratio (x) = 0.06139 0.45371
# Poissons Ratio (y) = 0.55172 0.28809
# Poissons Ratio (z) = 0.47339 0.03345
#
# Static dielectric constant tensor:
#      x y z
#    x 3.930380 0.000000 0.000000 
#    y 0.000000 2.893420 0.000000 
#    z 0.000000 0.000000 3.870690 
# 
# 
# High freq. dielectric constant tensor:
#      x y z
#    x 1.792200 0.000000 0.000000 
#    y 0.000000 1.700230 0.000000 
#    z 0.000000 0.000000 1.792030 
# 
# From -- ./inp_files/29690.got.cif
#   From: 2010.03.12/outbox.cif.g09.slc.cpg/sg51_15_cif.got.tgz:29690.got - 2010.04.16 13:43:02.
