data_PCOD8208636
_publ_section_title
;
Structure prediction by ZEFSAII (Michael W. Deem and Ramdas Pophale) SiO2 
 PCOD8208636
Probable space group: P M M A
;
_chemical_formula_sum "Si O2"
_cell_formula_units_Z 48
_cell_length_a 14.702018
_cell_length_b 8.962599
_cell_length_c 18.587814
_cell_angle_alpha 90.000000
_cell_angle_beta 90.000000
_cell_angle_gamma 90.000000
_cell_volume 2449.284500
_symmetry_space_group_name_H-M "P M M A"
_symmetry_group_IT_number 51
_symmetry_cell_setting 'orthorhombic'
loop_
_space_group_symop_operation_xyz
x,y,z
1/2-x,-y,z
1/2+x,-y,-z
-x,y,-z
-x,-y,-z
1/2+x,y,-z
1/2-x,y,z
x,-y,z
loop_
_atom_site_type_symbol
_atom_site_label
_atom_site_fract_x
_atom_site_fract_y
_atom_site_fract_z
Si Si1 0.401655 0.661550 0.027280
Si Si2 0.250000 0.676273 0.918872
Si Si3 0.450024 0.822357 0.429268
Si Si4 0.250000 0.678531 0.754386
Si Si5 0.925784 0.175591 0.828038
Si Si6 0.750000 0.823298 0.592997
Si Si7 0.434532 0.822431 0.710737
Si Si8 0.750000 0.822056 0.753585
O O1 0.360583 0.500000 0.052662
O O2 0.417614 0.778730 0.089928
O O3 0.500000 0.625948 0.000000
O O4 0.338284 0.731089 0.964158
O O5 0.250000 0.500000 0.911012
O O6 0.250000 0.740741 0.837309
O O7 0.500000 0.761411 0.500000
O O8 0.345930 0.761066 0.437995
O O9 0.503889 0.769005 0.357409
O O10 0.447282 0.000000 0.426767
O O11 0.250000 0.500000 0.751885
O O12 0.337596 0.740060 0.711450
O O13 0.838450 0.247359 0.790232
O O14 0.015268 0.228591 0.784755
O O15 0.921936 0.000000 0.823295
O O16 0.750000 0.766046 0.673452
O O17 0.750000 0.000000 0.585554
O O18 0.418810 0.000000 0.707459
O O19 0.750000 0.000000 0.758082
#
# Coordination Sequence:
#
# PCOD8208636 Si02
#       8
#     8   4   8   4   8   4   8   4
#     4  10  20  34  51  70  97 134 174 221 271 317
#     4   9  19  36  53  71  98 135 180 224 270 324
#     4   9  17  29  50  82 117 150 181 217 263 314
#     4  11  23  39  59  77 100 143 190 226 269 331
#     4  10  19  31  51  78 106 138 174 217 270 324
#     4   9  14  26  46  71 107 146 175 204 252 311
#     4  10  20  35  54  80 112 141 178 229 276 316
#     4   9  15  27  47  71 101 136 167 202 257 316
#
# _framework density 19.597560999999999
#
# number of rings (size 3 to 8) (size 9 to 14) (size 15 to 20)
#    0.000    2.333    1.667    1.750    0.000    3.000 
#    0.000    4.167    0.000    0.500    0.000    0.583 
#    0.000    0.000    0.000    0.000    0.000    0.000 
#
# Total GULP energy -594630.138763 kJ/mol
# GULP energy per Si atom -12388.127891 kJ/mol
# Density = 1.955296 g / cm^3
# Si number density = 19.597561 Si / 1000 Ang^3
#
#
#
# Elastic Constant Matrix: (Units=GPa)
#
#
# Indices 1 2 3 4 5 6 
#
# 1 173.3900 27.0978 63.4528 0.0000 0.0000 0.0000
# 2 27.0978 18.9410 11.4415 0.0000 0.0000 0.0000
# 3 63.4528 11.4415 112.1695 0.0000 0.0000 0.0000
# 4 0.0000 0.0000 0.0000 30.6884 0.0000 0.0000
# 5 0.0000 0.0000 0.0000 0.0000 64.5235 0.0000
# 6 0.0000 0.0000 0.0000 0.0000 0.0000 18.8316
#
#
#
# Elastic Compliance Matrix: (Units=1/GPa)
#
#
# Indices 1 2 3 4 5 6 
#
# 1 0.008806 -0.010219 -0.003939 0.000000 0.000000 0.000000
# 2 -0.010219 0.068120 -0.001168 0.000000 0.000000 0.000000
# 3 -0.003939 -0.001168 0.011262 0.000000 0.000000 0.000000
# 4 0.000000 0.000000 0.000000 0.032586 0.000000 0.000000
# 5 0.000000 0.000000 0.000000 0.000000 0.015498 0.000000
# 6 0.000000 0.000000 0.000000 0.000000 0.000000 0.053102
#
#
# Mechanical properties :
#
#
# Convention : Reuss Voigt Hill
#
# Bulk Modulus (GPa) = 17.37999 56.49830 36.93914
# Shear Modulus (GPa) = 20.90261 36.30926 28.60593
#
# Velocity S-wave (km/s) = 3.26942 4.30902 3.82470
# Velocity P-wave (km/s) = 4.81038 7.32453 6.19631
#
# Compressibility (1/GPa) = 0.05753745
#
# Stress axis : x y z
#
# Youngs Moduli (GPa) = 113.56101 14.67996 88.79052
#
# Poissons Ratio (x) = 0.15001 0.34975
# Poissons Ratio (y) = 1.16043 0.10369
# Poissons Ratio (z) = 0.44732 0.01714
#
# Static dielectric constant tensor:
#      x y z
#    x 3.859220 0.000000 0.000000 
#    y 0.000000 3.013220 0.000000 
#    z 0.000000 0.000000 3.338270 
# 
# 
# High freq. dielectric constant tensor:
#      x y z
#    x 1.786780 0.000000 0.000000 
#    y 0.000000 1.703800 0.000000 
#    z 0.000000 0.000000 1.761410 
# 
# From -- ./inp_files/29714.got.cif
#   From: 2010.03.12/outbox.cif.g09.slc.cpg/sg51_15_cif.got.tgz:29714.got - 2010.04.16 13:43:02.
