data_PCOD8208697
_publ_section_title
;
Structure prediction by ZEFSAII (Michael W. Deem and Ramdas Pophale) SiO2 
 PCOD8208697
Probable space group: P M M A
;
_chemical_formula_sum "Si O2"
_cell_formula_units_Z 64
_cell_length_a 9.233289
_cell_length_b 20.518281
_cell_length_c 19.830366
_cell_angle_alpha 90.000000
_cell_angle_beta 90.000000
_cell_angle_gamma 90.000000
_cell_volume 3756.886997
_symmetry_space_group_name_H-M "P M M A"
_symmetry_group_IT_number 51
_symmetry_cell_setting 'orthorhombic'
loop_
_space_group_symop_operation_xyz
x,y,z
1/2-x,-y,z
1/2+x,-y,-z
-x,y,-z
-x,-y,-z
1/2+x,y,-z
1/2-x,y,z
x,-y,z
loop_
_atom_site_type_symbol
_atom_site_label
_atom_site_fract_x
_atom_site_fract_y
_atom_site_fract_z
Si Si1 0.415464 0.276005 0.194500
Si Si2 0.422557 0.810686 0.429013
Si Si3 0.086493 0.723421 0.935447
Si Si4 0.419448 0.426227 0.432043
Si Si5 0.921307 0.689888 0.660183
Si Si6 0.913513 0.121209 0.064472
Si Si7 0.915380 0.121626 0.805684
Si Si8 0.421713 0.072567 0.336590
O O1 0.250000 0.297631 0.181697
O O2 0.510496 0.302484 0.132494
O O3 0.480743 0.306708 0.263381
O O4 0.425383 0.198796 0.201740
O O5 0.500000 0.806294 0.500000
O O6 0.250000 0.809678 0.439088
O O7 0.478283 0.749860 0.384659
O O8 0.477510 0.876611 0.392390
O O9 0.250000 0.696637 0.938035
O O10 0.084692 0.801063 0.936414
O O11 0.000000 0.695988 0.000000
O O12 0.500000 0.405732 0.500000
O O13 0.250000 0.417989 0.446121
O O14 0.458707 0.500000 0.410589
O O15 0.471463 0.378408 0.372521
O O16 0.750000 0.695967 0.664336
O O17 0.750000 0.094488 0.061932
O O18 0.989982 0.095317 0.132116
O O19 0.000000 0.093799 0.000000
O O20 0.750000 0.099884 0.818342
O O21 0.980910 0.090246 0.737700
O O22 0.250000 0.077565 0.332922
O O23 0.473910 0.000000 0.356892
#
# Coordination Sequence:
#
# PCOD8208697 Si02
#       8
#     8   8   8   8   8   8   8   8
#     4   9  15  25  42  61  82 112 146 180 217 258
#     4  10  19  32  48  67  88 113 144 180 222 267
#     4   9  16  25  37  58  88 119 147 177 214 258
#     4   9  17  29  45  65  90 121 155 188 221 260
#     4   9  16  28  46  66  90 119 151 183 219 264
#     4   9  16  25  39  61  87 113 140 173 213 257
#     4   9  15  26  44  62  80 106 141 178 216 259
#     4   9  17  30  48  66  83 108 144 182 221 269
#
# _framework density 17.035381000000001
#
# number of rings (size 3 to 8) (size 9 to 14) (size 15 to 20)
#    0.000    2.875    1.250    1.125    0.000    3.250 
#    0.000    1.875    0.000    1.500    0.000    0.000 
#    0.000    0.500    0.000    0.875    0.000    1.250 
#
# Total GULP energy -793441.495612 kJ/mol
# GULP energy per Si atom -12397.523369 kJ/mol
# Density = 1.699661 g / cm^3
# Si number density = 17.035381 Si / 1000 Ang^3
#
#
#
# Elastic Constant Matrix: (Units=GPa)
#
#
# Indices 1 2 3 4 5 6 
#
# 1 70.2960 22.2187 57.2801 0.0000 0.0000 0.0000
# 2 22.2187 64.8029 54.2126 0.0000 0.0000 0.0000
# 3 57.2801 54.2126 170.7266 0.0000 0.0000 0.0000
# 4 0.0000 0.0000 0.0000 16.7657 0.0000 0.0000
# 5 0.0000 0.0000 0.0000 0.0000 31.2016 0.0000
# 6 0.0000 0.0000 0.0000 0.0000 0.0000 6.3820
#
#
#
# Elastic Compliance Matrix: (Units=1/GPa)
#
#
# Indices 1 2 3 4 5 6 
#
# 1 0.019710 -0.001669 -0.006083 0.000000 0.000000 0.000000
# 2 -0.001669 0.021155 -0.006158 0.000000 0.000000 0.000000
# 3 -0.006083 -0.006158 0.009853 0.000000 0.000000 0.000000
# 4 0.000000 0.000000 0.000000 0.059646 0.000000 0.000000
# 5 0.000000 0.000000 0.000000 0.000000 0.032050 0.000000
# 6 0.000000 0.000000 0.000000 0.000000 0.000000 0.156691
#
#
# Mechanical properties :
#
#
# Convention : Reuss Voigt Hill
#
# Bulk Modulus (GPa) = 43.66965 63.69425 53.68195
# Shear Modulus (GPa) = 14.94519 22.34412 18.64466
#
# Velocity S-wave (km/s) = 2.96514 3.62557 3.31186
# Velocity P-wave (km/s) = 6.11662 7.41599 6.79743
#
# Compressibility (1/GPa) = 0.02289920
#
# Stress axis : x y z
#
# Youngs Moduli (GPa) = 50.73679 47.27031 101.48786
#
# Poissons Ratio (x) = 0.07890 0.61732
# Poissons Ratio (y) = 0.08468 0.62492
# Poissons Ratio (z) = 0.30862 0.29107
#
# Static dielectric constant tensor:
#      x y z
#    x 3.035310 0.000000 0.000000 
#    y 0.000000 2.954090 0.000000 
#    z 0.000000 0.000000 3.397220 
# 
# 
# High freq. dielectric constant tensor:
#      x y z
#    x 1.632750 0.000000 0.000000 
#    y 0.000000 1.614280 0.000000 
#    z 0.000000 0.000000 1.669480 
# 
# From -- ./inp_files/32571.got.cif
#   From: 2010.03.12/outbox.cif.g09.slc.cpg/sg51_17_cif.got.tgz:32571.got - 2010.04.16 13:43:02.
