data_PCOD8208492
_publ_section_title
;
Structure prediction by ZEFSAII (Michael W. Deem and Ramdas Pophale) SiO2 
 PCOD8208492
Probable space group: P M M A
;
_chemical_formula_sum "Si O2"
_cell_formula_units_Z 44
_cell_length_a 8.761731
_cell_length_b 28.409078
_cell_length_c 9.414532
_cell_angle_alpha 90.000000
_cell_angle_beta 90.000000
_cell_angle_gamma 90.000000
_cell_volume 2343.396574
_symmetry_space_group_name_H-M "P M M A"
_symmetry_group_IT_number 51
_symmetry_cell_setting 'orthorhombic'
loop_
_space_group_symop_operation_xyz
x,y,z
1/2-x,-y,z
1/2+x,-y,-z
-x,y,-z
-x,-y,-z
1/2+x,y,-z
1/2-x,y,z
x,-y,z
loop_
_atom_site_type_symbol
_atom_site_label
_atom_site_fract_x
_atom_site_fract_y
_atom_site_fract_z
Si Si1 0.569917 0.227408 0.147073
Si Si2 0.932277 0.500000 0.842408
Si Si3 0.428469 0.049718 0.346515
Si Si4 0.430628 0.417570 0.656185
Si Si5 0.930177 0.150884 0.654857
Si Si6 0.427893 0.333407 0.854061
O O1 0.750000 0.224177 0.138461
O O2 0.509624 0.193428 0.266894
O O3 0.514209 0.280654 0.181005
O O4 0.500000 0.209799 0.000000
O O5 0.750000 0.500000 0.850614
O O6 0.990164 0.545323 0.758700
O O7 0.000000 0.500000 0.000000
O O8 0.500000 0.049025 0.500000
O O9 0.250000 0.050070 0.371175
O O10 0.470884 0.099691 0.270940
O O11 0.475787 0.000000 0.266447
O O12 0.500000 0.421221 0.500000
O O13 0.250000 0.427171 0.649437
O O14 0.469812 0.366371 0.720893
O O15 0.750000 0.159853 0.649949
O O16 0.000000 0.150537 0.500000
O O17 0.250000 0.333509 0.882593
O O18 0.500000 0.352779 0.000000
#
# Coordination Sequence:
#
# PCOD8208492 Si02
#       6
#     8   4   8   8   8   8
#     4  10  20  36  55  77 105 139 177 218 264 316
#     4  12  25  42  63  88 116 150 188 226 267 316
#     4   8  14  25  42  65  94 127 164 207 255 307
#     4  11  23  40  60  86 117 149 183 223 270 316
#     4  10  19  31  49  75 104 135 171 214 263 314
#     4   9  20  37  58  81 106 138 179 221 264 316
#
# _framework density 18.776164000000001
#
# number of rings (size 3 to 8) (size 9 to 14) (size 15 to 20)
#    0.000    2.182    0.000    3.273    0.000    5.091 
#    0.000    1.818    0.000    0.545    0.000    0.000 
#    0.000    0.000    0.000    0.000    0.000    0.000 
#
# Total GULP energy -545157.516439 kJ/mol
# GULP energy per Si atom -12389.943555 kJ/mol
# Density = 1.873343 g / cm^3
# Si number density = 18.776164 Si / 1000 Ang^3
#
#
#
# Elastic Constant Matrix: (Units=GPa)
#
#
# Indices 1 2 3 4 5 6 
#
# 1 79.2554 49.4109 42.8995 0.0000 0.0000 0.0000
# 2 49.4109 133.8473 68.3348 0.0000 0.0000 0.0000
# 3 42.8995 68.3348 108.2610 0.0000 0.0000 0.0000
# 4 0.0000 0.0000 0.0000 -5.7387 0.0000 0.0000
# 5 0.0000 0.0000 0.0000 0.0000 33.1153 0.0000
# 6 0.0000 0.0000 0.0000 0.0000 0.0000 27.0574
#
#
#
# Elastic Compliance Matrix: (Units=1/GPa)
#
#
# Indices 1 2 3 4 5 6 
#
# 1 0.017619 -0.004337 -0.004244 0.000000 0.000000 0.000000
# 2 -0.004337 0.012091 -0.005913 0.000000 0.000000 0.000000
# 3 -0.004244 -0.005913 0.014651 0.000000 0.000000 0.000000
# 4 0.000000 0.000000 0.000000 -0.174255 0.000000 0.000000
# 5 0.000000 0.000000 0.000000 0.000000 0.030198 0.000000
# 6 0.000000 0.000000 0.000000 0.000000 0.000000 0.036958
#
#
# Mechanical properties :
#
#
# Convention : Reuss Voigt Hill
#
# Bulk Modulus (GPa) = 65.05333 71.40600 68.22967
# Shear Modulus (GPa) = -174.67603 21.60136 -76.53734
#
# Velocity S-wave (km/s) = -9.65571 3.39553 -6.39152
# Velocity P-wave (km/s) = 9.46511 7.31338 4.24869
#
# Compressibility (1/GPa) = 0.01537200
#
# Stress axis : x y z
#
# Youngs Moduli (GPa) = 56.75802 82.70290 68.25415
#
# Poissons Ratio (x) = 0.35872 0.28965
# Poissons Ratio (y) = 0.24619 0.40362
# Poissons Ratio (z) = 0.24087 0.48906
#
# Static dielectric constant tensor:
#      x y z
#    x 3.575090 0.000000 0.000000 
#    y 0.000000 4.338080 0.000000 
#    z 0.000000 0.000000 3.149270 
# 
# 
# High freq. dielectric constant tensor:
#      x y z
#    x 1.739020 0.000000 0.000000 
#    y 0.000000 1.757880 0.000000 
#    z 0.000000 0.000000 1.697360 
# 
# From -- ./inp_files/5849.got.cif
#   From: 2010.03.12/outbox.cif.g09.slc.cpg/sg51_3_cif.got.tgz:5849.got - 2010.04.16 13:43:02.
