data_PCOD8208934
_publ_section_title
;
Structure prediction by ZEFSAII (Michael W. Deem and Ramdas Pophale) SiO2 
 PCOD8208934
Probable space group: P M M A
;
_chemical_formula_sum "Si O2"
_cell_formula_units_Z 44
_cell_length_a 8.406473
_cell_length_b 16.536005
_cell_length_c 15.833296
_cell_angle_alpha 90.000000
_cell_angle_beta 90.000000
_cell_angle_gamma 90.000000
_cell_volume 2200.978237
_symmetry_space_group_name_H-M "P M M A"
_symmetry_group_IT_number 51
_symmetry_cell_setting 'orthorhombic'
loop_
_space_group_symop_operation_xyz
x,y,z
1/2-x,-y,z
1/2+x,-y,-z
-x,y,-z
-x,-y,-z
1/2+x,y,-z
1/2-x,y,z
x,-y,z
loop_
_atom_site_type_symbol
_atom_site_label
_atom_site_fract_x
_atom_site_fract_y
_atom_site_fract_z
Si Si1 0.433450 0.625781 0.710423
Si Si2 0.935902 0.794363 0.733178
Si Si3 0.067199 0.589571 0.117510
Si Si4 0.938000 0.500000 0.591606
Si Si5 0.434628 0.760575 0.912595
Si Si6 0.065259 0.905237 0.590195
O O1 0.250000 0.611190 0.734164
O O2 0.463870 0.720184 0.696232
O O3 0.545635 0.588376 0.782254
O O4 0.483330 0.580982 0.626667
O O5 0.750000 0.776373 0.728129
O O6 0.980672 0.804083 0.832735
O O7 0.977853 0.869518 0.672956
O O8 0.250000 0.607745 0.095179
O O9 0.017403 0.500000 0.082362
O O10 0.960721 0.663012 0.082153
O O11 0.750000 0.500000 0.601458
O O12 0.000000 0.500000 0.500000
O O13 0.250000 0.778876 0.904248
O O14 0.500000 0.798875 0.000000
O O15 0.250000 0.883775 0.595580
O O16 0.000000 0.871545 0.500000
O O17 0.031603 0.000000 0.594838
#
# Coordination Sequence:
#
# PCOD8208934 Si02
#       6
#     8   8   8   4   8   8
#     4  11  21  35  54  76 104 142 188 234 285 341
#     4  11  22  38  61  88 119 156 196 238 290 349
#     4  10  19  32  52  75 103 140 184 236 291 344
#     4  12  24  38  52  72 101 138 185 238 292 344
#     4  11  22  37  56  80 113 151 197 246 296 351
#     4  10  21  39  64  95 128 158 191 234 286 345
#
# _framework density 19.991109000000002
#
# number of rings (size 3 to 8) (size 9 to 14) (size 15 to 20)
#    0.000    1.273    0.909    9.000    0.000    3.273 
#    0.000    3.636    0.000    0.545    0.000    0.000 
#    0.000    0.000    0.000    0.000    0.000    0.000 
#
# Total GULP energy -545418.484520 kJ/mol
# GULP energy per Si atom -12395.874648 kJ/mol
# Density = 1.994561 g / cm^3
# Si number density = 19.991109 Si / 1000 Ang^3
#
#
#
# Elastic Constant Matrix: (Units=GPa)
#
#
# Indices 1 2 3 4 5 6 
#
# 1 106.9355 21.2921 33.9322 0.0000 0.0000 0.0000
# 2 21.2921 46.6842 39.0926 0.0000 0.0000 0.0000
# 3 33.9322 39.0926 154.0373 0.0000 0.0000 0.0000
# 4 0.0000 0.0000 0.0000 -16.5945 0.0000 0.0000
# 5 0.0000 0.0000 0.0000 0.0000 35.7515 0.0000
# 6 0.0000 0.0000 0.0000 0.0000 0.0000 28.1002
#
#
#
# Elastic Compliance Matrix: (Units=1/GPa)
#
#
# Indices 1 2 3 4 5 6 
#
# 1 0.010517 -0.003627 -0.001396 0.000000 0.000000 0.000000
# 2 -0.003627 0.028452 -0.006422 0.000000 0.000000 0.000000
# 3 -0.001396 -0.006422 0.008429 0.000000 0.000000 0.000000
# 4 0.000000 0.000000 0.000000 -0.060261 0.000000 0.000000
# 5 0.000000 0.000000 0.000000 0.000000 0.027971 0.000000
# 6 0.000000 0.000000 0.000000 0.000000 0.000000 0.035587
#
#
# Mechanical properties :
#
#
# Convention : Reuss Voigt Hill
#
# Bulk Modulus (GPa) = 40.80344 55.14343 47.97344
# Shear Modulus (GPa) = 61.15819 23.67412 42.41615
#
# Velocity S-wave (km/s) = 5.53707 3.44500 4.61124
# Velocity P-wave (km/s) = 7.83160 6.59302 7.23885
#
# Compressibility (1/GPa) = 0.02450774
#
# Stress axis : x y z
#
# Youngs Moduli (GPa) = 95.08684 35.14630 118.63478
#
# Poissons Ratio (x) = 0.12749 0.16562
# Poissons Ratio (y) = 0.34493 0.76185
# Poissons Ratio (z) = 0.13275 0.22570
#
# Static dielectric constant tensor:
#      x y z
#    x 3.792020 0.000000 0.000000 
#    y 0.000000 3.397160 0.000000 
#    z 0.000000 0.000000 3.824170 
# 
# 
# High freq. dielectric constant tensor:
#      x y z
#    x 1.797040 0.000000 0.000000 
#    y 0.000000 1.745000 0.000000 
#    z 0.000000 0.000000 1.791330 
# 
# From -- ./inp_files/20876.got.cif
#   From: 2010.03.12/outbox.cif.g09.slc.cpg/sg51_11_cif.got.tgz:20876.got - 2010.04.16 13:43:02.
