data_PCOD8208102
_publ_section_title
;
Structure prediction by ZEFSAII (Michael W. Deem and Ramdas Pophale) SiO2 
 PCOD8208102
Probable space group: P M M A
;
_chemical_formula_sum "Si O2"
_cell_formula_units_Z 48
_cell_length_a 18.607563
_cell_length_b 9.333521
_cell_length_c 15.518721
_cell_angle_alpha 90.000000
_cell_angle_beta 90.000000
_cell_angle_gamma 90.000000
_cell_volume 2695.199593
_symmetry_space_group_name_H-M "P M M A"
_symmetry_group_IT_number 51
_symmetry_cell_setting 'orthorhombic'
loop_
_space_group_symop_operation_xyz
x,y,z
1/2-x,-y,z
1/2+x,-y,-z
-x,y,-z
-x,-y,-z
1/2+x,y,-z
1/2-x,y,z
x,-y,z
loop_
_atom_site_type_symbol
_atom_site_label
_atom_site_fract_x
_atom_site_fract_y
_atom_site_fract_z
Si Si1 0.586039 0.338315 0.405801
Si Si2 0.415267 0.339829 0.404684
Si Si3 0.918286 0.164671 0.756494
Si Si4 0.834369 0.334240 0.092459
Si Si5 0.912748 0.166652 0.242639
Si Si6 0.666475 0.834453 0.922723
O O1 0.613314 0.500000 0.386269
O O2 0.500676 0.336097 0.404529
O O3 0.612678 0.288141 0.500968
O O4 0.615692 0.229487 0.333756
O O5 0.387405 0.500000 0.387586
O O6 0.385677 0.241467 0.327896
O O7 0.878394 0.222810 0.841237
O O8 0.002613 0.191906 0.767857
O O9 0.900012 0.000000 0.742967
O O10 0.750000 0.316716 0.107834
O O11 0.857690 0.500000 0.091279
O O12 0.874461 0.252213 0.167667
O O13 0.857609 0.262090 0.002880
O O14 0.892086 0.000000 0.237993
O O15 0.750000 0.814483 0.901461
O O16 0.648277 0.000000 0.943857
#
# Coordination Sequence:
#
# PCOD8208102 Si02
#       6
#     8   8   8   8   8   8
#     4   8  14  26  43  65  94 125 158 193 229 272
#     4   8  14  25  43  66  93 126 158 190 230 274
#     4   9  18  30  46  72 100 123 153 195 237 275
#     4  10  21  36  52  69  90 119 156 195 233 278
#     4  10  19  30  47  72  99 124 152 191 237 281
#     4   9  18  34  53  69  90 124 160 191 228 276
#
# _framework density 17.809441
#
# number of rings (size 3 to 8) (size 9 to 14) (size 15 to 20)
#    0.000    3.000    0.000    2.000    0.000    3.667 
#    0.000    6.667    0.000    1.000    0.000    4.667 
#    0.000    0.000    0.000    0.000    0.000    0.000 
#
# Total GULP energy -595030.926291 kJ/mol
# GULP energy per Si atom -12396.477631 kJ/mol
# Density = 1.776891 g / cm^3
# Si number density = 17.809441 Si / 1000 Ang^3
#
#
#
# Elastic Constant Matrix: (Units=GPa)
#
#
# Indices 1 2 3 4 5 6 
#
# 1 22.7399 31.8917 45.2422 0.0000 0.0000 0.0000
# 2 31.8917 117.6015 105.5280 0.0000 0.0000 0.0000
# 3 45.2422 105.5280 200.0398 0.0000 0.0000 0.0000
# 4 0.0000 0.0000 0.0000 42.3285 0.0000 0.0000
# 5 0.0000 0.0000 0.0000 0.0000 -7.5975 0.0000
# 6 0.0000 0.0000 0.0000 0.0000 0.0000 16.9496
#
#
#
# Elastic Compliance Matrix: (Units=1/GPa)
#
#
# Indices 1 2 3 4 5 6 
#
# 1 0.087200 -0.011299 -0.013761 0.000000 0.000000 0.000000
# 2 -0.011299 0.017611 -0.006735 0.000000 0.000000 0.000000
# 3 -0.013761 -0.006735 0.011664 0.000000 0.000000 0.000000
# 4 0.000000 0.000000 0.000000 0.023625 0.000000 0.000000
# 5 0.000000 0.000000 0.000000 0.000000 -0.131622 0.000000
# 6 0.000000 0.000000 0.000000 0.000000 0.000000 0.058998
#
#
# Mechanical properties :
#
#
# Convention : Reuss Voigt Hill
#
# Bulk Modulus (GPa) = 18.90884 78.41165 48.66025
# Shear Modulus (GPa) = 33.62585 20.85074 27.23829
#
# Velocity S-wave (km/s) = 4.34993 3.42536 3.91504
# Velocity P-wave (km/s) = 5.98912 7.73097 6.91511
#
# Compressibility (1/GPa) = 0.05288531
#
# Stress axis : x y z
#
# Youngs Moduli (GPa) = 11.46785 56.78312 85.73234
#
# Poissons Ratio (x) = 0.64159 1.17978
# Poissons Ratio (y) = 0.12957 0.57740
# Poissons Ratio (z) = 0.15781 0.38243
#
# Static dielectric constant tensor:
#      x y z
#    x 2.957200 0.000000 0.000000 
#    y 0.000000 3.428380 0.000000 
#    z 0.000000 0.000000 3.722880 
# 
# 
# High freq. dielectric constant tensor:
#      x y z
#    x 1.643330 0.000000 0.000000 
#    y 0.000000 1.690440 0.000000 
#    z 0.000000 0.000000 1.706580 
# 
# From -- ./inp_files/18137.got.cif
#   From: 2010.03.12/outbox.cif.g09.slc.cpg/sg51_10_cif.got.tgz:18137.got - 2010.04.16 13:43:02.
