data_PCOD8208861
_publ_section_title
;
Structure prediction by ZEFSAII (Michael W. Deem and Ramdas Pophale) SiO2 
 PCOD8208861
Probable space group: P M M A
;
_chemical_formula_sum "Si O2"
_cell_formula_units_Z 40
_cell_length_a 9.565179
_cell_length_b 9.444451
_cell_length_c 23.933955
_cell_angle_alpha 90.000000
_cell_angle_beta 90.000000
_cell_angle_gamma 90.000000
_cell_volume 2162.142381
_symmetry_space_group_name_H-M "P M M A"
_symmetry_group_IT_number 51
_symmetry_cell_setting 'orthorhombic'
loop_
_space_group_symop_operation_xyz
x,y,z
1/2-x,-y,z
1/2+x,-y,-z
-x,y,-z
-x,-y,-z
1/2+x,y,-z
1/2-x,y,z
x,-y,z
loop_
_atom_site_type_symbol
_atom_site_label
_atom_site_fract_x
_atom_site_fract_y
_atom_site_fract_z
Si Si1 0.750000 0.667700 0.417180
Si Si2 0.590670 0.831494 0.157044
Si Si3 0.465391 0.333106 0.368112
Si Si4 0.093718 0.161337 0.259222
Si Si5 0.589488 0.831394 0.947167
Si Si6 0.750000 0.666698 0.540923
O O1 0.750000 0.500000 0.424709
O O2 0.621375 0.717800 0.379866
O O3 0.750000 0.737400 0.479273
O O4 0.750000 0.772366 0.153346
O O5 0.518413 0.780193 0.214502
O O6 0.494596 0.773178 0.106678
O O7 0.593369 0.000000 0.154404
O O8 0.449262 0.500000 0.357509
O O9 0.408057 0.255463 0.314186
O O10 0.384335 0.285733 0.423866
O O11 0.250000 0.169707 0.233179
O O12 0.057310 0.000000 0.275387
O O13 0.750000 0.773095 0.948593
O O14 0.594996 0.000000 0.946672
O O15 0.500000 0.776785 0.000000
O O16 0.750000 0.500000 0.532614
#
# Coordination Sequence:
#
# PCOD8208861 Si02
#       6
#     4   8   8   8   8   4
#     4   9  18  30  49  75  99 119 148 193 240 284
#     4   9  17  28  42  61  86 120 160 196 235 285
#     4  10  19  32  51  74  96 121 155 195 237 283
#     4  10  20  33  48  66  93 128 162 196 236 284
#     4   9  15  23  37  58  86 119 156 198 240 280
#     4   9  16  30  51  73  95 121 152 189 236 288
#
# _framework density 18.500169
#
# number of rings (size 3 to 8) (size 9 to 14) (size 15 to 20)
#    0.000    2.600    1.000    1.800    1.400    7.200 
#    0.000    0.000    0.000    3.600    0.000    0.000 
#    0.000    0.800    0.000    2.000    0.000    2.600 
#
# Total GULP energy -495775.841653 kJ/mol
# GULP energy per Si atom -12394.396041 kJ/mol
# Density = 1.845806 g / cm^3
# Si number density = 18.500169 Si / 1000 Ang^3
#
#
#
# Elastic Constant Matrix: (Units=GPa)
#
#
# Indices 1 2 3 4 5 6 
#
# 1 156.1358 14.4140 49.2046 0.0000 0.0000 0.0000
# 2 14.4140 19.3910 20.2023 0.0000 0.0000 0.0000
# 3 49.2046 20.2023 107.6242 0.0000 0.0000 0.0000
# 4 0.0000 0.0000 0.0000 -277.9472 0.0000 0.0000
# 5 0.0000 0.0000 0.0000 0.0000 53.0057 0.0000
# 6 0.0000 0.0000 0.0000 0.0000 0.0000 10.3449
#
#
#
# Elastic Compliance Matrix: (Units=1/GPa)
#
#
# Indices 1 2 3 4 5 6 
#
# 1 0.007580 -0.002516 -0.002993 0.000000 0.000000 0.000000
# 2 -0.002516 0.064943 -0.011040 0.000000 0.000000 0.000000
# 3 -0.002993 -0.011040 0.012732 0.000000 0.000000 0.000000
# 4 0.000000 0.000000 0.000000 -0.003598 0.000000 0.000000
# 5 0.000000 0.000000 0.000000 0.000000 0.018866 0.000000
# 6 0.000000 0.000000 0.000000 0.000000 0.000000 0.096666
#
#
# Mechanical properties :
#
#
# Convention : Reuss Voigt Hill
#
# Bulk Modulus (GPa) = 19.17312 50.08808 34.63060
# Shear Modulus (GPa) = 20.18781 -29.63063 -4.72141
#
# Velocity S-wave (km/s) = 3.30695 -4.00639 -1.59926
# Velocity P-wave (km/s) = 4.99675 2.39407 3.91785
#
# Compressibility (1/GPa) = 0.05215636
#
# Stress axis : x y z
#
# Youngs Moduli (GPa) = 131.92132 15.39814 78.53930
#
# Poissons Ratio (x) = 0.03874 0.23509
# Poissons Ratio (y) = 0.33193 0.86709
# Poissons Ratio (z) = 0.39488 0.17000
#
# Static dielectric constant tensor:
#      x y z
#    x 3.781770 0.000000 0.000000 
#    y 0.000000 2.669830 0.000000 
#    z 0.000000 0.000000 3.479960 
# 
# 
# High freq. dielectric constant tensor:
#      x y z
#    x 1.742360 0.000000 0.000000 
#    y 0.000000 1.632820 0.000000 
#    z 0.000000 0.000000 1.728020 
# 
# From -- ./inp_files/31426.got.cif
#   From: 2010.03.12/outbox.cif.g09.slc.cpg/sg51_16_cif.got.tgz:31426.got - 2010.04.16 13:43:02.
