data_PCOD8208440
_publ_section_title
;
Structure prediction by ZEFSAII (Michael W. Deem and Ramdas Pophale) SiO2 
 PCOD8208440
Probable space group: P M M A
;
_chemical_formula_sum "Si O2"
_cell_formula_units_Z 56
_cell_length_a 18.618775
_cell_length_b 9.031464
_cell_length_c 18.206502
_cell_angle_alpha 90.000000
_cell_angle_beta 90.000000
_cell_angle_gamma 90.000000
_cell_volume 3061.510632
_symmetry_space_group_name_H-M "P M M A"
_symmetry_group_IT_number 51
_symmetry_cell_setting 'orthorhombic'
loop_
_space_group_symop_operation_xyz
x,y,z
1/2-x,-y,z
1/2+x,-y,-z
-x,y,-z
-x,-y,-z
1/2+x,y,-z
1/2-x,y,z
x,-y,z
loop_
_atom_site_type_symbol
_atom_site_label
_atom_site_fract_x
_atom_site_fract_y
_atom_site_fract_z
Si Si1 0.570814 0.323802 0.542271
Si Si2 0.040629 0.173368 0.073270
Si Si3 0.542832 0.664739 0.191157
Si Si4 0.331096 0.670626 0.711369
Si Si5 0.833111 0.676454 0.845971
Si Si6 0.834879 0.166121 0.431910
Si Si7 0.584627 0.334280 0.704797
O O1 0.500000 0.263085 0.500000
O O2 0.567884 0.500000 0.545907
O O3 0.639433 0.268876 0.497973
O O4 0.580673 0.255795 0.624836
O O5 0.116755 0.255587 0.089236
O O6 0.983650 0.209421 0.136567
O O7 0.057003 0.000000 0.070304
O O8 0.000000 0.228488 0.000000
O O9 0.537242 0.500000 0.155186
O O10 0.623951 0.701560 0.214795
O O11 0.495996 0.667584 0.265023
O O12 0.250000 0.714688 0.730933
O O13 0.337729 0.500000 0.686927
O O14 0.362305 0.768783 0.645304
O O15 0.750000 0.723739 0.857443
O O16 0.842521 0.500000 0.849649
O O17 0.861393 0.737004 0.766284
O O18 0.750000 0.170137 0.433767
O O19 0.864829 0.000000 0.440599
O O20 0.613004 0.500000 0.692044
#
# Coordination Sequence:
#
# PCOD8208440 Si02
#       7
#     8   8   8   8   8   8   8
#     4  10  19  31  49  72  97 128 170 216 259 304
#     4  10  21  36  54  78 108 140 170 199 240 300
#     4   9  17  32  54  76  99 127 162 206 251 296
#     4   9  17  31  52  75  97 125 165 211 256 301
#     4   9  18  34  56  80 104 133 173 218 261 305
#     4  10  21  34  46  65  97 134 168 204 250 302
#     4   8  15  28  47  71  97 126 162 207 255 299
#
# _framework density 18.291623999999999
#
# number of rings (size 3 to 8) (size 9 to 14) (size 15 to 20)
#    0.000    2.714    0.000    2.571    0.000    6.000 
#    0.000    5.000    0.000    2.571    0.000    0.000 
#    0.000    0.000    0.000    0.000    0.000    0.000 
#
# Total GULP energy -694020.494974 kJ/mol
# GULP energy per Si atom -12393.223125 kJ/mol
# Density = 1.824999 g / cm^3
# Si number density = 18.291624 Si / 1000 Ang^3
#
#
#
# Elastic Constant Matrix: (Units=GPa)
#
#
# Indices 1 2 3 4 5 6 
#
# 1 99.0775 29.6600 61.9590 0.0000 0.0000 0.0000
# 2 29.6600 30.1865 25.9958 0.0000 0.0000 0.0000
# 3 61.9590 25.9958 100.8726 0.0000 0.0000 0.0000
# 4 0.0000 0.0000 0.0000 18.0553 0.0000 0.0000
# 5 0.0000 0.0000 0.0000 0.0000 26.2504 0.0000
# 6 0.0000 0.0000 0.0000 0.0000 0.0000 21.2338
#
#
#
# Elastic Compliance Matrix: (Units=1/GPa)
#
#
# Indices 1 2 3 4 5 6 
#
# 1 0.018854 -0.010992 -0.008748 0.000000 0.000000 0.000000
# 2 -0.010992 0.048985 -0.005872 0.000000 0.000000 0.000000
# 3 -0.008748 -0.005872 0.016800 0.000000 0.000000 0.000000
# 4 0.000000 0.000000 0.000000 0.055385 0.000000 0.000000
# 5 0.000000 0.000000 0.000000 0.000000 0.038095 0.000000
# 6 0.000000 0.000000 0.000000 0.000000 0.000000 0.047095
#
#
# Mechanical properties :
#
#
# Convention : Reuss Voigt Hill
#
# Bulk Modulus (GPa) = 29.92705 51.70737 40.81721
# Shear Modulus (GPa) = 17.38665 20.60936 18.99800
#
# Velocity S-wave (km/s) = 3.08640 3.36029 3.22626
# Velocity P-wave (km/s) = 5.39423 6.58674 6.02009
#
# Compressibility (1/GPa) = 0.03341458
#
# Stress axis : x y z
#
# Youngs Moduli (GPa) = 53.03782 20.41458 59.52282
#
# Poissons Ratio (x) = 0.22439 0.52072
# Poissons Ratio (y) = 0.58298 0.34953
# Poissons Ratio (z) = 0.46399 0.11988
#
# Static dielectric constant tensor:
#      x y z
#    x 3.404730 0.000000 0.000000 
#    y 0.000000 3.202040 0.000000 
#    z 0.000000 0.000000 3.377040 
# 
# 
# High freq. dielectric constant tensor:
#      x y z
#    x 1.709910 0.000000 0.000000 
#    y 0.000000 1.683840 0.000000 
#    z 0.000000 0.000000 1.699140 
# 
# From -- ./inp_files/30354.got.cif
#   From: 2010.03.12/outbox.cif.g09.slc.cpg/sg51_16_cif.got.tgz:30354.got - 2010.04.16 13:43:02.
