data_PCOD8208627
_publ_section_title
;
Structure prediction by ZEFSAII (Michael W. Deem and Ramdas Pophale) SiO2 
 PCOD8208627
Probable space group: P M M A
;
_chemical_formula_sum "Si O2"
_cell_formula_units_Z 56
_cell_length_a 9.036874
_cell_length_b 23.356618
_cell_length_c 13.688918
_cell_angle_alpha 90.000000
_cell_angle_beta 90.000000
_cell_angle_gamma 90.000000
_cell_volume 2889.331064
_symmetry_space_group_name_H-M "P M M A"
_symmetry_group_IT_number 51
_symmetry_cell_setting 'orthorhombic'
loop_
_space_group_symop_operation_xyz
x,y,z
1/2-x,-y,z
1/2+x,-y,-z
-x,y,-z
-x,-y,-z
1/2+x,y,-z
1/2-x,y,z
x,-y,z
loop_
_atom_site_type_symbol
_atom_site_label
_atom_site_fract_x
_atom_site_fract_y
_atom_site_fract_z
Si Si1 0.577065 0.433508 0.209837
Si Si2 0.077585 0.873619 0.901481
Si Si3 0.921949 0.338300 0.902857
Si Si4 0.915881 0.432082 0.593802
Si Si5 0.578070 0.065581 0.296087
Si Si6 0.423274 0.165656 0.400863
Si Si7 0.419692 0.775273 0.203650
O O1 0.750000 0.420051 0.213236
O O2 0.545602 0.500000 0.189049
O O3 0.499397 0.397913 0.124683
O O4 0.506670 0.413373 0.311595
O O5 0.250000 0.868572 0.922481
O O6 0.040851 0.918726 0.815957
O O7 0.019446 0.811224 0.870740
O O8 0.000000 0.895524 0.000000
O O9 0.750000 0.349837 0.923091
O O10 0.945389 0.291758 0.817091
O O11 0.000000 0.314537 0.000000
O O12 0.750000 0.406483 0.599545
O O13 0.907945 0.500000 0.585084
O O14 0.000000 0.406259 0.500000
O O15 0.750000 0.077255 0.317716
O O16 0.482747 0.103222 0.370597
O O17 0.534575 0.000000 0.313732
O O18 0.500000 0.187098 0.500000
O O19 0.250000 0.160921 0.419608
O O20 0.462584 0.211478 0.315989
O O21 0.250000 0.792938 0.184298
#
# Coordination Sequence:
#
# PCOD8208627 Si02
#       7
#     8   8   8   8   8   8   8
#     4  10  21  37  56  80 111 146 184 224 267 319
#     4  10  19  31  51  77 105 140 180 224 274 324
#     4  11  23  39  59  82 108 139 177 221 270 324
#     4   9  16  28  49  76 105 138 175 214 256 303
#     4   9  19  35  52  74 107 146 188 229 267 313
#     4  10  20  36  58  83 110 141 178 220 269 321
#     4   9  20  38  58  80 106 136 175 223 269 320
#
# _framework density 19.381648999999999
#
# number of rings (size 3 to 8) (size 9 to 14) (size 15 to 20)
#    0.000    2.286    0.000    2.571    0.000    7.143 
#    0.000    0.714    0.000    1.714    0.000    0.000 
#    0.000    0.000    0.000    0.000    0.000    0.000 
#
# Total GULP energy -694563.303556 kJ/mol
# GULP energy per Si atom -12402.916135 kJ/mol
# Density = 1.933754 g / cm^3
# Si number density = 19.381649 Si / 1000 Ang^3
#
#
#
# Elastic Constant Matrix: (Units=GPa)
#
#
# Indices 1 2 3 4 5 6 
#
# 1 119.2025 45.2481 57.5240 0.0000 0.0000 0.0000
# 2 45.2481 76.0023 40.5030 0.0000 0.0000 0.0000
# 3 57.5240 40.5030 119.3423 0.0000 0.0000 0.0000
# 4 0.0000 0.0000 0.0000 18.5083 0.0000 0.0000
# 5 0.0000 0.0000 0.0000 0.0000 40.9812 0.0000
# 6 0.0000 0.0000 0.0000 0.0000 0.0000 23.9588
#
#
#
# Elastic Compliance Matrix: (Units=1/GPa)
#
#
# Indices 1 2 3 4 5 6 
#
# 1 0.012369 -0.005111 -0.004227 0.000000 0.000000 0.000000
# 2 -0.005111 0.018175 -0.003705 0.000000 0.000000 0.000000
# 3 -0.004227 -0.003705 0.011674 0.000000 0.000000 0.000000
# 4 0.000000 0.000000 0.000000 0.054030 0.000000 0.000000
# 5 0.000000 0.000000 0.000000 0.000000 0.024401 0.000000
# 6 0.000000 0.000000 0.000000 0.000000 0.000000 0.041738
#
#
# Mechanical properties :
#
#
# Convention : Reuss Voigt Hill
#
# Bulk Modulus (GPa) = 61.98955 66.78860 64.38907
# Shear Modulus (GPa) = 25.79294 28.10779 26.95036
#
# Velocity S-wave (km/s) = 3.65196 3.81232 3.73300
# Velocity P-wave (km/s) = 7.05942 7.34254 7.20237
#
# Compressibility (1/GPa) = 0.01613175
#
# Stress axis : x y z
#
# Youngs Moduli (GPa) = 80.84536 55.02151 85.65901
#
# Poissons Ratio (x) = 0.28123 0.36212
# Poissons Ratio (y) = 0.41322 0.31733
# Poissons Ratio (z) = 0.34177 0.20383
#
# Static dielectric constant tensor:
#      x y z
#    x 3.654460 0.000000 0.000000 
#    y 0.000000 3.254980 0.000000 
#    z 0.000000 0.000000 3.595050 
# 
# 
# High freq. dielectric constant tensor:
#      x y z
#    x 1.766250 0.000000 0.000000 
#    y 0.000000 1.728780 0.000000 
#    z 0.000000 0.000000 1.759120 
# 
# From -- ./inp_files/21842.got.cif
#   From: 2010.03.12/outbox.cif.g09.slc.cpg/sg51_11_cif.got.tgz:21842.got - 2010.04.16 13:43:02.
