data_PCOD8208939
_publ_section_title
;
Structure prediction by ZEFSAII (Michael W. Deem and Ramdas Pophale) SiO2 
 PCOD8208939
Probable space group: P M M A
;
_chemical_formula_sum "Si O2"
_cell_formula_units_Z 64
_cell_length_a 17.691701
_cell_length_b 9.101579
_cell_length_c 22.628170
_cell_angle_alpha 90.000000
_cell_angle_beta 90.000000
_cell_angle_gamma 90.000000
_cell_volume 3643.642564
_symmetry_space_group_name_H-M "P M M A"
_symmetry_group_IT_number 51
_symmetry_cell_setting 'orthorhombic'
loop_
_space_group_symop_operation_xyz
x,y,z
1/2-x,-y,z
1/2+x,-y,-z
-x,y,-z
-x,-y,-z
1/2+x,y,-z
1/2-x,y,z
x,-y,z
loop_
_atom_site_type_symbol
_atom_site_label
_atom_site_fract_x
_atom_site_fract_y
_atom_site_fract_z
Si Si1 0.544134 0.671574 0.125190
Si Si2 0.910154 0.831471 0.934688
Si Si3 0.964592 0.329363 0.754489
Si Si4 0.663981 0.826823 0.056507
Si Si5 0.836754 0.828429 0.552908
Si Si6 0.663781 0.834613 0.813668
Si Si7 0.927531 0.664582 0.459026
Si Si8 0.522351 0.826790 0.632773
O O1 0.549254 0.500000 0.113886
O O2 0.483289 0.735882 0.079564
O O3 0.523377 0.706816 0.193061
O O4 0.624066 0.746966 0.111561
O O5 0.847868 0.812245 0.883524
O O6 0.936664 0.000000 0.940232
O O7 0.873505 0.775026 0.995161
O O8 0.964290 0.500000 0.737516
O O9 0.881589 0.284027 0.776029
O O10 0.986232 0.234363 0.698243
O O11 0.750000 0.774536 0.056154
O O12 0.657108 0.000000 0.064871
O O13 0.750000 0.790034 0.571367
O O14 0.858039 0.741001 0.493293
O O15 0.895312 0.783856 0.605233
O O16 0.845106 0.000000 0.538663
O O17 0.750000 0.807443 0.797812
O O18 0.638665 0.000000 0.795525
O O19 0.902819 0.500000 0.440182
O O20 0.000000 0.657667 0.500000
O O21 0.951448 0.759053 0.402333
O O22 0.512128 0.000000 0.633236
#
# Coordination Sequence:
#
# PCOD8208939 Si02
#       8
#     8   8   8   8   8   8   8   8
#     4  10  21  35  50  70  98 131 165 202 246 296
#     4   9  17  31  51  73  97 126 160 199 244 295
#     4  10  21  35  49  68  96 130 168 208 247 289
#     4  10  20  33  51  75  99 123 156 201 252 303
#     4   9  18  32  50  75 107 136 161 195 239 285
#     4   9  17  30  48  69  95 128 164 200 240 291
#     4   9  17  30  49  73 101 132 164 197 234 278
#     4  10  19  32  52  75  98 130 171 209 244 285
#
# _framework density 17.56484
#
# number of rings (size 3 to 8) (size 9 to 14) (size 15 to 20)
#    0.000    2.500    0.000    2.250    0.000    8.250 
#    0.000    1.250    0.000    3.000    0.000    3.500 
#    0.000    0.000    0.000    0.000    0.000    0.000 
#
# Total GULP energy -793592.736496 kJ/mol
# GULP energy per Si atom -12399.886508 kJ/mol
# Density = 1.752486 g / cm^3
# Si number density = 17.564840 Si / 1000 Ang^3
#
#
#
# Elastic Constant Matrix: (Units=GPa)
#
#
# Indices 1 2 3 4 5 6 
#
# 1 82.0842 42.8629 50.8616 0.0000 0.0000 0.0000
# 2 42.8629 77.2350 53.0433 0.0000 0.0000 0.0000
# 3 50.8616 53.0433 104.5418 0.0000 0.0000 0.0000
# 4 0.0000 0.0000 0.0000 29.9841 0.0000 0.0000
# 5 0.0000 0.0000 0.0000 0.0000 13.1983 0.0000
# 6 0.0000 0.0000 0.0000 0.0000 0.0000 16.3559
#
#
#
# Elastic Compliance Matrix: (Units=1/GPa)
#
#
# Indices 1 2 3 4 5 6 
#
# 1 0.019396 -0.006574 -0.006101 0.000000 0.000000 0.000000
# 2 -0.006574 0.022101 -0.008015 0.000000 0.000000 0.000000
# 3 -0.006101 -0.008015 0.016600 0.000000 0.000000 0.000000
# 4 0.000000 0.000000 0.000000 0.033351 0.000000 0.000000
# 5 0.000000 0.000000 0.000000 0.000000 0.075767 0.000000
# 6 0.000000 0.000000 0.000000 0.000000 0.000000 0.061140
#
#
# Mechanical properties :
#
#
# Convention : Reuss Voigt Hill
#
# Bulk Modulus (GPa) = 59.82035 61.93295 60.87665
# Shear Modulus (GPa) = 18.16155 19.71389 18.93772
#
# Velocity S-wave (km/s) = 3.21903 3.35378 3.28710
# Velocity P-wave (km/s) = 6.92438 7.09460 7.01000
#
# Compressibility (1/GPa) = 0.01671672
#
# Stress axis : x y z
#
# Youngs Moduli (GPa) = 51.55781 45.24780 60.23928
#
# Poissons Ratio (x) = 0.29746 0.36751
# Poissons Ratio (y) = 0.33895 0.48282
# Poissons Ratio (z) = 0.31454 0.36267
#
# Static dielectric constant tensor:
#      x y z
#    x 3.214830 0.000000 0.000000 
#    y 0.000000 3.336980 0.000000 
#    z 0.000000 0.000000 3.239440 
# 
# 
# High freq. dielectric constant tensor:
#      x y z
#    x 1.662980 0.000000 0.000000 
#    y 0.000000 1.682920 0.000000 
#    z 0.000000 0.000000 1.669050 
# 
# From -- ./inp_files/33792.got.cif
#   From: 2010.03.12/outbox.cif.g09.slc.cpg/sg51_17_cif.got.tgz:33792.got - 2010.04.16 13:43:02.
