data_PCOD8208084
_publ_section_title
;
Structure prediction by ZEFSAII (Michael W. Deem and Ramdas Pophale) SiO2 
 PCOD8208084
Probable space group: P M M A
;
_chemical_formula_sum "Si O2"
_cell_formula_units_Z 64
_cell_length_a 8.818853
_cell_length_b 23.123921
_cell_length_c 19.014908
_cell_angle_alpha 90.000000
_cell_angle_beta 90.000000
_cell_angle_gamma 90.000000
_cell_volume 3877.642877
_symmetry_space_group_name_H-M "P M M A"
_symmetry_group_IT_number 51
_symmetry_cell_setting 'orthorhombic'
loop_
_space_group_symop_operation_xyz
x,y,z
1/2-x,-y,z
1/2+x,-y,-z
-x,y,-z
-x,-y,-z
1/2+x,y,-z
1/2-x,y,z
x,-y,z
loop_
_atom_site_type_symbol
_atom_site_label
_atom_site_fract_x
_atom_site_fract_y
_atom_site_fract_z
Si Si1 0.926827 0.886996 0.072541
Si Si2 0.073721 0.248677 0.927591
Si Si3 0.575898 0.066994 0.789541
Si Si4 0.929133 0.221909 0.575574
Si Si5 0.427694 0.565395 0.572523
Si Si6 0.575774 0.662284 0.654573
Si Si7 0.927153 0.265855 0.787254
Si Si8 0.429607 0.836913 0.703350
O O1 0.750000 0.901728 0.072176
O O2 0.956022 0.819103 0.083038
O O3 0.006846 0.921950 0.134023
O O4 0.000000 0.908475 0.000000
O O5 0.250000 0.264348 0.928144
O O6 0.991295 0.282381 0.863836
O O7 0.000000 0.270630 0.000000
O O8 0.750000 0.087695 0.789295
O O9 0.482398 0.100607 0.729918
O O10 0.561606 0.000000 0.770747
O O11 0.750000 0.213949 0.572799
O O12 0.974036 0.285139 0.604097
O O13 0.000000 0.212117 0.500000
O O14 0.997469 0.173801 0.627239
O O15 0.500000 0.588106 0.500000
O O16 0.250000 0.568880 0.563377
O O17 0.481713 0.500000 0.588803
O O18 0.477697 0.605963 0.636792
O O19 0.750000 0.646568 0.641975
O O20 0.545408 0.679847 0.735446
O O21 0.750000 0.250130 0.790526
O O22 0.016571 0.210235 0.759724
O O23 0.250000 0.834656 0.697498
#
# Coordination Sequence:
#
# PCOD8208084 Si02
#       8
#     8   8   8   8   8   8   8   8
#     4  10  20  33  50  71  95 125 159 195 235 283
#     4  10  19  30  47  71  97 129 162 195 238 289
#     4  11  23  37  53  71  93 123 157 196 240 286
#     4  10  20  34  52  76 102 127 157 196 240 288
#     4  10  20  32  47  68  97 136 176 211 245 282
#     4   9  19  32  48  72 100 132 166 202 243 281
#     4  10  19  32  50  71  98 128 160 201 244 289
#     4  11  21  34  52  73  96 124 156 192 238 290
#
# _framework density 16.504871999999999
#
# number of rings (size 3 to 8) (size 9 to 14) (size 15 to 20)
#    0.000    1.875    1.250    4.500    0.000    7.000 
#    0.000    0.000    0.000    0.375    0.000    0.000 
#    0.000    0.500    0.000    1.625    0.000    2.375 
#
# Total GULP energy -793842.855779 kJ/mol
# GULP energy per Si atom -12403.794622 kJ/mol
# Density = 1.646731 g / cm^3
# Si number density = 16.504872 Si / 1000 Ang^3
#
#
#
# Elastic Constant Matrix: (Units=GPa)
#
#
# Indices 1 2 3 4 5 6 
#
# 1 102.9740 37.5552 54.2046 0.0000 0.0000 0.0000
# 2 37.5552 64.5689 44.7283 0.0000 0.0000 0.0000
# 3 54.2046 44.7283 135.9734 0.0000 0.0000 0.0000
# 4 0.0000 0.0000 0.0000 21.8546 0.0000 0.0000
# 5 0.0000 0.0000 0.0000 0.0000 34.8098 0.0000
# 6 0.0000 0.0000 0.0000 0.0000 0.0000 23.0886
#
#
#
# Elastic Compliance Matrix: (Units=1/GPa)
#
#
# Indices 1 2 3 4 5 6 
#
# 1 0.013594 -0.005378 -0.003650 0.000000 0.000000 0.000000
# 2 -0.005378 0.022186 -0.005154 0.000000 0.000000 0.000000
# 3 -0.003650 -0.005154 0.010505 0.000000 0.000000 0.000000
# 4 0.000000 0.000000 0.000000 0.045757 0.000000 0.000000
# 5 0.000000 0.000000 0.000000 0.000000 0.028728 0.000000
# 6 0.000000 0.000000 0.000000 0.000000 0.000000 0.043311
#
#
# Mechanical properties :
#
#
# Convention : Reuss Voigt Hill
#
# Bulk Modulus (GPa) = 55.80308 64.05471 59.92890
# Shear Modulus (GPa) = 25.19931 27.08581 26.14256
#
# Velocity S-wave (km/s) = 3.91164 4.05542 3.98418
# Velocity P-wave (km/s) = 7.36782 7.79887 7.58641
#
# Compressibility (1/GPa) = 0.01792016
#
# Stress axis : x y z
#
# Youngs Moduli (GPa) = 73.56209 45.07392 95.19453
#
# Poissons Ratio (x) = 0.24242 0.34745
# Poissons Ratio (y) = 0.39563 0.49063
# Poissons Ratio (z) = 0.26850 0.23231
#
# Static dielectric constant tensor:
#      x y z
#    x 3.223070 0.000000 0.000000 
#    y 0.000000 2.870550 0.000000 
#    z 0.000000 0.000000 3.312690 
# 
# 
# High freq. dielectric constant tensor:
#      x y z
#    x 1.654860 0.000000 0.000000 
#    y 0.000000 1.596840 0.000000 
#    z 0.000000 0.000000 1.636630 
# 
# From -- ./inp_files/28334.got.cif
#   From: 2010.03.12/outbox.cif.g09.slc.cpg/sg51_15_cif.got.tgz:28334.got - 2010.04.16 13:43:02.
