data_PCOD8208387
_publ_section_title
;
Structure prediction by ZEFSAII (Michael W. Deem and Ramdas Pophale) SiO2 
 PCOD8208387
Probable space group: P M M A
;
_chemical_formula_sum "Si O2"
_cell_formula_units_Z 64
_cell_length_a 8.852831
_cell_length_b 24.958000
_cell_length_c 15.336342
_cell_angle_alpha 90.000000
_cell_angle_beta 90.000000
_cell_angle_gamma 90.000000
_cell_volume 3388.548755
_symmetry_space_group_name_H-M "P M M A"
_symmetry_group_IT_number 51
_symmetry_cell_setting 'orthorhombic'
loop_
_space_group_symop_operation_xyz
x,y,z
1/2-x,-y,z
1/2+x,-y,-z
-x,y,-z
-x,-y,-z
1/2+x,y,-z
1/2-x,y,z
x,-y,z
loop_
_atom_site_type_symbol
_atom_site_label
_atom_site_fract_x
_atom_site_fract_y
_atom_site_fract_z
Si Si1 0.072072 0.826579 0.085076
Si Si2 0.570490 0.440316 0.732670
Si Si3 0.927010 0.150336 0.722009
Si Si4 0.929212 0.643864 0.590414
Si Si5 0.577789 0.259485 0.322386
Si Si6 0.423552 0.284714 0.875641
Si Si7 0.927748 0.939571 0.589450
Si Si8 0.428651 0.394647 0.085943
O O1 0.250000 0.822235 0.072888
O O2 0.030956 0.857102 0.175504
O O3 0.998852 0.768240 0.086746
O O4 0.000000 0.856539 0.000000
O O5 0.750000 0.438110 0.733433
O O6 0.512905 0.500000 0.708940
O O7 0.508513 0.398060 0.662232
O O8 0.509489 0.424980 0.828542
O O9 0.750000 0.161828 0.712311
O O10 0.978090 0.097006 0.670946
O O11 0.012844 0.199705 0.678147
O O12 0.750000 0.643211 0.584470
O O13 0.000000 0.624667 0.500000
O O14 0.983130 0.703962 0.611566
O O15 0.750000 0.256913 0.354771
O O16 0.564319 0.286111 0.228205
O O17 0.250000 0.288140 0.906489
O O18 0.518962 0.333364 0.913049
O O19 0.750000 0.937644 0.576932
O O20 0.000000 0.917756 0.500000
O O21 0.984015 0.000000 0.609033
O O22 0.250000 0.397591 0.080126
O O23 0.500000 0.422463 0.000000
#
# Coordination Sequence:
#
# PCOD8208387 Si02
#       8
#     8   8   8   8   8   8   8   8
#     4  10  19  31  48  72 105 143 183 221 263 310
#     4   9  20  39  60  79 103 137 175 217 266 320
#     4   9  19  34  53  78 110 148 184 219 265 322
#     4  11  22  38  60  83 108 139 175 216 266 322
#     4  10  20  34  54  80 111 142 176 218 264 315
#     4  10  19  32  51  75 105 138 175 216 259 311
#     4   9  18  34  56  81 108 140 180 225 270 317
#     4  11  21  34  54  79 106 138 174 213 261 315
#
# _framework density 18.887141
#
# number of rings (size 3 to 8) (size 9 to 14) (size 15 to 20)
#    0.000    2.125    1.250    2.250    0.000    3.000 
#    0.000    1.250    0.000    5.625    0.000    0.000 
#    0.000    0.000    0.000    0.000    0.000    0.375 
#
# Total GULP energy -793589.674108 kJ/mol
# GULP energy per Si atom -12399.838658 kJ/mol
# Density = 1.884415 g / cm^3
# Si number density = 18.887141 Si / 1000 Ang^3
#
#
#
# Elastic Constant Matrix: (Units=GPa)
#
#
# Indices 1 2 3 4 5 6 
#
# 1 70.5121 30.5902 46.1071 0.0000 0.0000 0.0000
# 2 30.5902 90.2577 67.4149 0.0000 0.0000 0.0000
# 3 46.1071 67.4149 150.2980 0.0000 0.0000 0.0000
# 4 0.0000 0.0000 0.0000 19.1783 0.0000 0.0000
# 5 0.0000 0.0000 0.0000 0.0000 33.2372 0.0000
# 6 0.0000 0.0000 0.0000 0.0000 0.0000 14.7329
#
#
#
# Elastic Compliance Matrix: (Units=1/GPa)
#
#
# Indices 1 2 3 4 5 6 
#
# 1 0.018271 -0.003017 -0.004252 0.000000 0.000000 0.000000
# 2 -0.003017 0.017159 -0.006771 0.000000 0.000000 0.000000
# 3 -0.004252 -0.006771 0.010995 0.000000 0.000000 0.000000
# 4 0.000000 0.000000 0.000000 0.052142 0.000000 0.000000
# 5 0.000000 0.000000 0.000000 0.000000 0.030087 0.000000
# 6 0.000000 0.000000 0.000000 0.000000 0.000000 0.067875
#
#
# Mechanical properties :
#
#
# Convention : Reuss Voigt Hill
#
# Bulk Modulus (GPa) = 54.50862 66.58805 60.54834
# Shear Modulus (GPa) = 21.67088 24.56006 23.11547
#
# Velocity S-wave (km/s) = 3.39099 3.60996 3.50219
# Velocity P-wave (km/s) = 6.65241 7.26003 6.96285
#
# Compressibility (1/GPa) = 0.01834572
#
# Stress axis : x y z
#
# Youngs Moduli (GPa) = 54.73173 58.27729 90.95020
#
# Poissons Ratio (x) = 0.17580 0.38672
# Poissons Ratio (y) = 0.16510 0.61585
# Poissons Ratio (z) = 0.23272 0.39461
#
# Static dielectric constant tensor:
#      x y z
#    x 3.380130 0.000000 0.000000 
#    y 0.000000 3.351980 0.000000 
#    z 0.000000 0.000000 3.775760 
# 
# 
# High freq. dielectric constant tensor:
#      x y z
#    x 1.728290 0.000000 0.000000 
#    y 0.000000 1.707870 0.000000 
#    z 0.000000 0.000000 1.747480 
# 
# From -- ./inp_files/22210.got.cif
#   From: 2010.03.12/outbox.cif.g09.slc.cpg/sg51_12_cif.got.tgz:22210.got - 2010.04.16 13:43:02.
