data_PCOD8208521
_publ_section_title
;
Structure prediction by ZEFSAII (Michael W. Deem and Ramdas Pophale) SiO2 
 PCOD8208521
Probable space group: P M M A
;
_chemical_formula_sum "Si O2"
_cell_formula_units_Z 56
_cell_length_a 9.297980
_cell_length_b 22.395081
_cell_length_c 14.862912
_cell_angle_alpha 90.000000
_cell_angle_beta 90.000000
_cell_angle_gamma 90.000000
_cell_volume 3094.889529
_symmetry_space_group_name_H-M "P M M A"
_symmetry_group_IT_number 51
_symmetry_cell_setting 'orthorhombic'
loop_
_space_group_symop_operation_xyz
x,y,z
1/2-x,-y,z
1/2+x,-y,-z
-x,y,-z
-x,-y,-z
1/2+x,y,-z
1/2-x,y,z
x,-y,z
loop_
_atom_site_type_symbol
_atom_site_label
_atom_site_fract_x
_atom_site_fract_y
_atom_site_fract_z
Si Si1 0.583732 0.253764 0.411343
Si Si2 0.586229 0.432813 0.755980
Si Si3 0.415951 0.208568 0.087010
Si Si4 0.582065 0.345536 0.912203
Si Si5 0.417195 0.828120 0.281215
Si Si6 0.915998 0.606217 0.411852
Si Si7 0.416792 0.067519 0.412211
O O1 0.500000 0.231731 0.500000
O O2 0.750000 0.235583 0.421841
O O3 0.515172 0.222542 0.325008
O O4 0.563799 0.323650 0.396127
O O5 0.750000 0.416669 0.727887
O O6 0.578127 0.500000 0.794835
O O7 0.529434 0.386500 0.830238
O O8 0.482974 0.428988 0.670880
O O9 0.250000 0.203463 0.061932
O O10 0.458417 0.276950 0.109017
O O11 0.453829 0.168986 0.174911
O O12 0.500000 0.183902 0.000000
O O13 0.750000 0.353864 0.929715
O O14 0.500000 0.368323 0.000000
O O15 0.250000 0.810601 0.294909
O O16 0.453552 0.891964 0.325821
O O17 0.750000 0.588554 0.422490
O O18 0.000000 0.584936 0.500000
O O19 0.500000 0.091484 0.500000
O O20 0.250000 0.070754 0.436498
O O21 0.464719 0.000000 0.388541
#
# Coordination Sequence:
#
# PCOD8208521 Si02
#       7
#     8   8   8   8   8   8   8
#     4  10  20  32  48  73 102 129 159 198 245 296
#     4  10  21  36  53  73  97 126 161 201 244 290
#     4   9  18  32  50  72  97 126 160 200 246 295
#     4   9  18  33  52  73  98 126 156 194 243 296
#     4  10  19  31  50  74 100 132 168 205 247 292
#     4  10  21  36  53  72  96 128 163 200 244 293
#     4   9  18  32  49  71 101 136 172 207 242 284
#
# _framework density 18.094345000000001
#
# number of rings (size 3 to 8) (size 9 to 14) (size 15 to 20)
#    0.000    2.429    0.000    2.143    0.000    6.571 
#    0.000    2.857    0.000    0.429    0.000    0.000 
#    0.000    0.000    0.000    0.000    0.000    0.000 
#
# Total GULP energy -694539.393365 kJ/mol
# GULP energy per Si atom -12402.489167 kJ/mol
# Density = 1.805316 g / cm^3
# Si number density = 18.094345 Si / 1000 Ang^3
#
#
#
# Elastic Constant Matrix: (Units=GPa)
#
#
# Indices 1 2 3 4 5 6 
#
# 1 72.8347 31.2177 56.7479 0.0000 0.0000 0.0000
# 2 31.2177 60.5759 54.9598 0.0000 0.0000 0.0000
# 3 56.7479 54.9598 146.8611 0.0000 0.0000 0.0000
# 4 0.0000 0.0000 0.0000 22.0156 0.0000 0.0000
# 5 0.0000 0.0000 0.0000 0.0000 36.1099 0.0000
# 6 0.0000 0.0000 0.0000 0.0000 0.0000 18.6688
#
#
#
# Elastic Compliance Matrix: (Units=1/GPa)
#
#
# Indices 1 2 3 4 5 6 
#
# 1 0.020654 -0.005153 -0.006053 0.000000 0.000000 0.000000
# 2 -0.005153 0.026280 -0.007844 0.000000 0.000000 0.000000
# 3 -0.006053 -0.007844 0.012083 0.000000 0.000000 0.000000
# 4 0.000000 0.000000 0.000000 0.045422 0.000000 0.000000
# 5 0.000000 0.000000 0.000000 0.000000 0.027693 0.000000
# 6 0.000000 0.000000 0.000000 0.000000 0.000000 0.053565
#
#
# Mechanical properties :
#
#
# Convention : Reuss Voigt Hill
#
# Bulk Modulus (GPa) = 47.80231 62.90251 55.35241
# Shear Modulus (GPa) = 21.66665 24.51528 23.09097
#
# Velocity S-wave (km/s) = 3.46414 3.68483 3.57619
# Velocity P-wave (km/s) = 6.51737 7.27620 6.90721
#
# Compressibility (1/GPa) = 0.02091949
#
# Stress axis : x y z
#
# Youngs Moduli (GPa) = 48.41706 38.05138 82.75889
#
# Poissons Ratio (x) = 0.19606 0.50090
# Poissons Ratio (y) = 0.24947 0.64915
# Poissons Ratio (z) = 0.29305 0.29847
#
# Static dielectric constant tensor:
#      x y z
#    x 3.502830 0.000000 0.000000 
#    y 0.000000 3.276840 0.000000 
#    z 0.000000 0.000000 3.352530 
# 
# 
# High freq. dielectric constant tensor:
#      x y z
#    x 1.701150 0.000000 0.000000 
#    y 0.000000 1.685550 0.000000 
#    z 0.000000 0.000000 1.697490 
# 
# From -- ./inp_files/21705.got.cif
#   From: 2010.03.12/outbox.cif.g09.slc.cpg/sg51_11_cif.got.tgz:21705.got - 2010.04.16 13:43:02.
