data_PCOD8208655
_publ_section_title
;
Structure prediction by ZEFSAII (Michael W. Deem and Ramdas Pophale) SiO2 
 PCOD8208655
Probable space group: P M M A
;
_chemical_formula_sum "Si O2"
_cell_formula_units_Z 64
_cell_length_a 18.990817
_cell_length_b 9.071436
_cell_length_c 20.524921
_cell_angle_alpha 90.000000
_cell_angle_beta 90.000000
_cell_angle_gamma 90.000000
_cell_volume 3535.909850
_symmetry_space_group_name_H-M "P M M A"
_symmetry_group_IT_number 51
_symmetry_cell_setting 'orthorhombic'
loop_
_space_group_symop_operation_xyz
x,y,z
1/2-x,-y,z
1/2+x,-y,-z
-x,y,-z
-x,-y,-z
1/2+x,y,-z
1/2-x,y,z
x,-y,z
loop_
_atom_site_type_symbol
_atom_site_label
_atom_site_fract_x
_atom_site_fract_y
_atom_site_fract_z
Si Si1 0.429083 0.673106 0.132886
Si Si2 0.830859 0.330516 0.747997
Si Si3 0.672116 0.325177 0.384180
Si Si4 0.666811 0.666855 0.239446
Si Si5 0.922873 0.826102 0.135120
Si Si6 0.583405 0.837413 0.993267
Si Si7 0.918969 0.674578 0.503990
Si Si8 0.831009 0.173570 0.615801
O O1 0.440209 0.500000 0.127954
O O2 0.376600 0.718587 0.190374
O O3 0.503305 0.747349 0.148066
O O4 0.394858 0.727532 0.064655
O O5 0.750000 0.305049 0.767318
O O6 0.845233 0.500000 0.729054
O O7 0.852749 0.230443 0.687034
O O8 0.750000 0.259459 0.398647
O O9 0.676937 0.500000 0.386328
O O10 0.646040 0.278745 0.312181
O O11 0.617859 0.266359 0.438052
O O12 0.750000 0.673368 0.230771
O O13 0.639672 0.500000 0.227242
O O14 0.632189 0.778449 0.189352
O O15 0.936181 0.000000 0.138204
O O16 0.889692 0.782680 0.064320
O O17 0.613493 0.000000 0.976829
O O18 0.500000 0.845174 0.000000
O O19 0.910826 0.500000 0.512023
O O20 0.882312 0.750504 0.564795
O O21 0.000000 0.722525 0.500000
O O22 0.750000 0.217095 0.600408
O O23 0.842238 0.000000 0.613166
#
# Coordination Sequence:
#
# PCOD8208655 Si02
#       8
#     8   8   8   8   8   8   8   8
#     4  10  19  31  52  78 100 127 168 215 256 296
#     4   9  19  36  55  75 101 133 169 210 256 305
#     4   8  15  30  51  71  94 129 168 203 244 295
#     4   9  18  33  52  73  97 128 171 219 257 292
#     4  10  20  33  50  73 103 137 169 203 250 310
#     4   8  16  31  48  68  98 134 169 204 245 299
#     4  10  20  33  52  79 107 134 167 208 253 301
#     4  10  21  36  54  76 102 135 173 209 249 301
#
# _framework density 18.100009
#
# number of rings (size 3 to 8) (size 9 to 14) (size 15 to 20)
#    0.000    2.750    0.000    3.000    0.000    6.500 
#    0.000    3.750    0.000    3.000    0.000    0.000 
#    0.000    0.000    0.000    0.000    0.000    0.000 
#
# Total GULP energy -793459.812432 kJ/mol
# GULP energy per Si atom -12397.809569 kJ/mol
# Density = 1.805881 g / cm^3
# Si number density = 18.100009 Si / 1000 Ang^3
#
#
#
# Elastic Constant Matrix: (Units=GPa)
#
#
# Indices 1 2 3 4 5 6 
#
# 1 79.1089 41.8704 79.4560 0.0000 0.0000 0.0000
# 2 41.8704 66.2664 59.7596 0.0000 0.0000 0.0000
# 3 79.4560 59.7596 166.5927 0.0000 0.0000 0.0000
# 4 0.0000 0.0000 0.0000 14.5556 0.0000 0.0000
# 5 0.0000 0.0000 0.0000 0.0000 7.7280 0.0000
# 6 0.0000 0.0000 0.0000 0.0000 0.0000 15.9174
#
#
#
# Elastic Compliance Matrix: (Units=1/GPa)
#
#
# Indices 1 2 3 4 5 6 
#
# 1 0.026863 -0.008011 -0.009939 0.000000 0.000000 0.000000
# 2 -0.008011 0.024695 -0.005038 0.000000 0.000000 0.000000
# 3 -0.009939 -0.005038 0.012550 0.000000 0.000000 0.000000
# 4 0.000000 0.000000 0.000000 0.068702 0.000000 0.000000
# 5 0.000000 0.000000 0.000000 0.000000 0.129400 0.000000
# 6 0.000000 0.000000 0.000000 0.000000 0.000000 0.062824
#
#
# Mechanical properties :
#
#
# Convention : Reuss Voigt Hill
#
# Bulk Modulus (GPa) = 55.14535 74.90444 65.02490
# Shear Modulus (GPa) = 13.26072 16.36567 14.81320
#
# Velocity S-wave (km/s) = 2.70966 3.01022 2.86389
# Velocity P-wave (km/s) = 6.35003 7.31816 6.85121
#
# Compressibility (1/GPa) = 0.01813389
#
# Stress axis : x y z
#
# Youngs Moduli (GPa) = 37.22618 40.49337 79.68053
#
# Poissons Ratio (x) = 0.32437 0.79192
# Poissons Ratio (y) = 0.29820 0.40144
# Poissons Ratio (z) = 0.36998 0.20401
#
# Static dielectric constant tensor:
#      x y z
#    x 3.302780 0.000000 0.000000 
#    y 0.000000 3.233420 0.000000 
#    z 0.000000 0.000000 3.744370 
# 
# 
# High freq. dielectric constant tensor:
#      x y z
#    x 1.681790 0.000000 0.000000 
#    y 0.000000 1.688010 0.000000 
#    z 0.000000 0.000000 1.716470 
# 
# From -- ./inp_files/33865.got.cif
#   From: 2010.03.12/outbox.cif.g09.slc.cpg/sg51_17_cif.got.tgz:33865.got - 2010.04.16 13:43:02.
