data_PCOD8208531
_publ_section_title
;
Structure prediction by ZEFSAII (Michael W. Deem and Ramdas Pophale) SiO2 
 PCOD8208531
Probable space group: P M M A
;
_chemical_formula_sum "Si O2"
_cell_formula_units_Z 64
_cell_length_a 14.938166
_cell_length_b 9.345619
_cell_length_c 23.950017
_cell_angle_alpha 90.000000
_cell_angle_beta 90.000000
_cell_angle_gamma 90.000000
_cell_volume 3343.575845
_symmetry_space_group_name_H-M "P M M A"
_symmetry_group_IT_number 51
_symmetry_cell_setting 'orthorhombic'
loop_
_space_group_symop_operation_xyz
x,y,z
1/2-x,-y,z
1/2+x,-y,-z
-x,y,-z
-x,-y,-z
1/2+x,y,-z
1/2-x,y,z
x,-y,z
loop_
_atom_site_type_symbol
_atom_site_label
_atom_site_fract_x
_atom_site_fract_y
_atom_site_fract_z
Si Si1 0.147701 0.165971 0.672068
Si Si2 0.147686 0.164085 0.041947
Si Si3 0.597403 0.837940 0.526393
Si Si4 0.350013 0.654877 0.570003
Si Si5 0.498676 0.831501 0.133077
Si Si6 0.853859 0.332494 0.068981
Si Si7 0.351245 0.830100 0.351106
Si Si8 0.983031 0.831843 0.742464
O O1 0.250000 0.205802 0.687786
O O2 0.106700 0.246810 0.618101
O O3 0.084195 0.207444 0.723766
O O4 0.139351 0.000000 0.656593
O O5 0.250000 0.189036 0.060980
O O6 0.084558 0.205150 0.093365
O O7 0.132375 0.000000 0.023108
O O8 0.121368 0.265385 0.990801
O O9 0.500000 0.824018 0.500000
O O10 0.657097 0.733284 0.489402
O O11 0.602461 0.784786 0.590341
O O12 0.633937 0.000000 0.521957
O O13 0.250000 0.627663 0.590391
O O14 0.399479 0.500000 0.565267
O O15 0.587005 0.745169 0.115597
O O16 0.470148 0.776146 0.194508
O O17 0.521611 0.000000 0.132868
O O18 0.750000 0.304629 0.083393
O O19 0.876308 0.500000 0.067197
O O20 0.250000 0.769336 0.347860
O O21 0.409452 0.764291 0.299908
O O22 0.349851 0.000000 0.346880
O O23 0.968845 0.000000 0.741398
#
# Coordination Sequence:
#
# PCOD8208531 Si02
#       8
#     8   8   8   8   8   8   8   8
#     4   9  17  31  51  71  94 128 167 207 252 302
#     4   9  18  33  53  79 111 143 174 211 258 310
#     4  10  19  31  50  74  98 126 163 207 252 301
#     4  10  20  32  47  70  98 125 155 196 249 306
#     4  10  20  33  53  80 107 137 174 216 261 307
#     4  10  21  36  54  78 108 141 175 212 258 311
#     4   9  17  29  47  72 101 132 166 207 254 300
#     4   9  18  32  49  72 100 130 169 211 248 295
#
# _framework density 19.141183999999999
#
# number of rings (size 3 to 8) (size 9 to 14) (size 15 to 20)
#    0.000    2.500    0.000    2.250    0.000    7.250 
#    0.000    4.375    0.000    2.250    0.000    0.000 
#    0.000    0.000    0.000    0.000    0.000    0.000 
#
# Total GULP energy -793318.226758 kJ/mol
# GULP energy per Si atom -12395.597293 kJ/mol
# Density = 1.909762 g / cm^3
# Si number density = 19.141184 Si / 1000 Ang^3
#
#
#
# Elastic Constant Matrix: (Units=GPa)
#
#
# Indices 1 2 3 4 5 6 
#
# 1 103.9477 30.1320 70.9728 0.0000 0.0000 0.0000
# 2 30.1320 61.1821 40.5462 0.0000 0.0000 0.0000
# 3 70.9728 40.5462 156.1818 0.0000 0.0000 0.0000
# 4 0.0000 0.0000 0.0000 1.8589 0.0000 0.0000
# 5 0.0000 0.0000 0.0000 0.0000 28.3301 0.0000
# 6 0.0000 0.0000 0.0000 0.0000 0.0000 16.1680
#
#
#
# Elastic Compliance Matrix: (Units=1/GPa)
#
#
# Indices 1 2 3 4 5 6 
#
# 1 0.014495 -0.003350 -0.005717 0.000000 0.000000 0.000000
# 2 -0.003350 0.020515 -0.003804 0.000000 0.000000 0.000000
# 3 -0.005717 -0.003804 0.009988 0.000000 0.000000 0.000000
# 4 0.000000 0.000000 0.000000 0.537957 0.000000 0.000000
# 5 0.000000 0.000000 0.000000 0.000000 0.035298 0.000000
# 6 0.000000 0.000000 0.000000 0.000000 0.000000 0.061850
#
#
# Mechanical properties :
#
#
# Convention : Reuss Voigt Hill
#
# Bulk Modulus (GPa) = 51.92931 67.17930 59.55430
# Shear Modulus (GPa) = 7.01987 21.24877 14.13432
#
# Velocity S-wave (km/s) = 1.91713 3.33544 2.72035
# Velocity P-wave (km/s) = 5.66472 7.07153 6.40685
#
# Compressibility (1/GPa) = 0.01925695
#
# Stress axis : x y z
#
# Youngs Moduli (GPa) = 68.99041 48.74440 100.11747
#
# Poissons Ratio (x) = 0.16328 0.57238
# Poissons Ratio (y) = 0.23111 0.38082
# Poissons Ratio (z) = 0.39443 0.18541
#
# Static dielectric constant tensor:
#      x y z
#    x 3.613680 0.000000 0.000000 
#    y 0.000000 3.384340 0.000000 
#    z 0.000000 0.000000 3.599100 
# 
# 
# High freq. dielectric constant tensor:
#      x y z
#    x 1.748260 0.000000 0.000000 
#    y 0.000000 1.709800 0.000000 
#    z 0.000000 0.000000 1.740930 
# 
# From -- ./inp_files/35604.got.cif
#   From: 2010.03.12/outbox.cif.g09.slc.cpg/sg51_18_cif.got.tgz:35604.got - 2010.04.16 13:43:02.
