data_PCOD8208724
_publ_section_title
;
Structure prediction by ZEFSAII (Michael W. Deem and Ramdas Pophale) SiO2 
 PCOD8208724
Probable space group: P M M A
;
_chemical_formula_sum "Si O2"
_cell_formula_units_Z 56
_cell_length_a 8.761262
_cell_length_b 19.551650
_cell_length_c 15.540702
_cell_angle_alpha 90.000000
_cell_angle_beta 90.000000
_cell_angle_gamma 90.000000
_cell_volume 2662.077623
_symmetry_space_group_name_H-M "P M M A"
_symmetry_group_IT_number 51
_symmetry_cell_setting 'orthorhombic'
loop_
_space_group_symop_operation_xyz
x,y,z
1/2-x,-y,z
1/2+x,-y,-z
-x,y,-z
-x,-y,-z
1/2+x,y,-z
1/2-x,y,z
x,-y,z
loop_
_atom_site_type_symbol
_atom_site_label
_atom_site_fract_x
_atom_site_fract_y
_atom_site_fract_z
Si Si1 0.580141 0.074135 0.280552
Si Si2 0.417274 0.688918 0.414524
Si Si3 0.928382 0.784908 0.085334
Si Si4 0.427171 0.579616 0.908659
Si Si5 0.076481 0.924251 0.108491
Si Si6 0.432377 0.314700 0.219543
Si Si7 0.081745 0.849032 0.418212
O O1 0.750000 0.090623 0.243473
O O2 0.451194 0.070450 0.209087
O O3 0.531615 0.135693 0.340823
O O4 0.582530 0.000000 0.327832
O O5 0.500000 0.657352 0.500000
O O6 0.250000 0.654748 0.413471
O O7 0.492815 0.677556 0.319076
O O8 0.402442 0.768911 0.429449
O O9 0.750000 0.770451 0.087116
O O10 0.960874 0.866226 0.074640
O O11 0.001600 0.753327 0.172317
O O12 0.000000 0.748757 0.000000
O O13 0.250000 0.600989 0.910238
O O14 0.448699 0.500000 0.888905
O O15 0.513217 0.619057 0.832609
O O16 0.500000 0.599187 0.000000
O O17 0.250000 0.901224 0.090628
O O18 0.043831 0.000000 0.067876
O O19 0.250000 0.308076 0.220270
O O20 0.250000 0.881690 0.405613
O O21 0.000000 0.882598 0.500000
#
# Coordination Sequence:
#
# PCOD8208724 Si02
#       7
#     8   8   8   8   8   8   8
#     4  10  20  33  49  70  95 126 169 220 276 341
#     4   9  20  36  56  82 111 145 185 233 284 338
#     4  12  25  40  59  84 116 153 194 242 295 351
#     4  10  21  38  61  91 127 166 206 245 288 343
#     4  10  21  38  58  78 103 139 184 234 288 346
#     4  11  22  38  61  90 124 158 196 243 296 350
#     4  10  19  32  49  69  96 130 171 221 281 345
#
# _framework density 21.036200999999998
#
# number of rings (size 3 to 8) (size 9 to 14) (size 15 to 20)
#    0.000    1.714    0.000    4.714    0.000    6.000 
#    0.000    0.000    0.000    0.429    0.000    0.000 
#    0.000    0.000    0.000    0.000    0.000    0.000 
#
# Total GULP energy -693823.736768 kJ/mol
# GULP energy per Si atom -12389.709585 kJ/mol
# Density = 2.098832 g / cm^3
# Si number density = 21.036201 Si / 1000 Ang^3
#
#
#
# Elastic Constant Matrix: (Units=GPa)
#
#
# Indices 1 2 3 4 5 6 
#
# 1 119.3738 27.7475 59.0623 0.0000 0.0000 0.0000
# 2 27.7475 63.7631 25.6452 0.0000 0.0000 0.0000
# 3 59.0623 25.6452 161.6476 0.0000 0.0000 0.0000
# 4 0.0000 0.0000 0.0000 20.5970 0.0000 0.0000
# 5 0.0000 0.0000 0.0000 0.0000 35.2880 0.0000
# 6 0.0000 0.0000 0.0000 0.0000 0.0000 25.4088
#
#
#
# Elastic Compliance Matrix: (Units=1/GPa)
#
#
# Indices 1 2 3 4 5 6 
#
# 1 0.010853 -0.003341 -0.003436 0.000000 0.000000 0.000000
# 2 -0.003341 0.017781 -0.001600 0.000000 0.000000 0.000000
# 3 -0.003436 -0.001600 0.007695 0.000000 0.000000 0.000000
# 4 0.000000 0.000000 0.000000 0.048551 0.000000 0.000000
# 5 0.000000 0.000000 0.000000 0.000000 0.028338 0.000000
# 6 0.000000 0.000000 0.000000 0.000000 0.000000 0.039356
#
#
# Mechanical properties :
#
#
# Convention : Reuss Voigt Hill
#
# Bulk Modulus (GPa) = 51.08359 63.29940 57.19150
# Shear Modulus (GPa) = 28.43271 31.74741 30.09006
#
# Velocity S-wave (km/s) = 3.68041 3.88903 3.78616
# Velocity P-wave (km/s) = 6.51129 7.09381 6.80878
#
# Compressibility (1/GPa) = 0.01957576
#
# Stress axis : x y z
#
# Youngs Moduli (GPa) = 92.13626 56.24105 129.94778
#
# Poissons Ratio (x) = 0.18792 0.44644
# Poissons Ratio (y) = 0.30786 0.20792
# Poissons Ratio (z) = 0.31654 0.08999
#
# Static dielectric constant tensor:
#      x y z
#    x 4.027340 0.000000 0.000000 
#    y 0.000000 3.595780 0.000000 
#    z 0.000000 0.000000 4.023960 
# 
# 
# High freq. dielectric constant tensor:
#      x y z
#    x 1.832230 0.000000 0.000000 
#    y 0.000000 1.794630 0.000000 
#    z 0.000000 0.000000 1.831290 
# 
# From -- ./inp_files/21863.got.cif
#   From: 2010.03.12/outbox.cif.g09.slc.cpg/sg51_11_cif.got.tgz:21863.got - 2010.04.16 13:43:02.
