data_PCOD8208184
_publ_section_title
;
Structure prediction by ZEFSAII (Michael W. Deem and Ramdas Pophale) SiO2 
 PCOD8208184
Probable space group: P M M A
;
_chemical_formula_sum "Si O2"
_cell_formula_units_Z 48
_cell_length_a 10.133498
_cell_length_b 28.412237
_cell_length_c 9.303231
_cell_angle_alpha 90.000000
_cell_angle_beta 90.000000
_cell_angle_gamma 90.000000
_cell_volume 2678.542980
_symmetry_space_group_name_H-M "P M M A"
_symmetry_group_IT_number 51
_symmetry_cell_setting 'orthorhombic'
loop_
_space_group_symop_operation_xyz
x,y,z
1/2-x,-y,z
1/2+x,-y,-z
-x,y,-z
-x,-y,-z
1/2+x,y,-z
1/2-x,y,z
x,-y,z
loop_
_atom_site_type_symbol
_atom_site_label
_atom_site_fract_x
_atom_site_fract_y
_atom_site_fract_z
Si Si1 0.903084 0.152155 0.635596
Si Si2 0.101667 0.950215 0.372194
Si Si3 0.012058 0.447934 0.669551
Si Si4 0.487134 0.764184 0.166007
Si Si5 0.750000 0.601603 0.696666
Si Si6 0.250000 0.712590 0.801565
Si Si7 0.750000 0.302696 0.865082
Si Si8 0.750000 0.383872 0.357738
O O1 0.750000 0.160437 0.589336
O O2 0.920599 0.099782 0.708402
O O3 0.944696 0.188557 0.756170
O O4 0.000000 0.158215 0.500000
O O5 0.250000 0.949339 0.436124
O O6 0.000000 0.951928 0.500000
O O7 0.083824 0.000000 0.282019
O O8 0.044633 0.500000 0.731829
O O9 0.876062 0.429739 0.736689
O O10 0.000000 0.451911 0.500000
O O11 0.124818 0.410710 0.709042
O O12 0.623557 0.744884 0.229965
O O13 0.378879 0.724033 0.190774
O O14 0.500000 0.777522 0.000000
O O15 0.750000 0.646111 0.798933
O O16 0.750000 0.616805 0.530207
O O17 0.250000 0.669808 0.690818
O O18 0.250000 0.692665 0.962985
#
# Coordination Sequence:
#
# PCOD8208184 Si02
#       8
#     8   8   8   8   4   4   4   4
#     4  10  20  33  52  80 109 135 170 218 265 306
#     4   8  14  26  45  70 101 135 167 202 251 309
#     4   9  17  30  49  74 101 127 157 194 240 297
#     4  10  21  37  54  71  98 139 179 213 257 313
#     4  10  19  30  52  74  98 125 161 200 247 293
#     4  10  22  35  53  73  97 131 176 209 255 308
#     4  10  20  37  53  71  97 135 168 211 257 306
#     4  10  19  32  50  76  96 125 161 204 245 291
#
# _framework density 17.920190999999999
#
# number of rings (size 3 to 8) (size 9 to 14) (size 15 to 20)
#    0.000    2.500    0.833    1.500    1.167    3.333 
#    0.000    0.000    0.000    3.500    0.000    0.000 
#    0.000    0.000    0.000    0.000    0.000    0.000 
#
# Total GULP energy -594735.766410 kJ/mol
# GULP energy per Si atom -12390.328467 kJ/mol
# Density = 1.787940 g / cm^3
# Si number density = 17.920191 Si / 1000 Ang^3
#
#
#
# Elastic Constant Matrix: (Units=GPa)
#
#
# Indices 1 2 3 4 5 6 
#
# 1 121.4774 41.2420 15.5455 0.0000 0.0000 0.0000
# 2 41.2420 136.3646 33.5910 0.0000 0.0000 0.0000
# 3 15.5455 33.5910 27.2228 0.0000 0.0000 0.0000
# 4 0.0000 0.0000 0.0000 3.7986 0.0000 0.0000
# 5 0.0000 0.0000 0.0000 0.0000 8.6993 0.0000
# 6 0.0000 0.0000 0.0000 0.0000 0.0000 21.4391
#
#
#
# Elastic Compliance Matrix: (Units=1/GPa)
#
#
# Indices 1 2 3 4 5 6 
#
# 1 0.009305 -0.002163 -0.002645 0.000000 0.000000 0.000000
# 2 -0.002163 0.011038 -0.012386 0.000000 0.000000 0.000000
# 3 -0.002645 -0.012386 0.053527 0.000000 0.000000 0.000000
# 4 0.000000 0.000000 0.000000 0.263258 0.000000 0.000000
# 5 0.000000 0.000000 0.000000 0.000000 0.114952 0.000000
# 6 0.000000 0.000000 0.000000 0.000000 0.000000 0.046644
#
#
# Mechanical properties :
#
#
# Convention : Reuss Voigt Hill
#
# Bulk Modulus (GPa) = 25.32669 51.75798 38.54234
# Shear Modulus (GPa) = 9.15296 19.76647 14.45972
#
# Velocity S-wave (km/s) = 2.26246 3.32479 2.84367
# Velocity P-wave (km/s) = 4.58134 6.60940 5.68651
#
# Compressibility (1/GPa) = 0.03948404
#
# Stress axis : x y z
#
# Youngs Moduli (GPa) = 107.47306 90.59392 18.68209
#
# Poissons Ratio (x) = 0.19591 0.04941
# Poissons Ratio (y) = 0.23242 0.23139
# Poissons Ratio (z) = 0.28426 1.12205
#
# Static dielectric constant tensor:
#      x y z
#    x 3.778720 0.000000 0.000000 
#    y 0.000000 3.760980 0.000000 
#    z 0.000000 0.000000 2.799750 
# 
# 
# High freq. dielectric constant tensor:
#      x y z
#    x 1.718660 0.000000 0.000000 
#    y 0.000000 1.717850 0.000000 
#    z 0.000000 0.000000 1.631220 
# 
# From -- ./inp_files/6317.got.cif
#   From: 2010.03.12/outbox.cif.g09.slc.cpg/sg51_4_cif.got.tgz:6317.got - 2010.04.16 13:43:02.
