data_PCOD8208359
_publ_section_title
;
Structure prediction by ZEFSAII (Michael W. Deem and Ramdas Pophale) SiO2 
 PCOD8208359
Probable space group: P M M A
;
_chemical_formula_sum "Si O2"
_cell_formula_units_Z 56
_cell_length_a 8.894495
_cell_length_b 19.243691
_cell_length_c 18.801414
_cell_angle_alpha 90.000000
_cell_angle_beta 90.000000
_cell_angle_gamma 90.000000
_cell_volume 3218.104796
_symmetry_space_group_name_H-M "P M M A"
_symmetry_group_IT_number 51
_symmetry_cell_setting 'orthorhombic'
loop_
_space_group_symop_operation_xyz
x,y,z
1/2-x,-y,z
1/2+x,-y,-z
-x,y,-z
-x,-y,-z
1/2+x,y,-z
1/2-x,y,z
x,-y,z
loop_
_atom_site_type_symbol
_atom_site_label
_atom_site_fract_x
_atom_site_fract_y
_atom_site_fract_z
Si Si1 0.573900 0.359765 0.791093
Si Si2 0.926394 0.925795 0.711867
Si Si3 0.414596 0.920631 0.565271
Si Si4 0.073405 0.420212 0.926667
Si Si5 0.576627 0.577539 0.339633
Si Si6 0.072943 0.711230 0.575900
Si Si7 0.926793 0.776583 0.709446
O O1 0.750000 0.368868 0.803580
O O2 0.489123 0.372111 0.864462
O O3 0.521056 0.414202 0.731577
O O4 0.529292 0.282294 0.765882
O O5 0.750000 0.934143 0.714858
O O6 0.972120 0.851338 0.746720
O O7 0.976600 0.915773 0.631656
O O8 0.995105 0.000000 0.742846
O O9 0.500000 0.882294 0.500000
O O10 0.250000 0.885610 0.578910
O O11 0.385751 0.000000 0.544147
O O12 0.250000 0.410151 0.932748
O O13 0.029483 0.500000 0.910790
O O14 0.000000 0.394924 0.000000
O O15 0.750000 0.589056 0.318129
O O16 0.549445 0.500000 0.370119
O O17 0.527149 0.633198 0.399120
O O18 0.250000 0.719215 0.568601
O O19 0.000000 0.726346 0.500000
O O20 0.014140 0.766040 0.634791
O O21 0.750000 0.773996 0.691849
#
# Coordination Sequence:
#
# PCOD8208359 Si02
#       7
#     8   8   8   8   8   8   8
#     4  10  19  31  48  70  97 127 157 188 223 267
#     4   9  17  30  47  64  82 106 139 181 226 270
#     4   9  16  25  37  54  76 101 130 167 215 271
#     4  10  20  33  50  74 104 135 164 192 220 252
#     4   9  18  32  48  66  88 116 152 192 233 276
#     4  10  20  33  48  64  84 113 149 191 239 286
#     4   9  19  34  49  66  89 118 152 189 230 278
#
# _framework density 17.401547000000001
#
# number of rings (size 3 to 8) (size 9 to 14) (size 15 to 20)
#    0.000    2.571    0.000    2.143    0.000    7.143 
#    0.000    0.000    0.000    0.000    0.000    0.000 
#    0.000    0.571    0.000    1.000    0.000    1.429 
#
# Total GULP energy -693874.677565 kJ/mol
# GULP energy per Si atom -12390.619242 kJ/mol
# Density = 1.736194 g / cm^3
# Si number density = 17.401547 Si / 1000 Ang^3
#
#
#
# Elastic Constant Matrix: (Units=GPa)
#
#
# Indices 1 2 3 4 5 6 
#
# 1 36.1494 23.5031 29.0942 0.0000 0.0000 0.0000
# 2 23.5031 124.6092 33.7770 0.0000 0.0000 0.0000
# 3 29.0942 33.7770 82.5313 0.0000 0.0000 0.0000
# 4 0.0000 0.0000 0.0000 18.6656 0.0000 0.0000
# 5 0.0000 0.0000 0.0000 0.0000 26.0184 0.0000
# 6 0.0000 0.0000 0.0000 0.0000 0.0000 13.6473
#
#
#
# Elastic Compliance Matrix: (Units=1/GPa)
#
#
# Indices 1 2 3 4 5 6 
#
# 1 0.040520 -0.004241 -0.012548 0.000000 0.000000 0.000000
# 2 -0.004241 0.009470 -0.002381 0.000000 0.000000 0.000000
# 3 -0.012548 -0.002381 0.017515 0.000000 0.000000 0.000000
# 4 0.000000 0.000000 0.000000 0.053575 0.000000 0.000000
# 5 0.000000 0.000000 0.000000 0.000000 0.038434 0.000000
# 6 0.000000 0.000000 0.000000 0.000000 0.000000 0.073275
#
#
# Mechanical properties :
#
#
# Convention : Reuss Voigt Hill
#
# Bulk Modulus (GPa) = 34.28877 46.22651 40.25764
# Shear Modulus (GPa) = 17.80305 22.12729 19.96517
#
# Velocity S-wave (km/s) = 3.20202 3.56978 3.39089
# Velocity P-wave (km/s) = 5.78081 6.60404 6.20609
#
# Compressibility (1/GPa) = 0.02916407
#
# Stress axis : x y z
#
# Youngs Moduli (GPa) = 24.67922 105.59247 57.09528
#
# Poissons Ratio (x) = 0.44784 0.71646
# Poissons Ratio (y) = 0.10467 0.13593
# Poissons Ratio (z) = 0.30969 0.25139
#
# Static dielectric constant tensor:
#      x y z
#    x 3.358590 0.000000 0.000000 
#    y 0.000000 3.733980 0.000000 
#    z 0.000000 0.000000 2.876950 
# 
# 
# High freq. dielectric constant tensor:
#      x y z
#    x 1.680810 0.000000 0.000000 
#    y 0.000000 1.683300 0.000000 
#    z 0.000000 0.000000 1.620250 
# 
# From -- ./inp_files/28257.got.cif
#   From: 2010.03.12/outbox.cif.g09.slc.cpg/sg51_15_cif.got.tgz:28257.got - 2010.04.16 13:43:02.
