data_PCOD8208987
_publ_section_title
;
Structure prediction by ZEFSAII (Michael W. Deem and Ramdas Pophale) SiO2 
 PCOD8208987
Probable space group: P M M A
;
_chemical_formula_sum "Si O2"
_cell_formula_units_Z 64
_cell_length_a 8.789427
_cell_length_b 24.717818
_cell_length_c 15.314420
_cell_angle_alpha 90.000000
_cell_angle_beta 90.000000
_cell_angle_gamma 90.000000
_cell_volume 3327.141314
_symmetry_space_group_name_H-M "P M M A"
_symmetry_group_IT_number 51
_symmetry_cell_setting 'orthorhombic'
loop_
_space_group_symop_operation_xyz
x,y,z
1/2-x,-y,z
1/2+x,-y,-z
-x,y,-z
-x,-y,-z
1/2+x,y,-z
1/2-x,y,z
x,-y,z
loop_
_atom_site_type_symbol
_atom_site_label
_atom_site_fract_x
_atom_site_fract_y
_atom_site_fract_z
Si Si1 0.070672 0.830031 0.085707
Si Si2 0.569091 0.439740 0.732450
Si Si3 0.929179 0.143772 0.720710
Si Si4 0.930682 0.645589 0.590627
Si Si5 0.575928 0.255444 0.322828
Si Si6 0.424424 0.282561 0.875002
Si Si7 0.073041 0.936756 0.590414
Si Si8 0.429261 0.393725 0.086591
O O1 0.250000 0.824798 0.075256
O O2 0.028808 0.860664 0.176095
O O3 0.995074 0.771405 0.086034
O O4 0.000000 0.860480 0.000000
O O5 0.750000 0.437441 0.733674
O O6 0.511563 0.500000 0.708295
O O7 0.506769 0.396869 0.662278
O O8 0.506068 0.424226 0.828176
O O9 0.750000 0.146518 0.707610
O O10 0.999921 0.196720 0.676436
O O11 0.995731 0.091461 0.673234
O O12 0.750000 0.645997 0.586311
O O13 0.000000 0.625418 0.500000
O O14 0.988580 0.706042 0.609930
O O15 0.750000 0.249056 0.352791
O O16 0.562390 0.282906 0.228973
O O17 0.250000 0.288064 0.905442
O O18 0.523152 0.331282 0.911768
O O19 0.250000 0.922540 0.588312
O O20 0.000000 0.915824 0.500000
O O21 0.042106 0.000000 0.602322
O O22 0.250000 0.398464 0.081687
O O23 0.500000 0.421250 0.000000
#
# Coordination Sequence:
#
# PCOD8208987 Si02
#       8
#     8   8   8   8   8   8   8   8
#     4  10  20  33  51  78 114 153 193 233 278 328
#     4   9  20  39  60  79 104 140 179 223 276 333
#     4  10  21  36  57  86 119 155 194 236 283 335
#     4  11  22  38  60  84 110 141 179 223 275 335
#     4  10  20  35  56  82 114 147 183 226 275 330
#     4  10  19  32  52  77 108 143 181 224 270 323
#     4  10  21  38  61  88 118 153 194 240 288 337
#     4  11  21  34  54  79 107 140 178 220 270 327
#
# _framework density 19.235731999999999
#
# number of rings (size 3 to 8) (size 9 to 14) (size 15 to 20)
#    0.000    1.875    1.250    3.000    0.000    4.250 
#    0.000    2.500    0.000    5.625    0.000    0.000 
#    0.000    0.000    0.000    0.000    0.000    0.000 
#
# Total GULP energy -793689.590367 kJ/mol
# GULP energy per Si atom -12401.399849 kJ/mol
# Density = 1.919195 g / cm^3
# Si number density = 19.235732 Si / 1000 Ang^3
#
#
#
# Elastic Constant Matrix: (Units=GPa)
#
#
# Indices 1 2 3 4 5 6 
#
# 1 94.9775 34.1575 53.4166 0.0000 0.0000 0.0000
# 2 34.1575 69.7278 53.8714 0.0000 0.0000 0.0000
# 3 53.4166 53.8714 144.1501 0.0000 0.0000 0.0000
# 4 0.0000 0.0000 0.0000 18.8100 0.0000 0.0000
# 5 0.0000 0.0000 0.0000 0.0000 35.4072 0.0000
# 6 0.0000 0.0000 0.0000 0.0000 0.0000 19.2422
#
#
#
# Elastic Compliance Matrix: (Units=1/GPa)
#
#
# Indices 1 2 3 4 5 6 
#
# 1 0.014061 -0.004024 -0.003706 0.000000 0.000000 0.000000
# 2 -0.004024 0.021315 -0.006475 0.000000 0.000000 0.000000
# 3 -0.003706 -0.006475 0.010730 0.000000 0.000000 0.000000
# 4 0.000000 0.000000 0.000000 0.053163 0.000000 0.000000
# 5 0.000000 0.000000 0.000000 0.000000 0.028243 0.000000
# 6 0.000000 0.000000 0.000000 0.000000 0.000000 0.051969
#
#
# Mechanical properties :
#
#
# Convention : Reuss Voigt Hill
#
# Bulk Modulus (GPa) = 56.51154 65.74960 61.13057
# Shear Modulus (GPa) = 23.38740 25.85254 24.61997
#
# Velocity S-wave (km/s) = 3.49066 3.67002 3.58146
# Velocity P-wave (km/s) = 6.75932 7.22592 6.99651
#
# Compressibility (1/GPa) = 0.01769550
#
# Stress axis : x y z
#
# Youngs Moduli (GPa) = 71.12053 46.91507 93.19400
#
# Poissons Ratio (x) = 0.18880 0.34541
# Poissons Ratio (y) = 0.28621 0.60339
# Poissons Ratio (z) = 0.26360 0.30375
#
# Static dielectric constant tensor:
#      x y z
#    x 3.494890 0.000000 0.000000 
#    y 0.000000 3.304660 0.000000 
#    z 0.000000 0.000000 3.751360 
# 
# 
# High freq. dielectric constant tensor:
#      x y z
#    x 1.750610 0.000000 0.000000 
#    y 0.000000 1.722730 0.000000 
#    z 0.000000 0.000000 1.762610 
# 
# From -- ./inp_files/22373.got.cif
#   From: 2010.03.12/outbox.cif.g09.slc.cpg/sg51_12_cif.got.tgz:22373.got - 2010.04.16 13:43:02.
