data_PCOD8208626
_publ_section_title
;
Structure prediction by ZEFSAII (Michael W. Deem and Ramdas Pophale) SiO2 
 PCOD8208626
Probable space group: P M M A
;
_chemical_formula_sum "Si O2"
_cell_formula_units_Z 56
_cell_length_a 9.039938
_cell_length_b 14.144411
_cell_length_c 23.590044
_cell_angle_alpha 90.000000
_cell_angle_beta 90.000000
_cell_angle_gamma 90.000000
_cell_volume 3016.331504
_symmetry_space_group_name_H-M "P M M A"
_symmetry_group_IT_number 51
_symmetry_cell_setting 'orthorhombic'
loop_
_space_group_symop_operation_xyz
x,y,z
1/2-x,-y,z
1/2+x,-y,-z
-x,y,-z
-x,-y,-z
1/2+x,y,-z
1/2-x,y,z
x,-y,z
loop_
_atom_site_type_symbol
_atom_site_label
_atom_site_fract_x
_atom_site_fract_y
_atom_site_fract_z
Si Si1 0.577087 0.390389 0.722867
Si Si2 0.579694 0.105639 0.880826
Si Si3 0.924180 0.893349 0.231421
Si Si4 0.575926 0.107598 0.442161
Si Si5 0.574816 0.231663 0.336308
Si Si6 0.081496 0.611743 0.838561
Si Si7 0.077847 0.289760 0.057857
O O1 0.750000 0.369696 0.729832
O O2 0.546408 0.500000 0.709945
O O3 0.509291 0.331703 0.670025
O O4 0.494921 0.356710 0.780017
O O5 0.750000 0.103646 0.863147
O O6 0.491450 0.146332 0.826883
O O7 0.552778 0.177341 0.932694
O O8 0.525078 0.000000 0.898227
O O9 0.750000 0.889412 0.225801
O O10 0.979133 0.832398 0.284100
O O11 0.980453 0.000000 0.241290
O O12 0.500000 0.140868 0.500000
O O13 0.750000 0.113927 0.450523
O O14 0.522669 0.178821 0.393220
O O15 0.529630 0.000000 0.426339
O O16 0.750000 0.248426 0.336252
O O17 0.250000 0.649818 0.838346
O O18 0.077474 0.500000 0.844503
O O19 0.992066 0.652747 0.890958
O O20 0.250000 0.315587 0.053838
O O21 0.000000 0.320655 0.000000
#
# Coordination Sequence:
#
# PCOD8208626 Si02
#       7
#     8   8   8   8   8   8   8
#     4  10  21  36  54  78 107 136 167 208 258 309
#     4   9  19  35  51  69  97 131 165 203 248 297
#     4   9  17  29  47  73 102 130 161 199 247 302
#     4   9  18  33  52  76 109 147 184 220 258 302
#     4  10  19  31  51  77 105 138 175 215 256 301
#     4  10  21  38  59  80 103 132 165 204 254 311
#     4  11  23  37  54  75 100 131 168 211 255 302
#
# _framework density 18.565598999999999
#
# number of rings (size 3 to 8) (size 9 to 14) (size 15 to 20)
#    0.000    2.286    0.000    2.571    0.000    8.571 
#    0.000    0.000    0.000    4.714    0.000    0.000 
#    0.000    0.000    0.000    0.000    0.000    0.000 
#
# Total GULP energy -694480.589489 kJ/mol
# GULP energy per Si atom -12401.439098 kJ/mol
# Density = 1.852334 g / cm^3
# Si number density = 18.565599 Si / 1000 Ang^3
#
#
#
# Elastic Constant Matrix: (Units=GPa)
#
#
# Indices 1 2 3 4 5 6 
#
# 1 76.9576 39.9025 51.0479 0.0000 0.0000 0.0000
# 2 39.9025 65.4838 59.2052 0.0000 0.0000 0.0000
# 3 51.0479 59.2052 118.1273 0.0000 0.0000 0.0000
# 4 0.0000 0.0000 0.0000 27.0584 0.0000 0.0000
# 5 0.0000 0.0000 0.0000 0.0000 33.1499 0.0000
# 6 0.0000 0.0000 0.0000 0.0000 0.0000 28.2025
#
#
#
# Elastic Compliance Matrix: (Units=1/GPa)
#
#
# Indices 1 2 3 4 5 6 
#
# 1 0.020336 -0.008131 -0.004713 0.000000 0.000000 0.000000
# 2 -0.008131 0.031176 -0.012112 0.000000 0.000000 0.000000
# 3 -0.004713 -0.012112 0.016572 0.000000 0.000000 0.000000
# 4 0.000000 0.000000 0.000000 0.036957 0.000000 0.000000
# 5 0.000000 0.000000 0.000000 0.000000 0.030166 0.000000
# 6 0.000000 0.000000 0.000000 0.000000 0.000000 0.035458
#
#
# Mechanical properties :
#
#
# Convention : Reuss Voigt Hill
#
# Bulk Modulus (GPa) = 55.02451 62.31997 58.67224
# Shear Modulus (GPa) = 22.06202 25.04304 23.55253
#
# Velocity S-wave (km/s) = 3.45095 3.67671 3.56562
# Velocity P-wave (km/s) = 6.75137 7.18781 6.97301
#
# Compressibility (1/GPa) = 0.01817372
#
# Stress axis : x y z
#
# Youngs Moduli (GPa) = 49.17336 32.07629 60.34101
#
# Poissons Ratio (x) = 0.26080 0.28439
# Poissons Ratio (y) = 0.39981 0.73083
# Poissons Ratio (z) = 0.23176 0.38850
#
# Static dielectric constant tensor:
#      x y z
#    x 3.420540 0.000000 0.000000 
#    y 0.000000 3.586140 0.000000 
#    z 0.000000 0.000000 3.303040 
# 
# 
# High freq. dielectric constant tensor:
#      x y z
#    x 1.721090 0.000000 0.000000 
#    y 0.000000 1.725510 0.000000 
#    z 0.000000 0.000000 1.703200 
# 
# From -- ./inp_files/31963.got.cif
#   From: 2010.03.12/outbox.cif.g09.slc.cpg/sg51_16_cif.got.tgz:31963.got - 2010.04.16 13:43:02.
