data_PCOD8208338
_publ_section_title
;
Structure prediction by ZEFSAII (Michael W. Deem and Ramdas Pophale) SiO2 
 PCOD8208338
Probable space group: P M M A
;
_chemical_formula_sum "Si O2"
_cell_formula_units_Z 64
_cell_length_a 19.829372
_cell_length_b 8.973360
_cell_length_c 20.562528
_cell_angle_alpha 90.000000
_cell_angle_beta 90.000000
_cell_angle_gamma 90.000000
_cell_volume 3658.815905
_symmetry_space_group_name_H-M "P M M A"
_symmetry_group_IT_number 51
_symmetry_cell_setting 'orthorhombic'
loop_
_space_group_symop_operation_xyz
x,y,z
1/2-x,-y,z
1/2+x,-y,-z
-x,y,-z
-x,-y,-z
1/2+x,y,-z
1/2-x,y,z
x,-y,z
loop_
_atom_site_type_symbol
_atom_site_label
_atom_site_fract_x
_atom_site_fract_y
_atom_site_fract_z
Si Si1 0.071938 0.825023 0.967928
Si Si2 0.466618 0.678467 0.840233
Si Si3 0.672605 0.671253 0.934424
Si Si4 0.899944 0.666256 0.687085
Si Si5 0.059840 0.663553 0.700309
Si Si6 0.412333 0.168458 0.437169
Si Si7 0.571829 0.833998 0.422080
Si Si8 0.390488 0.822065 0.181966
O O1 0.077730 0.737864 0.899698
O O2 0.083276 0.000000 0.956812
O O3 0.130139 0.760736 0.012779
O O4 0.000000 0.791731 0.000000
O O5 0.476960 0.500000 0.842634
O O6 0.428193 0.726113 0.773324
O O7 0.538615 0.758665 0.843272
O O8 0.750000 0.677536 0.956145
O O9 0.647539 0.500000 0.929437
O O10 0.665931 0.753257 0.865032
O O11 0.870090 0.500000 0.695036
O O12 0.875573 0.731961 0.617543
O O13 0.872951 0.771127 0.744829
O O14 0.980168 0.660887 0.689001
O O15 0.090865 0.500000 0.695281
O O16 0.097620 0.753595 0.643305
O O17 0.399581 0.235426 0.509997
O O18 0.491558 0.167250 0.423698
O O19 0.384572 0.000000 0.432543
O O20 0.599769 0.000000 0.417345
O O21 0.391349 0.000000 0.177925
#
# Coordination Sequence:
#
# PCOD8208338 Si02
#       8
#     8   8   8   8   8   8   8   8
#     4  11  22  35  54  80 102 127 163 203 249 298
#     4  10  19  31  48  69  94 124 159 201 244 287
#     4  11  24  40  57  76  99 130 164 200 247 300
#     4   9  16  25  37  55  79 110 149 191 233 276
#     4   8  15  24  34  53  79 109 147 188 231 276
#     4   8  13  21  31  47  71 103 145 187 227 273
#     4   8  13  20  31  46  70 106 144 183 228 276
#     4  11  20  31  48  69  93 122 156 198 244 288
#
# _framework density 17.491997999999999
#
# number of rings (size 3 to 8) (size 9 to 14) (size 15 to 20)
#    0.000    2.500    1.250    4.125    0.000    5.500 
#    0.000    2.500    0.000    0.000    0.000    0.000 
#    0.000    0.000    0.000    1.125    0.000   19.750 
#
# Total GULP energy -793157.199164 kJ/mol
# GULP energy per Si atom -12393.081237 kJ/mol
# Density = 1.745219 g / cm^3
# Si number density = 17.491998 Si / 1000 Ang^3
#
#
#
# Elastic Constant Matrix: (Units=GPa)
#
#
# Indices 1 2 3 4 5 6 
#
# 1 28.6405 18.0038 22.8079 0.0000 0.0000 0.0000
# 2 18.0038 105.8572 59.9857 0.0000 0.0000 0.0000
# 3 22.8079 59.9857 159.4757 0.0000 0.0000 0.0000
# 4 0.0000 0.0000 0.0000 37.8387 0.0000 0.0000
# 5 0.0000 0.0000 0.0000 0.0000 9.1655 0.0000
# 6 0.0000 0.0000 0.0000 0.0000 0.0000 11.4607
#
#
#
# Elastic Compliance Matrix: (Units=1/GPa)
#
#
# Indices 1 2 3 4 5 6 
#
# 1 0.041132 -0.004654 -0.004132 0.000000 0.000000 0.000000
# 2 -0.004654 0.012532 -0.004048 0.000000 0.000000 0.000000
# 3 -0.004132 -0.004048 0.008384 0.000000 0.000000 0.000000
# 4 0.000000 0.000000 0.000000 0.026428 0.000000 0.000000
# 5 0.000000 0.000000 0.000000 0.000000 0.109105 0.000000
# 6 0.000000 0.000000 0.000000 0.000000 0.000000 0.087255
#
#
# Mechanical properties :
#
#
# Convention : Reuss Voigt Hill
#
# Bulk Modulus (GPa) = 27.48799 55.06314 41.27556
# Shear Modulus (GPa) = 15.49757 24.57137 20.03447
#
# Velocity S-wave (km/s) = 2.97977 3.75203 3.38797
# Velocity P-wave (km/s) = 5.25237 7.09349 6.24120
#
# Compressibility (1/GPa) = 0.03637953
#
# Stress axis : x y z
#
# Youngs Moduli (GPa) = 24.31211 79.79397 119.27138
#
# Poissons Ratio (x) = 0.37137 0.49283
# Poissons Ratio (y) = 0.11315 0.48285
# Poissons Ratio (z) = 0.10046 0.32303
#
# Static dielectric constant tensor:
#      x y z
#    x 2.570900 0.000000 0.000000 
#    y 0.000000 3.445180 0.000000 
#    z 0.000000 0.000000 3.739330 
# 
# 
# High freq. dielectric constant tensor:
#      x y z
#    x 1.587390 0.000000 0.000000 
#    y 0.000000 1.684980 0.000000 
#    z 0.000000 0.000000 1.700360 
# 
# From -- ./inp_files/34179.got.cif
#   From: 2010.03.12/outbox.cif.g09.slc.cpg/sg51_18_cif.got.tgz:34179.got - 2010.04.16 13:43:02.
