data_PCOD8208167
_publ_section_title
;
Structure prediction by ZEFSAII (Michael W. Deem and Ramdas Pophale) SiO2 
 PCOD8208167
Probable space group: P M M A
;
_chemical_formula_sum "Si O2"
_cell_formula_units_Z 64
_cell_length_a 18.387886
_cell_length_b 12.707250
_cell_length_c 14.886300
_cell_angle_alpha 90.000000
_cell_angle_beta 90.000000
_cell_angle_gamma 90.000000
_cell_volume 3478.324885
_symmetry_space_group_name_H-M "P M M A"
_symmetry_group_IT_number 51
_symmetry_cell_setting 'orthorhombic'
loop_
_space_group_symop_operation_xyz
x,y,z
1/2-x,-y,z
1/2+x,-y,-z
-x,y,-z
-x,-y,-z
1/2+x,y,-z
1/2-x,y,z
x,-y,z
loop_
_atom_site_type_symbol
_atom_site_label
_atom_site_fract_x
_atom_site_fract_y
_atom_site_fract_z
Si Si1 0.169954 0.799442 0.176643
Si Si2 0.826745 0.881894 0.637183
Si Si3 0.043055 0.257407 0.746208
Si Si4 0.901060 0.620204 0.715763
Si Si5 0.524565 0.876614 0.899504
Si Si6 0.480233 0.882458 0.398461
Si Si7 0.580500 0.621724 0.511174
Si Si8 0.666319 0.375368 0.337173
O O1 0.250000 0.794464 0.129467
O O2 0.170337 0.886633 0.254751
O O3 0.154882 0.687864 0.225322
O O4 0.106977 0.832035 0.107288
O O5 0.750000 0.827336 0.606157
O O6 0.900565 0.823988 0.604421
O O7 0.826970 0.000000 0.598987
O O8 0.037406 0.180741 0.660352
O O9 0.121889 0.313373 0.741308
O O10 0.983597 0.349300 0.739547
O O11 0.030616 0.187827 0.835348
O O12 0.889055 0.500000 0.743285
O O13 0.885685 0.637934 0.609834
O O14 0.521404 0.000000 0.875271
O O15 0.500000 0.854928 0.000000
O O16 0.500000 0.889862 0.500000
O O17 0.473759 0.000000 0.356993
O O18 0.500000 0.677607 0.500000
O O19 0.567482 0.500000 0.491571
O O20 0.635626 0.662270 0.434289
O O21 0.750000 0.340649 0.330448
O O22 0.657937 0.500000 0.322362
#
# Coordination Sequence:
#
# PCOD8208167 Si02
#       8
#     8   8   8   8   8   8   8   8
#     4  10  20  33  53  82 111 141 174 217 278 338
#     4   9  16  29  49  73 101 132 173 222 266 313
#     4  11  20  33  57  78 106 142 185 226 271 326
#     4  10  19  30  49  77 112 152 189 227 273 322
#     4  10  21  39  63  89 111 135 175 228 282 338
#     4  10  20  32  48  74 107 145 183 220 265 324
#     4   9  16  28  47  73 107 148 194 236 270 309
#     4  10  21  35  52  77 110 151 197 238 271 309
#
# _framework density 18.399660999999998
#
# number of rings (size 3 to 8) (size 9 to 14) (size 15 to 20)
#    0.000    2.125    3.750    1.125    1.750    1.500 
#    0.000    3.750    0.000   12.375    0.000    0.000 
#    0.000    0.000    0.000    0.000    0.000    0.000 
#
# Total GULP energy -793011.656913 kJ/mol
# GULP energy per Si atom -12390.807139 kJ/mol
# Density = 1.835778 g / cm^3
# Si number density = 18.399661 Si / 1000 Ang^3
#
#
#
# Elastic Constant Matrix: (Units=GPa)
#
#
# Indices 1 2 3 4 5 6 
#
# 1 156.6159 38.2587 50.2366 0.0000 0.0000 0.0000
# 2 38.2587 82.2882 32.0931 0.0000 0.0000 0.0000
# 3 50.2366 32.0931 85.4708 0.0000 0.0000 0.0000
# 4 0.0000 0.0000 0.0000 20.5801 0.0000 0.0000
# 5 0.0000 0.0000 0.0000 0.0000 24.7323 0.0000
# 6 0.0000 0.0000 0.0000 0.0000 0.0000 22.0350
#
#
#
# Elastic Compliance Matrix: (Units=1/GPa)
#
#
# Indices 1 2 3 4 5 6 
#
# 1 0.008215 -0.002268 -0.003977 0.000000 0.000000 0.000000
# 2 -0.002268 0.014864 -0.004248 0.000000 0.000000 0.000000
# 3 -0.003977 -0.004248 0.015632 0.000000 0.000000 0.000000
# 4 0.000000 0.000000 0.000000 0.048591 0.000000 0.000000
# 5 0.000000 0.000000 0.000000 0.000000 0.040433 0.000000
# 6 0.000000 0.000000 0.000000 0.000000 0.000000 0.045382
#
#
# Mechanical properties :
#
#
# Convention : Reuss Voigt Hill
#
# Bulk Modulus (GPa) = 56.41735 62.83906 59.62821
# Shear Modulus (GPa) = 24.99869 27.05526 26.02697
#
# Velocity S-wave (km/s) = 3.68999 3.83877 3.76511
# Velocity P-wave (km/s) = 6.99167 7.33993 7.16791
#
# Compressibility (1/GPa) = 0.01772504
#
# Stress axis : x y z
#
# Youngs Moduli (GPa) = 121.73274 67.27763 63.97065
#
# Poissons Ratio (x) = 0.15261 0.25438
# Poissons Ratio (y) = 0.27614 0.27174
# Poissons Ratio (z) = 0.48408 0.28578
#
# Static dielectric constant tensor:
#      x y z
#    x 3.609440 0.000000 0.000000 
#    y 0.000000 3.672500 0.000000 
#    z 0.000000 0.000000 2.990250 
# 
# 
# High freq. dielectric constant tensor:
#      x y z
#    x 1.710910 0.000000 0.000000 
#    y 0.000000 1.726560 0.000000 
#    z 0.000000 0.000000 1.665550 
# 
# From -- ./inp_files/25345.got.cif
#   From: 2010.03.12/outbox.cif.g09.slc.cpg/sg51_13_cif.got.tgz:25345.got - 2010.04.16 13:43:02.
