data_PCOD8208555
_publ_section_title
;
Structure prediction by ZEFSAII (Michael W. Deem and Ramdas Pophale) SiO2 
 PCOD8208555
Probable space group: P M M A
;
_chemical_formula_sum "Si O2"
_cell_formula_units_Z 56
_cell_length_a 16.292662
_cell_length_b 8.971403
_cell_length_c 19.010635
_cell_angle_alpha 90.000000
_cell_angle_beta 90.000000
_cell_angle_gamma 90.000000
_cell_volume 2778.747195
_symmetry_space_group_name_H-M "P M M A"
_symmetry_group_IT_number 51
_symmetry_cell_setting 'orthorhombic'
loop_
_space_group_symop_operation_xyz
x,y,z
1/2-x,-y,z
1/2+x,-y,-z
-x,y,-z
-x,-y,-z
1/2+x,y,-z
1/2-x,y,z
x,-y,z
loop_
_atom_site_type_symbol
_atom_site_label
_atom_site_fract_x
_atom_site_fract_y
_atom_site_fract_z
Si Si1 0.103286 0.175925 0.809740
Si Si2 0.652564 0.833492 0.911855
Si Si3 0.568068 0.321756 0.444927
Si Si4 0.250000 0.332702 0.566436
Si Si5 0.250000 0.668869 0.733409
Si Si6 0.159357 0.330511 0.226609
Si Si7 0.500712 0.670970 0.703465
Si Si8 0.346556 0.326672 0.948460
O O1 0.172164 0.244915 0.760491
O O2 0.104114 0.241910 0.887795
O O3 0.021544 0.225366 0.769661
O O4 0.112745 0.000000 0.814548
O O5 0.750000 0.835812 0.913818
O O6 0.623225 0.763028 0.838658
O O7 0.616049 0.000000 0.917621
O O8 0.620710 0.736636 0.977556
O O9 0.500000 0.260917 0.500000
O O10 0.570264 0.500000 0.446499
O O11 0.662075 0.259970 0.459208
O O12 0.536308 0.266094 0.368974
O O13 0.250000 0.500000 0.537273
O O14 0.250000 0.330931 0.649993
O O15 0.250000 0.500000 0.762921
O O16 0.250000 0.274173 0.249412
O O17 0.163806 0.500000 0.199750
O O18 0.100234 0.318912 0.295047
O O19 0.470878 0.500000 0.714836
O O20 0.250000 0.296185 0.937347
O O21 0.367321 0.500000 0.945228
#
# Coordination Sequence:
#
# PCOD8208555 Si02
#       8
#     8   8   8   4   4   8   8   8
#     4  12  23  33  50  80 114 145 186 237 280 328
#     4   9  17  30  50  75 104 139 183 233 283 335
#     4   9  17  31  52  82 116 148 188 234 280 333
#     4   9  16  29  53  81 111 150 187 224 277 335
#     4  11  19  33  55  77 109 150 189 224 275 341
#     4   9  18  34  55  77 102 137 185 234 285 343
#     4  10  20  36  56  78 110 148 183 228 283 342
#     4  10  19  31  50  75 107 147 187 228 280 340
#
# _framework density 20.152965999999999
#
# number of rings (size 3 to 8) (size 9 to 14) (size 15 to 20)
#    0.000    2.143    2.143    2.357    0.000    2.857 
#    1.286    0.714    0.000    4.714    0.000    0.000 
#    0.000    0.000    0.000    0.000    0.000    0.000 
#
# Total GULP energy -693994.909096 kJ/mol
# GULP energy per Si atom -12392.766234 kJ/mol
# Density = 2.010710 g / cm^3
# Si number density = 20.152966 Si / 1000 Ang^3
#
#
#
# Elastic Constant Matrix: (Units=GPa)
#
#
# Indices 1 2 3 4 5 6 
#
# 1 117.7268 26.0251 61.5947 0.0000 0.0000 0.0000
# 2 26.0251 93.1879 27.5791 0.0000 0.0000 0.0000
# 3 61.5947 27.5791 82.2702 0.0000 0.0000 0.0000
# 4 0.0000 0.0000 0.0000 5.6670 0.0000 0.0000
# 5 0.0000 0.0000 0.0000 0.0000 44.3031 0.0000
# 6 0.0000 0.0000 0.0000 0.0000 0.0000 14.6179
#
#
#
# Elastic Compliance Matrix: (Units=1/GPa)
#
#
# Indices 1 2 3 4 5 6 
#
# 1 0.014032 -0.000899 -0.010204 0.000000 0.000000 0.000000
# 2 -0.000899 0.011970 -0.003340 0.000000 0.000000 0.000000
# 3 -0.010204 -0.003340 0.020914 0.000000 0.000000 0.000000
# 4 0.000000 0.000000 0.000000 0.176461 0.000000 0.000000
# 5 0.000000 0.000000 0.000000 0.000000 0.022572 0.000000
# 6 0.000000 0.000000 0.000000 0.000000 0.000000 0.068409
#
#
# Mechanical properties :
#
#
# Convention : Reuss Voigt Hill
#
# Bulk Modulus (GPa) = 55.46003 58.17587 56.81795
# Shear Modulus (GPa) = 14.31622 24.78333 19.54978
#
# Velocity S-wave (km/s) = 2.66818 3.51060 3.11797
# Velocity P-wave (km/s) = 6.08864 6.73515 6.42004
#
# Compressibility (1/GPa) = 0.01803100
#
# Stress axis : x y z
#
# Youngs Moduli (GPa) = 71.26715 83.53898 47.81411
#
# Poissons Ratio (x) = 0.07509 0.48790
# Poissons Ratio (y) = 0.06406 0.15969
# Poissons Ratio (z) = 0.72721 0.27901
#
# Static dielectric constant tensor:
#      x y z
#    x 3.805190 0.000000 0.000000 
#    y 0.000000 3.468010 0.000000 
#    z 0.000000 0.000000 3.563860 
# 
# 
# High freq. dielectric constant tensor:
#      x y z
#    x 1.789280 0.000000 0.000000 
#    y 0.000000 1.756010 0.000000 
#    z 0.000000 0.000000 1.772420 
# 
# From -- ./inp_files/33577.got.cif
#   From: 2010.03.12/outbox.cif.g09.slc.cpg/sg51_17_cif.got.tgz:33577.got - 2010.04.16 13:43:02.
