data_PCOD8208887
_publ_section_title
;
Structure prediction by ZEFSAII (Michael W. Deem and Ramdas Pophale) SiO2 
 PCOD8208887
Probable space group: P M M A
;
_chemical_formula_sum "Si O2"
_cell_formula_units_Z 64
_cell_length_a 29.100091
_cell_length_b 8.741045
_cell_length_c 12.521513
_cell_angle_alpha 90.000000
_cell_angle_beta 90.000000
_cell_angle_gamma 90.000000
_cell_volume 3185.037220
_symmetry_space_group_name_H-M "P M M A"
_symmetry_group_IT_number 51
_symmetry_cell_setting 'orthorhombic'
loop_
_space_group_symop_operation_xyz
x,y,z
1/2-x,-y,z
1/2+x,-y,-z
-x,y,-z
-x,-y,-z
1/2+x,y,-z
1/2-x,y,z
x,-y,z
loop_
_atom_site_type_symbol
_atom_site_label
_atom_site_fract_x
_atom_site_fract_y
_atom_site_fract_z
Si Si1 0.355810 0.822276 0.778558
Si Si2 0.137737 0.180465 0.181599
Si Si3 0.930900 0.679046 0.503814
Si Si4 0.952794 0.319736 0.743852
Si Si5 0.664397 0.178485 0.453811
Si Si6 0.044554 0.181504 0.710655
Si Si7 0.800487 0.325567 0.644020
Si Si8 0.697659 0.817401 0.018137
O O1 0.325654 0.794309 0.671523
O O2 0.407479 0.755839 0.761872
O O3 0.327999 0.748295 0.877163
O O4 0.361347 0.000000 0.802829
O O5 0.086914 0.252708 0.179495
O O6 0.163366 0.229339 0.288806
O O7 0.132533 0.000000 0.177986
O O8 0.168070 0.241094 0.082510
O O9 0.939369 0.500000 0.488189
O O10 0.945230 0.732130 0.621778
O O11 0.878284 0.721157 0.490966
O O12 0.960262 0.764399 0.412539
O O13 0.953159 0.500000 0.758393
O O14 0.002172 0.250296 0.778675
O O15 0.704888 0.245415 0.527421
O O16 0.655033 0.000000 0.475189
O O17 0.043305 0.000000 0.713573
O O18 0.750000 0.319541 0.697144
O O19 0.817929 0.500000 0.634679
O O20 0.750000 0.753791 0.012027
O O21 0.699311 0.000000 0.021429
#
# Coordination Sequence:
#
# PCOD8208887 Si02
#       8
#     8   8   8   8   8   8   8   8
#     4   8  17  34  55  83 117 147 181 231 289 338
#     4  11  22  36  58  85 111 142 189 242 286 333
#     4  10  19  32  51  76 112 154 191 226 273 335
#     4  11  22  35  53  78 113 155 193 229 282 343
#     4  10  19  32  54  83 113 146 187 232 277 333
#     4  10  20  33  53  82 115 151 193 238 279 326
#     4  11  23  37  53  76 112 153 185 225 288 352
#     4   9  18  35  60  87 112 141 183 237 292 341
#
# _framework density 20.093958000000001
#
# number of rings (size 3 to 8) (size 9 to 14) (size 15 to 20)
#    0.000    2.000    1.250    3.750    0.000    5.000 
#    0.000    1.875    0.000   12.750    0.000    1.750 
#    0.000    0.000    0.000    0.000    0.000    0.000 
#
# Total GULP energy -793361.730460 kJ/mol
# GULP energy per Si atom -12396.277038 kJ/mol
# Density = 2.004822 g / cm^3
# Si number density = 20.093958 Si / 1000 Ang^3
#
#
#
# Elastic Constant Matrix: (Units=GPa)
#
#
# Indices 1 2 3 4 5 6 
#
# 1 101.9189 21.3579 51.4680 0.0000 0.0000 0.0000
# 2 21.3579 50.0170 27.1333 0.0000 0.0000 0.0000
# 3 51.4680 27.1333 103.2321 0.0000 0.0000 0.0000
# 4 0.0000 0.0000 0.0000 9.5462 0.0000 0.0000
# 5 0.0000 0.0000 0.0000 0.0000 24.9690 0.0000
# 6 0.0000 0.0000 0.0000 0.0000 0.0000 26.0757
#
#
#
# Elastic Compliance Matrix: (Units=1/GPa)
#
#
# Indices 1 2 3 4 5 6 
#
# 1 0.013364 -0.002440 -0.006021 0.000000 0.000000 0.000000
# 2 -0.002440 0.023763 -0.005029 0.000000 0.000000 0.000000
# 3 -0.006021 -0.005029 0.014011 0.000000 0.000000 0.000000
# 4 0.000000 0.000000 0.000000 0.104754 0.000000 0.000000
# 5 0.000000 0.000000 0.000000 0.000000 0.040050 0.000000
# 6 0.000000 0.000000 0.000000 0.000000 0.000000 0.038350
#
#
# Mechanical properties :
#
#
# Convention : Reuss Voigt Hill
#
# Bulk Modulus (GPa) = 41.39677 50.56517 45.98097
# Shear Modulus (GPa) = 18.56489 22.46542 20.51515
#
# Velocity S-wave (km/s) = 3.04288 3.34731 3.19871
# Velocity P-wave (km/s) = 5.74385 6.33706 6.04773
#
# Compressibility (1/GPa) = 0.02415647
#
# Stress axis : x y z
#
# Youngs Moduli (GPa) = 74.82908 42.08136 71.37296
#
# Poissons Ratio (x) = 0.10268 0.42977
# Poissons Ratio (y) = 0.18258 0.35897
# Poissons Ratio (z) = 0.45058 0.21165
#
# Static dielectric constant tensor:
#      x y z
#    x 3.906590 0.000000 0.000000 
#    y 0.000000 3.388570 0.000000 
#    z 0.000000 0.000000 3.747450 
# 
# 
# High freq. dielectric constant tensor:
#      x y z
#    x 1.794990 0.000000 0.000000 
#    y 0.000000 1.764680 0.000000 
#    z 0.000000 0.000000 1.764810 
# 
# From -- ./inp_files/19598.got.cif
#   From: 2010.03.12/outbox.cif.g09.slc.cpg/sg51_10_cif.got.tgz:19598.got - 2010.04.16 13:43:02.
