data_PCOD8208946
_publ_section_title
;
Structure prediction by ZEFSAII (Michael W. Deem and Ramdas Pophale) SiO2 
 PCOD8208946
Probable space group: P M M A
;
_chemical_formula_sum "Si O2"
_cell_formula_units_Z 48
_cell_length_a 8.911430
_cell_length_b 30.663751
_cell_length_c 9.571005
_cell_angle_alpha 90.000000
_cell_angle_beta 90.000000
_cell_angle_gamma 90.000000
_cell_volume 2615.352446
_symmetry_space_group_name_H-M "P M M A"
_symmetry_group_IT_number 51
_symmetry_cell_setting 'orthorhombic'
loop_
_space_group_symop_operation_xyz
x,y,z
1/2-x,-y,z
1/2+x,-y,-z
-x,y,-z
-x,-y,-z
1/2+x,y,-z
1/2-x,y,z
x,-y,z
loop_
_atom_site_type_symbol
_atom_site_label
_atom_site_fract_x
_atom_site_fract_y
_atom_site_fract_z
Si Si1 0.924430 0.883581 0.649470
Si Si2 0.575792 0.050133 0.145133
Si Si3 0.924440 0.787942 0.649259
Si Si4 0.573489 0.450568 0.356046
Si Si5 0.573418 0.623815 0.150567
Si Si6 0.427869 0.703085 0.652612
O O1 0.750000 0.894815 0.632824
O O2 0.945116 0.835509 0.721521
O O3 0.000000 0.884280 0.500000
O O4 0.002729 0.920353 0.738477
O O5 0.750000 0.060890 0.132443
O O6 0.546951 0.000000 0.186100
O O7 0.500000 0.062088 0.000000
O O8 0.750000 0.776114 0.633774
O O9 0.000000 0.791715 0.500000
O O10 0.009207 0.747755 0.725372
O O11 0.500000 0.434365 0.500000
O O12 0.750000 0.446470 0.377325
O O13 0.524035 0.500000 0.320857
O O14 0.519130 0.420201 0.228692
O O15 0.750000 0.623751 0.128643
O O16 0.522180 0.664300 0.245627
O O17 0.500000 0.626819 0.000000
O O18 0.500000 0.695827 0.500000
O O19 0.250000 0.705602 0.636185
#
# Coordination Sequence:
#
# PCOD8208946 Si02
#       6
#     8   8   8   8   8   8
#     4  10  20  34  54  80 108 137 171 213 259 307
#     4  10  21  37  56  77 103 137 175 214 257 307
#     4   9  17  30  50  76 103 132 167 207 253 302
#     4   9  18  34  55  78 103 131 167 210 252 298
#     4  10  22  36  50  73 104 136 170 208 252 301
#     4  10  19  32  52  76 100 130 169 210 251 298
#
# _framework density 18.353168
#
# number of rings (size 3 to 8) (size 9 to 14) (size 15 to 20)
#    0.000    2.333    0.000    3.500    0.000    5.667 
#    0.000    0.833    0.000    2.000    0.000    0.000 
#    0.000    0.000    0.000    0.000    0.000    0.000 
#
# Total GULP energy -595000.319078 kJ/mol
# GULP energy per Si atom -12395.839981 kJ/mol
# Density = 1.831139 g / cm^3
# Si number density = 18.353168 Si / 1000 Ang^3
#
#
#
# Elastic Constant Matrix: (Units=GPa)
#
#
# Indices 1 2 3 4 5 6 
#
# 1 83.7068 55.0896 50.1117 0.0000 0.0000 0.0000
# 2 55.0896 131.0487 77.9793 0.0000 0.0000 0.0000
# 3 50.1117 77.9793 107.9024 0.0000 0.0000 0.0000
# 4 0.0000 0.0000 0.0000 -2.0212 0.0000 0.0000
# 5 0.0000 0.0000 0.0000 0.0000 32.4650 0.0000
# 6 0.0000 0.0000 0.0000 0.0000 0.0000 31.2219
#
#
#
# Elastic Compliance Matrix: (Units=1/GPa)
#
#
# Indices 1 2 3 4 5 6 
#
# 1 0.017965 -0.004540 -0.005062 0.000000 0.000000 0.000000
# 2 -0.004540 0.014535 -0.008396 0.000000 0.000000 0.000000
# 3 -0.005062 -0.008396 0.017686 0.000000 0.000000 0.000000
# 4 0.000000 0.000000 0.000000 -0.494743 0.000000 0.000000
# 5 0.000000 0.000000 0.000000 0.000000 0.030802 0.000000
# 6 0.000000 0.000000 0.000000 0.000000 0.000000 0.032029
#
#
# Mechanical properties :
#
#
# Convention : Reuss Voigt Hill
#
# Bulk Modulus (GPa) = 70.47151 76.55767 73.51459
# Shear Modulus (GPa) = -14.66275 21.63163 3.48444
#
# Velocity S-wave (km/s) = -2.82959 3.43685 1.37937
# Velocity P-wave (km/s) = 5.27308 7.58639 6.53295
#
# Compressibility (1/GPa) = 0.01419013
#
# Stress axis : x y z
#
# Youngs Moduli (GPa) = 55.66463 68.79934 56.54068
#
# Poissons Ratio (x) = 0.31232 0.28624
# Poissons Ratio (y) = 0.25269 0.47471
# Poissons Ratio (z) = 0.28180 0.57764
#
# Static dielectric constant tensor:
#      x y z
#    x 3.490500 0.000000 0.000000 
#    y 0.000000 4.027060 0.000000 
#    z 0.000000 0.000000 3.134520 
# 
# 
# High freq. dielectric constant tensor:
#      x y z
#    x 1.722340 0.000000 0.000000 
#    y 0.000000 1.732910 0.000000 
#    z 0.000000 0.000000 1.680690 
# 
# From -- ./inp_files/5994.got.cif
#   From: 2010.03.12/outbox.cif.g09.slc.cpg/sg51_3_cif.got.tgz:5994.got - 2010.04.16 13:43:02.
