data_PCOD8208413
_publ_section_title
;
Structure prediction by ZEFSAII (Michael W. Deem and Ramdas Pophale) SiO2 
 PCOD8208413
Probable space group: P M M A
;
_chemical_formula_sum "Si O2"
_cell_formula_units_Z 48
_cell_length_a 18.844723
_cell_length_b 9.099343
_cell_length_c 15.565703
_cell_angle_alpha 90.000000
_cell_angle_beta 90.000000
_cell_angle_gamma 90.000000
_cell_volume 2669.122669
_symmetry_space_group_name_H-M "P M M A"
_symmetry_group_IT_number 51
_symmetry_cell_setting 'orthorhombic'
loop_
_space_group_symop_operation_xyz
x,y,z
1/2-x,-y,z
1/2+x,-y,-z
-x,y,-z
-x,-y,-z
1/2+x,y,-z
1/2-x,y,z
x,-y,z
loop_
_atom_site_type_symbol
_atom_site_label
_atom_site_fract_x
_atom_site_fract_y
_atom_site_fract_z
Si Si1 0.834280 0.833173 0.182150
Si Si2 0.576426 0.672374 0.672474
Si Si3 0.665668 0.663581 0.016842
Si Si4 0.084285 0.165786 0.496674
Si Si5 0.411992 0.672334 0.666540
Si Si6 0.329135 0.325093 0.171381
O O1 0.750000 0.823307 0.187194
O O2 0.862372 0.772423 0.090661
O O3 0.865589 0.732844 0.256302
O O4 0.860959 0.000000 0.192594
O O5 0.588518 0.500000 0.658597
O O6 0.609496 0.753803 0.589970
O O7 0.493936 0.709689 0.685023
O O8 0.617418 0.733529 0.755984
O O9 0.750000 0.654096 0.018124
O O10 0.634229 0.500000 0.033271
O O11 0.642615 0.724980 0.922862
O O12 0.114772 0.251514 0.578949
O O13 0.000000 0.168474 0.500000
O O14 0.113917 0.000000 0.497560
O O15 0.399181 0.500000 0.657103
O O16 0.250000 0.262569 0.189328
O O17 0.326502 0.500000 0.171892
#
# Coordination Sequence:
#
# PCOD8208413 Si02
#       6
#     8   8   8   8   8   8
#     4  10  20  33  49  69  93 121 154 194 238 282
#     4   9  17  30  49  73  97 122 157 197 234 275
#     4   8  14  27  48  70  91 120 157 190 223 271
#     4   9  17  30  48  68  92 125 161 194 232 279
#     4  10  19  31  49  71  94 122 157 196 235 279
#     4   8  14  27  49  74  97 122 154 192 230 268
#
# _framework density 17.983436999999999
#
# number of rings (size 3 to 8) (size 9 to 14) (size 15 to 20)
#    0.000    3.000    0.000    2.500    0.000    3.667 
#    0.000    2.500    0.000    9.500    0.000    0.000 
#    0.000    0.000    0.000    0.000    0.000    0.000 
#
# Total GULP energy -595058.357184 kJ/mol
# GULP energy per Si atom -12397.049108 kJ/mol
# Density = 1.794251 g / cm^3
# Si number density = 17.983437 Si / 1000 Ang^3
#
#
#
# Elastic Constant Matrix: (Units=GPa)
#
#
# Indices 1 2 3 4 5 6 
#
# 1 25.3315 22.0524 33.6210 0.0000 0.0000 0.0000
# 2 22.0524 81.5064 57.8050 0.0000 0.0000 0.0000
# 3 33.6210 57.8050 167.9591 0.0000 0.0000 0.0000
# 4 0.0000 0.0000 0.0000 11.8522 0.0000 0.0000
# 5 0.0000 0.0000 0.0000 0.0000 53.9213 0.0000
# 6 0.0000 0.0000 0.0000 0.0000 0.0000 15.2577
#
#
#
# Elastic Compliance Matrix: (Units=1/GPa)
#
#
# Indices 1 2 3 4 5 6 
#
# 1 0.059459 -0.010115 -0.008421 0.000000 0.000000 0.000000
# 2 -0.010115 0.017951 -0.004153 0.000000 0.000000 0.000000
# 3 -0.008421 -0.004153 0.009069 0.000000 0.000000 0.000000
# 4 0.000000 0.000000 0.000000 0.084372 0.000000 0.000000
# 5 0.000000 0.000000 0.000000 0.000000 0.018546 0.000000
# 6 0.000000 0.000000 0.000000 0.000000 0.000000 0.065541
#
#
# Mechanical properties :
#
#
# Convention : Reuss Voigt Hill
#
# Bulk Modulus (GPa) = 24.33072 55.75044 40.04058
# Shear Modulus (GPa) = 15.92276 26.96082 21.44179
#
# Velocity S-wave (km/s) = 2.97882 3.87616 3.45673
# Velocity P-wave (km/s) = 5.03885 7.14850 6.18430
#
# Compressibility (1/GPa) = 0.04110030
#
# Stress axis : x y z
#
# Youngs Moduli (GPa) = 16.81844 55.70626 110.26703
#
# Poissons Ratio (x) = 0.56347 0.92854
# Poissons Ratio (y) = 0.17012 0.45798
# Poissons Ratio (z) = 0.14163 0.23137
#
# Static dielectric constant tensor:
#      x y z
#    x 2.998230 0.000000 0.000000 
#    y 0.000000 3.316700 0.000000 
#    z 0.000000 0.000000 3.730390 
# 
# 
# High freq. dielectric constant tensor:
#      x y z
#    x 1.651140 0.000000 0.000000 
#    y 0.000000 1.684390 0.000000 
#    z 0.000000 0.000000 1.715060 
# 
# From -- ./inp_files/24801.got.cif
#   From: 2010.03.12/outbox.cif.g09.slc.cpg/sg51_13_cif.got.tgz:24801.got - 2010.04.16 13:43:02.
