data_PCOD8208486
_publ_section_title
;
Structure prediction by ZEFSAII (Michael W. Deem and Ramdas Pophale) SiO2 
 PCOD8208486
Probable space group: P M M A
;
_chemical_formula_sum "Si O2"
_cell_formula_units_Z 64
_cell_length_a 9.054773
_cell_length_b 24.614646
_cell_length_c 15.297835
_cell_angle_alpha 90.000000
_cell_angle_beta 90.000000
_cell_angle_gamma 90.000000
_cell_volume 3409.581954
_symmetry_space_group_name_H-M "P M M A"
_symmetry_group_IT_number 51
_symmetry_cell_setting 'orthorhombic'
loop_
_space_group_symop_operation_xyz
x,y,z
1/2-x,-y,z
1/2+x,-y,-z
-x,y,-z
-x,-y,-z
1/2+x,y,-z
1/2-x,y,z
x,-y,z
loop_
_atom_site_type_symbol
_atom_site_label
_atom_site_fract_x
_atom_site_fract_y
_atom_site_fract_z
Si Si1 0.075490 0.859820 0.720671
Si Si2 0.924874 0.355472 0.589604
Si Si3 0.915616 0.272580 0.878114
Si Si4 0.074521 0.560883 0.266703
Si Si5 0.077119 0.605316 0.084923
Si Si6 0.583510 0.247374 0.680445
Si Si7 0.422768 0.833922 0.915472
Si Si8 0.920996 0.936132 0.588508
O O1 0.250000 0.865707 0.710276
O O2 0.028033 0.861102 0.823319
O O3 0.025770 0.803773 0.675115
O O4 0.995477 0.909455 0.673182
O O5 0.750000 0.361021 0.581462
O O6 0.988072 0.397221 0.661773
O O7 0.968838 0.293385 0.612551
O O8 0.000000 0.372425 0.500000
O O9 0.750000 0.255748 0.908001
O O10 0.961539 0.330958 0.913434
O O11 0.921742 0.276109 0.773899
O O12 0.031774 0.229252 0.914932
O O13 0.250000 0.565541 0.264055
O O14 0.022876 0.500000 0.290787
O O15 0.012031 0.576597 0.171239
O O16 0.250000 0.594979 0.077690
O O17 0.000000 0.579331 0.000000
O O18 0.750000 0.227139 0.659686
O O19 0.250000 0.839286 0.928099
O O20 0.500000 0.862457 0.000000
O O21 0.750000 0.919595 0.583113
O O22 0.000000 0.915573 0.500000
O O23 0.942441 0.000000 0.599936
#
# Coordination Sequence:
#
# PCOD8208486 Si02
#       8
#     8   8   8   8   8   8   8   8
#     4  10  21  35  54  83 116 148 185 226 271 320
#     4  10  20  35  55  78 101 131 170 212 262 318
#     4   9  16  29  49  70  97 133 173 213 256 312
#     4   9  18  35  56  73  95 131 172 212 257 318
#     4  10  19  31  49  74  99 128 167 209 257 314
#     4   9  17  32  52  73 103 141 177 212 258 319
#     4  10  20  32  48  75 110 147 185 224 266 314
#     4  10  21  38  61  87 114 147 187 229 273 320
#
# _framework density 18.770630000000001
#
# number of rings (size 3 to 8) (size 9 to 14) (size 15 to 20)
#    0.000    2.375    1.250    1.500    0.000    5.250 
#    0.000    1.875    0.000    1.125    0.000    0.000 
#    0.000    0.000    0.000    0.000    0.000    0.000 
#
# Total GULP energy -793555.904918 kJ/mol
# GULP energy per Si atom -12399.311014 kJ/mol
# Density = 1.872791 g / cm^3
# Si number density = 18.770630 Si / 1000 Ang^3
#
#
#
# Elastic Constant Matrix: (Units=GPa)
#
#
# Indices 1 2 3 4 5 6 
#
# 1 68.6438 37.5790 49.0058 0.0000 0.0000 0.0000
# 2 37.5790 63.5677 54.7170 0.0000 0.0000 0.0000
# 3 49.0058 54.7170 141.4305 0.0000 0.0000 0.0000
# 4 0.0000 0.0000 0.0000 18.7880 0.0000 0.0000
# 5 0.0000 0.0000 0.0000 0.0000 34.1589 0.0000
# 6 0.0000 0.0000 0.0000 0.0000 0.0000 15.4000
#
#
#
# Elastic Compliance Matrix: (Units=1/GPa)
#
#
# Indices 1 2 3 4 5 6 
#
# 1 0.022996 -0.010099 -0.004061 0.000000 0.000000 0.000000
# 2 -0.010099 0.028020 -0.007341 0.000000 0.000000 0.000000
# 3 -0.004061 -0.007341 0.011318 0.000000 0.000000 0.000000
# 4 0.000000 0.000000 0.000000 0.053226 0.000000 0.000000
# 5 0.000000 0.000000 0.000000 0.000000 0.029275 0.000000
# 6 0.000000 0.000000 0.000000 0.000000 0.000000 0.064935
#
#
# Mechanical properties :
#
#
# Convention : Reuss Voigt Hill
#
# Bulk Modulus (GPa) = 51.72777 61.80504 56.76641
# Shear Modulus (GPa) = 19.28893 22.49206 20.89050
#
# Velocity S-wave (km/s) = 3.20912 3.46534 3.33969
# Velocity P-wave (km/s) = 6.43031 7.00067 6.72154
#
# Compressibility (1/GPa) = 0.01933198
#
# Stress axis : x y z
#
# Youngs Moduli (GPa) = 43.48651 35.68820 88.35450
#
# Poissons Ratio (x) = 0.36040 0.35881
# Poissons Ratio (y) = 0.43915 0.64865
# Poissons Ratio (z) = 0.17660 0.26200
#
# Static dielectric constant tensor:
#      x y z
#    x 3.254190 0.000000 0.000000 
#    y 0.000000 3.242410 0.000000 
#    z 0.000000 0.000000 3.642050 
# 
# 
# High freq. dielectric constant tensor:
#      x y z
#    x 1.712530 0.000000 0.000000 
#    y 0.000000 1.707010 0.000000 
#    z 0.000000 0.000000 1.740360 
# 
# From -- ./inp_files/22269.got.cif
#   From: 2010.03.12/outbox.cif.g09.slc.cpg/sg51_12_cif.got.tgz:22269.got - 2010.04.16 13:43:02.
