data_PCOD8208007
_publ_section_title
;
Structure prediction by ZEFSAII (Michael W. Deem and Ramdas Pophale) SiO2 
 PCOD8208007
Probable space group: P M M A
;
_chemical_formula_sum "Si O2"
_cell_formula_units_Z 48
_cell_length_a 17.603422
_cell_length_b 9.190811
_cell_length_c 18.002858
_cell_angle_alpha 90.000000
_cell_angle_beta 90.000000
_cell_angle_gamma 90.000000
_cell_volume 2912.677437
_symmetry_space_group_name_H-M "P M M A"
_symmetry_group_IT_number 51
_symmetry_cell_setting 'orthorhombic'
loop_
_space_group_symop_operation_xyz
x,y,z
1/2-x,-y,z
1/2+x,-y,-z
-x,y,-z
-x,-y,-z
1/2+x,y,-z
1/2-x,y,z
x,-y,z
loop_
_atom_site_type_symbol
_atom_site_label
_atom_site_fract_x
_atom_site_fract_y
_atom_site_fract_z
Si Si1 0.061622 0.660470 0.435278
Si Si2 0.336559 0.671171 0.562127
Si Si3 0.429099 0.839550 0.054529
Si Si4 0.338582 0.329968 0.941900
Si Si5 0.955872 0.828756 0.337166
Si Si6 0.450932 0.171317 0.833780
O O1 0.071395 0.500000 0.399606
O O2 0.138675 0.711225 0.477282
O O3 0.000000 0.654944 0.500000
O O4 0.035538 0.771166 0.371203
O O5 0.250000 0.717713 0.572324
O O6 0.349846 0.500000 0.575812
O O7 0.383842 0.758433 0.622969
O O8 0.465858 0.786317 0.132653
O O9 0.391924 0.000000 0.062736
O O10 0.500000 0.847852 0.000000
O O11 0.366144 0.730027 0.022236
O O12 0.250000 0.295910 0.932405
O O13 0.356075 0.500000 0.939833
O O14 0.382497 0.254727 0.874144
O O15 0.951775 0.782833 0.251652
O O16 0.953173 0.000000 0.348599
O O17 0.436314 0.000000 0.844999
#
# Coordination Sequence:
#
# PCOD8208007 Si02
#       6
#     8   8   8   8   8   8
#     4   8  15  29  47  65  86 117 155 186 217 264
#     4   9  18  32  48  66  91 122 153 185 221 265
#     4   8  15  30  49  65  84 116 155 186 215 260
#     4  10  20  31  45  69  96 118 145 184 226 265
#     4  10  19  30  46  69  95 119 146 186 228 263
#     4   9  19  33  47  66  92 121 152 183 219 267
#
# _framework density 16.479683000000001
#
# number of rings (size 3 to 8) (size 9 to 14) (size 15 to 20)
#    0.000    3.000    0.000    3.000    0.000    9.667 
#    0.000    3.333    0.000    1.000    0.000    4.667 
#    0.000    0.000    0.000    0.000    0.000    0.000 
#
# Total GULP energy -594895.565519 kJ/mol
# GULP energy per Si atom -12393.657615 kJ/mol
# Density = 1.644217 g / cm^3
# Si number density = 16.479683 Si / 1000 Ang^3
#
#
#
# Elastic Constant Matrix: (Units=GPa)
#
#
# Indices 1 2 3 4 5 6 
#
# 1 56.6992 48.6738 79.0017 0.0000 0.0000 0.0000
# 2 48.6738 80.8282 66.2159 0.0000 0.0000 0.0000
# 3 79.0017 66.2159 117.9986 0.0000 0.0000 0.0000
# 4 0.0000 0.0000 0.0000 16.3429 0.0000 0.0000
# 5 0.0000 0.0000 0.0000 0.0000 18.6244 0.0000
# 6 0.0000 0.0000 0.0000 0.0000 0.0000 20.6434
#
#
#
# Elastic Compliance Matrix: (Units=1/GPa)
#
#
# Indices 1 2 3 4 5 6 
#
# 1 0.296305 -0.029456 -0.181851 0.000000 0.000000 0.000000
# 2 -0.029456 0.025827 0.005228 0.000000 0.000000 0.000000
# 3 -0.181851 0.005228 0.127292 0.000000 0.000000 0.000000
# 4 0.000000 0.000000 0.000000 0.061188 0.000000 0.000000
# 5 0.000000 0.000000 0.000000 0.000000 0.053693 0.000000
# 6 0.000000 0.000000 0.000000 0.000000 0.000000 0.048442
#
#
# Mechanical properties :
#
#
# Convention : Reuss Voigt Hill
#
# Bulk Modulus (GPa) = 26.83333 71.47877 49.15605
# Shear Modulus (GPa) = 4.82008 15.23113 10.02560
#
# Velocity S-wave (km/s) = 1.71208 3.04342 2.46917
# Velocity P-wave (km/s) = 4.49737 7.47114 6.16621
#
# Compressibility (1/GPa) = 0.03726709
#
# Stress axis : x y z
#
# Youngs Moduli (GPa) = 3.37490 38.71913 7.85594
#
# Poissons Ratio (x) = 1.14053 1.42861
# Poissons Ratio (y) = 0.09941 -0.04107
# Poissons Ratio (z) = 0.61373 -0.20244
#
# Static dielectric constant tensor:
#      x y z
#    x 3.288080 0.000000 0.000000 
#    y 0.000000 3.128060 0.000000 
#    z 0.000000 0.000000 3.337450 
# 
# 
# High freq. dielectric constant tensor:
#      x y z
#    x 1.617270 0.000000 0.000000 
#    y 0.000000 1.636100 0.000000 
#    z 0.000000 0.000000 1.622700 
# 
# From -- ./inp_files/30054.got.cif
#   From: 2010.03.12/outbox.cif.g09.slc.cpg/sg51_16_cif.got.tgz:30054.got - 2010.04.16 13:43:02.
