data_PCOD8208835
_publ_section_title
;
Structure prediction by ZEFSAII (Michael W. Deem and Ramdas Pophale) SiO2 
 PCOD8208835
Probable space group: P M M A
;
_chemical_formula_sum "Si O2"
_cell_formula_units_Z 48
_cell_length_a 13.988518
_cell_length_b 13.352567
_cell_length_c 14.312533
_cell_angle_alpha 90.000000
_cell_angle_beta 90.000000
_cell_angle_gamma 90.000000
_cell_volume 2673.332467
_symmetry_space_group_name_H-M "P M M A"
_symmetry_group_IT_number 51
_symmetry_cell_setting 'orthorhombic'
loop_
_space_group_symop_operation_xyz
x,y,z
1/2-x,-y,z
1/2+x,-y,-z
-x,y,-z
-x,-y,-z
1/2+x,y,-z
1/2-x,y,z
x,-y,z
loop_
_atom_site_type_symbol
_atom_site_label
_atom_site_fract_x
_atom_site_fract_y
_atom_site_fract_z
Si Si1 0.141345 0.388821 0.815470
Si Si2 0.478114 0.113719 0.753918
Si Si3 0.964158 0.307510 0.357074
Si Si4 0.860581 0.618090 0.536229
Si Si5 0.138877 0.805162 0.920037
Si Si6 0.356804 0.883604 0.113037
O O1 0.250000 0.373033 0.779079
O O2 0.126737 0.500000 0.856203
O O3 0.069660 0.373452 0.729888
O O4 0.118644 0.311447 0.898337
O O5 0.458288 0.189525 0.668715
O O6 0.404614 0.125354 0.839336
O O7 0.582696 0.139736 0.794555
O O8 0.471972 0.000000 0.715647
O O9 0.891979 0.325436 0.442259
O O10 0.072533 0.340884 0.380506
O O11 0.750000 0.642295 0.558943
O O12 0.877260 0.500000 0.522681
O O13 0.250000 0.832228 0.922066
O O14 0.097195 0.827487 0.023175
O O15 0.250000 0.845365 0.134247
O O16 0.359018 0.000000 0.088242
#
# Coordination Sequence:
#
# PCOD8208835 Si02
#       6
#     8   8   8   8   8   8
#     4   9  16  27  46  71  98 127 158 194 238 284
#     4  10  20  32  48  70  97 129 161 195 236 279
#     4  10  19  32  51  73  98 122 153 194 234 280
#     4  10  20  35  56  77  95 118 150 189 234 284
#     4   9  17  28  45  70  97 127 164 203 238 272
#     4   9  17  30  48  68  91 123 164 203 234 268
#
# _framework density 17.955117999999999
#
# number of rings (size 3 to 8) (size 9 to 14) (size 15 to 20)
#    0.000    2.500    0.000    3.500    0.000    5.000 
#    0.000    1.667    0.000   11.000    0.000    2.333 
#    0.000    0.000    0.000    0.000    0.000    0.000 
#
# Total GULP energy -595124.202851 kJ/mol
# GULP energy per Si atom -12398.420893 kJ/mol
# Density = 1.791425 g / cm^3
# Si number density = 17.955118 Si / 1000 Ang^3
#
#
#
# Elastic Constant Matrix: (Units=GPa)
#
#
# Indices 1 2 3 4 5 6 
#
# 1 57.5652 26.3239 3.8218 0.0000 0.0000 0.0000
# 2 26.3239 108.4356 37.8216 0.0000 0.0000 0.0000
# 3 3.8218 37.8216 44.2244 0.0000 0.0000 0.0000
# 4 0.0000 0.0000 0.0000 24.3026 0.0000 0.0000
# 5 0.0000 0.0000 0.0000 0.0000 18.7723 0.0000
# 6 0.0000 0.0000 0.0000 0.0000 0.0000 22.6235
#
#
#
# Elastic Compliance Matrix: (Units=1/GPa)
#
#
# Indices 1 2 3 4 5 6 
#
# 1 0.019901 -0.006030 0.003437 0.000000 0.000000 0.000000
# 2 -0.006030 0.014969 -0.012281 0.000000 0.000000 0.000000
# 3 0.003437 -0.012281 0.032818 0.000000 0.000000 0.000000
# 4 0.000000 0.000000 0.000000 0.041148 0.000000 0.000000
# 5 0.000000 0.000000 0.000000 0.000000 0.053270 0.000000
# 6 0.000000 0.000000 0.000000 0.000000 0.000000 0.044202
#
#
# Mechanical properties :
#
#
# Convention : Reuss Voigt Hill
#
# Bulk Modulus (GPa) = 26.35708 38.46221 32.40964
# Shear Modulus (GPa) = 20.10432 22.62354 21.36393
#
# Velocity S-wave (km/s) = 3.34982 3.55351 3.45317
# Velocity P-wave (km/s) = 5.44729 6.18905 5.82998
#
# Compressibility (1/GPa) = 0.03794048
#
# Stress axis : x y z
#
# Youngs Moduli (GPa) = 50.24908 66.80256 30.47108
#
# Poissons Ratio (x) = 0.40282 -0.10474
# Poissons Ratio (y) = 0.30300 0.37422
# Poissons Ratio (z) = -0.17272 0.82041
#
# Static dielectric constant tensor:
#      x y z
#    x 3.540980 0.000000 0.000000 
#    y 0.000000 3.313220 0.000000 
#    z 0.000000 0.000000 3.101320 
# 
# 
# High freq. dielectric constant tensor:
#      x y z
#    x 1.704980 0.000000 0.000000 
#    y 0.000000 1.691740 0.000000 
#    z 0.000000 0.000000 1.669090 
# 
# From -- ./inp_files/24016.got.cif
#   From: 2010.03.12/outbox.cif.g09.slc.cpg/sg51_13_cif.got.tgz:24016.got - 2010.04.16 13:43:02.
