data_PCOD8208453
_publ_section_title
;
Structure prediction by ZEFSAII (Michael W. Deem and Ramdas Pophale) SiO2 
 PCOD8208453
Probable space group: P M M A
;
_chemical_formula_sum "Si O2"
_cell_formula_units_Z 56
_cell_length_a 8.803397
_cell_length_b 18.923123
_cell_length_c 18.798302
_cell_angle_alpha 90.000000
_cell_angle_beta 90.000000
_cell_angle_gamma 90.000000
_cell_volume 3131.567102
_symmetry_space_group_name_H-M "P M M A"
_symmetry_group_IT_number 51
_symmetry_cell_setting 'orthorhombic'
loop_
_space_group_symop_operation_xyz
x,y,z
1/2-x,-y,z
1/2+x,-y,-z
-x,y,-z
-x,-y,-z
1/2+x,y,-z
1/2-x,y,z
x,-y,z
loop_
_atom_site_type_symbol
_atom_site_label
_atom_site_fract_x
_atom_site_fract_y
_atom_site_fract_z
Si Si1 0.071098 0.286905 0.342279
Si Si2 0.929709 0.272728 0.077768
Si Si3 0.427536 0.574174 0.923738
Si Si4 0.930534 0.797306 0.791632
Si Si5 0.925319 0.081267 0.292729
Si Si6 0.570215 0.579114 0.576082
Si Si7 0.429664 0.851036 0.424180
O O1 0.250000 0.292106 0.337429
O O2 0.010526 0.262432 0.264753
O O3 0.006516 0.363575 0.366730
O O4 0.024178 0.228200 0.400344
O O5 0.750000 0.261931 0.072678
O O6 0.974974 0.350697 0.110643
O O7 0.000409 0.216179 0.130997
O O8 0.000000 0.261464 0.000000
O O9 0.250000 0.576063 0.936036
O O10 0.472421 0.500000 0.882210
O O11 0.500000 0.570602 0.000000
O O12 0.750000 0.798324 0.795896
O O13 0.987919 0.873663 0.766949
O O14 0.750000 0.104506 0.296085
O O15 0.001200 0.092870 0.369399
O O16 0.942668 0.000000 0.270827
O O17 0.500000 0.596953 0.500000
O O18 0.750000 0.585505 0.568169
O O19 0.523117 0.500000 0.601177
O O20 0.500000 0.867621 0.500000
O O21 0.250000 0.860938 0.426421
#
# Coordination Sequence:
#
# PCOD8208453 Si02
#       7
#     8   8   8   8   8   8   8
#     4   8  16  30  46  66  93 127 166 206 247 291
#     4  10  19  32  52  77 104 134 170 211 254 299
#     4   8  14  25  42  65  94 127 161 198 240 285
#     4  10  20  35  54  75 101 131 165 204 247 301
#     4  10  21  37  56  77 101 130 164 201 244 298
#     4   9  16  27  44  65  91 125 166 211 254 292
#     4  10  19  31  49  73 102 134 168 207 248 293
#
# _framework density 17.88242
#
# number of rings (size 3 to 8) (size 9 to 14) (size 15 to 20)
#    0.000    2.714    0.000    3.000    0.000    2.000 
#    0.000    4.286    0.000    1.286    0.000    0.000 
#    0.000    0.000    0.000    0.000    0.000    0.000 
#
# Total GULP energy -693838.092591 kJ/mol
# GULP energy per Si atom -12389.965939 kJ/mol
# Density = 1.784172 g / cm^3
# Si number density = 17.882420 Si / 1000 Ang^3
#
#
#
# Elastic Constant Matrix: (Units=GPa)
#
#
# Indices 1 2 3 4 5 6 
#
# 1 68.9456 36.9449 42.3851 0.0000 0.0000 0.0000
# 2 36.9449 106.8475 59.6421 0.0000 0.0000 0.0000
# 3 42.3851 59.6421 105.7138 0.0000 0.0000 0.0000
# 4 0.0000 0.0000 0.0000 24.7826 0.0000 0.0000
# 5 0.0000 0.0000 0.0000 0.0000 26.3402 0.0000
# 6 0.0000 0.0000 0.0000 0.0000 0.0000 21.8797
#
#
#
# Elastic Compliance Matrix: (Units=1/GPa)
#
#
# Indices 1 2 3 4 5 6 
#
# 1 0.020149 -0.003587 -0.006055 0.000000 0.000000 0.000000
# 2 -0.003587 0.014300 -0.006630 0.000000 0.000000 0.000000
# 3 -0.006055 -0.006630 0.015627 0.000000 0.000000 0.000000
# 4 0.000000 0.000000 0.000000 0.040351 0.000000 0.000000
# 5 0.000000 0.000000 0.000000 0.000000 0.037965 0.000000
# 6 0.000000 0.000000 0.000000 0.000000 0.000000 0.045705
#
#
# Mechanical properties :
#
#
# Convention : Reuss Voigt Hill
#
# Bulk Modulus (GPa) = 57.03448 62.16124 59.59786
# Shear Modulus (GPa) = 23.53123 24.10280 23.81702
#
# Velocity S-wave (km/s) = 3.63145 3.67529 3.65344
# Velocity P-wave (km/s) = 7.03894 7.26959 7.15519
#
# Compressibility (1/GPa) = 0.01753325
#
# Stress axis : x y z
#
# Youngs Moduli (GPa) = 49.63146 69.92934 63.99008
#
# Poissons Ratio (x) = 0.25085 0.38743
# Poissons Ratio (y) = 0.17803 0.42423
# Poissons Ratio (z) = 0.30050 0.46361
#
# Static dielectric constant tensor:
#      x y z
#    x 3.230010 0.000000 0.000000 
#    y 0.000000 3.643440 0.000000 
#    z 0.000000 0.000000 3.128980 
# 
# 
# High freq. dielectric constant tensor:
#      x y z
#    x 1.690550 0.000000 0.000000 
#    y 0.000000 1.696560 0.000000 
#    z 0.000000 0.000000 1.663350 
# 
# From -- ./inp_files/32256.got.cif
#   From: 2010.03.12/outbox.cif.g09.slc.cpg/sg51_17_cif.got.tgz:32256.got - 2010.04.16 13:43:02.
