data_PCOD8208417
_publ_section_title
;
Structure prediction by ZEFSAII (Michael W. Deem and Ramdas Pophale) SiO2 
 PCOD8208417
Probable space group: P M M A
;
_chemical_formula_sum "Si O2"
_cell_formula_units_Z 48
_cell_length_a 18.767343
_cell_length_b 9.309262
_cell_length_c 15.471997
_cell_angle_alpha 90.000000
_cell_angle_beta 90.000000
_cell_angle_gamma 90.000000
_cell_volume 2703.114345
_symmetry_space_group_name_H-M "P M M A"
_symmetry_group_IT_number 51
_symmetry_cell_setting 'orthorhombic'
loop_
_space_group_symop_operation_xyz
x,y,z
1/2-x,-y,z
1/2+x,-y,-z
-x,y,-z
-x,-y,-z
1/2+x,y,-z
1/2-x,y,z
x,-y,z
loop_
_atom_site_type_symbol
_atom_site_label
_atom_site_fract_x
_atom_site_fract_y
_atom_site_fract_z
Si Si1 0.333340 0.666898 0.312505
Si Si2 0.584583 0.832970 0.832552
Si Si3 0.915292 0.337479 0.999898
Si Si4 0.917455 0.833672 0.166102
Si Si5 0.668046 0.832064 0.332531
Si Si6 0.165390 0.341311 0.505310
O O1 0.250000 0.696228 0.299234
O O2 0.350832 0.500000 0.293752
O O3 0.376710 0.770360 0.250470
O O4 0.358107 0.709104 0.409679
O O5 0.613042 0.749170 0.916897
O O6 0.500852 0.809150 0.819658
O O7 0.603405 0.000000 0.843581
O O8 0.885438 0.500000 0.997246
O O9 0.887643 0.258350 0.085923
O O10 0.000000 0.336818 0.000000
O O11 0.876952 0.777130 0.250923
O O12 0.900228 0.000000 0.147192
O O13 0.750000 0.787769 0.317456
O O14 0.636067 0.762277 0.419759
O O15 0.659134 0.000000 0.344905
O O16 0.250000 0.344387 0.506913
O O17 0.135043 0.500000 0.523917
#
# Coordination Sequence:
#
# PCOD8208417 Si02
#       6
#     8   8   8   8   8   8
#     4   9  18  33  51  70  94 123 155 194 236 276
#     4  10  19  31  49  71  95 124 156 192 235 283
#     4   9  17  30  49  70  91 121 161 197 230 276
#     4   9  18  32  48  69  97 125 155 194 238 279
#     4   9  17  30  49  71  94 122 156 193 231 272
#     4   8  15  29  48  68  91 121 155 190 230 276
#
# _framework density 17.757294999999999
#
# number of rings (size 3 to 8) (size 9 to 14) (size 15 to 20)
#    0.000    3.000    0.000    2.000    0.000    4.333 
#    0.000    3.333    0.000    8.000    0.000    0.000 
#    0.000    0.000    0.000    0.000    0.000    0.000 
#
# Total GULP energy -595097.116395 kJ/mol
# GULP energy per Si atom -12397.856592 kJ/mol
# Density = 1.771688 g / cm^3
# Si number density = 17.757295 Si / 1000 Ang^3
#
#
#
# Elastic Constant Matrix: (Units=GPa)
#
#
# Indices 1 2 3 4 5 6 
#
# 1 30.4325 34.3270 44.0899 0.0000 0.0000 0.0000
# 2 34.3270 106.6160 92.8677 0.0000 0.0000 0.0000
# 3 44.0899 92.8677 184.4232 0.0000 0.0000 0.0000
# 4 0.0000 0.0000 0.0000 41.1812 0.0000 0.0000
# 5 0.0000 0.0000 0.0000 0.0000 32.3877 0.0000
# 6 0.0000 0.0000 0.0000 0.0000 0.0000 18.8681
#
#
#
# Elastic Compliance Matrix: (Units=1/GPa)
#
#
# Indices 1 2 3 4 5 6 
#
# 1 0.057354 -0.011619 -0.007861 0.000000 0.000000 0.000000
# 2 -0.011619 0.019062 -0.006821 0.000000 0.000000 0.000000
# 3 -0.007861 -0.006821 0.010736 0.000000 0.000000 0.000000
# 4 0.000000 0.000000 0.000000 0.024283 0.000000 0.000000
# 5 0.000000 0.000000 0.000000 0.000000 0.030876 0.000000
# 6 0.000000 0.000000 0.000000 0.000000 0.000000 0.052999
#
#
# Mechanical properties :
#
#
# Convention : Reuss Voigt Hill
#
# Bulk Modulus (GPa) = 28.94306 73.78233 51.36269
# Shear Modulus (GPa) = 19.27312 28.49988 23.88650
#
# Velocity S-wave (km/s) = 3.29806 4.01055 3.67163
# Velocity P-wave (km/s) = 5.55316 7.94271 6.85289
#
# Compressibility (1/GPa) = 0.03455060
#
# Stress axis : x y z
#
# Youngs Moduli (GPa) = 17.43558 52.46086 93.14193
#
# Poissons Ratio (x) = 0.60955 0.73216
# Poissons Ratio (y) = 0.20259 0.63532
# Poissons Ratio (z) = 0.13706 0.35783
#
# Static dielectric constant tensor:
#      x y z
#    x 2.918130 0.000000 0.000000 
#    y 0.000000 3.393540 0.000000 
#    z 0.000000 0.000000 3.568590 
# 
# 
# High freq. dielectric constant tensor:
#      x y z
#    x 1.643380 0.000000 0.000000 
#    y 0.000000 1.689310 0.000000 
#    z 0.000000 0.000000 1.702470 
# 
# From -- ./inp_files/24800.got.cif
#   From: 2010.03.12/outbox.cif.g09.slc.cpg/sg51_13_cif.got.tgz:24800.got - 2010.04.16 13:43:02.
