data_PCOD8208690
_publ_section_title
;
Structure prediction by ZEFSAII (Michael W. Deem and Ramdas Pophale) SiO2 
 PCOD8208690
Probable space group: P M M A
;
_chemical_formula_sum "Si O2"
_cell_formula_units_Z 44
_cell_length_a 9.697052
_cell_length_b 16.808988
_cell_length_c 15.369012
_cell_angle_alpha 90.000000
_cell_angle_beta 90.000000
_cell_angle_gamma 90.000000
_cell_volume 2505.112542
_symmetry_space_group_name_H-M "P M M A"
_symmetry_group_IT_number 51
_symmetry_cell_setting 'orthorhombic'
loop_
_space_group_symop_operation_xyz
x,y,z
1/2-x,-y,z
1/2+x,-y,-z
-x,y,-z
-x,-y,-z
1/2+x,y,-z
1/2-x,y,z
x,-y,z
loop_
_atom_site_type_symbol
_atom_site_label
_atom_site_fract_x
_atom_site_fract_y
_atom_site_fract_z
Si Si1 0.409429 0.136681 0.786811
Si Si2 0.900888 0.000000 0.078529
Si Si3 0.904364 0.912974 0.633876
Si Si4 0.410347 0.715961 0.227122
Si Si5 0.409066 0.591510 0.081004
Si Si6 0.094998 0.258636 0.424400
O O1 0.250000 0.155883 0.764324
O O2 0.478824 0.091994 0.706377
O O3 0.492005 0.216131 0.811815
O O4 0.423668 0.079495 0.867779
O O5 0.750000 0.000000 0.037990
O O6 0.000000 0.000000 0.000000
O O7 0.750000 0.907124 0.675365
O O8 0.921882 0.837549 0.570470
O O9 0.920741 0.000000 0.587094
O O10 0.250000 0.741007 0.218818
O O11 0.442341 0.637330 0.170965
O O12 0.447269 0.705949 0.329739
O O13 0.250000 0.603014 0.054392
O O14 0.445099 0.500000 0.100156
O O15 0.500000 0.623564 0.000000
O O16 0.250000 0.284283 0.446457
O O17 0.000000 0.296128 0.500000
#
# Coordination Sequence:
#
# PCOD8208690 Si02
#       6
#     8   4   8   8   8   8
#     4  10  19  32  47  67  93 122 164 212 250 287
#     4  10  22  34  44  62  89 122 163 208 249 292
#     4   9  17  30  48  66  88 123 163 204 254 307
#     4   9  19  35  53  74 101 135 169 199 246 308
#     4   9  18  34  57  83 109 134 161 199 248 302
#     4   9  18  31  46  68  97 130 170 211 248 295
#
# _framework density 17.564081999999999
#
# number of rings (size 3 to 8) (size 9 to 14) (size 15 to 20)
#    0.000    2.727    0.909    1.636    0.000    6.182 
#    0.000    3.636    0.000    0.545    0.000    0.000 
#    0.000    0.000    0.000    0.000    0.000    0.364 
#
# Total GULP energy -545233.664276 kJ/mol
# GULP energy per Si atom -12391.674188 kJ/mol
# Density = 1.752411 g / cm^3
# Si number density = 17.564082 Si / 1000 Ang^3
#
#
#
# Elastic Constant Matrix: (Units=GPa)
#
#
# Indices 1 2 3 4 5 6 
#
# 1 108.9046 37.0564 70.2422 0.0000 0.0000 0.0000
# 2 37.0564 68.2540 46.5745 0.0000 0.0000 0.0000
# 3 70.2422 46.5745 111.3161 0.0000 0.0000 0.0000
# 4 0.0000 0.0000 0.0000 17.2786 0.0000 0.0000
# 5 0.0000 0.0000 0.0000 0.0000 33.9477 0.0000
# 6 0.0000 0.0000 0.0000 0.0000 0.0000 13.6780
#
#
#
# Elastic Compliance Matrix: (Units=1/GPa)
#
#
# Indices 1 2 3 4 5 6 
#
# 1 0.015779 -0.002481 -0.008919 0.000000 0.000000 0.000000
# 2 -0.002481 0.020896 -0.007177 0.000000 0.000000 0.000000
# 3 -0.008919 -0.007177 0.017614 0.000000 0.000000 0.000000
# 4 0.000000 0.000000 0.000000 0.057875 0.000000 0.000000
# 5 0.000000 0.000000 0.000000 0.000000 0.029457 0.000000
# 6 0.000000 0.000000 0.000000 0.000000 0.000000 0.073110
#
#
# Mechanical properties :
#
#
# Convention : Reuss Voigt Hill
#
# Bulk Modulus (GPa) = 58.35969 66.24678 62.30324
# Shear Modulus (GPa) = 19.41018 21.95430 20.68224
#
# Velocity S-wave (km/s) = 3.32792 3.53930 3.43524
# Velocity P-wave (km/s) = 6.93294 7.38250 7.16125
#
# Compressibility (1/GPa) = 0.01713511
#
# Stress axis : x y z
#
# Youngs Moduli (GPa) = 63.37522 47.85704 56.77199
#
# Poissons Ratio (x) = 0.11872 0.50634
# Poissons Ratio (y) = 0.15722 0.40747
# Poissons Ratio (z) = 0.56524 0.34348
#
# Static dielectric constant tensor:
#      x y z
#    x 3.421370 0.000000 0.000000 
#    y 0.000000 3.211410 0.000000 
#    z 0.000000 0.000000 2.979830 
# 
# 
# High freq. dielectric constant tensor:
#      x y z
#    x 1.689840 0.000000 0.000000 
#    y 0.000000 1.656230 0.000000 
#    z 0.000000 0.000000 1.661970 
# 
# From -- ./inp_files/20945.got.cif
#   From: 2010.03.12/outbox.cif.g09.slc.cpg/sg51_11_cif.got.tgz:20945.got - 2010.04.16 13:43:02.
