data_PCOD8208366
_publ_section_title
;
Structure prediction by ZEFSAII (Michael W. Deem and Ramdas Pophale) SiO2 
 PCOD8208366
Probable space group: P M M A
;
_chemical_formula_sum "Si O2"
_cell_formula_units_Z 64
_cell_length_a 21.493491
_cell_length_b 9.002082
_cell_length_c 18.868777
_cell_angle_alpha 90.000000
_cell_angle_beta 90.000000
_cell_angle_gamma 90.000000
_cell_volume 3650.847365
_symmetry_space_group_name_H-M "P M M A"
_symmetry_group_IT_number 51
_symmetry_cell_setting 'orthorhombic'
loop_
_space_group_symop_operation_xyz
x,y,z
1/2-x,-y,z
1/2+x,-y,-z
-x,y,-z
-x,-y,-z
1/2+x,y,-z
1/2-x,y,z
x,-y,z
loop_
_atom_site_type_symbol
_atom_site_label
_atom_site_fract_x
_atom_site_fract_y
_atom_site_fract_z
Si Si1 0.566226 0.666968 0.537530
Si Si2 0.884097 0.171137 0.409456
Si Si3 0.178434 0.665529 0.706221
Si Si4 0.819804 0.171902 0.021309
Si Si5 0.438875 0.670372 0.040232
Si Si6 0.515510 0.828164 0.666037
Si Si7 0.496176 0.670342 0.186397
Si Si8 0.381112 0.170909 0.833466
O O1 0.500000 0.664400 0.500000
O O2 0.592670 0.500000 0.544866
O O3 0.610764 0.767460 0.489113
O O4 0.562886 0.740145 0.615164
O O5 0.830645 0.267611 0.372055
O O6 0.946170 0.194212 0.363068
O O7 0.864724 0.000000 0.413795
O O8 0.250000 0.655260 0.724643
O O9 0.148698 0.500000 0.711282
O O10 0.146959 0.779369 0.759465
O O11 0.750000 0.233354 0.003934
O O12 0.830825 0.194881 0.104998
O O13 0.823394 0.000000 0.000956
O O14 0.873992 0.251741 0.978038
O O15 0.433167 0.500000 0.016327
O O16 0.444519 0.686171 0.125224
O O17 0.500000 0.738883 0.000000
O O18 0.522171 0.765603 0.745143
O O19 0.534556 0.000000 0.666219
O O20 0.504920 0.500000 0.209761
O O21 0.559009 0.729707 0.149866
O O22 0.401789 0.000000 0.826375
#
# Coordination Sequence:
#
# PCOD8208366 Si02
#       8
#     8   8   8   8   8   8   8   8
#     4   9  17  29  47  70  97 130 164 200 246 297
#     4  10  19  31  48  70  98 132 170 213 255 302
#     4  11  23  35  48  69  99 138 182 222 260 307
#     4  10  22  38  56  79 106 139 181 226 272 325
#     4  10  21  37  55  79 108 140 179 224 272 324
#     4  10  19  31  48  73 102 131 168 208 254 309
#     4  11  21  33  52  76 107 140 176 218 265 321
#     4  11  21  34  52  74 103 139 178 219 264 315
#
# _framework density 17.530176999999998
#
# number of rings (size 3 to 8) (size 9 to 14) (size 15 to 20)
#    0.000    1.750    2.500    2.625    0.000    6.000 
#    0.000    0.000    0.000    0.000    0.000    0.875 
#    0.000    3.000    0.000    0.000    0.000    0.000 
#
# Total GULP energy -793574.628592 kJ/mol
# GULP energy per Si atom -12399.603572 kJ/mol
# Density = 1.749028 g / cm^3
# Si number density = 17.530177 Si / 1000 Ang^3
#
#
#
# Elastic Constant Matrix: (Units=GPa)
#
#
# Indices 1 2 3 4 5 6 
#
# 1 78.3637 31.5980 35.5881 0.0000 0.0000 0.0000
# 2 31.5980 102.5983 44.5121 0.0000 0.0000 0.0000
# 3 35.5881 44.5121 85.1782 0.0000 0.0000 0.0000
# 4 0.0000 0.0000 0.0000 32.5010 0.0000 0.0000
# 5 0.0000 0.0000 0.0000 0.0000 18.3997 0.0000
# 6 0.0000 0.0000 0.0000 0.0000 0.0000 23.8900
#
#
#
# Elastic Compliance Matrix: (Units=1/GPa)
#
#
# Indices 1 2 3 4 5 6 
#
# 1 0.016296 -0.002670 -0.005413 0.000000 0.000000 0.000000
# 2 -0.002670 0.013042 -0.005700 0.000000 0.000000 0.000000
# 3 -0.005413 -0.005700 0.016980 0.000000 0.000000 0.000000
# 4 0.000000 0.000000 0.000000 0.030768 0.000000 0.000000
# 5 0.000000 0.000000 0.000000 0.000000 0.054349 0.000000
# 6 0.000000 0.000000 0.000000 0.000000 0.000000 0.041859
#
#
# Mechanical properties :
#
#
# Convention : Reuss Voigt Hill
#
# Bulk Modulus (GPa) = 53.32801 54.39295 53.86048
# Shear Modulus (GPa) = 24.14163 25.25426 24.69794
#
# Velocity S-wave (km/s) = 3.71502 3.79966 3.75758
# Velocity P-wave (km/s) = 6.99203 7.09545 7.04393
#
# Compressibility (1/GPa) = 0.01875187
#
# Stress axis : x y z
#
# Youngs Moduli (GPa) = 61.36443 76.67545 58.89181
#
# Poissons Ratio (x) = 0.20475 0.31879
# Poissons Ratio (y) = 0.16386 0.33567
# Poissons Ratio (z) = 0.33218 0.43703
#
# Static dielectric constant tensor:
#      x y z
#    x 3.054350 0.000000 0.000000 
#    y 0.000000 3.429250 0.000000 
#    z 0.000000 0.000000 3.238520 
# 
# 
# High freq. dielectric constant tensor:
#      x y z
#    x 1.635170 0.000000 0.000000 
#    y 0.000000 1.692690 0.000000 
#    z 0.000000 0.000000 1.676500 
# 
# From -- ./inp_files/30565.got.cif
#   From: 2010.03.12/outbox.cif.g09.slc.cpg/sg51_16_cif.got.tgz:30565.got - 2010.04.16 13:43:02.
