data_PCOD8208091
_publ_section_title
;
Structure prediction by ZEFSAII (Michael W. Deem and Ramdas Pophale) SiO2 
 PCOD8208091
Probable space group: P M M A
;
_chemical_formula_sum "Si O2"
_cell_formula_units_Z 56
_cell_length_a 9.091813
_cell_length_b 18.955750
_cell_length_c 18.461537
_cell_angle_alpha 90.000000
_cell_angle_beta 90.000000
_cell_angle_gamma 90.000000
_cell_volume 3181.700689
_symmetry_space_group_name_H-M "P M M A"
_symmetry_group_IT_number 51
_symmetry_cell_setting 'orthorhombic'
loop_
_space_group_symop_operation_xyz
x,y,z
1/2-x,-y,z
1/2+x,-y,-z
-x,y,-z
-x,-y,-z
1/2+x,y,-z
1/2-x,y,z
x,-y,z
loop_
_atom_site_type_symbol
_atom_site_label
_atom_site_fract_x
_atom_site_fract_y
_atom_site_fract_z
Si Si1 0.419919 0.838727 0.071591
Si Si2 0.422131 0.797798 0.706291
Si Si3 0.423796 0.272947 0.422315
Si Si4 0.579099 0.282379 0.151288
Si Si5 0.078557 0.578631 0.925955
Si Si6 0.079918 0.425883 0.424752
Si Si7 0.419039 0.918776 0.215654
O O1 0.250000 0.826732 0.054331
O O2 0.485850 0.763891 0.095662
O O3 0.445568 0.897883 0.132392
O O4 0.500000 0.866731 0.000000
O O5 0.250000 0.799927 0.689520
O O6 0.508956 0.782930 0.632735
O O7 0.461549 0.738208 0.766263
O O8 0.473916 0.874223 0.733185
O O9 0.500000 0.263394 0.500000
O O10 0.250000 0.260018 0.430657
O O11 0.460523 0.351080 0.387689
O O12 0.750000 0.266463 0.136633
O O13 0.540147 0.364713 0.136977
O O14 0.250000 0.579591 0.943084
O O15 0.028668 0.500000 0.900399
O O16 0.000000 0.600746 0.000000
O O17 0.250000 0.423901 0.443724
O O18 0.042619 0.500000 0.381212
O O19 0.000000 0.429263 0.500000
O O20 0.250000 0.903720 0.237282
O O21 0.460886 0.000000 0.225870
#
# Coordination Sequence:
#
# PCOD8208091 Si02
#       7
#     8   8   8   8   8   8   8
#     4  10  19  30  47  72 100 129 161 198 239 284
#     4  10  20  34  52  75 101 128 162 201 243 295
#     4  10  19  32  52  76 102 132 166 205 248 292
#     4   9  18  32  48  66  92 127 165 205 246 290
#     4   9  17  29  45  65  90 123 165 211 254 291
#     4   8  14  25  42  65  93 124 157 193 233 277
#     4   9  19  36  55  74  98 130 165 198 237 288
#
# _framework density 17.600649000000001
#
# number of rings (size 3 to 8) (size 9 to 14) (size 15 to 20)
#    0.000    2.714    0.000    1.714    0.000    4.000 
#    0.000    0.714    0.000    1.286    0.000    0.000 
#    0.000    0.000    0.000    0.000    0.000    0.000 
#
# Total GULP energy -693962.869095 kJ/mol
# GULP energy per Si atom -12392.194091 kJ/mol
# Density = 1.756059 g / cm^3
# Si number density = 17.600649 Si / 1000 Ang^3
#
#
#
# Elastic Constant Matrix: (Units=GPa)
#
#
# Indices 1 2 3 4 5 6 
#
# 1 73.3611 44.3545 46.9676 0.0000 0.0000 0.0000
# 2 44.3545 115.0178 54.2483 0.0000 0.0000 0.0000
# 3 46.9676 54.2483 88.0721 0.0000 0.0000 0.0000
# 4 0.0000 0.0000 0.0000 20.1796 0.0000 0.0000
# 5 0.0000 0.0000 0.0000 0.0000 27.2049 0.0000
# 6 0.0000 0.0000 0.0000 0.0000 0.0000 23.7566
#
#
#
# Elastic Compliance Matrix: (Units=1/GPa)
#
#
# Indices 1 2 3 4 5 6 
#
# 1 0.022027 -0.004164 -0.009182 0.000000 0.000000 0.000000
# 2 -0.004164 0.013041 -0.005813 0.000000 0.000000 0.000000
# 3 -0.009182 -0.005813 0.019831 0.000000 0.000000 0.000000
# 4 0.000000 0.000000 0.000000 0.049555 0.000000 0.000000
# 5 0.000000 0.000000 0.000000 0.000000 0.036758 0.000000
# 6 0.000000 0.000000 0.000000 0.000000 0.000000 0.042094
#
#
# Mechanical properties :
#
#
# Convention : Reuss Voigt Hill
#
# Bulk Modulus (GPa) = 60.30167 63.06575 61.68371
# Shear Modulus (GPa) = 22.01179 22.95359 22.48269
#
# Velocity S-wave (km/s) = 3.54025 3.61520 3.57792
# Velocity P-wave (km/s) = 7.14469 7.30311 7.22434
#
# Compressibility (1/GPa) = 0.01658329
#
# Stress axis : x y z
#
# Youngs Moduli (GPa) = 45.39842 76.67890 50.42524
#
# Poissons Ratio (x) = 0.31926 0.46302
# Poissons Ratio (y) = 0.18902 0.29310
# Poissons Ratio (z) = 0.41686 0.44570
#
# Static dielectric constant tensor:
#      x y z
#    x 3.288330 0.000000 0.000000 
#    y 0.000000 3.501680 0.000000 
#    z 0.000000 0.000000 2.976640 
# 
# 
# High freq. dielectric constant tensor:
#      x y z
#    x 1.688280 0.000000 0.000000 
#    y 0.000000 1.682640 0.000000 
#    z 0.000000 0.000000 1.647800 
# 
# From -- ./inp_files/28247.got.cif
#   From: 2010.03.12/outbox.cif.g09.slc.cpg/sg51_15_cif.got.tgz:28247.got - 2010.04.16 13:43:02.
