data_PCOD8208150
_publ_section_title
;
Structure prediction by ZEFSAII (Michael W. Deem and Ramdas Pophale) SiO2 
 PCOD8208150
Probable space group: P M M A
;
_chemical_formula_sum "Si O2"
_cell_formula_units_Z 64
_cell_length_a 29.309367
_cell_length_b 9.637290
_cell_length_c 12.511354
_cell_angle_alpha 90.000000
_cell_angle_beta 90.000000
_cell_angle_gamma 90.000000
_cell_volume 3533.992952
_symmetry_space_group_name_H-M "P M M A"
_symmetry_group_IT_number 51
_symmetry_cell_setting 'orthorhombic'
loop_
_space_group_symop_operation_xyz
x,y,z
1/2-x,-y,z
1/2+x,-y,-z
-x,y,-z
-x,-y,-z
1/2+x,y,-z
1/2-x,y,z
x,-y,z
loop_
_atom_site_type_symbol
_atom_site_label
_atom_site_fract_x
_atom_site_fract_y
_atom_site_fract_z
Si Si1 0.564130 0.659544 0.187711
Si Si2 0.606608 0.336261 0.970596
Si Si3 0.800180 0.340589 0.873173
Si Si4 0.604131 0.836552 0.375419
Si Si5 0.320642 0.157592 0.325458
Si Si6 0.422937 0.155664 0.385959
Si Si7 0.540044 0.341245 0.786981
Si Si8 0.299399 0.835811 0.558227
O O1 0.578011 0.500000 0.210113
O O2 0.576684 0.751300 0.288898
O O3 0.510430 0.671663 0.165065
O O4 0.590270 0.722647 0.084719
O O5 0.599681 0.500000 0.974245
O O6 0.659499 0.291920 0.953158
O O7 0.575075 0.278045 0.874565
O O8 0.750000 0.323128 0.927779
O O9 0.809037 0.500000 0.841064
O O10 0.800222 0.251976 0.766337
O O11 0.582393 0.801142 0.490496
O O12 0.657279 0.784035 0.372831
O O13 0.600653 0.000000 0.350949
O O14 0.375052 0.164616 0.325164
O O15 0.301835 0.219376 0.436931
O O16 0.303962 0.000000 0.306736
O O17 0.457327 0.257530 0.324492
O O18 0.442773 0.000000 0.379289
O O19 0.552538 0.500000 0.760583
O O20 0.250000 0.792104 0.608519
O O21 0.304497 0.000000 0.550011
#
# Coordination Sequence:
#
# PCOD8208150 Si02
#       8
#     8   8   8   8   8   8   8   8
#     4  10  21  36  54  74  96 131 178 217 250 295
#     4   9  18  35  54  72 100 133 165 207 253 296
#     4  10  19  30  48  75 103 131 162 197 248 308
#     4   9  19  35  52  73 104 138 168 203 253 304
#     4   9  16  28  48  74 103 132 161 197 244 297
#     4   9  18  32  51  77 108 136 160 197 254 310
#     4  10  19  33  56  79  97 127 171 214 256 300
#     4   8  14  27  49  73  96 129 171 205 238 291
#
# _framework density 18.109826999999999
#
# number of rings (size 3 to 8) (size 9 to 14) (size 15 to 20)
#    0.000    2.750    1.250    2.250    0.000    3.750 
#    0.000    6.250    0.000    3.375    0.000    0.000 
#    0.000    0.000    0.000    0.000    0.000    0.000 
#
# Total GULP energy -793265.514623 kJ/mol
# GULP energy per Si atom -12394.773666 kJ/mol
# Density = 1.806861 g / cm^3
# Si number density = 18.109827 Si / 1000 Ang^3
#
#
#
# Elastic Constant Matrix: (Units=GPa)
#
#
# Indices 1 2 3 4 5 6 
#
# 1 103.5456 30.1759 50.2718 0.0000 0.0000 0.0000
# 2 30.1759 47.8709 39.6296 0.0000 0.0000 0.0000
# 3 50.2718 39.6296 97.4719 0.0000 0.0000 0.0000
# 4 0.0000 0.0000 0.0000 -7.2102 0.0000 0.0000
# 5 0.0000 0.0000 0.0000 0.0000 17.9960 0.0000
# 6 0.0000 0.0000 0.0000 0.0000 0.0000 20.0229
#
#
#
# Elastic Compliance Matrix: (Units=1/GPa)
#
#
# Indices 1 2 3 4 5 6 
#
# 1 0.013399 -0.004108 -0.005240 0.000000 0.000000 0.000000
# 2 -0.004108 0.032747 -0.011195 0.000000 0.000000 0.000000
# 3 -0.005240 -0.011195 0.017514 0.000000 0.000000 0.000000
# 4 0.000000 0.000000 0.000000 -0.138692 0.000000 0.000000
# 5 0.000000 0.000000 0.000000 0.000000 0.055568 0.000000
# 6 0.000000 0.000000 0.000000 0.000000 0.000000 0.049943
#
#
# Mechanical properties :
#
#
# Convention : Reuss Voigt Hill
#
# Bulk Modulus (GPa) = 44.30193 54.33810 49.32002
# Shear Modulus (GPa) = 63.21863 14.74914 38.98388
#
# Velocity S-wave (km/s) = 5.91475 2.85691 4.64469
# Velocity P-wave (km/s) = 8.43574 6.39941 7.48713
#
# Compressibility (1/GPa) = 0.02257238
#
# Stress axis : x y z
#
# Youngs Moduli (GPa) = 74.63247 30.53717 57.09747
#
# Poissons Ratio (x) = 0.12544 0.29922
# Poissons Ratio (y) = 0.30658 0.63923
# Poissons Ratio (z) = 0.39111 0.34188
#
# Static dielectric constant tensor:
#      x y z
#    x 3.551400 0.000000 0.000000 
#    y 0.000000 3.070910 0.000000 
#    z 0.000000 0.000000 3.168210 
# 
# 
# High freq. dielectric constant tensor:
#      x y z
#    x 1.715350 0.000000 0.000000 
#    y 0.000000 1.669160 0.000000 
#    z 0.000000 0.000000 1.680030 
# 
# From -- ./inp_files/19659.got.cif
#   From: 2010.03.12/outbox.cif.g09.slc.cpg/sg51_10_cif.got.tgz:19659.got - 2010.04.16 13:43:02.
