data_PCOD8208483
_publ_section_title
;
Structure prediction by ZEFSAII (Michael W. Deem and Ramdas Pophale) SiO2 
 PCOD8208483
Probable space group: P M M A
;
_chemical_formula_sum "Si O2"
_cell_formula_units_Z 64
_cell_length_a 19.554252
_cell_length_b 9.092237
_cell_length_c 19.618800
_cell_angle_alpha 90.000000
_cell_angle_beta 90.000000
_cell_angle_gamma 90.000000
_cell_volume 3488.063601
_symmetry_space_group_name_H-M "P M M A"
_symmetry_group_IT_number 51
_symmetry_cell_setting 'orthorhombic'
loop_
_space_group_symop_operation_xyz
x,y,z
1/2-x,-y,z
1/2+x,-y,-z
-x,y,-z
-x,-y,-z
1/2+x,y,-z
1/2-x,y,z
x,-y,z
loop_
_atom_site_type_symbol
_atom_site_label
_atom_site_fract_x
_atom_site_fract_y
_atom_site_fract_z
Si Si1 0.828983 0.168245 0.382225
Si Si2 0.577712 0.333632 0.024122
Si Si3 0.112373 0.169987 0.104967
Si Si4 0.914377 0.327964 0.649278
Si Si5 0.040861 0.171088 0.846388
Si Si6 0.326709 0.172146 0.460637
Si Si7 0.327342 0.666567 0.224618
Si Si8 0.939559 0.327516 0.296100
O O1 0.750000 0.190199 0.362452
O O2 0.841000 0.209149 0.460824
O O3 0.872894 0.278508 0.336892
O O4 0.851301 0.000000 0.368433
O O5 0.604076 0.500000 0.033071
O O6 0.586497 0.248643 0.095461
O O7 0.500000 0.329854 0.000000
O O8 0.622502 0.252297 0.966824
O O9 0.167031 0.234322 0.157586
O O10 0.038240 0.197535 0.137219
O O11 0.127125 0.000000 0.091981
O O12 0.901258 0.500000 0.640962
O O13 0.885259 0.251219 0.582322
O O14 0.874650 0.268132 0.715693
O O15 0.994130 0.289494 0.658052
O O16 0.058344 0.242086 0.774588
O O17 0.059794 0.000000 0.844860
O O18 0.250000 0.226284 0.440754
O O19 0.332232 0.000000 0.447119
O O20 0.250000 0.671581 0.251181
O O21 0.350113 0.500000 0.206536
O O22 0.936277 0.500000 0.280135
#
# Coordination Sequence:
#
# PCOD8208483 Si02
#       8
#     8   8   8   8   8   8   8   8
#     4   9  20  40  61  80 105 138 176 219 272 332
#     4   9  17  29  49  74 102 136 173 215 262 312
#     4  10  19  31  49  74 104 137 178 226 267 311
#     4  10  21  35  52  77 111 145 180 224 272 320
#     4  10  19  32  51  77 108 140 175 217 267 317
#     4   9  19  36  57  79 105 141 184 226 267 318
#     4  10  20  34  51  71 103 149 191 224 267 323
#     4  11  22  35  55  82 112 143 178 223 271 322
#
# _framework density 18.348289000000001
#
# number of rings (size 3 to 8) (size 9 to 14) (size 15 to 20)
#    0.000    2.250    1.250    2.625    0.000    6.250 
#    0.000    3.750    0.000    0.750    0.000    0.000 
#    0.000    0.000    0.000    0.000    0.000    0.000 
#
# Total GULP energy -793735.268015 kJ/mol
# GULP energy per Si atom -12402.113563 kJ/mol
# Density = 1.830653 g / cm^3
# Si number density = 18.348289 Si / 1000 Ang^3
#
#
#
# Elastic Constant Matrix: (Units=GPa)
#
#
# Indices 1 2 3 4 5 6 
#
# 1 63.7315 38.6112 44.1612 0.0000 0.0000 0.0000
# 2 38.6112 96.7186 63.6791 0.0000 0.0000 0.0000
# 3 44.1612 63.6791 112.2644 0.0000 0.0000 0.0000
# 4 0.0000 0.0000 0.0000 37.4146 0.0000 0.0000
# 5 0.0000 0.0000 0.0000 0.0000 23.2758 0.0000
# 6 0.0000 0.0000 0.0000 0.0000 0.0000 25.1733
#
#
#
# Elastic Compliance Matrix: (Units=1/GPa)
#
#
# Indices 1 2 3 4 5 6 
#
# 1 0.023082 -0.005166 -0.006149 0.000000 0.000000 0.000000
# 2 -0.005166 0.017658 -0.007984 0.000000 0.000000 0.000000
# 3 -0.006149 -0.007984 0.015855 0.000000 0.000000 0.000000
# 4 0.000000 0.000000 0.000000 0.026727 0.000000 0.000000
# 5 0.000000 0.000000 0.000000 0.000000 0.042963 0.000000
# 6 0.000000 0.000000 0.000000 0.000000 0.000000 0.039725
#
#
# Mechanical properties :
#
#
# Convention : Reuss Voigt Hill
#
# Bulk Modulus (GPa) = 55.56620 62.84640 59.20630
# Shear Modulus (GPa) = 23.74082 25.59027 24.66555
#
# Velocity S-wave (km/s) = 3.60098 3.73861 3.67044
# Velocity P-wave (km/s) = 6.90212 7.27754 7.09232
#
# Compressibility (1/GPa) = 0.01799655
#
# Stress axis : x y z
#
# Youngs Moduli (GPa) = 43.32474 56.63088 63.07009
#
# Poissons Ratio (x) = 0.29253 0.38785
# Poissons Ratio (y) = 0.22380 0.50356
# Poissons Ratio (z) = 0.26642 0.45215
#
# Static dielectric constant tensor:
#      x y z
#    x 3.140640 0.000000 0.000000 
#    y 0.000000 3.380790 0.000000 
#    z 0.000000 0.000000 3.392040 
# 
# 
# High freq. dielectric constant tensor:
#      x y z
#    x 1.684130 0.000000 0.000000 
#    y 0.000000 1.716030 0.000000 
#    z 0.000000 0.000000 1.715840 
# 
# From -- ./inp_files/30547.got.cif
#   From: 2010.03.12/outbox.cif.g09.slc.cpg/sg51_16_cif.got.tgz:30547.got - 2010.04.16 13:43:02.
