data_PCOD8208691
_publ_section_title
;
Structure prediction by ZEFSAII (Michael W. Deem and Ramdas Pophale) SiO2 
 PCOD8208691
Probable space group: P M M A
;
_chemical_formula_sum "Si O2"
_cell_formula_units_Z 48
_cell_length_a 19.030634
_cell_length_b 10.100194
_cell_length_c 15.183358
_cell_angle_alpha 90.000000
_cell_angle_beta 90.000000
_cell_angle_gamma 90.000000
_cell_volume 2918.440239
_symmetry_space_group_name_H-M "P M M A"
_symmetry_group_IT_number 51
_symmetry_cell_setting 'orthorhombic'
loop_
_space_group_symop_operation_xyz
x,y,z
1/2-x,-y,z
1/2+x,-y,-z
-x,y,-z
-x,-y,-z
1/2+x,y,-z
1/2-x,y,z
x,-y,z
loop_
_atom_site_type_symbol
_atom_site_label
_atom_site_fract_x
_atom_site_fract_y
_atom_site_fract_z
Si Si1 0.940348 0.153420 0.427634
Si Si2 0.169750 0.352652 0.496651
Si Si3 0.946029 0.844290 0.922958
Si Si4 0.329550 0.352700 0.112181
Si Si5 0.172199 0.742878 0.304363
Si Si6 0.472196 0.149091 0.268796
O O1 0.873896 0.241559 0.452560
O O2 0.973848 0.216004 0.337723
O O3 0.000000 0.166574 0.500000
O O4 0.916285 0.000000 0.419114
O O5 0.250000 0.330077 0.525150
O O6 0.144433 0.500000 0.524032
O O7 0.162260 0.344762 0.391182
O O8 0.876011 0.757957 0.937487
O O9 0.980333 0.795293 0.830485
O O10 0.925825 0.000000 0.919525
O O11 0.000000 0.812583 0.000000
O O12 0.250000 0.325385 0.081842
O O13 0.353562 0.500000 0.083193
O O14 0.335221 0.348270 0.218177
O O15 0.250000 0.811856 0.305188
O O16 0.109023 0.848465 0.301275
O O17 0.496995 0.000000 0.268416
#
# Coordination Sequence:
#
# PCOD8208691 Si02
#       6
#     8   8   8   8   8   8
#     4  10  19  32  47  67  95 124 155 189 227 272
#     4  10  20  32  46  66  93 125 161 198 231 267
#     4   9  18  32  50  71  94 120 153 193 235 276
#     4   9  17  29  46  69  97 125 151 183 227 281
#     4   9  16  27  43  66  96 127 154 183 224 276
#     4   9  17  30  46  67  95 124 153 190 230 273
#
# _framework density 16.447141999999999
#
# number of rings (size 3 to 8) (size 9 to 14) (size 15 to 20)
#    0.000    2.667    1.667    0.500    0.000    3.667 
#    0.000    5.833    0.000    1.000    0.000    7.000 
#    0.000    0.000    0.000    0.000    0.000    0.000 
#
# Total GULP energy -594719.796173 kJ/mol
# GULP energy per Si atom -12389.995754 kJ/mol
# Density = 1.640971 g / cm^3
# Si number density = 16.447142 Si / 1000 Ang^3
#
#
#
# Elastic Constant Matrix: (Units=GPa)
#
#
# Indices 1 2 3 4 5 6 
#
# 1 101.1030 57.6816 58.5636 0.0000 0.0000 0.0000
# 2 57.6816 78.4732 40.8877 0.0000 0.0000 0.0000
# 3 58.5636 40.8877 79.7665 0.0000 0.0000 0.0000
# 4 0.0000 0.0000 0.0000 14.9363 0.0000 0.0000
# 5 0.0000 0.0000 0.0000 0.0000 27.8852 0.0000
# 6 0.0000 0.0000 0.0000 0.0000 0.0000 28.7787
#
#
#
# Elastic Compliance Matrix: (Units=1/GPa)
#
#
# Indices 1 2 3 4 5 6 
#
# 1 0.022321 -0.010735 -0.010885 0.000000 0.000000 0.000000
# 2 -0.010735 0.022550 -0.003677 0.000000 0.000000 0.000000
# 3 -0.010885 -0.003677 0.022413 0.000000 0.000000 0.000000
# 4 0.000000 0.000000 0.000000 0.066951 0.000000 0.000000
# 5 0.000000 0.000000 0.000000 0.000000 0.035861 0.000000
# 6 0.000000 0.000000 0.000000 0.000000 0.000000 0.034748
#
#
# Mechanical properties :
#
#
# Convention : Reuss Voigt Hill
#
# Bulk Modulus (GPa) = 59.91923 63.73428 61.82676
# Shear Modulus (GPa) = 19.15697 21.13403 20.14550
#
# Velocity S-wave (km/s) = 3.41656 3.58853 3.50360
# Velocity P-wave (km/s) = 7.21625 7.48366 7.35117
#
# Compressibility (1/GPa) = 0.01668913
#
# Stress axis : x y z
#
# Youngs Moduli (GPa) = 44.80171 44.34543 44.61712
#
# Poissons Ratio (x) = 0.47607 0.48564
# Poissons Ratio (y) = 0.48096 0.16407
# Poissons Ratio (z) = 0.48765 0.16307
#
# Static dielectric constant tensor:
#      x y z
#    x 3.146260 0.000000 0.000000 
#    y 0.000000 2.961550 0.000000 
#    z 0.000000 0.000000 3.110060 
# 
# 
# High freq. dielectric constant tensor:
#      x y z
#    x 1.624600 0.000000 0.000000 
#    y 0.000000 1.619870 0.000000 
#    z 0.000000 0.000000 1.614150 
# 
# From -- ./inp_files/24033.got.cif
#   From: 2010.03.12/outbox.cif.g09.slc.cpg/sg51_13_cif.got.tgz:24033.got - 2010.04.16 13:43:02.
