data_PCOD8208557
_publ_section_title
;
Structure prediction by ZEFSAII (Michael W. Deem and Ramdas Pophale) SiO2 
 PCOD8208557
Probable space group: P M M A
;
_chemical_formula_sum "Si O2"
_cell_formula_units_Z 64
_cell_length_a 18.060860
_cell_length_b 36.138377
_cell_length_c 5.136903
_cell_angle_alpha 90.000000
_cell_angle_beta 90.000000
_cell_angle_gamma 90.000000
_cell_volume 3352.806080
_symmetry_space_group_name_H-M "P M M A"
_symmetry_group_IT_number 51
_symmetry_cell_setting 'orthorhombic'
loop_
_space_group_symop_operation_xyz
x,y,z
1/2-x,-y,z
1/2+x,-y,-z
-x,y,-z
-x,-y,-z
1/2+x,y,-z
1/2-x,y,z
x,-y,z
loop_
_atom_site_type_symbol
_atom_site_label
_atom_site_fract_x
_atom_site_fract_y
_atom_site_fract_z
Si Si1 0.833485 0.793168 0.878164
Si Si2 0.452113 0.266411 0.255628
Si Si3 0.833766 0.159417 0.365199
Si Si4 0.951896 0.649360 0.742043
Si Si5 0.588072 0.958530 0.984918
Si Si6 0.587775 0.916154 0.481786
Si Si7 0.662317 0.413502 0.772342
Si Si8 0.662280 0.458685 0.270563
O O1 0.750000 0.779619 0.936650
O O2 0.879526 0.757454 0.795722
O O3 0.835799 0.820906 0.640175
O O4 0.865411 0.814046 0.135067
O O5 0.500000 0.251271 0.500000
O O6 0.426856 0.308443 0.309926
O O7 0.500000 0.263974 0.000000
O O8 0.750000 0.147707 0.291398
O O9 0.884305 0.123852 0.398712
O O10 0.876815 0.626127 0.765683
O O11 0.000000 0.634667 0.500000
O O12 0.000000 0.645343 0.000000
O O13 0.618243 0.931318 0.757593
O O14 0.617638 0.000000 0.933162
O O15 0.500000 0.958491 0.000000
O O16 0.617297 0.944320 0.262095
O O17 0.500000 0.914175 0.500000
O O18 0.750000 0.406324 0.774620
O O19 0.636194 0.437804 0.528516
O O20 0.634044 0.435749 0.023509
O O21 0.750000 0.461677 0.262566
O O22 0.627994 0.500000 0.266107
#
# Coordination Sequence:
#
# PCOD8208557 Si02
#       8
#     8   8   8   8   8   8   8   8
#     4  10  21  37  56  78 105 139 175 211 257 311
#     4  10  21  37  57  81 106 137 175 214 260 310
#     4  10  21  36  53  75 106 140 169 205 259 312
#     4  10  21  37  55  76 108 143 170 207 266 320
#     4   9  17  30  49  73 100 129 165 212 259 298
#     4  10  19  31  50  75  99 129 171 211 250 300
#     4  10  19  32  54  80 102 134 181 221 256 307
#     4   9  17  30  50  77 106 134 171 222 269 305
#
# _framework density 19.08849
#
# number of rings (size 3 to 8) (size 9 to 14) (size 15 to 20)
#    0.000    2.250    0.000    3.000    0.000    5.000 
#    0.000    0.000    0.000   18.750    0.000    0.000 
#    0.000    0.000    0.000    0.000    0.000    0.000 
#
# Total GULP energy -793551.747459 kJ/mol
# GULP energy per Si atom -12399.246054 kJ/mol
# Density = 1.904504 g / cm^3
# Si number density = 19.088490 Si / 1000 Ang^3
#
#
#
# Elastic Constant Matrix: (Units=GPa)
#
#
# Indices 1 2 3 4 5 6 
#
# 1 47.2255 49.3274 26.3452 0.0000 0.0000 0.0000
# 2 49.3274 114.3848 35.9333 0.0000 0.0000 0.0000
# 3 26.3452 35.9333 131.0606 0.0000 0.0000 0.0000
# 4 0.0000 0.0000 0.0000 47.7715 0.0000 0.0000
# 5 0.0000 0.0000 0.0000 0.0000 13.1939 0.0000
# 6 0.0000 0.0000 0.0000 0.0000 0.0000 20.3762
#
#
#
# Elastic Compliance Matrix: (Units=1/GPa)
#
#
# Indices 1 2 3 4 5 6 
#
# 1 0.040047 -0.016130 -0.003628 0.000000 0.000000 0.000000
# 2 -0.016130 0.016063 -0.001162 0.000000 0.000000 0.000000
# 3 -0.003628 -0.001162 0.008678 0.000000 0.000000 0.000000
# 4 0.000000 0.000000 0.000000 0.020933 0.000000 0.000000
# 5 0.000000 0.000000 0.000000 0.000000 0.075793 0.000000
# 6 0.000000 0.000000 0.000000 0.000000 0.000000 0.049077
#
#
# Mechanical properties :
#
#
# Convention : Reuss Voigt Hill
#
# Bulk Modulus (GPa) = 43.57499 57.32031 50.44765
# Shear Modulus (GPa) = 19.22491 28.33932 23.78211
#
# Velocity S-wave (km/s) = 3.17700 3.85727 3.53354
# Velocity P-wave (km/s) = 6.02787 7.06625 6.56762
#
# Compressibility (1/GPa) = 0.02294894
#
# Stress axis : x y z
#
# Youngs Moduli (GPa) = 24.97070 62.25325 115.23707
#
# Poissons Ratio (x) = 1.00416 0.41803
# Poissons Ratio (y) = 0.40279 0.13387
# Poissons Ratio (z) = 0.09058 0.07232
#
# Static dielectric constant tensor:
#      x y z
#    x 3.161890 0.000000 0.000000 
#    y 0.000000 3.582400 0.000000 
#    z 0.000000 0.000000 3.902780 
# 
# 
# High freq. dielectric constant tensor:
#      x y z
#    x 1.704220 0.000000 0.000000 
#    y 0.000000 1.746340 0.000000 
#    z 0.000000 0.000000 1.767830 
# 
# From -- ./inp_files/2113.got.cif
#   From: 2010.03.12/outbox.cif.g09.slc.cpg/sg51_2_cif.got.tgz:2113.got - 2010.04.16 13:43:02.
