data_PCOD8208352
_publ_section_title
;
Structure prediction by ZEFSAII (Michael W. Deem and Ramdas Pophale) SiO2 
 PCOD8208352
Probable space group: P M M A
;
_chemical_formula_sum "Si O2"
_cell_formula_units_Z 56
_cell_length_a 9.283165
_cell_length_b 18.739249
_cell_length_c 18.730284
_cell_angle_alpha 90.000000
_cell_angle_beta 90.000000
_cell_angle_gamma 90.000000
_cell_volume 3258.311597
_symmetry_space_group_name_H-M "P M M A"
_symmetry_group_IT_number 51
_symmetry_cell_setting 'orthorhombic'
loop_
_space_group_symop_operation_xyz
x,y,z
1/2-x,-y,z
1/2+x,-y,-z
-x,y,-z
-x,-y,-z
1/2+x,y,-z
1/2-x,y,z
x,-y,z
loop_
_atom_site_type_symbol
_atom_site_label
_atom_site_fract_x
_atom_site_fract_y
_atom_site_fract_z
Si Si1 0.083779 0.080402 0.338255
Si Si2 0.079366 0.156216 0.783839
Si Si3 0.084364 0.419853 0.204579
Si Si4 0.911033 0.415349 0.066188
Si Si5 0.082125 0.918297 0.929926
Si Si6 0.084218 0.212616 0.429372
Si Si7 0.416797 0.281422 0.284158
O O1 0.250000 0.091233 0.315259
O O2 0.047229 0.131984 0.404690
O O3 0.984460 0.098584 0.271025
O O4 0.052215 0.000000 0.363316
O O5 0.250000 0.160034 0.772827
O O6 0.038231 0.131171 0.863333
O O7 0.010550 0.233818 0.770036
O O8 0.250000 0.418123 0.179471
O O9 0.041604 0.500000 0.229483
O O10 0.056332 0.365202 0.269366
O O11 0.988868 0.393130 0.138862
O O12 0.750000 0.383123 0.065818
O O13 0.905106 0.500000 0.059220
O O14 0.000000 0.382654 0.000000
O O15 0.250000 0.912286 0.946174
O O16 0.038492 0.000000 0.912494
O O17 0.000000 0.890190 0.000000
O O18 0.250000 0.221391 0.448510
O O19 0.037958 0.266300 0.365765
O O20 0.000000 0.233818 0.500000
O O21 0.250000 0.260200 0.272825
#
# Coordination Sequence:
#
# PCOD8208352 Si02
#       7
#     8   8   8   8   8   8   8
#     4   9  18  32  49  70  97 128 160 194 234 280
#     4  10  19  31  48  70  96 125 160 201 240 281
#     4   9  17  31  52  74  94 121 159 201 244 288
#     4   9  16  26  42  66  96 126 154 187 228 275
#     4   9  18  31  46  66  92 122 159 202 241 275
#     4   9  18  32  49  70  96 126 158 190 227 275
#     4   9  19  35  52  71  96 124 155 192 235 288
#
# _framework density 17.186814999999999
#
# number of rings (size 3 to 8) (size 9 to 14) (size 15 to 20)
#    0.000    2.857    0.000    2.143    0.000    6.857 
#    0.000    2.143    0.000    2.143    0.000    0.000 
#    0.000    0.000    0.000    0.000    0.000    0.286 
#
# Total GULP energy -694306.086380 kJ/mol
# GULP energy per Si atom -12398.322971 kJ/mol
# Density = 1.714770 g / cm^3
# Si number density = 17.186815 Si / 1000 Ang^3
#
#
#
# Elastic Constant Matrix: (Units=GPa)
#
#
# Indices 1 2 3 4 5 6 
#
# 1 76.6184 36.1499 62.1686 0.0000 0.0000 0.0000
# 2 36.1499 94.6586 62.7598 0.0000 0.0000 0.0000
# 3 62.1686 62.7598 136.0098 0.0000 0.0000 0.0000
# 4 0.0000 0.0000 0.0000 18.3579 0.0000 0.0000
# 5 0.0000 0.0000 0.0000 0.0000 32.8922 0.0000
# 6 0.0000 0.0000 0.0000 0.0000 0.0000 17.4524
#
#
#
# Elastic Compliance Matrix: (Units=1/GPa)
#
#
# Indices 1 2 3 4 5 6 
#
# 1 0.021118 -0.002399 -0.008546 0.000000 0.000000 0.000000
# 2 -0.002399 0.015493 -0.006053 0.000000 0.000000 0.000000
# 3 -0.008546 -0.006053 0.014052 0.000000 0.000000 0.000000
# 4 0.000000 0.000000 0.000000 0.054473 0.000000 0.000000
# 5 0.000000 0.000000 0.000000 0.000000 0.030402 0.000000
# 6 0.000000 0.000000 0.000000 0.000000 0.000000 0.057299
#
#
# Mechanical properties :
#
#
# Convention : Reuss Voigt Hill
#
# Bulk Modulus (GPa) = 59.99543 69.93814 64.96679
# Shear Modulus (GPa) = 21.51588 23.48773 22.50180
#
# Velocity S-wave (km/s) = 3.54203 3.70078 3.62228
# Velocity P-wave (km/s) = 7.19108 7.68390 7.44157
#
# Compressibility (1/GPa) = 0.01666794
#
# Stress axis : x y z
#
# Youngs Moduli (GPa) = 47.35399 64.54347 71.16673
#
# Poissons Ratio (x) = 0.15483 0.60817
# Poissons Ratio (y) = 0.11359 0.43075
# Poissons Ratio (z) = 0.40467 0.39066
#
# Static dielectric constant tensor:
#      x y z
#    x 3.258040 0.000000 0.000000 
#    y 0.000000 3.126520 0.000000 
#    z 0.000000 0.000000 3.075030 
# 
# 
# High freq. dielectric constant tensor:
#      x y z
#    x 1.666780 0.000000 0.000000 
#    y 0.000000 1.644050 0.000000 
#    z 0.000000 0.000000 1.651040 
# 
# From -- ./inp_files/28223.got.cif
#   From: 2010.03.12/outbox.cif.g09.slc.cpg/sg51_15_cif.got.tgz:28223.got - 2010.04.16 13:43:02.
