data_PCOD8208776
_publ_section_title
;
Structure prediction by ZEFSAII (Michael W. Deem and Ramdas Pophale) SiO2 
 PCOD8208776
Probable space group: P M M A
;
_chemical_formula_sum "Si O2"
_cell_formula_units_Z 56
_cell_length_a 16.847495
_cell_length_b 13.938461
_cell_length_c 11.776148
_cell_angle_alpha 90.000000
_cell_angle_beta 90.000000
_cell_angle_gamma 90.000000
_cell_volume 2765.371073
_symmetry_space_group_name_H-M "P M M A"
_symmetry_group_IT_number 51
_symmetry_cell_setting 'orthorhombic'
loop_
_space_group_symop_operation_xyz
x,y,z
1/2-x,-y,z
1/2+x,-y,-z
-x,y,-z
-x,-y,-z
1/2+x,y,-z
1/2-x,y,z
x,-y,z
loop_
_atom_site_type_symbol
_atom_site_label
_atom_site_fract_x
_atom_site_fract_y
_atom_site_fract_z
Si Si1 0.581282 0.387827 0.245193
Si Si2 0.583019 0.213392 0.557910
Si Si3 0.160696 0.112418 0.644203
Si Si4 0.342351 0.393353 0.989398
Si Si5 0.458849 0.715656 0.114115
Si Si6 0.997505 0.112892 0.760093
Si Si7 0.843930 0.608498 0.483554
O O1 0.564381 0.500000 0.251431
O O2 0.497393 0.332355 0.227379
O O3 0.623097 0.353825 0.361448
O O4 0.636642 0.359425 0.138565
O O5 0.500000 0.231707 0.500000
O O6 0.645100 0.157651 0.478443
O O7 0.567469 0.149364 0.668672
O O8 0.621874 0.319127 0.579645
O O9 0.250000 0.141816 0.687412
O O10 0.089255 0.141382 0.730814
O O11 0.155701 0.000000 0.625964
O O12 0.250000 0.396122 1.000000
O O13 0.378044 0.500000 0.010948
O O14 0.369650 0.320336 0.090391
O O15 0.470782 0.830645 0.125797
O O16 0.500000 0.675674 0.000000
O O17 0.987522 0.000000 0.778865
O O18 0.750000 0.612494 0.478563
O O19 0.872756 0.500000 0.509872
#
# Coordination Sequence:
#
# PCOD8208776 Si02
#       7
#     8   8   8   8   8   8   8
#     4   9  16  29  52  81 110 136 165 206 259 317
#     4  10  19  32  50  72 101 136 167 197 241 302
#     4   9  17  31  54  82 104 123 158 212 267 314
#     4   9  17  31  52  77 106 140 176 216 262 310
#     4  10  20  34  53  78 104 136 178 220 263 309
#     4  10  21  37  55  75 101 135 176 219 264 313
#     4  10  20  33  51  78 109 137 168 210 259 310
#
# _framework density 20.250446
#
# number of rings (size 3 to 8) (size 9 to 14) (size 15 to 20)
#    0.000    2.429    0.000    3.429    0.000    5.714 
#    0.000    5.714    0.000    3.857    0.000    0.000 
#    0.000    0.000    0.000    0.000    0.000    0.000 
#
# Total GULP energy -693880.710867 kJ/mol
# GULP energy per Si atom -12390.726980 kJ/mol
# Density = 2.020435 g / cm^3
# Si number density = 20.250446 Si / 1000 Ang^3
#
#
#
# Elastic Constant Matrix: (Units=GPa)
#
#
# Indices 1 2 3 4 5 6 
#
# 1 67.3850 44.1208 24.9268 0.0000 0.0000 0.0000
# 2 44.1208 75.7125 27.2020 0.0000 0.0000 0.0000
# 3 24.9268 27.2020 29.9738 0.0000 0.0000 0.0000
# 4 0.0000 0.0000 0.0000 33.0259 0.0000 0.0000
# 5 0.0000 0.0000 0.0000 0.0000 21.4111 0.0000
# 6 0.0000 0.0000 0.0000 0.0000 0.0000 33.0938
#
#
#
# Elastic Compliance Matrix: (Units=1/GPa)
#
#
# Indices 1 2 3 4 5 6 
#
# 1 0.026598 -0.011207 -0.011949 0.000000 0.000000 0.000000
# 2 -0.011207 0.024320 -0.012751 0.000000 0.000000 0.000000
# 3 -0.011949 -0.012751 0.054871 0.000000 0.000000 0.000000
# 4 0.000000 0.000000 0.000000 0.030279 0.000000 0.000000
# 5 0.000000 0.000000 0.000000 0.000000 0.046705 0.000000
# 6 0.000000 0.000000 0.000000 0.000000 0.000000 0.030217
#
#
# Mechanical properties :
#
#
# Convention : Reuss Voigt Hill
#
# Bulk Modulus (GPa) = 29.43296 40.61895 35.02595
# Shear Modulus (GPa) = 16.88457 22.62761 19.75609
#
# Velocity S-wave (km/s) = 2.89067 3.34636 3.12683
# Velocity P-wave (km/s) = 5.07024 5.91884 5.51090
#
# Compressibility (1/GPa) = 0.03397552
#
# Stress axis : x y z
#
# Youngs Moduli (GPa) = 37.59704 41.11907 18.22442
#
# Poissons Ratio (x) = 0.46080 0.21776
# Poissons Ratio (y) = 0.42133 0.23238
# Poissons Ratio (z) = 0.44925 0.52431
#
# Static dielectric constant tensor:
#      x y z
#    x 3.804930 0.000000 0.000000 
#    y 0.000000 3.852320 0.000000 
#    z 0.000000 0.000000 3.550940 
# 
# 
# High freq. dielectric constant tensor:
#      x y z
#    x 1.784130 0.000000 0.000000 
#    y 0.000000 1.802440 0.000000 
#    z 0.000000 0.000000 1.757390 
# 
# From -- ./inp_files/16589.got.cif
#   From: 2010.03.12/outbox.cif.g09.slc.cpg/sg51_9_cif.got.tgz:16589.got - 2010.04.16 13:43:02.
