data_PCOD8208024
_publ_section_title
;
Structure prediction by ZEFSAII (Michael W. Deem and Ramdas Pophale) SiO2 
 PCOD8208024
Probable space group: P M M A
;
_chemical_formula_sum "Si O2"
_cell_formula_units_Z 56
_cell_length_a 17.787460
_cell_length_b 9.027506
_cell_length_c 19.066081
_cell_angle_alpha 90.000000
_cell_angle_beta 90.000000
_cell_angle_gamma 90.000000
_cell_volume 3061.562685
_symmetry_space_group_name_H-M "P M M A"
_symmetry_group_IT_number 51
_symmetry_cell_setting 'orthorhombic'
loop_
_space_group_symop_operation_xyz
x,y,z
1/2-x,-y,z
1/2+x,-y,-z
-x,y,-z
-x,-y,-z
1/2+x,y,-z
1/2-x,y,z
x,-y,z
loop_
_atom_site_type_symbol
_atom_site_label
_atom_site_fract_x
_atom_site_fract_y
_atom_site_fract_z
Si Si1 0.553122 0.171477 0.206279
Si Si2 0.662743 0.326114 0.584680
Si Si3 0.160661 0.166916 0.555339
Si Si4 0.161316 0.329376 0.694300
Si Si5 0.166571 0.669364 0.153913
Si Si6 0.482563 0.327038 0.078069
Si Si7 0.398048 0.829037 0.281915
O O1 0.624688 0.254898 0.237784
O O2 0.536383 0.237966 0.130065
O O3 0.483200 0.196790 0.257938
O O4 0.572704 0.000000 0.197310
O O5 0.750000 0.286846 0.597606
O O6 0.650198 0.500000 0.578098
O O7 0.632013 0.251804 0.513556
O O8 0.613642 0.263317 0.647808
O O9 0.250000 0.167209 0.556250
O O10 0.130422 0.249887 0.624281
O O11 0.128679 0.000000 0.555133
O O12 0.250000 0.309857 0.702064
O O13 0.137709 0.500000 0.690024
O O14 0.250000 0.695172 0.122167
O O15 0.156243 0.500000 0.179037
O O16 0.105017 0.708073 0.094666
O O17 0.157768 0.772216 0.221674
O O18 0.500764 0.500000 0.086375
O O19 0.500000 0.270987 0.000000
O O20 0.379876 0.000000 0.296483
#
# Coordination Sequence:
#
# PCOD8208024 Si02
#       7
#     8   8   8   8   8   8   8
#     4  10  21  36  54  76 102 132 166 205 251 304
#     4  10  19  30  46  70 100 134 172 212 253 298
#     4   9  17  30  49  72  99 132 168 208 255 302
#     4  10  20  35  56  79 101 128 166 211 255 301
#     4   9  17  30  49  73 100 132 170 209 249 296
#     4   9  18  34  55  77 104 138 172 207 252 304
#     4  10  20  32  47  70 100 133 168 207 251 298
#
# _framework density 18.291311
#
# number of rings (size 3 to 8) (size 9 to 14) (size 15 to 20)
#    0.000    2.429    0.000    2.571    0.000    7.429 
#    0.000    1.429    0.000    6.857    0.000    0.000 
#    0.000    0.000    0.000    0.000    0.000    0.000 
#
# Total GULP energy -694542.138430 kJ/mol
# GULP energy per Si atom -12402.538186 kJ/mol
# Density = 1.824968 g / cm^3
# Si number density = 18.291311 Si / 1000 Ang^3
#
#
#
# Elastic Constant Matrix: (Units=GPa)
#
#
# Indices 1 2 3 4 5 6 
#
# 1 45.9676 38.0702 49.7513 0.0000 0.0000 0.0000
# 2 38.0702 122.3530 74.9674 0.0000 0.0000 0.0000
# 3 49.7513 74.9674 150.4550 0.0000 0.0000 0.0000
# 4 0.0000 0.0000 0.0000 26.5493 0.0000 0.0000
# 5 0.0000 0.0000 0.0000 0.0000 23.5091 0.0000
# 6 0.0000 0.0000 0.0000 0.0000 0.0000 22.8598
#
#
#
# Elastic Compliance Matrix: (Units=1/GPa)
#
#
# Indices 1 2 3 4 5 6 
#
# 1 0.036442 -0.005694 -0.009213 0.000000 0.000000 0.000000
# 2 -0.005694 0.012654 -0.004423 0.000000 0.000000 0.000000
# 3 -0.009213 -0.004423 0.011897 0.000000 0.000000 0.000000
# 4 0.000000 0.000000 0.000000 0.037666 0.000000 0.000000
# 5 0.000000 0.000000 0.000000 0.000000 0.042537 0.000000
# 6 0.000000 0.000000 0.000000 0.000000 0.000000 0.043745
#
#
# Mechanical properties :
#
#
# Convention : Reuss Voigt Hill
#
# Bulk Modulus (GPa) = 44.77544 71.59481 58.18513
# Shear Modulus (GPa) = 21.64092 24.98275 23.31184
#
# Velocity S-wave (km/s) = 3.44339 3.69972 3.57385
# Velocity P-wave (km/s) = 6.35149 7.58136 6.99351
#
# Compressibility (1/GPa) = 0.02233367
#
# Stress axis : x y z
#
# Youngs Moduli (GPa) = 27.44119 79.02336 84.05706
#
# Poissons Ratio (x) = 0.44994 0.77443
# Poissons Ratio (y) = 0.15624 0.37175
# Poissons Ratio (z) = 0.25282 0.34949
#
# Static dielectric constant tensor:
#      x y z
#    x 3.185410 0.000000 0.000000 
#    y 0.000000 3.505980 0.000000 
#    z 0.000000 0.000000 3.321690 
# 
# 
# High freq. dielectric constant tensor:
#      x y z
#    x 1.688530 0.000000 0.000000 
#    y 0.000000 1.720950 0.000000 
#    z 0.000000 0.000000 1.702390 
# 
# From -- ./inp_files/33731.got.cif
#   From: 2010.03.12/outbox.cif.g09.slc.cpg/sg51_17_cif.got.tgz:33731.got - 2010.04.16 13:43:02.
