data_PCOD8208018
_publ_section_title
;
Structure prediction by ZEFSAII (Michael W. Deem and Ramdas Pophale) SiO2 
 PCOD8208018
Probable space group: P M M A
;
_chemical_formula_sum "Si O2"
_cell_formula_units_Z 48
_cell_length_a 20.880562
_cell_length_b 9.238368
_cell_length_c 13.830828
_cell_angle_alpha 90.000000
_cell_angle_beta 90.000000
_cell_angle_gamma 90.000000
_cell_volume 2667.998751
_symmetry_space_group_name_H-M "P M M A"
_symmetry_group_IT_number 51
_symmetry_cell_setting 'orthorhombic'
loop_
_space_group_symop_operation_xyz
x,y,z
1/2-x,-y,z
1/2+x,-y,-z
-x,y,-z
-x,-y,-z
1/2+x,y,-z
1/2-x,y,z
x,-y,z
loop_
_atom_site_type_symbol
_atom_site_label
_atom_site_fract_x
_atom_site_fract_y
_atom_site_fract_z
Si Si1 0.679471 0.328241 0.494458
Si Si2 0.546200 0.670725 0.410493
Si Si3 0.071107 0.663307 0.957278
Si Si4 0.323936 0.659487 0.289874
Si Si5 0.108390 0.839122 0.130035
Si Si6 0.031221 0.837429 0.783890
O O1 0.750000 0.270063 0.458725
O O2 0.682462 0.500000 0.497498
O O3 0.619836 0.277597 0.428804
O O4 0.665206 0.275006 0.603245
O O5 0.500000 0.710807 0.500000
O O6 0.542809 0.500000 0.389509
O O7 0.521659 0.756848 0.317710
O O8 0.095918 0.500000 0.942000
O O9 0.077403 0.745550 0.854464
O O10 0.117081 0.743897 0.033511
O O11 0.000000 0.662415 0.000000
O O12 0.250000 0.640938 0.267851
O O13 0.356992 0.500000 0.279737
O O14 0.351570 0.772590 0.215921
O O15 0.035454 0.846614 0.161804
O O16 0.134122 0.000000 0.107970
O O17 0.058477 0.000000 0.767727
#
# Coordination Sequence:
#
# PCOD8208018 Si02
#       6
#     8   8   8   8   8   8
#     4   8  15  29  48  69  94 125 161 200 240 282
#     4  10  19  30  48  73  97 124 162 205 244 284
#     4   9  17  30  49  70  91 119 155 192 231 281
#     4   9  17  30  49  71  94 123 160 199 237 280
#     4  10  19  30  46  69  98 128 154 187 237 291
#     4  10  20  32  46  68  99 129 156 192 241 291
#
# _framework density 17.991012000000001
#
# number of rings (size 3 to 8) (size 9 to 14) (size 15 to 20)
#    0.000    2.667    0.000    3.500    0.000    6.000 
#    0.000    0.833    0.000    2.500    0.000    2.333 
#    0.000    0.000    0.000    0.000    0.000    0.000 
#
# Total GULP energy -594938.711364 kJ/mol
# GULP energy per Si atom -12394.556487 kJ/mol
# Density = 1.795006 g / cm^3
# Si number density = 17.991012 Si / 1000 Ang^3
#
#
#
# Elastic Constant Matrix: (Units=GPa)
#
#
# Indices 1 2 3 4 5 6 
#
# 1 35.1822 14.1536 10.2798 0.0000 0.0000 0.0000
# 2 14.1536 110.1157 42.5709 0.0000 0.0000 0.0000
# 3 10.2798 42.5709 64.9441 0.0000 0.0000 0.0000
# 4 0.0000 0.0000 0.0000 24.7147 0.0000 0.0000
# 5 0.0000 0.0000 0.0000 0.0000 22.3550 0.0000
# 6 0.0000 0.0000 0.0000 0.0000 0.0000 14.8274
#
#
#
# Elastic Compliance Matrix: (Units=1/GPa)
#
#
# Indices 1 2 3 4 5 6 
#
# 1 0.030408 -0.002743 -0.003015 0.000000 0.000000 0.000000
# 2 -0.002743 0.012411 -0.007701 0.000000 0.000000 0.000000
# 3 -0.003015 -0.007701 0.020923 0.000000 0.000000 0.000000
# 4 0.000000 0.000000 0.000000 0.040462 0.000000 0.000000
# 5 0.000000 0.000000 0.000000 0.000000 0.044733 0.000000
# 6 0.000000 0.000000 0.000000 0.000000 0.000000 0.067443
#
#
# Mechanical properties :
#
#
# Convention : Reuss Voigt Hill
#
# Bulk Modulus (GPa) = 27.15649 38.25006 32.70328
# Shear Modulus (GPa) = 19.56386 21.92861 20.74623
#
# Velocity S-wave (km/s) = 3.30119 3.49501 3.39948
# Velocity P-wave (km/s) = 5.44589 6.13136 5.79876
#
# Compressibility (1/GPa) = 0.03682361
#
# Stress axis : x y z
#
# Youngs Moduli (GPa) = 32.88624 80.57184 47.79327
#
# Poissons Ratio (x) = 0.22099 0.14411
# Poissons Ratio (y) = 0.09020 0.36808
# Poissons Ratio (z) = 0.09916 0.62052
#
# Static dielectric constant tensor:
#      x y z
#    x 3.413980 0.000000 0.000000 
#    y 0.000000 32.372110 0.000000 
#    z 0.000000 0.000000 3.351250 
# 
# 
# High freq. dielectric constant tensor:
#      x y z
#    x 1.662850 0.000000 0.000000 
#    y 0.000000 1.688420 0.000000 
#    z 0.000000 0.000000 1.693680 
# 
# From -- ./inp_files/18533.got.cif
#   From: 2010.03.12/outbox.cif.g09.slc.cpg/sg51_10_cif.got.tgz:18533.got - 2010.04.16 13:43:02.
