data_PCOD8208097
_publ_section_title
;
Structure prediction by ZEFSAII (Michael W. Deem and Ramdas Pophale) SiO2 
 PCOD8208097
Probable space group: P M M A
;
_chemical_formula_sum "Si O2"
_cell_formula_units_Z 64
_cell_length_a 9.097497
_cell_length_b 20.362123
_cell_length_c 17.462494
_cell_angle_alpha 90.000000
_cell_angle_beta 90.000000
_cell_angle_gamma 90.000000
_cell_volume 3234.828401
_symmetry_space_group_name_H-M "P M M A"
_symmetry_group_IT_number 51
_symmetry_cell_setting 'orthorhombic'
loop_
_space_group_symop_operation_xyz
x,y,z
1/2-x,-y,z
1/2+x,-y,-z
-x,y,-z
-x,-y,-z
1/2+x,y,-z
1/2-x,y,z
x,-y,z
loop_
_atom_site_type_symbol
_atom_site_label
_atom_site_fract_x
_atom_site_fract_y
_atom_site_fract_z
Si Si1 0.587486 0.133774 0.427647
Si Si2 0.921989 0.298906 0.208405
Si Si3 0.913415 0.925745 0.705452
Si Si4 0.420751 0.399249 0.426342
Si Si5 0.426226 0.786032 0.076914
Si Si6 0.087469 0.721770 0.618600
Si Si7 0.579065 0.572896 0.744382
Si Si8 0.575740 0.928684 0.876678
O O1 0.500000 0.105333 0.500000
O O2 0.750000 0.104053 0.433147
O O3 0.518932 0.114852 0.347683
O O4 0.588392 0.211933 0.429201
O O5 0.750000 0.300063 0.185969
O O6 0.949815 0.266822 0.291591
O O7 0.011482 0.254856 0.148194
O O8 0.982841 0.373965 0.209277
O O9 0.750000 0.894582 0.702983
O O10 0.981463 0.921848 0.790082
O O11 0.907219 0.000000 0.675993
O O12 0.500000 0.432510 0.500000
O O13 0.250000 0.406583 0.441587
O O14 0.465875 0.323025 0.421521
O O15 0.466697 0.431384 0.345415
O O16 0.250000 0.778889 0.074827
O O17 0.476471 0.863196 0.079506
O O18 0.500000 0.757081 0.000000
O O19 0.250000 0.688645 0.613546
O O20 0.750000 0.593239 0.751055
O O21 0.551850 0.500000 0.779287
O O22 0.750000 0.931847 0.874993
O O23 0.517692 0.000000 0.910290
#
# Coordination Sequence:
#
# PCOD8208097 Si02
#       8
#     8   8   8   8   8   8   8   8
#     4  11  22  33  46  66  93 126 166 214 267 316
#     4  10  20  36  58  83 111 141 178 224 271 322
#     4   9  18  34  54  72  91 121 164 211 258 310
#     4  10  19  30  47  72 104 142 180 220 267 316
#     4  11  22  36  57  85 117 150 181 215 260 313
#     4   9  19  34  51  72  98 130 170 217 265 315
#     4   9  19  36  56  79 108 144 187 230 273 325
#     4   8  16  33  57  83 110 142 180 219 260 312
#
# _framework density 19.784665
#
# number of rings (size 3 to 8) (size 9 to 14) (size 15 to 20)
#    0.000    2.375    0.000    3.375    0.000    4.250 
#    0.000    0.625    0.000    3.000    0.000    0.000 
#    0.000    0.000    0.000    0.000    0.000    0.000 
#
# Total GULP energy -793187.922503 kJ/mol
# GULP energy per Si atom -12393.561289 kJ/mol
# Density = 1.973963 g / cm^3
# Si number density = 19.784665 Si / 1000 Ang^3
#
#
#
# Elastic Constant Matrix: (Units=GPa)
#
#
# Indices 1 2 3 4 5 6 
#
# 1 90.6246 33.6267 32.0229 0.0000 0.0000 0.0000
# 2 33.6267 75.2598 27.5201 0.0000 0.0000 0.0000
# 3 32.0229 27.5201 74.1095 0.0000 0.0000 0.0000
# 4 0.0000 0.0000 0.0000 6.8997 0.0000 0.0000
# 5 0.0000 0.0000 0.0000 0.0000 29.2749 0.0000
# 6 0.0000 0.0000 0.0000 0.0000 0.0000 20.2728
#
#
#
# Elastic Compliance Matrix: (Units=1/GPa)
#
#
# Indices 1 2 3 4 5 6 
#
# 1 0.014384 -0.004807 -0.004430 0.000000 0.000000 0.000000
# 2 -0.004807 0.016981 -0.004229 0.000000 0.000000 0.000000
# 3 -0.004430 -0.004229 0.016978 0.000000 0.000000 0.000000
# 4 0.000000 0.000000 0.000000 0.144933 0.000000 0.000000
# 5 0.000000 0.000000 0.000000 0.000000 0.034159 0.000000
# 6 0.000000 0.000000 0.000000 0.000000 0.000000 0.049327
#
#
# Mechanical properties :
#
#
# Convention : Reuss Voigt Hill
#
# Bulk Modulus (GPa) = 46.70402 47.37036 47.03719
# Shear Modulus (GPa) = 16.08589 21.07776 18.58182
#
# Velocity S-wave (km/s) = 2.85449 3.26752 3.06797
# Velocity P-wave (km/s) = 5.87551 6.18309 6.03126
#
# Compressibility (1/GPa) = 0.02141143
#
# Stress axis : x y z
#
# Youngs Moduli (GPa) = 69.52393 58.88803 58.89890
#
# Poissons Ratio (x) = 0.28306 0.26094
# Poissons Ratio (y) = 0.33418 0.24908
# Poissons Ratio (z) = 0.30801 0.24903
#
# Static dielectric constant tensor:
#      x y z
#    x 3.583940 0.000000 0.000000 
#    y 0.000000 3.623750 0.000000 
#    z 0.000000 0.000000 3.431720 
# 
# 
# High freq. dielectric constant tensor:
#      x y z
#    x 1.763580 0.000000 0.000000 
#    y 0.000000 1.764100 0.000000 
#    z 0.000000 0.000000 1.757490 
# 
# From -- ./inp_files/28500.got.cif
#   From: 2010.03.12/outbox.cif.g09.slc.cpg/sg51_15_cif.got.tgz:28500.got - 2010.04.16 13:43:02.
