data_PCOD8208228
_publ_section_title
;
Structure prediction by ZEFSAII (Michael W. Deem and Ramdas Pophale) SiO2 
 PCOD8208228
Probable space group: P M M A
;
_chemical_formula_sum "Si O2"
_cell_formula_units_Z 44
_cell_length_a 9.239479
_cell_length_b 12.659624
_cell_length_c 25.536688
_cell_angle_alpha 90.000000
_cell_angle_beta 90.000000
_cell_angle_gamma 90.000000
_cell_volume 2986.983752
_symmetry_space_group_name_H-M "P M M A"
_symmetry_group_IT_number 51
_symmetry_cell_setting 'orthorhombic'
loop_
_space_group_symop_operation_xyz
x,y,z
1/2-x,-y,z
1/2+x,-y,-z
-x,y,-z
-x,-y,-z
1/2+x,y,-z
1/2-x,y,z
x,-y,z
loop_
_atom_site_type_symbol
_atom_site_label
_atom_site_fract_x
_atom_site_fract_y
_atom_site_fract_z
Si Si1 0.580160 0.229018 0.055382
Si Si2 0.082211 0.623295 0.134222
Si Si3 0.087381 0.373965 0.650824
Si Si4 0.413766 0.374111 0.449614
Si Si5 0.085626 0.000000 0.947568
Si Si6 0.589523 0.625379 0.748546
O O1 0.750000 0.250277 0.046639
O O2 0.519311 0.314517 0.094952
O O3 0.552309 0.111672 0.081433
O O4 0.500000 0.240218 0.000000
O O5 0.250000 0.649903 0.123716
O O6 0.052826 0.500000 0.125542
O O7 0.038659 0.657843 0.193243
O O8 0.250000 0.330022 0.645606
O O9 0.087878 0.500000 0.650878
O O10 0.993075 0.331302 0.602314
O O11 0.019963 0.329523 0.704934
O O12 0.500000 0.330937 0.500000
O O13 0.250000 0.330366 0.450859
O O14 0.412537 0.500000 0.449880
O O15 0.250000 0.000000 0.965553
O O16 0.000000 0.000000 0.000000
O O17 0.750000 0.670671 0.737201
O O18 0.596203 0.500000 0.745038
#
# Coordination Sequence:
#
# PCOD8208228 Si02
#       6
#     8   8   8   8   4   8
#     4  10  19  31  47  64  82 103 128 158 193 233
#     4   9  18  31  44  59  81 106 131 160 194 232
#     4   9  15  21  30  44  60  79 107 143 180 218
#     4   9  15  21  28  38  54  76 103 138 181 224
#     4   8  16  30  46  64  82 100 124 156 191 226
#     4   8  14  25  38  49  64  89 118 147 180 217
#
# _framework density 14.730579000000001
#
# number of rings (size 3 to 8) (size 9 to 14) (size 15 to 20)
#    0.000    3.091    0.000    2.727    0.000    6.545 
#    0.000    1.818    0.000    0.000    0.000    0.000 
#    0.000    0.000    0.000    0.000    0.000    0.000 
#
# Total GULP energy -545185.150014 kJ/mol
# GULP energy per Si atom -12390.571591 kJ/mol
# Density = 1.469705 g / cm^3
# Si number density = 14.730579 Si / 1000 Ang^3
#
#
#
# Elastic Constant Matrix: (Units=GPa)
#
#
# Indices 1 2 3 4 5 6 
#
# 1 118.0277 30.1023 72.0354 0.0000 0.0000 0.0000
# 2 30.1023 33.6169 31.2068 0.0000 0.0000 0.0000
# 3 72.0354 31.2068 116.5311 0.0000 0.0000 0.0000
# 4 0.0000 0.0000 0.0000 -0.7104 0.0000 0.0000
# 5 0.0000 0.0000 0.0000 0.0000 31.8284 0.0000
# 6 0.0000 0.0000 0.0000 0.0000 0.0000 10.3385
#
#
#
# Elastic Compliance Matrix: (Units=1/GPa)
#
#
# Indices 1 2 3 4 5 6 
#
# 1 0.014520 -0.006215 -0.007311 0.000000 0.000000 0.000000
# 2 -0.006215 0.042249 -0.007472 0.000000 0.000000 0.000000
# 3 -0.007311 -0.007472 0.015102 0.000000 0.000000 0.000000
# 4 0.000000 0.000000 0.000000 -1.407615 0.000000 0.000000
# 5 0.000000 0.000000 0.000000 0.000000 0.031418 0.000000
# 6 0.000000 0.000000 0.000000 0.000000 0.000000 0.096726
#
#
# Mechanical properties :
#
#
# Convention : Reuss Voigt Hill
#
# Bulk Modulus (GPa) = 33.47427 59.42941 46.45184
# Shear Modulus (GPa) = -4.32659 17.28004 6.47672
#
# Velocity S-wave (km/s) = -1.71567 3.42873 2.09913
# Velocity P-wave (km/s) = 4.34154 7.49044 6.12192
#
# Compressibility (1/GPa) = 0.02987369
#
# Stress axis : x y z
#
# Youngs Moduli (GPa) = 68.87063 23.66944 66.21558
#
# Poissons Ratio (x) = 0.14710 0.48413
# Poissons Ratio (y) = 0.42801 0.49479
# Poissons Ratio (z) = 0.50355 0.17687
#
# Static dielectric constant tensor:
#      x y z
#    x 3.077670 0.000000 0.000000 
#    y 0.000000 2.537280 0.000000 
#    z 0.000000 0.000000 2.937840 
# 
# 
# High freq. dielectric constant tensor:
#      x y z
#    x 1.579880 0.000000 0.000000 
#    y 0.000000 1.488560 0.000000 
#    z 0.000000 0.000000 1.564310 
# 
# From -- ./inp_files/34566.got.cif
#   From: 2010.03.12/outbox.cif.g09.slc.cpg/sg51_18_cif.got.tgz:34566.got - 2010.04.16 13:43:02.
