data_PCOD8208389
_publ_section_title
;
Structure prediction by ZEFSAII (Michael W. Deem and Ramdas Pophale) SiO2 
 PCOD8208389
Probable space group: P M M A
;
_chemical_formula_sum "Si O2"
_cell_formula_units_Z 64
_cell_length_a 30.849289
_cell_length_b 12.891054
_cell_length_c 9.268997
_cell_angle_alpha 90.000000
_cell_angle_beta 90.000000
_cell_angle_gamma 90.000000
_cell_volume 3686.093340
_symmetry_space_group_name_H-M "P M M A"
_symmetry_group_IT_number 51
_symmetry_cell_setting 'orthorhombic'
loop_
_space_group_symop_operation_xyz
x,y,z
1/2-x,-y,z
1/2+x,-y,-z
-x,y,-z
-x,-y,-z
1/2+x,y,-z
1/2-x,y,z
x,-y,z
loop_
_atom_site_type_symbol
_atom_site_label
_atom_site_fract_x
_atom_site_fract_y
_atom_site_fract_z
Si Si1 0.799906 0.116143 0.940538
Si Si2 0.844605 0.260491 0.176314
Si Si3 0.699857 0.300056 0.742951
Si Si4 0.504208 0.884081 0.658970
Si Si5 0.378054 0.382887 0.075604
Si Si6 0.300331 0.617405 0.569440
Si Si7 0.582634 0.113719 0.173064
Si Si8 0.956348 0.765224 0.916640
O O1 0.750000 0.103490 0.975743
O O2 0.806990 0.179580 0.790319
O O3 0.820615 0.000000 0.926889
O O4 0.818845 0.182431 0.071989
O O5 0.816882 0.311776 0.300995
O O6 0.883023 0.192131 0.244078
O O7 0.865202 0.354422 0.086840
O O8 0.750000 0.334256 0.778975
O O9 0.664607 0.368299 0.826423
O O10 0.689949 0.317559 0.575042
O O11 0.500000 0.834091 0.500000
O O12 0.456219 0.890851 0.717569
O O13 0.533297 0.813394 0.761444
O O14 0.524547 0.000000 0.650398
O O15 0.392710 0.500000 0.082451
O O16 0.421576 0.322858 0.121806
O O17 0.250000 0.603985 0.594487
O O18 0.320695 0.500000 0.564245
O O19 0.603561 0.000000 0.154606
O O20 0.566951 0.148765 0.014675
O O21 0.000000 0.724733 0.000000
#
# Coordination Sequence:
#
# PCOD8208389 Si02
#       8
#     8   8   8   8   8   8   8   8
#     4   9  17  31  50  70  95 127 160 197 242 294
#     4  10  19  31  48  72  99 125 161 205 250 299
#     4   9  19  35  53  73  98 130 169 210 253 304
#     4   9  17  30  49  72  96 122 155 195 238 287
#     4  10  20  33  51  74  97 128 171 214 254 298
#     4  10  20  34  51  71  99 135 172 214 263 307
#     4   9  17  30  48  69  95 126 157 193 242 297
#     4   9  18  32  50  71  97 130 163 200 248 303
#
# _framework density 17.362555
#
# number of rings (size 3 to 8) (size 9 to 14) (size 15 to 20)
#    0.000    2.625    0.000    1.875    0.000    4.000 
#    0.000    1.875    0.000    3.375    0.000    0.000 
#    0.000    0.000    0.000    0.000    0.000    0.000 
#
# Total GULP energy -793054.331870 kJ/mol
# GULP energy per Si atom -12391.473935 kJ/mol
# Density = 1.732304 g / cm^3
# Si number density = 17.362555 Si / 1000 Ang^3
#
#
#
# Elastic Constant Matrix: (Units=GPa)
#
#
# Indices 1 2 3 4 5 6 
#
# 1 57.4526 45.4700 32.6060 0.0000 0.0000 0.0000
# 2 45.4700 131.0792 69.2125 0.0000 0.0000 0.0000
# 3 32.6060 69.2125 108.7511 0.0000 0.0000 0.0000
# 4 0.0000 0.0000 0.0000 16.7130 0.0000 0.0000
# 5 0.0000 0.0000 0.0000 0.0000 14.9944 0.0000
# 6 0.0000 0.0000 0.0000 0.0000 0.0000 21.3345
#
#
#
# Elastic Compliance Matrix: (Units=1/GPa)
#
#
# Indices 1 2 3 4 5 6 
#
# 1 0.024597 -0.006986 -0.002929 0.000000 0.000000 0.000000
# 2 -0.006986 0.013474 -0.006481 0.000000 0.000000 0.000000
# 3 -0.002929 -0.006481 0.014198 0.000000 0.000000 0.000000
# 4 0.000000 0.000000 0.000000 0.059834 0.000000 0.000000
# 5 0.000000 0.000000 0.000000 0.000000 0.066691 0.000000
# 6 0.000000 0.000000 0.000000 0.000000 0.000000 0.046872
#
#
# Mechanical properties :
#
#
# Convention : Reuss Voigt Hill
#
# Bulk Modulus (GPa) = 51.33966 65.76222 58.55094
# Shear Modulus (GPa) = 18.87146 20.60801 19.73973
#
# Velocity S-wave (km/s) = 3.30040 3.44891 3.37547
# Velocity P-wave (km/s) = 6.64507 7.33608 6.99911
#
# Compressibility (1/GPa) = 0.01947812
#
# Stress axis : x y z
#
# Youngs Moduli (GPa) = 40.65590 74.21455 70.43233
#
# Poissons Ratio (x) = 0.51846 0.20626
# Poissons Ratio (y) = 0.28402 0.45647
# Poissons Ratio (z) = 0.11906 0.48098
#
# Static dielectric constant tensor:
#      x y z
#    x 3.305300 0.000000 0.000000 
#    y 0.000000 3.367490 0.000000 
#    z 0.000000 0.000000 3.147380 
# 
# 
# High freq. dielectric constant tensor:
#      x y z
#    x 1.671390 0.000000 0.000000 
#    y 0.000000 1.668910 0.000000 
#    z 0.000000 0.000000 1.660270 
# 
# From -- ./inp_files/13152.got.cif
#   From: 2010.03.12/outbox.cif.g09.slc.cpg/sg51_7_cif.got.tgz:13152.got - 2010.04.16 13:43:02.
