data_PCOD8208160
_publ_section_title
;
Structure prediction by ZEFSAII (Michael W. Deem and Ramdas Pophale) SiO2 
 PCOD8208160
Probable space group: P M M A
;
_chemical_formula_sum "Si O2"
_cell_formula_units_Z 52
_cell_length_a 9.153767
_cell_length_b 12.796448
_cell_length_c 22.740588
_cell_angle_alpha 90.000000
_cell_angle_beta 90.000000
_cell_angle_gamma 90.000000
_cell_volume 2663.734772
_symmetry_space_group_name_H-M "P M M A"
_symmetry_group_IT_number 51
_symmetry_cell_setting 'orthorhombic'
loop_
_space_group_symop_operation_xyz
x,y,z
1/2-x,-y,z
1/2+x,-y,-z
-x,y,-z
-x,-y,-z
1/2+x,y,-z
1/2-x,y,z
x,-y,z
loop_
_atom_site_type_symbol
_atom_site_label
_atom_site_fract_x
_atom_site_fract_y
_atom_site_fract_z
Si Si1 0.579666 0.500000 0.061330
Si Si2 0.420967 0.880789 0.320774
Si Si3 0.081348 0.329294 0.846039
Si Si4 0.580709 0.881933 0.205464
Si Si5 0.416116 0.623654 0.621184
Si Si6 0.089205 0.619257 0.267851
Si Si7 0.076588 0.781777 0.442908
O O1 0.750000 0.500000 0.048381
O O2 0.534551 0.607423 0.095409
O O3 0.500000 0.500000 0.000000
O O4 0.250000 0.862458 0.315273
O O5 0.496344 0.832019 0.262009
O O6 0.475144 0.842740 0.384500
O O7 0.467809 0.000000 0.317414
O O8 0.250000 0.353798 0.832562
O O9 0.055097 0.202326 0.847947
O O10 0.988223 0.378034 0.794304
O O11 0.750000 0.886579 0.222235
O O12 0.526683 0.000000 0.187594
O O13 0.250000 0.665090 0.619974
O O14 0.418482 0.500000 0.619753
O O15 0.494869 0.671759 0.679694
O O16 0.507283 0.665872 0.565079
O O17 0.250000 0.672992 0.265891
O O18 0.108719 0.500000 0.286105
O O19 0.250000 0.778982 0.451397
O O20 0.000000 0.833888 0.500000
#
# Coordination Sequence:
#
# PCOD8208160 Si02
#       7
#     4   8   8   8   8   8   8
#     4  10  22  38  56  80 112 152 193 228 267 308
#     4   9  19  36  55  76 104 135 167 209 263 318
#     4  10  19  33  54  78 109 146 183 223 264 314
#     4   9  18  32  53  82 110 137 172 216 268 322
#     4  10  21  36  53  72  98 133 170 213 265 320
#     4  10  19  30  48  77 108 135 168 213 267 322
#     4  11  23  37  53  72  96 129 172 219 267 322
#
# _framework density 19.521462
#
# number of rings (size 3 to 8) (size 9 to 14) (size 15 to 20)
#    0.000    2.154    0.769    2.308    0.000    7.077 
#    0.000    0.000    0.000    0.462    0.000    0.000 
#    0.000    0.000    0.000    0.000    0.000    0.000 
#
# Total GULP energy -644375.950849 kJ/mol
# GULP energy per Si atom -12391.845209 kJ/mol
# Density = 1.947703 g / cm^3
# Si number density = 19.521462 Si / 1000 Ang^3
#
#
#
# Elastic Constant Matrix: (Units=GPa)
#
#
# Indices 1 2 3 4 5 6 
#
# 1 74.4023 21.4247 42.7429 0.0000 0.0000 0.0000
# 2 21.4247 83.7032 59.4620 0.0000 0.0000 0.0000
# 3 42.7429 59.4620 122.2871 0.0000 0.0000 0.0000
# 4 0.0000 0.0000 0.0000 22.4401 0.0000 0.0000
# 5 0.0000 0.0000 0.0000 0.0000 33.1630 0.0000
# 6 0.0000 0.0000 0.0000 0.0000 0.0000 18.3118
#
#
#
# Elastic Compliance Matrix: (Units=1/GPa)
#
#
# Indices 1 2 3 4 5 6 
#
# 1 0.016819 -0.000197 -0.005783 0.000000 0.000000 0.000000
# 2 -0.000197 0.018254 -0.008807 0.000000 0.000000 0.000000
# 3 -0.005783 -0.008807 0.014481 0.000000 0.000000 0.000000
# 4 0.000000 0.000000 0.000000 0.044563 0.000000 0.000000
# 5 0.000000 0.000000 0.000000 0.000000 0.030154 0.000000
# 6 0.000000 0.000000 0.000000 0.000000 0.000000 0.054610
#
#
# Mechanical properties :
#
#
# Convention : Reuss Voigt Hill
#
# Bulk Modulus (GPa) = 50.04905 58.62797 54.33851
# Shear Modulus (GPa) = 23.24331 25.23387 24.23859
#
# Velocity S-wave (km/s) = 3.45433 3.59921 3.52751
# Velocity P-wave (km/s) = 6.45008 6.88260 6.66984
#
# Compressibility (1/GPa) = 0.01998040
#
# Stress axis : x y z
#
# Youngs Moduli (GPa) = 59.45497 54.78303 69.05446
#
# Poissons Ratio (x) = 0.01078 0.39936
# Poissons Ratio (y) = 0.01170 0.60817
# Poissons Ratio (z) = 0.34384 0.48248
#
# Static dielectric constant tensor:
#      x y z
#    x 3.639360 0.000000 0.000000 
#    y 0.000000 3.974890 0.000000 
#    z 0.000000 0.000000 3.319640 
# 
# 
# High freq. dielectric constant tensor:
#      x y z
#    x 1.762720 0.000000 0.000000 
#    y 0.000000 1.776850 0.000000 
#    z 0.000000 0.000000 1.723530 
# 
# From -- ./inp_files/31737.got.cif
#   From: 2010.03.12/outbox.cif.g09.slc.cpg/sg51_16_cif.got.tgz:31737.got - 2010.04.16 13:43:02.
