data_PCOD8208624
_publ_section_title
;
Structure prediction by ZEFSAII (Michael W. Deem and Ramdas Pophale) SiO2 
 PCOD8208624
Probable space group: P M M A
;
_chemical_formula_sum "Si O2"
_cell_formula_units_Z 64
_cell_length_a 8.814144
_cell_length_b 20.616391
_cell_length_c 18.712877
_cell_angle_alpha 90.000000
_cell_angle_beta 90.000000
_cell_angle_gamma 90.000000
_cell_volume 3400.426145
_symmetry_space_group_name_H-M "P M M A"
_symmetry_group_IT_number 51
_symmetry_cell_setting 'orthorhombic'
loop_
_space_group_symop_operation_xyz
x,y,z
1/2-x,-y,z
1/2+x,-y,-z
-x,y,-z
-x,-y,-z
1/2+x,y,-z
1/2-x,y,z
x,-y,z
loop_
_atom_site_type_symbol
_atom_site_label
_atom_site_fract_x
_atom_site_fract_y
_atom_site_fract_z
Si Si1 0.421824 0.930780 0.828530
Si Si2 0.425825 0.210395 0.844194
Si Si3 0.571275 0.325220 0.924733
Si Si4 0.573569 0.425739 0.804750
Si Si5 0.069324 0.791995 0.311002
Si Si6 0.073166 0.068221 0.319033
Si Si7 0.571209 0.313943 0.574570
Si Si8 0.427170 0.425300 0.656756
O O1 0.250000 0.926843 0.797336
O O2 0.450774 0.864191 0.872361
O O3 0.541865 0.931801 0.765078
O O4 0.440298 0.000000 0.871757
O O5 0.250000 0.229954 0.845141
O O6 0.515019 0.255201 0.899231
O O7 0.487805 0.220325 0.764143
O O8 0.750000 0.323019 0.933050
O O9 0.519297 0.380661 0.869426
O O10 0.500000 0.344121 0.000000
O O11 0.750000 0.415381 0.787316
O O12 0.538009 0.500000 0.825636
O O13 0.481527 0.403682 0.735140
O O14 0.250000 0.791214 0.297861
O O15 0.015478 0.861401 0.346688
O O16 0.017134 0.736824 0.365484
O O17 0.250000 0.064754 0.332845
O O18 0.002301 0.000000 0.351806
O O19 0.500000 0.292038 0.500000
O O20 0.750000 0.315218 0.566426
O O21 0.512988 0.384951 0.596117
O O22 0.250000 0.412035 0.650274
O O23 0.469168 0.500000 0.643361
#
# Coordination Sequence:
#
# PCOD8208624 Si02
#       8
#     8   8   8   8   8   8   8   8
#     4   8  14  25  42  67  98 128 159 199 247 295
#     4  10  19  31  51  77 103 133 168 207 251 300
#     4  11  23  37  53  74 103 137 171 209 250 294
#     4   9  19  37  59  81 105 134 167 203 246 295
#     4   9  18  32  50  74 102 132 168 209 253 299
#     4   8  13  23  42  68  96 125 159 201 247 294
#     4  11  23  37  53  73 101 137 173 211 253 298
#     4  10  21  37  58  83 107 131 163 204 248 297
#
# _framework density 18.821171
#
# number of rings (size 3 to 8) (size 9 to 14) (size 15 to 20)
#    0.000    2.500    0.000    2.250    0.000    6.750 
#    0.000    0.000    0.000    0.750    0.000    0.000 
#    0.000    0.000    0.000    0.000    0.000    0.125 
#
# Total GULP energy -792965.840268 kJ/mol
# GULP energy per Si atom -12390.091254 kJ/mol
# Density = 1.877833 g / cm^3
# Si number density = 18.821171 Si / 1000 Ang^3
#
#
#
# Elastic Constant Matrix: (Units=GPa)
#
#
# Indices 1 2 3 4 5 6 
#
# 1 42.0805 19.3024 14.6775 0.0000 0.0000 0.0000
# 2 19.3024 96.0034 21.5814 0.0000 0.0000 0.0000
# 3 14.6775 21.5814 48.1597 0.0000 0.0000 0.0000
# 4 0.0000 0.0000 0.0000 7.7561 0.0000 0.0000
# 5 0.0000 0.0000 0.0000 0.0000 28.4030 0.0000
# 6 0.0000 0.0000 0.0000 0.0000 0.0000 22.9665
#
#
#
# Elastic Compliance Matrix: (Units=1/GPa)
#
#
# Indices 1 2 3 4 5 6 
#
# 1 0.027986 -0.004125 -0.006681 0.000000 0.000000 0.000000
# 2 -0.004125 0.012191 -0.004206 0.000000 0.000000 0.000000
# 3 -0.006681 -0.004206 0.024685 0.000000 0.000000 0.000000
# 4 0.000000 0.000000 0.000000 0.128931 0.000000 0.000000
# 5 0.000000 0.000000 0.000000 0.000000 0.035208 0.000000
# 6 0.000000 0.000000 0.000000 0.000000 0.000000 0.043542
#
#
# Mechanical properties :
#
#
# Convention : Reuss Voigt Hill
#
# Bulk Modulus (GPa) = 28.70343 33.04068 30.87206
# Shear Modulus (GPa) = 15.91444 20.53726 18.22585
#
# Velocity S-wave (km/s) = 2.91101 3.30688 3.11524
# Velocity P-wave (km/s) = 5.15581 5.67220 5.42015
#
# Compressibility (1/GPa) = 0.03483904
#
# Stress axis : x y z
#
# Youngs Moduli (GPa) = 35.73166 82.02652 40.51029
#
# Poissons Ratio (x) = 0.33837 0.27064
# Poissons Ratio (y) = 0.14740 0.17038
# Poissons Ratio (z) = 0.23871 0.34500
#
# Static dielectric constant tensor:
#      x y z
#    x 3.439150 0.000000 0.000000 
#    y 0.000000 4.107940 0.000000 
#    z 0.000000 0.000000 3.071570 
# 
# 
# High freq. dielectric constant tensor:
#      x y z
#    x 1.731420 0.000000 0.000000 
#    y 0.000000 1.761260 0.000000 
#    z 0.000000 0.000000 1.680990 
# 
# From -- ./inp_files/28340.got.cif
#   From: 2010.03.12/outbox.cif.g09.slc.cpg/sg51_15_cif.got.tgz:28340.got - 2010.04.16 13:43:02.
