data_PCOD8208193
_publ_section_title
;
Structure prediction by ZEFSAII (Michael W. Deem and Ramdas Pophale) SiO2 
 PCOD8208193
Probable space group: P M M A
;
_chemical_formula_sum "Si O2"
_cell_formula_units_Z 56
_cell_length_a 8.815614
_cell_length_b 15.504070
_cell_length_c 30.004437
_cell_angle_alpha 90.000000
_cell_angle_beta 90.000000
_cell_angle_gamma 90.000000
_cell_volume 4100.943336
_symmetry_space_group_name_H-M "P M M A"
_symmetry_group_IT_number 51
_symmetry_cell_setting 'orthorhombic'
loop_
_space_group_symop_operation_xyz
x,y,z
1/2-x,-y,z
1/2+x,-y,-z
-x,y,-z
-x,-y,-z
1/2+x,y,-z
1/2-x,y,z
x,-y,z
loop_
_atom_site_type_symbol
_atom_site_label
_atom_site_fract_x
_atom_site_fract_y
_atom_site_fract_z
Si Si1 0.429261 0.658057 0.100523
Si Si2 0.420739 0.602890 0.633349
Si Si3 0.570235 0.187373 0.049228
Si Si4 0.425543 0.601565 0.811983
Si Si5 0.579941 0.397492 0.721811
Si Si6 0.069744 0.500000 0.951495
Si Si7 0.423473 0.000000 0.953377
Si Si8 0.579327 0.397168 0.544425
O O1 0.250000 0.647217 0.094401
O O2 0.484256 0.749494 0.082450
O O3 0.473195 0.652206 0.152316
O O4 0.516117 0.584349 0.073926
O O5 0.250000 0.637521 0.635671
O O6 0.424578 0.500000 0.633384
O O7 0.509911 0.639769 0.676136
O O8 0.495617 0.639023 0.588187
O O9 0.750000 0.207838 0.047157
O O10 0.537374 0.091339 0.070382
O O11 0.500000 0.197195 0.000000
O O12 0.250000 0.625210 0.818490
O O13 0.453465 0.500000 0.818144
O O14 0.478172 0.633121 0.763307
O O15 0.750000 0.361410 0.727340
O O16 0.581312 0.500000 0.719505
O O17 0.250000 0.500000 0.954410
O O18 0.000000 0.500000 0.000000
O O19 0.250000 0.000000 0.965608
O O20 0.500000 0.000000 0.000000
O O21 0.500000 0.360713 0.500000
O O22 0.750000 0.362488 0.545193
O O23 0.574833 0.500000 0.544302
#
# Coordination Sequence:
#
# PCOD8208193 Si02
#       8
#     8   8   8   8   8   4   4   8
#     4  12  23  34  47  64  84 107 132 159 190 226
#     4   9  15  22  31  43  58  76 101 132 167 208
#     4  10  19  33  50  69  89 108 131 156 186 222
#     4  10  19  31  45  58  74  97 125 155 188 222
#     4   9  16  25  37  51  66  84 109 142 178 214
#     4  12  24  38  50  62  80 106 134 162 189 220
#     4   8  16  30  50  70  88 108 128 154 184 218
#     4   9  15  21  28  38  53  73  96 124 162 208
#
# _framework density 13.655395
#
# number of rings (size 3 to 8) (size 9 to 14) (size 15 to 20)
#    0.000    2.143    0.714    4.500    0.000    6.286 
#    0.000    0.000    0.000    0.000    0.000    0.000 
#    0.000    0.000    0.000    0.000    0.000    0.000 
#
# Total GULP energy -694172.501960 kJ/mol
# GULP energy per Si atom -12395.937535 kJ/mol
# Density = 1.362431 g / cm^3
# Si number density = 13.655395 Si / 1000 Ang^3
#
#
#
# Elastic Constant Matrix: (Units=GPa)
#
#
# Indices 1 2 3 4 5 6 
#
# 1 110.6023 25.7910 45.6514 0.0000 0.0000 0.0000
# 2 25.7910 48.7874 25.7553 0.0000 0.0000 0.0000
# 3 45.6514 25.7553 107.0181 0.0000 0.0000 0.0000
# 4 0.0000 0.0000 0.0000 5.7802 0.0000 0.0000
# 5 0.0000 0.0000 0.0000 0.0000 29.5535 0.0000
# 6 0.0000 0.0000 0.0000 0.0000 0.0000 8.8936
#
#
#
# Elastic Compliance Matrix: (Units=1/GPa)
#
#
# Indices 1 2 3 4 5 6 
#
# 1 0.011630 -0.004043 -0.003988 0.000000 0.000000 0.000000
# 2 -0.004043 0.024886 -0.004264 0.000000 0.000000 0.000000
# 3 -0.003988 -0.004264 0.012072 0.000000 0.000000 0.000000
# 4 0.000000 0.000000 0.000000 0.173005 0.000000 0.000000
# 5 0.000000 0.000000 0.000000 0.000000 0.033837 0.000000
# 6 0.000000 0.000000 0.000000 0.000000 0.000000 0.112441
#
#
# Mechanical properties :
#
#
# Convention : Reuss Voigt Hill
#
# Bulk Modulus (GPa) = 41.67258 51.20035 46.43646
# Shear Modulus (GPa) = 12.48563 20.12612 16.30587
#
# Velocity S-wave (km/s) = 3.02708 3.84325 3.45932
# Velocity P-wave (km/s) = 6.54226 7.56770 7.07359
#
# Compressibility (1/GPa) = 0.02399659
#
# Stress axis : x y z
#
# Youngs Moduli (GPa) = 85.98229 40.18401 82.83758
#
# Poissons Ratio (x) = 0.16246 0.33038
# Poissons Ratio (y) = 0.34761 0.35326
# Poissons Ratio (z) = 0.34292 0.17136
#
# Static dielectric constant tensor:
#      x y z
#    x 2.938520 0.000000 0.000000 
#    y 0.000000 2.398080 0.000000 
#    z 0.000000 0.000000 2.805830 
# 
# 
# High freq. dielectric constant tensor:
#      x y z
#    x 1.545160 0.000000 0.000000 
#    y 0.000000 1.447960 0.000000 
#    z 0.000000 0.000000 1.521550 
# 
# From -- ./inp_files/37512.got.cif
#   From: 2010.03.12/outbox.cif.g09.slc.cpg/sg51_19_cif.got.tgz:37512.got - 2010.04.16 13:43:02.
