data_PCOD8208480
_publ_section_title
;
Structure prediction by ZEFSAII (Michael W. Deem and Ramdas Pophale) SiO2 
 PCOD8208480
Probable space group: P M M A
;
_chemical_formula_sum "Si O2"
_cell_formula_units_Z 48
_cell_length_a 8.970074
_cell_length_b 19.219894
_cell_length_c 15.500528
_cell_angle_alpha 90.000000
_cell_angle_beta 90.000000
_cell_angle_gamma 90.000000
_cell_volume 2672.351037
_symmetry_space_group_name_H-M "P M M A"
_symmetry_group_IT_number 51
_symmetry_cell_setting 'orthorhombic'
loop_
_space_group_symop_operation_xyz
x,y,z
1/2-x,-y,z
1/2+x,-y,-z
-x,y,-z
-x,-y,-z
1/2+x,y,-z
1/2-x,y,z
x,-y,z
loop_
_atom_site_type_symbol
_atom_site_label
_atom_site_fract_x
_atom_site_fract_y
_atom_site_fract_z
Si Si1 0.087105 0.335539 0.080542
Si Si2 0.573129 0.819600 0.259911
Si Si3 0.416976 0.170723 0.083549
Si Si4 0.421465 0.417940 0.587842
Si Si5 0.075364 0.079023 0.586792
Si Si6 0.428696 0.672794 0.269169
O O1 0.250000 0.368696 0.074836
O O2 0.093834 0.252927 0.071884
O O3 0.017588 0.353203 0.174190
O O4 0.000000 0.368890 0.000000
O O5 0.750000 0.810200 0.251464
O O6 0.509345 0.847658 0.169358
O O7 0.526305 0.875257 0.331854
O O8 0.500006 0.747316 0.289398
O O9 0.250000 0.139334 0.090291
O O10 0.500000 0.138251 0.000000
O O11 0.500000 0.393796 0.500000
O O12 0.250000 0.392980 0.587062
O O13 0.433038 0.500000 0.600126
O O14 0.512151 0.383658 0.664819
O O15 0.250000 0.083559 0.572084
O O16 0.000000 0.108522 0.500000
O O17 0.022986 0.000000 0.604553
O O18 0.250000 0.679677 0.272716
#
# Coordination Sequence:
#
# PCOD8208480 Si02
#       6
#     8   8   8   8   8   8
#     4   8  15  26  42  66  95 127 159 194 235 280
#     4  10  19  31  49  74 103 132 164 206 252 294
#     4   9  16  27  44  68  98 130 164 201 244 294
#     4  10  21  37  56  76  98 128 166 205 248 300
#     4   9  19  35  53  72  95 127 166 205 248 299
#     4  10  20  33  50  75 105 133 165 205 247 292
#
# _framework density 17.961711999999999
#
# number of rings (size 3 to 8) (size 9 to 14) (size 15 to 20)
#    0.000    2.667    0.000    3.000    0.000    7.667 
#    0.000    1.667    0.000    1.000    0.000    0.000 
#    0.000    0.000    0.000    0.000    0.000    0.000 
#
# Total GULP energy -595056.565235 kJ/mol
# GULP energy per Si atom -12397.011776 kJ/mol
# Density = 1.792083 g / cm^3
# Si number density = 17.961712 Si / 1000 Ang^3
#
#
#
# Elastic Constant Matrix: (Units=GPa)
#
#
# Indices 1 2 3 4 5 6 
#
# 1 99.8294 27.2981 65.7660 0.0000 0.0000 0.0000
# 2 27.2981 30.6072 45.1738 0.0000 0.0000 0.0000
# 3 65.7660 45.1738 163.9631 0.0000 0.0000 0.0000
# 4 0.0000 0.0000 0.0000 -2.3076 0.0000 0.0000
# 5 0.0000 0.0000 0.0000 0.0000 37.3427 0.0000
# 6 0.0000 0.0000 0.0000 0.0000 0.0000 15.7488
#
#
#
# Elastic Compliance Matrix: (Units=1/GPa)
#
#
# Indices 1 2 3 4 5 6 
#
# 1 0.014532 -0.007345 -0.003805 0.000000 0.000000 0.000000
# 2 -0.007345 0.058774 -0.013247 0.000000 0.000000 0.000000
# 3 -0.003805 -0.013247 0.011275 0.000000 0.000000 0.000000
# 4 0.000000 0.000000 0.000000 -0.433358 0.000000 0.000000
# 5 0.000000 0.000000 0.000000 0.000000 0.026779 0.000000
# 6 0.000000 0.000000 0.000000 0.000000 0.000000 0.063497
#
#
# Mechanical properties :
#
#
# Convention : Reuss Voigt Hill
#
# Bulk Modulus (GPa) = 27.94289 63.43060 45.68675
# Shear Modulus (GPa) = -25.28093 20.56760 -2.35667
#
# Velocity S-wave (km/s) = -3.75572 3.38757 -1.14669
# Velocity P-wave (km/s) = 1.79348 7.11982 4.87213
#
# Compressibility (1/GPa) = 0.03578728
#
# Stress axis : x y z
#
# Youngs Moduli (GPa) = 68.81161 17.01429 88.69183
#
# Poissons Ratio (x) = 0.12497 0.33751
# Poissons Ratio (y) = 0.50540 1.17490
# Poissons Ratio (z) = 0.26186 0.22539
#
# Static dielectric constant tensor:
#      x y z
#    x 3.561350 0.000000 0.000000 
#    y 0.000000 2.932700 0.000000 
#    z 0.000000 0.000000 3.585860 
# 
# 
# High freq. dielectric constant tensor:
#      x y z
#    x 1.707360 0.000000 0.000000 
#    y 0.000000 1.646460 0.000000 
#    z 0.000000 0.000000 1.712950 
# 
# From -- ./inp_files/21054.got.cif
#   From: 2010.03.12/outbox.cif.g09.slc.cpg/sg51_11_cif.got.tgz:21054.got - 2010.04.16 13:43:02.
