data_PCOD8208310
_publ_section_title
;
Structure prediction by ZEFSAII (Michael W. Deem and Ramdas Pophale) SiO2 
 PCOD8208310
Probable space group: P M M A
;
_chemical_formula_sum "Si O2"
_cell_formula_units_Z 64
_cell_length_a 24.650969
_cell_length_b 9.255661
_cell_length_c 17.718191
_cell_angle_alpha 90.000000
_cell_angle_beta 90.000000
_cell_angle_gamma 90.000000
_cell_volume 4042.600396
_symmetry_space_group_name_H-M "P M M A"
_symmetry_group_IT_number 51
_symmetry_cell_setting 'orthorhombic'
loop_
_space_group_symop_operation_xyz
x,y,z
1/2-x,-y,z
1/2+x,-y,-z
-x,y,-z
-x,-y,-z
1/2+x,y,-z
1/2-x,y,z
x,-y,z
loop_
_atom_site_type_symbol
_atom_site_label
_atom_site_fract_x
_atom_site_fract_y
_atom_site_fract_z
Si Si1 0.814513 0.662440 0.002665
Si Si2 0.003750 0.836701 0.589523
Si Si3 0.685558 0.662104 0.169149
Si Si4 0.814339 0.834723 0.312288
Si Si5 0.890325 0.330525 0.418955
Si Si6 0.311776 0.332016 0.283828
Si Si7 0.185355 0.837886 0.138056
Si Si8 0.100642 0.333251 0.406127
O O1 0.750000 0.666634 0.999507
O O2 0.834982 0.500000 0.987330
O O3 0.838944 0.765262 0.937770
O O4 0.834326 0.713623 0.085951
O O5 0.949815 0.762233 0.622593
O O6 0.000000 0.835627 0.500000
O O7 0.055857 0.744414 0.614927
O O8 0.008481 0.000000 0.620727
O O9 0.750000 0.660365 0.170186
O O10 0.664014 0.500000 0.186009
O O11 0.663685 0.771549 0.232660
O O12 0.750000 0.821734 0.317898
O O13 0.838257 0.740875 0.380307
O O14 0.833677 0.000000 0.318716
O O15 0.892685 0.500000 0.401009
O O16 0.884229 0.299830 0.507664
O O17 0.250000 0.286645 0.302379
O O18 0.315468 0.500000 0.263726
O O19 0.335049 0.246949 0.211761
O O20 0.347227 0.291699 0.356599
O O21 0.250000 0.834195 0.135344
O O22 0.162876 0.000000 0.142150
O O23 0.084028 0.500000 0.396411
#
# Coordination Sequence:
#
# PCOD8208310 Si02
#       8
#     8   8   8   8   8   8   8   8
#     4   8  13  22  37  55  75 103 139 175 210 249
#     4   9  17  30  48  67  86 107 134 174 224 269
#     4   8  14  25  40  57  78 107 143 178 211 250
#     4  10  20  31  42  60  89 121 149 178 215 259
#     4  10  19  31  48  66  85 111 145 184 220 257
#     4   9  17  29  43  59  84 117 148 178 213 253
#     4   9  16  24  35  54  80 109 141 175 210 250
#     4   9  18  31  47  66  85 109 145 185 221 257
#
# _framework density 15.831395000000001
#
# number of rings (size 3 to 8) (size 9 to 14) (size 15 to 20)
#    0.000    3.000    0.000    2.250    0.000    5.750 
#    0.000    3.750    0.000    1.500    0.000    0.000 
#    0.000    1.000    0.000   10.500    0.000    8.000 
#
# Total GULP energy -793385.469411 kJ/mol
# GULP energy per Si atom -12396.647960 kJ/mol
# Density = 1.579536 g / cm^3
# Si number density = 15.831395 Si / 1000 Ang^3
#
#
#
# Elastic Constant Matrix: (Units=GPa)
#
#
# Indices 1 2 3 4 5 6 
#
# 1 42.1697 36.4605 34.2384 0.0000 0.0000 0.0000
# 2 36.4605 109.2389 60.2365 0.0000 0.0000 0.0000
# 3 34.2384 60.2365 95.4151 0.0000 0.0000 0.0000
# 4 0.0000 0.0000 0.0000 21.7446 0.0000 0.0000
# 5 0.0000 0.0000 0.0000 0.0000 2.0322 0.0000
# 6 0.0000 0.0000 0.0000 0.0000 0.0000 20.8156
#
#
#
# Elastic Compliance Matrix: (Units=1/GPa)
#
#
# Indices 1 2 3 4 5 6 
#
# 1 0.037329 -0.007782 -0.008482 0.000000 0.000000 0.000000
# 2 -0.007782 0.015665 -0.007097 0.000000 0.000000 0.000000
# 3 -0.008482 -0.007097 0.018005 0.000000 0.000000 0.000000
# 4 0.000000 0.000000 0.000000 0.045988 0.000000 0.000000
# 5 0.000000 0.000000 0.000000 0.000000 0.492074 0.000000
# 6 0.000000 0.000000 0.000000 0.000000 0.000000 0.048041
#
#
# Mechanical properties :
#
#
# Convention : Reuss Voigt Hill
#
# Bulk Modulus (GPa) = 41.19239 56.52158 48.85699
# Shear Modulus (GPa) = 7.02330 16.64437 11.83383
#
# Velocity S-wave (km/s) = 2.10854 3.24597 2.73700
# Velocity P-wave (km/s) = 5.65719 7.05891 6.39656
#
# Compressibility (1/GPa) = 0.02427633
#
# Stress axis : x y z
#
# Youngs Moduli (GPa) = 26.78885 63.83617 55.54116
#
# Poissons Ratio (x) = 0.49677 0.47111
# Poissons Ratio (y) = 0.20847 0.39418
# Poissons Ratio (z) = 0.22723 0.45305
#
# Static dielectric constant tensor:
#      x y z
#    x 2.646890 0.000000 0.000000 
#    y 0.000000 3.198180 0.000000 
#    z 0.000000 0.000000 3.109100 
# 
# 
# High freq. dielectric constant tensor:
#      x y z
#    x 1.555280 0.000000 0.000000 
#    y 0.000000 1.618150 0.000000 
#    z 0.000000 0.000000 1.602180 
# 
# From -- ./inp_files/30909.got.cif
#   From: 2010.03.12/outbox.cif.g09.slc.cpg/sg51_16_cif.got.tgz:30909.got - 2010.04.16 13:43:02.
