data_PCOD8208821
_publ_section_title
;
Structure prediction by ZEFSAII (Michael W. Deem and Ramdas Pophale) SiO2 
 PCOD8208821
Probable space group: P M M A
;
_chemical_formula_sum "Si O2"
_cell_formula_units_Z 64
_cell_length_a 19.142703
_cell_length_b 8.828432
_cell_length_c 21.673044
_cell_angle_alpha 90.000000
_cell_angle_beta 90.000000
_cell_angle_gamma 90.000000
_cell_volume 3662.745557
_symmetry_space_group_name_H-M "P M M A"
_symmetry_group_IT_number 51
_symmetry_cell_setting 'orthorhombic'
loop_
_space_group_symop_operation_xyz
x,y,z
1/2-x,-y,z
1/2+x,-y,-z
-x,y,-z
-x,-y,-z
1/2+x,y,-z
1/2-x,y,z
x,-y,z
loop_
_atom_site_type_symbol
_atom_site_label
_atom_site_fract_x
_atom_site_fract_y
_atom_site_fract_z
Si Si1 0.915183 0.325804 0.856323
Si Si2 0.674394 0.175613 0.615622
Si Si3 0.029331 0.820706 0.436772
Si Si4 0.020418 0.824411 0.691954
Si Si5 0.670292 0.680108 0.970651
Si Si6 0.831283 0.823635 0.097778
Si Si7 0.564564 0.320754 0.190325
Si Si8 0.380028 0.674524 0.275053
O O1 0.926560 0.500000 0.872374
O O2 0.878293 0.250958 0.915951
O O3 0.862661 0.307310 0.797703
O O4 0.991948 0.258678 0.839996
O O5 0.750000 0.197298 0.581868
O O6 0.609177 0.237841 0.574950
O O7 0.681345 0.271738 0.679539
O O8 0.662028 0.000000 0.631780
O O9 0.000000 0.746992 0.500000
O O10 0.976041 0.777318 0.380768
O O11 0.032582 0.000000 0.443486
O O12 0.070515 0.728974 0.737555
O O13 0.941525 0.791277 0.710609
O O14 0.038501 0.000000 0.700850
O O15 0.750000 0.732080 0.958580
O O16 0.665510 0.500000 0.974295
O O17 0.641970 0.748650 0.034425
O O18 0.750000 0.789397 0.107816
O O19 0.870706 0.750292 0.155015
O O20 0.847810 0.000000 0.094911
O O21 0.568543 0.500000 0.187307
O O22 0.402004 0.500000 0.287958
#
# Coordination Sequence:
#
# PCOD8208821 Si02
#       8
#     8   8   8   8   8   8   8   8
#     4   8  16  29  45  68  94 120 153 191 227 269
#     4   9  17  28  42  63  91 121 155 196 237 276
#     4   8  14  26  46  69  92 123 160 192 226 274
#     4   9  16  28  47  70  96 122 149 187 232 272
#     4   9  17  31  49  65  86 120 158 192 230 280
#     4  10  21  36  51  68  91 117 151 198 248 294
#     4  10  19  32  51  72  95 123 156 194 234 280
#     4   9  16  27  43  64  91 122 155 188 225 272
#
# _framework density 17.473230000000001
#
# number of rings (size 3 to 8) (size 9 to 14) (size 15 to 20)
#    0.000    3.000    0.000    3.000    0.000    2.000 
#    0.000    7.500    0.000   11.625    0.000    3.500 
#    0.000    0.000    0.000    0.000    0.000    0.000 
#
# Total GULP energy -792844.467572 kJ/mol
# GULP energy per Si atom -12388.194806 kJ/mol
# Density = 1.743346 g / cm^3
# Si number density = 17.473230 Si / 1000 Ang^3
#
#
#
# Elastic Constant Matrix: (Units=GPa)
#
#
# Indices 1 2 3 4 5 6 
#
# 1 68.4846 23.8002 60.2665 0.0000 0.0000 0.0000
# 2 23.8002 28.9524 27.6859 0.0000 0.0000 0.0000
# 3 60.2665 27.6859 140.6656 0.0000 0.0000 0.0000
# 4 0.0000 0.0000 0.0000 21.4046 0.0000 0.0000
# 5 0.0000 0.0000 0.0000 0.0000 23.0121 0.0000
# 6 0.0000 0.0000 0.0000 0.0000 0.0000 17.1634
#
#
#
# Elastic Compliance Matrix: (Units=1/GPa)
#
#
# Indices 1 2 3 4 5 6 
#
# 1 0.027322 -0.013878 -0.008974 0.000000 0.000000 0.000000
# 2 -0.013878 0.049597 -0.003816 0.000000 0.000000 0.000000
# 3 -0.008974 -0.003816 0.011705 0.000000 0.000000 0.000000
# 4 0.000000 0.000000 0.000000 0.046719 0.000000 0.000000
# 5 0.000000 0.000000 0.000000 0.000000 0.043455 0.000000
# 6 0.000000 0.000000 0.000000 0.000000 0.000000 0.058263
#
#
# Mechanical properties :
#
#
# Convention : Reuss Voigt Hill
#
# Bulk Modulus (GPa) = 28.33877 51.28977 39.81427
# Shear Modulus (GPa) = 16.54745 20.73937 18.64341
#
# Velocity S-wave (km/s) = 3.08070 3.44891 3.26999
# Velocity P-wave (km/s) = 5.37661 6.72882 6.09036
#
# Compressibility (1/GPa) = 0.03528735
#
# Stress axis : x y z
#
# Youngs Moduli (GPa) = 36.60001 20.16258 85.43335
#
# Poissons Ratio (x) = 0.27982 0.76671
# Poissons Ratio (y) = 0.50795 0.32598
# Poissons Ratio (z) = 0.32846 0.07693
#
# Static dielectric constant tensor:
#      x y z
#    x 3.199080 0.000000 0.000000 
#    y 0.000000 3.096640 0.000000 
#    z 0.000000 0.000000 3.605510 
# 
# 
# High freq. dielectric constant tensor:
#      x y z
#    x 1.648780 0.000000 0.000000 
#    y 0.000000 1.657540 0.000000 
#    z 0.000000 0.000000 1.673040 
# 
# From -- ./inp_files/34113.got.cif
#   From: 2010.03.12/outbox.cif.g09.slc.cpg/sg51_18_cif.got.tgz:34113.got - 2010.04.16 13:43:02.
