data_PCOD8208466
_publ_section_title
;
Structure prediction by ZEFSAII (Michael W. Deem and Ramdas Pophale) SiO2 
 PCOD8208466
Probable space group: P M M A
;
_chemical_formula_sum "Si O2"
_cell_formula_units_Z 48
_cell_length_a 16.403288
_cell_length_b 9.233928
_cell_length_c 18.292641
_cell_angle_alpha 90.000000
_cell_angle_beta 90.000000
_cell_angle_gamma 90.000000
_cell_volume 2770.727436
_symmetry_space_group_name_H-M "P M M A"
_symmetry_group_IT_number 51
_symmetry_cell_setting 'orthorhombic'
loop_
_space_group_symop_operation_xyz
x,y,z
1/2-x,-y,z
1/2+x,-y,-z
-x,y,-z
-x,-y,-z
1/2+x,y,-z
1/2-x,y,z
x,-y,z
loop_
_atom_site_type_symbol
_atom_site_label
_atom_site_fract_x
_atom_site_fract_y
_atom_site_fract_z
Si Si1 0.420578 0.659089 0.950588
Si Si2 0.083895 0.840741 0.456751
Si Si3 0.658313 0.330294 0.906829
Si Si4 0.156287 0.333551 0.579365
Si Si5 0.476024 0.829781 0.670114
Si Si6 0.010506 0.829338 0.164494
O O1 0.400517 0.500000 0.917450
O O2 0.435513 0.771488 0.884975
O O3 0.500000 0.649057 0.000000
O O4 0.349924 0.710825 0.006682
O O5 0.144054 0.730332 0.497494
O O6 0.000000 0.850257 0.500000
O O7 0.058418 0.788253 0.375165
O O8 0.125343 0.000000 0.454149
O O9 0.750000 0.293386 0.881782
O O10 0.638068 0.500000 0.896896
O O11 0.596863 0.239944 0.856778
O O12 0.250000 0.315403 0.602105
O O13 0.129470 0.500000 0.577013
O O14 0.103052 0.252681 0.640122
O O15 0.490681 0.783879 0.753108
O O16 0.458301 0.000000 0.661716
O O17 0.017129 0.000000 0.154015
#
# Coordination Sequence:
#
# PCOD8208466 Si02
#       6
#     8   8   8   8   8   8
#     4   8  15  29  48  68  91 122 158 191 227 278
#     4   8  15  30  50  68  88 120 159 190 223 277
#     4   9  18  33  51  70  94 126 162 197 236 285
#     4  10  20  32  48  73  99 121 154 201 244 279
#     4   9  19  34  50  70  97 129 162 192 230 286
#     4  10  19  31  49  73  99 125 157 199 240 279
#
# _framework density 17.323969999999999
#
# number of rings (size 3 to 8) (size 9 to 14) (size 15 to 20)
#    0.000    3.000    0.000    3.000    0.000    9.000 
#    0.000    1.667    0.000    8.000    0.000    0.000 
#    0.000    0.000    0.000    0.000    0.000    0.000 
#
# Total GULP energy -594892.575887 kJ/mol
# GULP energy per Si atom -12393.595331 kJ/mol
# Density = 1.728454 g / cm^3
# Si number density = 17.323970 Si / 1000 Ang^3
#
#
#
# Elastic Constant Matrix: (Units=GPa)
#
#
# Indices 1 2 3 4 5 6 
#
# 1 69.0864 47.0801 42.9085 0.0000 0.0000 0.0000
# 2 47.0801 91.1566 63.9716 0.0000 0.0000 0.0000
# 3 42.9085 63.9716 132.4822 0.0000 0.0000 0.0000
# 4 0.0000 0.0000 0.0000 15.6899 0.0000 0.0000
# 5 0.0000 0.0000 0.0000 0.0000 18.8241 0.0000
# 6 0.0000 0.0000 0.0000 0.0000 0.0000 18.1266
#
#
#
# Elastic Compliance Matrix: (Units=1/GPa)
#
#
# Indices 1 2 3 4 5 6 
#
# 1 0.022905 -0.010019 -0.002581 0.000000 0.000000 0.000000
# 2 -0.010019 0.020975 -0.006883 0.000000 0.000000 0.000000
# 3 -0.002581 -0.006883 0.011708 0.000000 0.000000 0.000000
# 4 0.000000 0.000000 0.000000 0.063735 0.000000 0.000000
# 5 0.000000 0.000000 0.000000 0.000000 0.053123 0.000000
# 6 0.000000 0.000000 0.000000 0.000000 0.000000 0.055168
#
#
# Mechanical properties :
#
#
# Convention : Reuss Voigt Hill
#
# Bulk Modulus (GPa) = 60.16052 66.73839 63.44946
# Shear Modulus (GPa) = 18.37422 19.77912 19.07667
#
# Velocity S-wave (km/s) = 3.26026 3.38260 3.32199
# Velocity P-wave (km/s) = 6.99818 7.33916 7.17070
#
# Compressibility (1/GPa) = 0.01662220
#
# Stress axis : x y z
#
# Youngs Moduli (GPa) = 43.65878 47.67553 85.41306
#
# Poissons Ratio (x) = 0.47765 0.22043
# Poissons Ratio (y) = 0.43740 0.58793
# Poissons Ratio (z) = 0.11267 0.32817
#
# Static dielectric constant tensor:
#      x y z
#    x 3.260560 0.000000 0.000000 
#    y 0.000000 3.247170 0.000000 
#    z 0.000000 0.000000 3.531030 
# 
# 
# High freq. dielectric constant tensor:
#      x y z
#    x 1.646440 0.000000 0.000000 
#    y 0.000000 1.669340 0.000000 
#    z 0.000000 0.000000 1.662100 
# 
# From -- ./inp_files/30076.got.cif
#   From: 2010.03.12/outbox.cif.g09.slc.cpg/sg51_16_cif.got.tgz:30076.got - 2010.04.16 13:43:02.
