data_PCOD8208762
_publ_section_title
;
Structure prediction by ZEFSAII (Michael W. Deem and Ramdas Pophale) SiO2 
 PCOD8208762
Probable space group: P M M A
;
_chemical_formula_sum "Si O2"
_cell_formula_units_Z 56
_cell_length_a 17.748819
_cell_length_b 9.472929
_cell_length_c 19.068242
_cell_angle_alpha 90.000000
_cell_angle_beta 90.000000
_cell_angle_gamma 90.000000
_cell_volume 3206.006495
_symmetry_space_group_name_H-M "P M M A"
_symmetry_group_IT_number 51
_symmetry_cell_setting 'orthorhombic'
loop_
_space_group_symop_operation_xyz
x,y,z
1/2-x,-y,z
1/2+x,-y,-z
-x,y,-z
-x,-y,-z
1/2+x,y,-z
1/2-x,y,z
x,-y,z
loop_
_atom_site_type_symbol
_atom_site_label
_atom_site_fract_x
_atom_site_fract_y
_atom_site_fract_z
Si Si1 0.335171 0.165961 0.665821
Si Si2 0.970126 0.337487 0.294495
Si Si3 0.836829 0.844208 0.492903
Si Si4 0.434007 0.845639 0.944467
Si Si5 0.448087 0.337924 0.433279
Si Si6 0.836880 0.165988 0.930093
Si Si7 0.035111 0.663890 0.145847
O O1 0.250000 0.202822 0.689477
O O2 0.393231 0.248993 0.715649
O O3 0.348298 0.216405 0.585639
O O4 0.349372 0.000000 0.672786
O O5 0.946704 0.500000 0.304363
O O6 0.013178 0.279408 0.362989
O O7 0.025900 0.318127 0.228997
O O8 0.750000 0.853507 0.511149
O O9 0.871789 0.745942 0.552568
O O10 0.873301 0.000000 0.497388
O O11 0.458684 0.728332 0.888263
O O12 0.421320 0.000000 0.908429
O O13 0.500000 0.860733 0.000000
O O14 0.359750 0.800354 0.988838
O O15 0.500000 0.310600 0.500000
O O16 0.426581 0.500000 0.423366
O O17 0.750000 0.209990 0.918945
O O18 0.889079 0.255133 0.877033
O O19 0.849394 0.000000 0.914584
O O20 0.041354 0.500000 0.123825
#
# Coordination Sequence:
#
# PCOD8208762 Si02
#       7
#     8   8   8   8   8   8   8
#     4   9  18  32  50  72  95 121 159 207 257 308
#     4  10  21  35  49  71 103 137 171 209 252 300
#     4   9  18  32  49  71  97 121 153 206 266 312
#     4   8  15  30  52  75  99 127 161 200 240 284
#     4  10  19  32  50  71  94 126 172 215 249 298
#     4   9  18  34  56  80 104 132 168 207 244 288
#     4  10  20  33  50  74 106 139 169 205 250 297
#
# _framework density 17.467213999999998
#
# number of rings (size 3 to 8) (size 9 to 14) (size 15 to 20)
#    0.000    2.714    1.429    2.143    0.000    5.429 
#    0.000    2.857    0.000    6.857    0.000    0.000 
#    0.000    0.000    0.000    0.000    0.000    0.000 
#
# Total GULP energy -694165.923097 kJ/mol
# GULP energy per Si atom -12395.820055 kJ/mol
# Density = 1.742746 g / cm^3
# Si number density = 17.467214 Si / 1000 Ang^3
#
#
#
# Elastic Constant Matrix: (Units=GPa)
#
#
# Indices 1 2 3 4 5 6 
#
# 1 99.4737 52.3703 40.3985 0.0000 0.0000 0.0000
# 2 52.3703 75.4720 39.8879 0.0000 0.0000 0.0000
# 3 40.3985 39.8879 74.5285 0.0000 0.0000 0.0000
# 4 0.0000 0.0000 0.0000 23.0992 0.0000 0.0000
# 5 0.0000 0.0000 0.0000 0.0000 22.9274 0.0000
# 6 0.0000 0.0000 0.0000 0.0000 0.0000 34.0697
#
#
#
# Elastic Compliance Matrix: (Units=1/GPa)
#
#
# Indices 1 2 3 4 5 6 
#
# 1 0.016637 -0.009452 -0.003960 0.000000 0.000000 0.000000
# 2 -0.009452 0.023846 -0.007639 0.000000 0.000000 0.000000
# 3 -0.003960 -0.007639 0.019652 0.000000 0.000000 0.000000
# 4 0.000000 0.000000 0.000000 0.043292 0.000000 0.000000
# 5 0.000000 0.000000 0.000000 0.000000 0.043616 0.000000
# 6 0.000000 0.000000 0.000000 0.000000 0.000000 0.029352
#
#
# Mechanical properties :
#
#
# Convention : Reuss Voigt Hill
#
# Bulk Modulus (GPa) = 55.44892 57.19862 56.32377
# Shear Modulus (GPa) = 22.27103 23.80710 23.03907
#
# Velocity S-wave (km/s) = 3.57462 3.69583 3.63573
# Velocity P-wave (km/s) = 6.98932 7.14350 7.06683
#
# Compressibility (1/GPa) = 0.01803462
#
# Stress axis : x y z
#
# Youngs Moduli (GPa) = 60.10644 41.93588 50.88440
#
# Poissons Ratio (x) = 0.39637 0.20148
# Poissons Ratio (y) = 0.56812 0.38870
# Poissons Ratio (z) = 0.23800 0.32035
#
# Static dielectric constant tensor:
#      x y z
#    x 3.293010 0.000000 0.000000 
#    y 0.000000 3.259620 0.000000 
#    z 0.000000 0.000000 3.156860 
# 
# 
# High freq. dielectric constant tensor:
#      x y z
#    x 1.666350 0.000000 0.000000 
#    y 0.000000 1.674910 0.000000 
#    z 0.000000 0.000000 1.653390 
# 
# From -- ./inp_files/33674.got.cif
#   From: 2010.03.12/outbox.cif.g09.slc.cpg/sg51_17_cif.got.tgz:33674.got - 2010.04.16 13:43:02.
