data_PCOD8208133
_publ_section_title
;
Structure prediction by ZEFSAII (Michael W. Deem and Ramdas Pophale) SiO2 
 PCOD8208133
Probable space group: P M M A
;
_chemical_formula_sum "Si O2"
_cell_formula_units_Z 48
_cell_length_a 17.799274
_cell_length_b 15.242074
_cell_length_c 9.587242
_cell_angle_alpha 90.000000
_cell_angle_beta 90.000000
_cell_angle_gamma 90.000000
_cell_volume 2600.998156
_symmetry_space_group_name_H-M "P M M A"
_symmetry_group_IT_number 51
_symmetry_cell_setting 'orthorhombic'
loop_
_space_group_symop_operation_xyz
x,y,z
1/2-x,-y,z
1/2+x,-y,-z
-x,y,-z
-x,-y,-z
1/2+x,y,-z
1/2-x,y,z
x,-y,z
loop_
_atom_site_type_symbol
_atom_site_label
_atom_site_fract_x
_atom_site_fract_y
_atom_site_fract_z
Si Si1 0.160706 0.902632 0.998935
Si Si2 0.160869 0.747678 0.496952
Si Si3 0.837477 0.399898 0.293644
Si Si4 0.412688 0.398131 0.994186
Si Si5 0.160439 0.742899 0.183169
Si Si6 0.160629 0.097347 0.686160
O O1 0.250000 0.900857 0.001247
O O2 0.128866 0.829176 0.103882
O O3 0.132801 0.000000 0.044860
O O4 0.131809 0.881515 0.842594
O O5 0.250000 0.754574 0.491399
O O6 0.135926 0.659444 0.577008
O O7 0.128641 0.745919 0.340600
O O8 0.127025 0.831835 0.578419
O O9 0.750000 0.385406 0.260132
O O10 0.855047 0.500000 0.334825
O O11 0.882448 0.370276 0.157099
O O12 0.396213 0.500000 0.023550
O O13 0.369747 0.344904 0.112724
O O14 0.500000 0.375875 0.000000
O O15 0.250000 0.740060 0.180102
O O16 0.250000 0.102274 0.685809
O O17 0.134162 0.000000 0.640417
#
# Coordination Sequence:
#
# PCOD8208133 Si02
#       6
#     8   8   8   8   8   8
#     4   8  14  25  43  69  99 129 161 196 233 274
#     4   9  17  27  42  69 100 126 154 190 234 282
#     4   9  17  31  51  71  92 122 157 191 231 283
#     4  10  21  36  52  70  93 123 161 203 244 287
#     4  10  19  30  48  74 101 127 156 197 244 284
#     4   8  13  22  37  59  91 128 158 185 223 273
#
# _framework density 18.454453999999998
#
# number of rings (size 3 to 8) (size 9 to 14) (size 15 to 20)
#    0.000    3.000    0.000    2.500    0.000    5.000 
#    0.000    5.833    0.000    3.500    0.000    0.000 
#    0.000    5.333    0.000    0.000    0.000    0.000 
#
# Total GULP energy -595059.284565 kJ/mol
# GULP energy per Si atom -12397.068428 kJ/mol
# Density = 1.841245 g / cm^3
# Si number density = 18.454454 Si / 1000 Ang^3
#
#
#
# Elastic Constant Matrix: (Units=GPa)
#
#
# Indices 1 2 3 4 5 6 
#
# 1 18.3771 21.1986 22.4031 0.0000 0.0000 0.0000
# 2 21.1986 134.6143 101.0948 0.0000 0.0000 0.0000
# 3 22.4031 101.0948 168.0279 0.0000 0.0000 0.0000
# 4 0.0000 0.0000 0.0000 23.8852 0.0000 0.0000
# 5 0.0000 0.0000 0.0000 0.0000 4.6257 0.0000
# 6 0.0000 0.0000 0.0000 0.0000 0.0000 7.6865
#
#
#
# Elastic Compliance Matrix: (Units=1/GPa)
#
#
# Indices 1 2 3 4 5 6 
#
# 1 0.068575 -0.007174 -0.004827 0.000000 0.000000 0.000000
# 2 -0.007174 0.014302 -0.007649 0.000000 0.000000 0.000000
# 3 -0.004827 -0.007649 0.011197 0.000000 0.000000 0.000000
# 4 0.000000 0.000000 0.000000 0.041867 0.000000 0.000000
# 5 0.000000 0.000000 0.000000 0.000000 0.216182 0.000000
# 6 0.000000 0.000000 0.000000 0.000000 0.000000 0.130098
#
#
# Mechanical properties :
#
#
# Convention : Reuss Voigt Hill
#
# Bulk Modulus (GPa) = 18.25633 67.82356 43.03995
# Shear Modulus (GPa) = 9.26305 18.99434 14.12869
#
# Velocity S-wave (km/s) = 2.24283 3.21168 2.76995
# Velocity P-wave (km/s) = 4.07691 7.11230 5.79681
#
# Compressibility (1/GPa) = 0.05477552
#
# Stress axis : x y z
#
# Youngs Moduli (GPa) = 14.58251 69.91791 89.31137
#
# Poissons Ratio (x) = 0.50160 0.43108
# Poissons Ratio (y) = 0.10462 0.68311
# Poissons Ratio (z) = 0.07039 0.53478
#
# Static dielectric constant tensor:
#      x y z
#    x 2.812760 0.000000 0.000000 
#    y 0.000000 3.679150 0.000000 
#    z 0.000000 0.000000 3.619300 
# 
# 
# High freq. dielectric constant tensor:
#      x y z
#    x 1.650860 0.000000 0.000000 
#    y 0.000000 1.731860 0.000000 
#    z 0.000000 0.000000 1.717740 
# 
# From -- ./inp_files/9609.got.cif
#   From: 2010.03.12/outbox.cif.g09.slc.cpg/sg51_5_cif.got.tgz:9609.got - 2010.04.16 13:43:02.
