data_PCOD8208344
_publ_section_title
;
Structure prediction by ZEFSAII (Michael W. Deem and Ramdas Pophale) SiO2 
 PCOD8208344
Probable space group: P M M A
;
_chemical_formula_sum "Si O2"
_cell_formula_units_Z 48
_cell_length_a 8.707509
_cell_length_b 18.448603
_cell_length_c 16.881406
_cell_angle_alpha 90.000000
_cell_angle_beta 90.000000
_cell_angle_gamma 90.000000
_cell_volume 2711.852300
_symmetry_space_group_name_H-M "P M M A"
_symmetry_group_IT_number 51
_symmetry_cell_setting 'orthorhombic'
loop_
_space_group_symop_operation_xyz
x,y,z
1/2-x,-y,z
1/2+x,-y,-z
-x,y,-z
-x,-y,-z
1/2+x,y,-z
1/2-x,y,z
x,-y,z
loop_
_atom_site_type_symbol
_atom_site_label
_atom_site_fract_x
_atom_site_fract_y
_atom_site_fract_z
Si Si1 0.068214 0.327107 0.915804
Si Si2 0.582363 0.295243 0.671437
Si Si3 0.566406 0.582703 0.775667
Si Si4 0.920064 0.200654 0.828105
Si Si5 0.427310 0.083954 0.729884
Si Si6 0.566483 0.161619 0.584050
O O1 0.250000 0.328162 0.918753
O O2 0.010458 0.388166 0.855137
O O3 0.012796 0.246197 0.893461
O O4 0.000000 0.349405 0.000000
O O5 0.750000 0.314649 0.637576
O O6 0.502795 0.370878 0.699006
O O7 0.596462 0.247986 0.750066
O O8 0.500102 0.242833 0.606825
O O9 0.750000 0.592485 0.782947
O O10 0.517976 0.500000 0.762064
O O11 0.750000 0.182255 0.861220
O O12 0.008100 0.126724 0.806140
O O13 0.250000 0.104026 0.718154
O O14 0.514656 0.103353 0.648774
O O15 0.452906 0.000000 0.748019
O O16 0.500000 0.137646 0.500000
O O17 0.750000 0.162998 0.582190
#
# Coordination Sequence:
#
# PCOD8208344 Si02
#       6
#     8   8   8   8   8   8
#     4  11  21  33  50  72 100 131 164 202 244 290
#     4   7  13  27  46  67  89 118 157 198 238 283
#     4   9  17  31  51  73  97 126 162 204 249 296
#     4   9  17  32  52  72  95 125 164 202 238 284
#     4  10  20  33  50  74 102 130 161 197 240 291
#     4  10  19  31  48  69  96 129 166 207 250 295
#
# _framework density 17.700078999999999
#
# number of rings (size 3 to 8) (size 9 to 14) (size 15 to 20)
#    0.000    2.667    0.000    5.000    0.000    2.333 
#    0.000    0.833    0.000    1.000    0.000    0.000 
#    0.000    0.000    0.000    0.000    0.000    0.500 
#
# Total GULP energy -594734.955638 kJ/mol
# GULP energy per Si atom -12390.311576 kJ/mol
# Density = 1.765979 g / cm^3
# Si number density = 17.700079 Si / 1000 Ang^3
#
#
#
# Elastic Constant Matrix: (Units=GPa)
#
#
# Indices 1 2 3 4 5 6 
#
# 1 89.5869 36.2757 10.4367 0.0000 0.0000 0.0000
# 2 36.2757 110.5828 12.9437 0.0000 0.0000 0.0000
# 3 10.4367 12.9437 10.0286 0.0000 0.0000 0.0000
# 4 0.0000 0.0000 0.0000 18.0555 0.0000 0.0000
# 5 0.0000 0.0000 0.0000 0.0000 21.3095 0.0000
# 6 0.0000 0.0000 0.0000 0.0000 0.0000 23.9507
#
#
#
# Elastic Compliance Matrix: (Units=1/GPa)
#
#
# Indices 1 2 3 4 5 6 
#
# 1 0.013664 -0.003319 -0.009936 0.000000 0.000000 0.000000
# 2 -0.003319 0.011459 -0.011335 0.000000 0.000000 0.000000
# 3 -0.009936 -0.011335 0.124684 0.000000 0.000000 0.000000
# 4 0.000000 0.000000 0.000000 0.055385 0.000000 0.000000
# 5 0.000000 0.000000 0.000000 0.000000 0.046927 0.000000
# 6 0.000000 0.000000 0.000000 0.000000 0.000000 0.041752
#
#
# Mechanical properties :
#
#
# Convention : Reuss Voigt Hill
#
# Bulk Modulus (GPa) = 9.93772 36.61230 23.27501
# Shear Modulus (GPa) = 13.27691 22.69930 17.98811
#
# Velocity S-wave (km/s) = 2.74178 3.58500 3.19136
# Velocity P-wave (km/s) = 3.95598 6.15354 5.17281
#
# Compressibility (1/GPa) = 0.10062675
#
# Stress axis : x y z
#
# Youngs Moduli (GPa) = 73.18553 87.27031 8.02026
#
# Poissons Ratio (x) = 0.28968 0.07969
# Poissons Ratio (y) = 0.24293 0.09091
# Poissons Ratio (z) = 0.72715 0.98921
#
# Static dielectric constant tensor:
#      x y z
#    x 3.277240 0.000000 0.000000 
#    y 0.000000 3.490260 0.000000 
#    z 0.000000 0.000000 3.229420 
# 
# 
# High freq. dielectric constant tensor:
#      x y z
#    x 1.679980 0.000000 0.000000 
#    y 0.000000 1.681250 0.000000 
#    z 0.000000 0.000000 1.657160 
# 
# From -- ./inp_files/27846.got.cif
#   From: 2010.03.12/outbox.cif.g09.slc.cpg/sg51_14_cif.got.tgz:27846.got - 2010.04.16 13:43:02.
