data_PCOD8208862
_publ_section_title
;
Structure prediction by ZEFSAII (Michael W. Deem and Ramdas Pophale) SiO2 
 PCOD8208862
Probable space group: P M M A
;
_chemical_formula_sum "Si O2"
_cell_formula_units_Z 56
_cell_length_a 8.886112
_cell_length_b 19.239213
_cell_length_c 18.576081
_cell_angle_alpha 90.000000
_cell_angle_beta 90.000000
_cell_angle_gamma 90.000000
_cell_volume 3175.800273
_symmetry_space_group_name_H-M "P M M A"
_symmetry_group_IT_number 51
_symmetry_cell_setting 'orthorhombic'
loop_
_space_group_symop_operation_xyz
x,y,z
1/2-x,-y,z
1/2+x,-y,-z
-x,y,-z
-x,-y,-z
1/2+x,y,-z
1/2-x,y,z
x,-y,z
loop_
_atom_site_type_symbol
_atom_site_label
_atom_site_fract_x
_atom_site_fract_y
_atom_site_fract_z
Si Si1 0.423283 0.078367 0.706842
Si Si2 0.428772 0.284349 0.075804
Si Si3 0.425223 0.852426 0.424998
Si Si4 0.426335 0.722013 0.337301
Si Si5 0.572310 0.425803 0.690014
Si Si6 0.425810 0.791238 0.796202
Si Si7 0.928296 0.576201 0.852128
O O1 0.250000 0.088140 0.684550
O O2 0.520319 0.095363 0.636524
O O3 0.463085 0.129299 0.773146
O O4 0.458609 0.000000 0.732042
O O5 0.250000 0.282776 0.070277
O O6 0.481583 0.226047 0.132257
O O7 0.491122 0.360754 0.099257
O O8 0.500000 0.264499 0.000000
O O9 0.500000 0.871766 0.500000
O O10 0.250000 0.862899 0.434728
O O11 0.466274 0.772756 0.403431
O O12 0.250000 0.728294 0.317052
O O13 0.471000 0.642029 0.357735
O O14 0.522679 0.741129 0.267811
O O15 0.750000 0.431688 0.694212
O O16 0.509251 0.500000 0.658656
O O17 0.509877 0.414999 0.770935
O O18 0.250000 0.780110 0.810999
O O19 0.750000 0.581226 0.851337
O O20 0.979095 0.500000 0.882280
#
# Coordination Sequence:
#
# PCOD8208862 Si02
#       7
#     8   8   8   8   8   8   8
#     4   9  19  36  57  79 102 128 157 192 236 285
#     4  11  21  33  49  69  97 131 167 206 245 287
#     4  10  20  32  49  74 105 136 166 196 233 282
#     4   9  16  29  49  71  93 125 166 205 241 282
#     4   8  12  21  42  69  91 115 156 207 250 285
#     4  10  19  32  51  74  98 124 157 196 240 290
#     4   8  14  25  43  66  92 124 160 200 246 290
#
# _framework density 17.63335
#
# number of rings (size 3 to 8) (size 9 to 14) (size 15 to 20)
#    0.000    2.714    1.429    2.143    0.000    2.000 
#    0.000    0.000    0.000    3.429    0.000    0.000 
#    0.000    0.000    0.000    0.000    0.000    0.429 
#
# Total GULP energy -693961.697152 kJ/mol
# GULP energy per Si atom -12392.173163 kJ/mol
# Density = 1.759322 g / cm^3
# Si number density = 17.633350 Si / 1000 Ang^3
#
#
#
# Elastic Constant Matrix: (Units=GPa)
#
#
# Indices 1 2 3 4 5 6 
#
# 1 49.0684 28.9666 27.9954 0.0000 0.0000 0.0000
# 2 28.9666 136.6548 38.0035 0.0000 0.0000 0.0000
# 3 27.9954 38.0035 69.4028 0.0000 0.0000 0.0000
# 4 0.0000 0.0000 0.0000 16.3936 0.0000 0.0000
# 5 0.0000 0.0000 0.0000 0.0000 23.1565 0.0000
# 6 0.0000 0.0000 0.0000 0.0000 0.0000 17.0317
#
#
#
# Elastic Compliance Matrix: (Units=1/GPa)
#
#
# Indices 1 2 3 4 5 6 
#
# 1 0.027647 -0.003255 -0.009370 0.000000 0.000000 0.000000
# 2 -0.003255 0.009015 -0.003624 0.000000 0.000000 0.000000
# 3 -0.009370 -0.003624 0.020173 0.000000 0.000000 0.000000
# 4 0.000000 0.000000 0.000000 0.060999 0.000000 0.000000
# 5 0.000000 0.000000 0.000000 0.000000 0.043184 0.000000
# 6 0.000000 0.000000 0.000000 0.000000 0.000000 0.058714
#
#
# Mechanical properties :
#
#
# Convention : Reuss Voigt Hill
#
# Bulk Modulus (GPa) = 41.08769 49.45077 45.26923
# Shear Modulus (GPa) = 19.20551 21.99374 20.59962
#
# Velocity S-wave (km/s) = 3.30382 3.53552 3.42163
# Velocity P-wave (km/s) = 6.15673 6.69113 6.42949
#
# Compressibility (1/GPa) = 0.02433819
#
# Stress axis : x y z
#
# Youngs Moduli (GPa) = 36.17041 110.92203 49.57214
#
# Poissons Ratio (x) = 0.36100 0.46449
# Poissons Ratio (y) = 0.11772 0.17964
# Poissons Ratio (z) = 0.33892 0.40196
#
# Static dielectric constant tensor:
#      x y z
#    x 3.068650 0.000000 0.000000 
#    y 0.000000 3.678180 0.000000 
#    z 0.000000 0.000000 3.031890 
# 
# 
# High freq. dielectric constant tensor:
#      x y z
#    x 1.661260 0.000000 0.000000 
#    y 0.000000 1.691730 0.000000 
#    z 0.000000 0.000000 1.646930 
# 
# From -- ./inp_files/28266.got.cif
#   From: 2010.03.12/outbox.cif.g09.slc.cpg/sg51_15_cif.got.tgz:28266.got - 2010.04.16 13:43:02.
