data_PCOD8208566
_publ_section_title
;
Structure prediction by ZEFSAII (Michael W. Deem and Ramdas Pophale) SiO2 
 PCOD8208566
Probable space group: P M M A
;
_chemical_formula_sum "Si O2"
_cell_formula_units_Z 64
_cell_length_a 18.139956
_cell_length_b 8.747766
_cell_length_c 21.717541
_cell_angle_alpha 90.000000
_cell_angle_beta 90.000000
_cell_angle_gamma 90.000000
_cell_volume 3446.228238
_symmetry_space_group_name_H-M "P M M A"
_symmetry_group_IT_number 51
_symmetry_cell_setting 'orthorhombic'
loop_
_space_group_symop_operation_xyz
x,y,z
1/2-x,-y,z
1/2+x,-y,-z
-x,y,-z
-x,-y,-z
1/2+x,y,-z
1/2-x,y,z
x,-y,z
loop_
_atom_site_type_symbol
_atom_site_label
_atom_site_fract_x
_atom_site_fract_y
_atom_site_fract_z
Si Si1 0.833000 0.818317 0.506174
Si Si2 0.949683 0.179894 0.181914
Si Si3 0.334651 0.320787 0.735879
Si Si4 0.416611 0.678650 0.249157
Si Si5 0.976762 0.318120 0.933019
Si Si6 0.419384 0.178172 0.375270
Si Si7 0.408692 0.178378 0.618521
Si Si8 0.669202 0.320330 0.870273
O O1 0.750000 0.754193 0.507216
O O2 0.875901 0.756120 0.565895
O O3 0.872952 0.760656 0.444585
O O4 0.834277 0.000000 0.507183
O O5 0.870256 0.234298 0.205857
O O6 0.009420 0.229751 0.232709
O O7 0.964899 0.255044 0.115855
O O8 0.951127 0.000000 0.174392
O O9 0.250000 0.270135 0.732264
O O10 0.343572 0.500000 0.746464
O O11 0.374341 0.275453 0.673066
O O12 0.435722 0.500000 0.247837
O O13 0.389197 0.730870 0.316003
O O14 0.353112 0.718641 0.199870
O O15 0.979134 0.500000 0.929485
O O16 0.894143 0.257395 0.916529
O O17 0.000000 0.257154 0.000000
O O18 0.504964 0.210281 0.386174
O O19 0.403285 0.000000 0.364974
O O20 0.391802 0.000000 0.630118
O O21 0.750000 0.246615 0.884151
O O22 0.674940 0.500000 0.879304
#
# Coordination Sequence:
#
# PCOD8208566 Si02
#       8
#     8   8   8   8   8   8   8   8
#     4   9  18  32  49  71 102 139 179 223 270 323
#     4  11  21  35  56  80 108 141 178 219 263 318
#     4  11  23  37  55  80 109 139 174 222 276 325
#     4  10  19  32  52  76 104 137 174 219 269 323
#     4   9  18  34  57  83 112 148 187 224 265 314
#     4  10  19  31  50  76 102 134 177 221 268 322
#     4  10  19  33  54  76 100 136 181 224 266 323
#     4   8  15  29  50  76 105 139 179 219 259 307
#
# _framework density 18.571027000000001
#
# number of rings (size 3 to 8) (size 9 to 14) (size 15 to 20)
#    0.000    2.250    1.250    3.375    0.000    3.750 
#    0.000    1.250    0.000   13.500    0.000    0.000 
#    0.000    0.000    0.000    0.000    0.000    0.000 
#
# Total GULP energy -793618.303222 kJ/mol
# GULP energy per Si atom -12400.285988 kJ/mol
# Density = 1.852876 g / cm^3
# Si number density = 18.571027 Si / 1000 Ang^3
#
#
#
# Elastic Constant Matrix: (Units=GPa)
#
#
# Indices 1 2 3 4 5 6 
#
# 1 115.6827 19.9535 66.1374 0.0000 0.0000 0.0000
# 2 19.9535 31.0663 22.2164 0.0000 0.0000 0.0000
# 3 66.1374 22.2164 152.2489 0.0000 0.0000 0.0000
# 4 0.0000 0.0000 0.0000 28.6485 0.0000 0.0000
# 5 0.0000 0.0000 0.0000 0.0000 22.2207 0.0000
# 6 0.0000 0.0000 0.0000 0.0000 0.0000 13.6474
#
#
#
# Elastic Compliance Matrix: (Units=1/GPa)
#
#
# Indices 1 2 3 4 5 6 
#
# 1 0.012028 -0.004454 -0.004575 0.000000 0.000000 0.000000
# 2 -0.004454 0.037589 -0.003550 0.000000 0.000000 0.000000
# 3 -0.004575 -0.003550 0.009074 0.000000 0.000000 0.000000
# 4 0.000000 0.000000 0.000000 0.034906 0.000000 0.000000
# 5 0.000000 0.000000 0.000000 0.000000 0.045003 0.000000
# 6 0.000000 0.000000 0.000000 0.000000 0.000000 0.073274
#
#
# Mechanical properties :
#
#
# Convention : Reuss Voigt Hill
#
# Bulk Modulus (GPa) = 29.82204 57.29028 43.55616
# Shear Modulus (GPa) = 20.14425 25.61602 22.88014
#
# Velocity S-wave (km/s) = 3.29707 3.71799 3.51384
# Velocity P-wave (km/s) = 5.53060 7.02478 6.32199
#
# Compressibility (1/GPa) = 0.03353224
#
# Stress axis : x y z
#
# Youngs Moduli (GPa) = 83.13759 26.60369 110.20811
#
# Poissons Ratio (x) = 0.11849 0.50423
# Poissons Ratio (y) = 0.37027 0.39127
# Poissons Ratio (z) = 0.38037 0.09445
#
# Static dielectric constant tensor:
#      x y z
#    x 3.700810 0.000000 0.000000 
#    y 0.000000 3.124050 0.000000 
#    z 0.000000 0.000000 3.536120 
# 
# 
# High freq. dielectric constant tensor:
#      x y z
#    x 1.721770 0.000000 0.000000 
#    y 0.000000 1.693680 0.000000 
#    z 0.000000 0.000000 1.722960 
# 
# From -- ./inp_files/33960.got.cif
#   From: 2010.03.12/outbox.cif.g09.slc.cpg/sg51_17_cif.got.tgz:33960.got - 2010.04.16 13:43:02.
