data_PCOD8208255
_publ_section_title
;
Structure prediction by ZEFSAII (Michael W. Deem and Ramdas Pophale) SiO2 
 PCOD8208255
Probable space group: P M M A
;
_chemical_formula_sum "Si O2"
_cell_formula_units_Z 48
_cell_length_a 18.115583
_cell_length_b 9.597650
_cell_length_c 16.433626
_cell_angle_alpha 90.000000
_cell_angle_beta 90.000000
_cell_angle_gamma 90.000000
_cell_volume 2857.265666
_symmetry_space_group_name_H-M "P M M A"
_symmetry_group_IT_number 51
_symmetry_cell_setting 'orthorhombic'
loop_
_space_group_symop_operation_xyz
x,y,z
1/2-x,-y,z
1/2+x,-y,-z
-x,y,-z
-x,-y,-z
1/2+x,y,-z
1/2-x,y,z
x,-y,z
loop_
_atom_site_type_symbol
_atom_site_label
_atom_site_fract_x
_atom_site_fract_y
_atom_site_fract_z
Si Si1 0.404497 0.339207 0.835215
Si Si2 0.556109 0.339010 0.747163
Si Si3 0.831147 0.665718 0.329367
Si Si4 0.974770 0.665850 0.413603
Si Si5 0.914863 0.837849 0.011591
Si Si6 0.164038 0.162152 0.153894
O O1 0.390796 0.500000 0.856971
O O2 0.489221 0.314784 0.809699
O O3 0.351732 0.289086 0.762097
O O4 0.382891 0.247792 0.912783
O O5 0.580010 0.500000 0.746299
O O6 0.531957 0.289767 0.656855
O O7 0.625648 0.247314 0.773758
O O8 0.750000 0.724835 0.352145
O O9 0.831896 0.500000 0.333110
O O10 0.892648 0.723531 0.392329
O O11 0.971801 0.500000 0.417623
O O12 0.000000 0.729834 0.500000
O O13 0.904137 0.000000 0.030727
O O14 0.869314 0.791675 0.932512
O O15 0.000000 0.799015 0.000000
O O16 0.250000 0.198087 0.154513
O O17 0.148683 0.000000 0.169516
#
# Coordination Sequence:
#
# PCOD8208255 Si02
#       6
#     8   8   8   8   8   8
#     4   9  17  28  45  68  91 119 153 188 229 275
#     4   9  17  30  48  69  93 120 151 189 229 273
#     4   8  14  25  41  63  92 122 151 186 230 276
#     4   8  14  26  45  69  96 124 153 186 226 273
#     4  10  19  31  47  66  88 119 158 194 227 271
#     4  10  21  35  48  64  90 124 159 194 233 274
#
# _framework density 16.799277
#
# number of rings (size 3 to 8) (size 9 to 14) (size 15 to 20)
#    0.000    3.000    1.667    2.000    0.000    2.000 
#    0.000    0.833    0.000    3.500    0.000    0.000 
#    0.000    0.000    0.000    0.000    0.000    0.000 
#
# Total GULP energy -595051.720950 kJ/mol
# GULP energy per Si atom -12396.910853 kJ/mol
# Density = 1.676104 g / cm^3
# Si number density = 16.799277 Si / 1000 Ang^3
#
#
#
# Elastic Constant Matrix: (Units=GPa)
#
#
# Indices 1 2 3 4 5 6 
#
# 1 131.4167 35.2221 76.4119 0.0000 0.0000 0.0000
# 2 35.2221 32.5263 40.7394 0.0000 0.0000 0.0000
# 3 76.4119 40.7394 138.4081 0.0000 0.0000 0.0000
# 4 0.0000 0.0000 0.0000 6.9070 0.0000 0.0000
# 5 0.0000 0.0000 0.0000 0.0000 20.9757 0.0000
# 6 0.0000 0.0000 0.0000 0.0000 0.0000 17.1321
#
#
#
# Elastic Compliance Matrix: (Units=1/GPa)
#
#
# Indices 1 2 3 4 5 6 
#
# 1 0.012294 -0.007622 -0.004544 0.000000 0.000000 0.000000
# 2 -0.007622 0.053423 -0.011517 0.000000 0.000000 0.000000
# 3 -0.004544 -0.011517 0.013123 0.000000 0.000000 0.000000
# 4 0.000000 0.000000 0.000000 0.144780 0.000000 0.000000
# 5 0.000000 0.000000 0.000000 0.000000 0.047674 0.000000
# 6 0.000000 0.000000 0.000000 0.000000 0.000000 0.058370
#
#
# Mechanical properties :
#
#
# Convention : Reuss Voigt Hill
#
# Bulk Modulus (GPa) = 31.77088 67.45532 49.61310
# Shear Modulus (GPa) = 12.90252 19.00149 15.95201
#
# Velocity S-wave (km/s) = 2.77436 3.36682 3.08484
# Velocity P-wave (km/s) = 5.40517 7.44008 6.50272
#
# Compressibility (1/GPa) = 0.03147536
#
# Stress axis : x y z
#
# Youngs Moduli (GPa) = 81.33896 18.71863 76.19945
#
# Poissons Ratio (x) = 0.14267 0.34624
# Poissons Ratio (y) = 0.61996 0.87757
# Poissons Ratio (z) = 0.36960 0.21558
#
# Static dielectric constant tensor:
#      x y z
#    x 3.278780 0.000000 0.000000 
#    y 0.000000 2.770770 0.000000 
#    z 0.000000 0.000000 3.235920 
# 
# 
# High freq. dielectric constant tensor:
#      x y z
#    x 1.645150 0.000000 0.000000 
#    y 0.000000 1.607860 0.000000 
#    z 0.000000 0.000000 1.643510 
# 
# From -- ./inp_files/24015.got.cif
#   From: 2010.03.12/outbox.cif.g09.slc.cpg/sg51_13_cif.got.tgz:24015.got - 2010.04.16 13:43:02.
