data_PCOD8208436
_publ_section_title
;
Structure prediction by ZEFSAII (Michael W. Deem and Ramdas Pophale) SiO2 
 PCOD8208436
Probable space group: P M M A
;
_chemical_formula_sum "Si O2"
_cell_formula_units_Z 40
_cell_length_a 18.199988
_cell_length_b 9.369813
_cell_length_c 13.456941
_cell_angle_alpha 90.000000
_cell_angle_beta 90.000000
_cell_angle_gamma 90.000000
_cell_volume 2294.818664
_symmetry_space_group_name_H-M "P M M A"
_symmetry_group_IT_number 51
_symmetry_cell_setting 'orthorhombic'
loop_
_space_group_symop_operation_xyz
x,y,z
1/2-x,-y,z
1/2+x,-y,-z
-x,y,-z
-x,-y,-z
1/2+x,y,-z
1/2-x,y,z
x,-y,z
loop_
_atom_site_type_symbol
_atom_site_label
_atom_site_fract_x
_atom_site_fract_y
_atom_site_fract_z
Si Si1 0.027474 0.335914 0.191832
Si Si2 0.600962 0.833811 0.106515
Si Si3 0.666633 0.835709 0.319070
Si Si4 0.333063 0.336838 0.072010
Si Si5 0.537381 0.332737 0.399842
O O1 0.004523 0.500000 0.174892
O O2 0.112804 0.309484 0.165378
O O3 0.014677 0.292087 0.306507
O O4 0.978269 0.240888 0.117868
O O5 0.648809 0.805953 0.204366
O O6 0.587813 0.000000 0.085682
O O7 0.646629 0.767328 0.017119
O O8 0.750000 0.790124 0.339508
O O9 0.616024 0.741981 0.390528
O O10 0.652802 0.000000 0.345252
O O11 0.250000 0.304398 0.107636
O O12 0.340664 0.500000 0.034750
O O13 0.500000 0.274968 0.500000
O O14 0.551834 0.500000 0.406469
#
# Coordination Sequence:
#
# PCOD8208436 Si02
#       5
#     8   8   8   8   8
#     4   9  18  33  50  68  94 126 159 195 234 281
#     4  10  19  31  49  72  97 125 157 194 235 277
#     4   9  18  32  49  71  98 125 154 191 237 285
#     4  10  20  32  46  66  94 129 163 191 226 276
#     4   9  18  33  52  73  95 121 157 199 240 281
#
# _framework density 17.430571
#
# number of rings (size 3 to 8) (size 9 to 14) (size 15 to 20)
#    0.000    2.600    0.000    1.800    0.000    6.000 
#    0.000    1.000    0.000    3.600    0.000    0.000 
#    0.000    0.000    0.000    0.000    0.000    0.000 
#
# Total GULP energy -496060.450594 kJ/mol
# GULP energy per Si atom -12401.511265 kJ/mol
# Density = 1.739090 g / cm^3
# Si number density = 17.430571 Si / 1000 Ang^3
#
#
#
# Elastic Constant Matrix: (Units=GPa)
#
#
# Indices 1 2 3 4 5 6 
#
# 1 155.7556 56.6408 67.5667 0.0000 0.0000 0.0000
# 2 56.6408 65.3495 41.4583 0.0000 0.0000 0.0000
# 3 67.5667 41.4583 84.9399 0.0000 0.0000 0.0000
# 4 0.0000 0.0000 0.0000 20.9613 0.0000 0.0000
# 5 0.0000 0.0000 0.0000 0.0000 23.6662 0.0000
# 6 0.0000 0.0000 0.0000 0.0000 0.0000 21.6699
#
#
#
# Elastic Compliance Matrix: (Units=1/GPa)
#
#
# Indices 1 2 3 4 5 6 
#
# 1 0.011161 -0.005854 -0.006021 0.000000 0.000000 0.000000
# 2 -0.005854 0.025236 -0.007661 0.000000 0.000000 0.000000
# 3 -0.006021 -0.007661 0.020302 0.000000 0.000000 0.000000
# 4 0.000000 0.000000 0.000000 0.047707 0.000000 0.000000
# 5 0.000000 0.000000 0.000000 0.000000 0.042254 0.000000
# 6 0.000000 0.000000 0.000000 0.000000 0.000000 0.046147
#
#
# Mechanical properties :
#
#
# Convention : Reuss Voigt Hill
#
# Bulk Modulus (GPa) = 56.73007 70.81962 63.77485
# Shear Modulus (GPa) = 21.03006 22.61809 21.82408
#
# Velocity S-wave (km/s) = 3.47725 3.60614 3.54228
# Velocity P-wave (km/s) = 6.98130 7.61950 7.30737
#
# Compressibility (1/GPa) = 0.01762733
#
# Stress axis : x y z
#
# Youngs Moduli (GPa) = 89.59793 39.62538 49.25678
#
# Poissons Ratio (x) = 0.23196 0.29657
# Poissons Ratio (y) = 0.52450 0.37736
# Poissons Ratio (z) = 0.53946 0.30357
#
# Static dielectric constant tensor:
#      x y z
#    x 3.374370 0.000000 0.000000 
#    y 0.000000 3.270890 0.000000 
#    z 0.000000 0.000000 3.154770 
# 
# 
# High freq. dielectric constant tensor:
#      x y z
#    x 1.675890 0.000000 0.000000 
#    y 0.000000 1.673890 0.000000 
#    z 0.000000 0.000000 1.654890 
# 
# From -- ./inp_files/17907.got.cif
#   From: 2010.03.12/outbox.cif.g09.slc.cpg/sg51_9_cif.got.tgz:17907.got - 2010.04.16 13:43:02.
