data_PCOD8208974
_publ_section_title
;
Structure prediction by ZEFSAII (Michael W. Deem and Ramdas Pophale) SiO2 
 PCOD8208974
Probable space group: P M M A
;
_chemical_formula_sum "Si O2"
_cell_formula_units_Z 48
_cell_length_a 8.778423
_cell_length_b 15.235050
_cell_length_c 20.023396
_cell_angle_alpha 90.000000
_cell_angle_beta 90.000000
_cell_angle_gamma 90.000000
_cell_volume 2677.923241
_symmetry_space_group_name_H-M "P M M A"
_symmetry_group_IT_number 51
_symmetry_cell_setting 'orthorhombic'
loop_
_space_group_symop_operation_xyz
x,y,z
1/2-x,-y,z
1/2+x,-y,-z
-x,y,-z
-x,-y,-z
1/2+x,y,-z
1/2-x,y,z
x,-y,z
loop_
_atom_site_type_symbol
_atom_site_label
_atom_site_fract_x
_atom_site_fract_y
_atom_site_fract_z
Si Si1 0.573433 0.102658 0.929873
Si Si2 0.079191 0.404013 0.172404
Si Si3 0.567944 0.779481 0.677922
Si Si4 0.429125 0.772801 0.822396
Si Si5 0.079416 0.407695 0.331025
Si Si6 0.924465 0.103601 0.431744
O O1 0.750000 0.129696 0.930092
O O2 0.484412 0.153338 0.872691
O O3 0.551949 0.000000 0.915769
O O4 0.500000 0.129626 0.000000
O O5 0.250000 0.388254 0.144863
O O6 0.018993 0.500000 0.147069
O O7 0.083279 0.404691 0.251686
O O8 0.972987 0.323733 0.148720
O O9 0.750000 0.778241 0.681689
O O10 0.505597 0.794653 0.751766
O O11 0.505608 0.685541 0.647105
O O12 0.512012 0.856873 0.631010
O O13 0.250000 0.777892 0.813494
O O14 0.250000 0.412075 0.359581
O O15 0.995876 0.500000 0.353805
O O16 0.750000 0.133972 0.431027
O O17 0.000000 0.137846 0.500000
O O18 0.941185 0.000000 0.425571
#
# Coordination Sequence:
#
# PCOD8208974 Si02
#       6
#     8   8   8   8   8   8
#     4  10  21  38  58  77  99 131 171 212 256 309
#     4   8  14  27  47  70  99 135 172 209 250 297
#     4  10  19  32  52  77 104 134 169 210 254 297
#     4  11  21  32  50  78 110 139 170 211 255 301
#     4   7  11  22  42  68  96 126 160 197 239 287
#     4  10  21  37  55  74  98 130 167 207 254 309
#
# _framework density 17.924337000000001
#
# number of rings (size 3 to 8) (size 9 to 14) (size 15 to 20)
#    0.000    2.667    0.000    5.000    0.000    3.000 
#    0.000    0.000    0.000    2.500    0.000    0.000 
#    0.000    0.000    0.000    0.000    0.000    0.000 
#
# Total GULP energy -594684.505095 kJ/mol
# GULP energy per Si atom -12389.260523 kJ/mol
# Density = 1.788354 g / cm^3
# Si number density = 17.924337 Si / 1000 Ang^3
#
#
#
# Elastic Constant Matrix: (Units=GPa)
#
#
# Indices 1 2 3 4 5 6 
#
# 1 105.4068 45.2835 41.6070 0.0000 0.0000 0.0000
# 2 45.2835 73.4409 48.5840 0.0000 0.0000 0.0000
# 3 41.6070 48.5840 78.7067 0.0000 0.0000 0.0000
# 4 0.0000 0.0000 0.0000 2.1528 0.0000 0.0000
# 5 0.0000 0.0000 0.0000 0.0000 26.4634 0.0000
# 6 0.0000 0.0000 0.0000 0.0000 0.0000 24.5142
#
#
#
# Elastic Compliance Matrix: (Units=1/GPa)
#
#
# Indices 1 2 3 4 5 6 
#
# 1 0.013410 -0.006049 -0.003355 0.000000 0.000000 0.000000
# 2 -0.006049 0.025743 -0.012693 0.000000 0.000000 0.000000
# 3 -0.003355 -0.012693 0.022314 0.000000 0.000000 0.000000
# 4 0.000000 0.000000 0.000000 0.464507 0.000000 0.000000
# 5 0.000000 0.000000 0.000000 0.000000 0.037788 0.000000
# 6 0.000000 0.000000 0.000000 0.000000 0.000000 0.040793
#
#
# Mechanical properties :
#
#
# Convention : Reuss Voigt Hill
#
# Bulk Modulus (GPa) = 57.89344 58.72261 58.30802
# Shear Modulus (GPa) = 7.63934 18.76473 13.20204
#
# Velocity S-wave (km/s) = 2.06670 3.23907 2.71688
# Velocity P-wave (km/s) = 6.16959 6.84261 6.51480
#
# Compressibility (1/GPa) = 0.01727311
#
# Stress axis : x y z
#
# Youngs Moduli (GPa) = 74.57034 38.84531 44.81492
#
# Poissons Ratio (x) = 0.23498 0.15035
# Poissons Ratio (y) = 0.45109 0.56883
# Poissons Ratio (z) = 0.25018 0.49306
#
# Static dielectric constant tensor:
#      x y z
#    x 3.288900 0.000000 0.000000 
#    y 0.000000 3.990310 0.000000 
#    z 0.000000 0.000000 2.924040 
# 
# 
# High freq. dielectric constant tensor:
#      x y z
#    x 1.684990 0.000000 0.000000 
#    y 0.000000 1.714110 0.000000 
#    z 0.000000 0.000000 1.651670 
# 
# From -- ./inp_files/27550.got.cif
#   From: 2010.03.12/outbox.cif.g09.slc.cpg/sg51_14_cif.got.tgz:27550.got - 2010.04.16 13:43:02.
