data_PCOD8208865
_publ_section_title
;
Structure prediction by ZEFSAII (Michael W. Deem and Ramdas Pophale) SiO2 
 PCOD8208865
Probable space group: P M M A
;
_chemical_formula_sum "Si O2"
_cell_formula_units_Z 44
_cell_length_a 8.977728
_cell_length_b 28.491340
_cell_length_c 9.383438
_cell_angle_alpha 90.000000
_cell_angle_beta 90.000000
_cell_angle_gamma 90.000000
_cell_volume 2400.166156
_symmetry_space_group_name_H-M "P M M A"
_symmetry_group_IT_number 51
_symmetry_cell_setting 'orthorhombic'
loop_
_space_group_symop_operation_xyz
x,y,z
1/2-x,-y,z
1/2+x,-y,-z
-x,y,-z
-x,-y,-z
1/2+x,y,-z
1/2-x,y,z
x,-y,z
loop_
_atom_site_type_symbol
_atom_site_label
_atom_site_fract_x
_atom_site_fract_y
_atom_site_fract_z
Si Si1 0.924415 0.687400 0.347555
Si Si2 0.076811 0.415898 0.651380
Si Si3 0.426517 0.777848 0.345572
Si Si4 0.424957 0.946922 0.353390
Si Si5 0.426413 0.500000 0.847512
Si Si6 0.424853 0.865016 0.151340
O O1 0.750000 0.698737 0.360307
O O2 0.951959 0.635896 0.279087
O O3 0.000000 0.685179 0.500000
O O4 0.007062 0.730720 0.268235
O O5 0.250000 0.423495 0.621660
O O6 0.016912 0.454072 0.762956
O O7 0.000000 0.422990 0.500000
O O8 0.500000 0.785096 0.500000
O O9 0.250000 0.773399 0.362428
O O10 0.473278 0.821305 0.248020
O O11 0.500000 0.930960 0.500000
O O12 0.250000 0.942100 0.376965
O O13 0.479911 0.912780 0.227717
O O14 0.471343 0.000000 0.312230
O O15 0.250000 0.500000 0.866218
O O16 0.500000 0.500000 0.000000
O O17 0.250000 0.865891 0.127183
O O18 0.500000 0.860502 0.000000
#
# Coordination Sequence:
#
# PCOD8208865 Si02
#       6
#     8   8   8   8   4   8
#     4   9  16  28  48  74 100 126 158 200 246 289
#     4   9  18  32  52  76 100 125 160 203 244 290
#     4  10  19  32  51  75 100 128 164 204 244 289
#     4   9  18  34  55  78 102 128 162 204 247 293
#     4  10  21  36  50  70 100 132 165 200 240 290
#     4  10  22  36  50  72 102 134 168 204 243 290
#
# _framework density 18.332063000000002
#
# number of rings (size 3 to 8) (size 9 to 14) (size 15 to 20)
#    0.000    2.545    0.000    3.000    0.000    4.000 
#    0.000    0.909    0.000    4.364    0.000    0.000 
#    0.000    0.000    0.000    0.000    0.000    0.000 
#
# Total GULP energy -545372.349510 kJ/mol
# GULP energy per Si atom -12394.826125 kJ/mol
# Density = 1.829034 g / cm^3
# Si number density = 18.332063 Si / 1000 Ang^3
#
#
#
# Elastic Constant Matrix: (Units=GPa)
#
#
# Indices 1 2 3 4 5 6 
#
# 1 58.2799 52.1808 41.9742 0.0000 0.0000 0.0000
# 2 52.1808 176.0151 86.4206 0.0000 0.0000 0.0000
# 3 41.9742 86.4206 114.1771 0.0000 0.0000 0.0000
# 4 0.0000 0.0000 0.0000 5.8909 0.0000 0.0000
# 5 0.0000 0.0000 0.0000 0.0000 30.1736 0.0000
# 6 0.0000 0.0000 0.0000 0.0000 0.0000 25.7210
#
#
#
# Elastic Compliance Matrix: (Units=1/GPa)
#
#
# Indices 1 2 3 4 5 6 
#
# 1 0.025587 -0.004722 -0.005832 0.000000 0.000000 0.000000
# 2 -0.004722 0.009913 -0.005767 0.000000 0.000000 0.000000
# 3 -0.005832 -0.005767 0.015268 0.000000 0.000000 0.000000
# 4 0.000000 0.000000 0.000000 0.169752 0.000000 0.000000
# 5 0.000000 0.000000 0.000000 0.000000 0.033142 0.000000
# 6 0.000000 0.000000 0.000000 0.000000 0.000000 0.038879
#
#
# Mechanical properties :
#
#
# Convention : Reuss Voigt Hill
#
# Bulk Modulus (GPa) = 55.17380 78.84702 67.01041
# Shear Modulus (GPa) = 15.09554 23.55021 19.32288
#
# Velocity S-wave (km/s) = 2.87270 3.58808 3.25013
# Velocity P-wave (km/s) = 6.41603 7.76335 7.12162
#
# Compressibility (1/GPa) = 0.01812454
#
# Stress axis : x y z
#
# Youngs Moduli (GPa) = 39.08264 100.88114 65.49845
#
# Poissons Ratio (x) = 0.47634 0.38201
# Poissons Ratio (y) = 0.18454 0.37773
# Poissons Ratio (z) = 0.22795 0.58179
#
# Static dielectric constant tensor:
#      x y z
#    x 3.340040 0.000000 0.000000 
#    y 0.000000 4.306160 0.000000 
#    z 0.000000 0.000000 3.073870 
# 
# 
# High freq. dielectric constant tensor:
#      x y z
#    x 1.710950 0.000000 0.000000 
#    y 0.000000 1.738510 0.000000 
#    z 0.000000 0.000000 1.674730 
# 
# From -- ./inp_files/5742.got.cif
#   From: 2010.03.12/outbox.cif.g09.slc.cpg/sg51_3_cif.got.tgz:5742.got - 2010.04.16 13:43:02.
