data_PCOD8208161
_publ_section_title
;
Structure prediction by ZEFSAII (Michael W. Deem and Ramdas Pophale) SiO2 
 PCOD8208161
Probable space group: P M M A
;
_chemical_formula_sum "Si O2"
_cell_formula_units_Z 64
_cell_length_a 23.677236
_cell_length_b 8.802528
_cell_length_c 16.367066
_cell_angle_alpha 90.000000
_cell_angle_beta 90.000000
_cell_angle_gamma 90.000000
_cell_volume 3411.216250
_symmetry_space_group_name_H-M "P M M A"
_symmetry_group_IT_number 51
_symmetry_cell_setting 'orthorhombic'
loop_
_space_group_symop_operation_xyz
x,y,z
1/2-x,-y,z
1/2+x,-y,-z
-x,y,-z
-x,-y,-z
1/2+x,y,-z
1/2-x,y,z
x,-y,z
loop_
_atom_site_type_symbol
_atom_site_label
_atom_site_fract_x
_atom_site_fract_y
_atom_site_fract_z
Si Si1 0.814781 0.324956 0.376383
Si Si2 0.183044 0.670494 0.102727
Si Si3 0.522646 0.821973 0.305186
Si Si4 0.814661 0.179385 0.063482
Si Si5 0.684661 0.178718 0.730737
Si Si6 0.878977 0.676835 0.212072
Si Si7 0.590244 0.824231 0.468036
Si Si8 0.913766 0.679110 0.637613
O O1 0.750000 0.279206 0.381317
O O2 0.825560 0.500000 0.399825
O O3 0.835511 0.291699 0.285135
O O4 0.846520 0.219193 0.441205
O O5 0.250000 0.668161 0.101591
O O6 0.158379 0.500000 0.107054
O O7 0.162351 0.763775 0.181500
O O8 0.161376 0.751622 0.020767
O O9 0.559719 0.742336 0.235129
O O10 0.548208 0.785638 0.394216
O O11 0.459980 0.752820 0.301866
O O12 0.520885 0.000000 0.287303
O O13 0.750000 0.232379 0.079946
O O14 0.855310 0.236622 0.134205
O O15 0.818031 0.000000 0.057009
O O16 0.750000 0.223546 0.716435
O O17 0.648181 0.259095 0.660478
O O18 0.675717 0.000000 0.725764
O O19 0.884586 0.500000 0.191745
O O20 0.571551 0.725499 0.545164
O O21 0.587661 0.000000 0.492962
O O22 0.915510 0.500000 0.647051
#
# Coordination Sequence:
#
# PCOD8208161 Si02
#       8
#     8   8   8   8   8   8   8   8
#     4   9  18  32  49  71 103 141 176 213 261 314
#     4   9  17  31  52  78 108 140 174 214 260 308
#     4  10  21  38  57  77 104 137 175 219 265 312
#     4  10  19  30  48  77 111 146 183 219 258 307
#     4  10  21  38  59  82 109 139 171 211 261 314
#     4  10  19  32  51  76 106 140 179 221 264 309
#     4  10  21  36  54  76 102 135 175 220 266 310
#     4  12  24  37  57  81 104 134 173 216 261 311
#
# _framework density 18.761637
#
# number of rings (size 3 to 8) (size 9 to 14) (size 15 to 20)
#    0.000    2.000    0.000    4.125    0.000    7.750 
#    0.000    0.000    0.000    0.750    0.000    5.250 
#    0.000    0.000    0.000    0.000    0.000    0.000 
#
# Total GULP energy -793838.675064 kJ/mol
# GULP energy per Si atom -12403.729298 kJ/mol
# Density = 1.871894 g / cm^3
# Si number density = 18.761637 Si / 1000 Ang^3
#
#
#
# Elastic Constant Matrix: (Units=GPa)
#
#
# Indices 1 2 3 4 5 6 
#
# 1 73.7809 23.3874 13.0660 0.0000 0.0000 0.0000
# 2 23.3874 74.0109 18.2077 0.0000 0.0000 0.0000
# 3 13.0660 18.2077 57.3370 0.0000 0.0000 0.0000
# 4 0.0000 0.0000 0.0000 36.2111 0.0000 0.0000
# 5 0.0000 0.0000 0.0000 0.0000 15.7968 0.0000
# 6 0.0000 0.0000 0.0000 0.0000 0.0000 29.8503
#
#
#
# Elastic Compliance Matrix: (Units=1/GPa)
#
#
# Indices 1 2 3 4 5 6 
#
# 1 0.015295 -0.004313 -0.002116 0.000000 0.000000 0.000000
# 2 -0.004313 0.015873 -0.004058 0.000000 0.000000 0.000000
# 3 -0.002116 -0.004058 0.019211 0.000000 0.000000 0.000000
# 4 0.000000 0.000000 0.000000 0.027616 0.000000 0.000000
# 5 0.000000 0.000000 0.000000 0.000000 0.063304 0.000000
# 6 0.000000 0.000000 0.000000 0.000000 0.000000 0.033501
#
#
# Mechanical properties :
#
#
# Convention : Reuss Voigt Hill
#
# Bulk Modulus (GPa) = 34.00585 34.93899 34.47242
# Shear Modulus (GPa) = 24.32204 26.40283 25.36243
#
# Velocity S-wave (km/s) = 3.60442 3.75544 3.68070
# Velocity P-wave (km/s) = 5.95710 6.12106 6.03964
#
# Compressibility (1/GPa) = 0.02940670
#
# Stress axis : x y z
#
# Youngs Moduli (GPa) = 65.37896 63.00162 52.05224
#
# Poissons Ratio (x) = 0.27171 0.11014
# Poissons Ratio (y) = 0.28197 0.21121
# Poissons Ratio (z) = 0.13834 0.25564
#
# Static dielectric constant tensor:
#      x y z
#    x 3.383280 0.000000 0.000000 
#    y 0.000000 3.520110 0.000000 
#    z 0.000000 0.000000 3.399830 
# 
# 
# High freq. dielectric constant tensor:
#      x y z
#    x 1.712080 0.000000 0.000000 
#    y 0.000000 1.742360 0.000000 
#    z 0.000000 0.000000 1.720370 
# 
# From -- ./inp_files/26172.got.cif
#   From: 2010.03.12/outbox.cif.g09.slc.cpg/sg51_14_cif.got.tgz:26172.got - 2010.04.16 13:43:02.
