data_PCOD8208652
_publ_section_title
;
Structure prediction by ZEFSAII (Michael W. Deem and Ramdas Pophale) SiO2 
 PCOD8208652
Probable space group: P M M A
;
_chemical_formula_sum "Si O2"
_cell_formula_units_Z 56
_cell_length_a 19.876086
_cell_length_b 16.406026
_cell_length_c 9.725704
_cell_angle_alpha 90.000000
_cell_angle_beta 90.000000
_cell_angle_gamma 90.000000
_cell_volume 3171.431317
_symmetry_space_group_name_H-M "P M M A"
_symmetry_group_IT_number 51
_symmetry_cell_setting 'orthorhombic'
loop_
_space_group_symop_operation_xyz
x,y,z
1/2-x,-y,z
1/2+x,-y,-z
-x,y,-z
-x,-y,-z
1/2+x,y,-z
1/2-x,y,z
x,-y,z
loop_
_atom_site_type_symbol
_atom_site_label
_atom_site_fract_x
_atom_site_fract_y
_atom_site_fract_z
Si Si1 0.827846 0.221876 0.537259
Si Si2 0.671531 0.592991 0.039159
Si Si3 0.389905 0.675913 0.220365
Si Si4 0.495363 0.415327 0.656063
Si Si5 0.559787 0.905102 0.599792
Si Si6 0.390260 0.288356 0.733901
Si Si7 0.504674 0.813068 0.847264
O O1 0.750000 0.196867 0.548503
O O2 0.844978 0.284384 0.659589
O O3 0.872678 0.141417 0.556655
O O4 0.839486 0.259507 0.385324
O O5 0.750000 0.586878 0.060075
O O6 0.641610 0.500000 0.044567
O O7 0.644446 0.651004 0.159325
O O8 0.657316 0.637676 0.895575
O O9 0.430990 0.601830 0.284615
O O10 0.443465 0.737685 0.152588
O O11 0.500000 0.436804 0.500000
O O12 0.469197 0.500000 0.728346
O O13 0.449167 0.337563 0.663075
O O14 0.500000 0.876641 0.500000
O O15 0.534818 0.884126 0.752500
O O16 0.575738 0.000000 0.587822
O O17 0.428317 0.212054 0.804653
O O18 0.500000 0.849298 0.000000
#
# Coordination Sequence:
#
# PCOD8208652 Si02
#       7
#     8   8   8   8   8   8   8
#     4  11  22  37  60  84 111 149 188 228 278 338
#     4  11  23  37  51  72 110 154 192 236 288 334
#     4  10  20  35  54  79 108 141 192 234 279 332
#     4  10  19  31  52  76 104 140 182 239 290 323
#     4  10  21  38  62  90 117 142 177 227 279 333
#     4  11  20  36  53  81 109 144 191 235 273 334
#     4  10  19  34  59  85 110 147 178 226 278 333
#
# _framework density 17.657641999999999
#
# number of rings (size 3 to 8) (size 9 to 14) (size 15 to 20)
#    0.000    1.571    4.286    1.714    0.000    0.571 
#    0.000    2.143    0.000    3.429    0.000    0.000 
#    0.000    0.000    0.000    0.000    0.000    0.000 
#
# Total GULP energy -694010.305673 kJ/mol
# GULP energy per Si atom -12393.041173 kJ/mol
# Density = 1.761745 g / cm^3
# Si number density = 17.657642 Si / 1000 Ang^3
#
#
#
# Elastic Constant Matrix: (Units=GPa)
#
#
# Indices 1 2 3 4 5 6 
#
# 1 93.2152 29.7033 38.5123 0.0000 0.0000 0.0000
# 2 29.7033 70.8595 38.1393 0.0000 0.0000 0.0000
# 3 38.5123 38.1393 115.9038 0.0000 0.0000 0.0000
# 4 0.0000 0.0000 0.0000 23.8792 0.0000 0.0000
# 5 0.0000 0.0000 0.0000 0.0000 24.3978 0.0000
# 6 0.0000 0.0000 0.0000 0.0000 0.0000 22.0147
#
#
#
# Elastic Compliance Matrix: (Units=1/GPa)
#
#
# Indices 1 2 3 4 5 6 
#
# 1 0.013255 -0.003871 -0.003130 0.000000 0.000000 0.000000
# 2 -0.003871 0.018281 -0.004729 0.000000 0.000000 0.000000
# 3 -0.003130 -0.004729 0.011224 0.000000 0.000000 0.000000
# 4 0.000000 0.000000 0.000000 0.041877 0.000000 0.000000
# 5 0.000000 0.000000 0.000000 0.000000 0.040987 0.000000
# 6 0.000000 0.000000 0.000000 0.000000 0.000000 0.045424
#
#
# Mechanical properties :
#
#
# Convention : Reuss Voigt Hill
#
# Bulk Modulus (GPa) = 51.81879 54.74312 53.28096
# Shear Modulus (GPa) = 24.88272 25.63326 25.25799
#
# Velocity S-wave (km/s) = 3.75797 3.81423 3.78620
# Velocity P-wave (km/s) = 6.94549 7.10405 7.02522
#
# Compressibility (1/GPa) = 0.01929802
#
# Stress axis : x y z
#
# Youngs Moduli (GPa) = 75.44433 54.70277 89.09371
#
# Poissons Ratio (x) = 0.21177 0.27890
# Poissons Ratio (y) = 0.29207 0.42133
# Poissons Ratio (z) = 0.23617 0.25869
#
# Static dielectric constant tensor:
#      x y z
#    x 3.174710 0.000000 0.000000 
#    y 0.000000 3.186420 0.000000 
#    z 0.000000 0.000000 3.352660 
# 
# 
# High freq. dielectric constant tensor:
#      x y z
#    x 1.674230 0.000000 0.000000 
#    y 0.000000 1.675790 0.000000 
#    z 0.000000 0.000000 1.693970 
# 
# From -- ./inp_files/11155.got.cif
#   From: 2010.03.12/outbox.cif.g09.slc.cpg/sg51_6_cif.got.tgz:11155.got - 2010.04.16 13:43:02.
