data_PCOD8208898
_publ_section_title
;
Structure prediction by ZEFSAII (Michael W. Deem and Ramdas Pophale) SiO2 
 PCOD8208898
Probable space group: P M M A
;
_chemical_formula_sum "Si O2"
_cell_formula_units_Z 56
_cell_length_a 15.709383
_cell_length_b 13.051577
_cell_length_c 15.293089
_cell_angle_alpha 90.000000
_cell_angle_beta 90.000000
_cell_angle_gamma 90.000000
_cell_volume 3135.576017
_symmetry_space_group_name_H-M "P M M A"
_symmetry_group_IT_number 51
_symmetry_cell_setting 'orthorhombic'
loop_
_space_group_symop_operation_xyz
x,y,z
1/2-x,-y,z
1/2+x,-y,-z
-x,y,-z
-x,-y,-z
1/2+x,y,-z
1/2-x,y,z
x,-y,z
loop_
_atom_site_type_symbol
_atom_site_label
_atom_site_fract_x
_atom_site_fract_y
_atom_site_fract_z
Si Si1 0.154813 0.121259 0.502494
Si Si2 0.401867 0.116893 0.689287
Si Si3 0.403040 0.116669 0.316403
Si Si4 0.154904 0.241705 0.159704
Si Si5 0.002258 0.619464 0.102963
Si Si6 0.098161 0.880584 0.000437
Si Si7 0.844612 0.747265 0.156368
O O1 0.250000 0.165943 0.498404
O O2 0.109533 0.160275 0.590846
O O3 0.104115 0.157208 0.416183
O O4 0.155366 0.000000 0.505081
O O5 0.500219 0.120373 0.715640
O O6 0.350938 0.190436 0.753625
O O7 0.367448 0.000000 0.697248
O O8 0.349672 0.192881 0.255919
O O9 0.367815 0.000000 0.309289
O O10 0.250000 0.287289 0.147014
O O11 0.139195 0.149379 0.092366
O O12 0.086251 0.331060 0.145450
O O13 0.007725 0.500000 0.122044
O O14 0.916451 0.660055 0.149141
O O15 0.000000 0.643801 0.000000
O O16 0.108146 0.000000 0.985202
O O17 0.147430 0.826024 0.922843
O O18 0.000000 0.846011 0.000000
O O19 0.750000 0.697335 0.152571
#
# Coordination Sequence:
#
# PCOD8208898 Si02
#       7
#     8   8   8   8   8   8   8
#     4   9  17  29  45  73 111 150 191 227 259 303
#     4  10  19  32  51  77 114 155 189 221 262 315
#     4  10  19  32  51  77 114 155 189 221 262 315
#     4  12  22  36  57  82 109 143 184 222 272 327
#     4  11  24  44  62  79 106 137 179 236 289 331
#     4  11  21  35  53  77 115 152 181 214 258 318
#     4  12  22  36  57  82 109 143 184 222 272 327
#
# _framework density 17.859559000000001
#
# number of rings (size 3 to 8) (size 9 to 14) (size 15 to 20)
#    0.000    1.286    4.286    2.571    0.000    8.571 
#    0.000    1.429    0.000    0.000    0.000    2.000 
#    0.000    3.429    0.000    0.000    0.000    0.000 
#
# Total GULP energy -694457.561596 kJ/mol
# GULP energy per Si atom -12401.027886 kJ/mol
# Density = 1.781891 g / cm^3
# Si number density = 17.859559 Si / 1000 Ang^3
#
#
#
# Elastic Constant Matrix: (Units=GPa)
#
#
# Indices 1 2 3 4 5 6 
#
# 1 129.9643 37.8303 25.6027 0.0000 0.0000 0.0000
# 2 37.8303 73.4524 30.5420 0.0000 0.0000 0.0000
# 3 25.6027 30.5420 109.7202 0.0000 0.0000 0.0000
# 4 0.0000 0.0000 0.0000 11.3368 0.0000 0.0000
# 5 0.0000 0.0000 0.0000 0.0000 22.6579 0.0000
# 6 0.0000 0.0000 0.0000 0.0000 0.0000 10.9417
#
#
#
# Elastic Compliance Matrix: (Units=1/GPa)
#
#
# Indices 1 2 3 4 5 6 
#
# 1 0.009134 -0.004318 -0.000930 0.000000 0.000000 0.000000
# 2 -0.004318 0.017438 -0.003846 0.000000 0.000000 0.000000
# 3 -0.000930 -0.003846 0.010402 0.000000 0.000000 0.000000
# 4 0.000000 0.000000 0.000000 0.088208 0.000000 0.000000
# 5 0.000000 0.000000 0.000000 0.000000 0.044135 0.000000
# 6 0.000000 0.000000 0.000000 0.000000 0.000000 0.091394
#
#
# Mechanical properties :
#
#
# Convention : Reuss Voigt Hill
#
# Bulk Modulus (GPa) = 53.23158 55.67634 54.45396
# Shear Modulus (GPa) = 17.53401 23.59807 20.56604
#
# Velocity S-wave (km/s) = 3.13672 3.63893 3.39712
# Velocity P-wave (km/s) = 6.55661 6.99271 6.77816
#
# Compressibility (1/GPa) = 0.01878584
#
# Stress axis : x y z
#
# Youngs Moduli (GPa) = 109.47589 57.34761 96.13844
#
# Poissons Ratio (x) = 0.24763 0.08936
# Poissons Ratio (y) = 0.47272 0.36978
# Poissons Ratio (z) = 0.10176 0.22058
#
# Static dielectric constant tensor:
#      x y z
#    x 3.452060 0.000000 0.000000 
#    y 0.000000 2.906160 0.000000 
#    z 0.000000 0.000000 3.468150 
# 
# 
# High freq. dielectric constant tensor:
#      x y z
#    x 1.705470 0.000000 0.000000 
#    y 0.000000 1.638440 0.000000 
#    z 0.000000 0.000000 1.699970 
# 
# From -- ./inp_files/24273.got.cif
#   From: 2010.03.12/outbox.cif.g09.slc.cpg/sg51_13_cif.got.tgz:24273.got - 2010.04.16 13:43:02.
