data_PCOD8208154
_publ_section_title
;
Structure prediction by ZEFSAII (Michael W. Deem and Ramdas Pophale) SiO2 
 PCOD8208154
Probable space group: P M M A
;
_chemical_formula_sum "Si O2"
_cell_formula_units_Z 56
_cell_length_a 19.111482
_cell_length_b 15.190605
_cell_length_c 9.929369
_cell_angle_alpha 90.000000
_cell_angle_beta 90.000000
_cell_angle_gamma 90.000000
_cell_volume 2882.644503
_symmetry_space_group_name_H-M "P M M A"
_symmetry_group_IT_number 51
_symmetry_cell_setting 'orthorhombic'
loop_
_space_group_symop_operation_xyz
x,y,z
1/2-x,-y,z
1/2+x,-y,-z
-x,y,-z
-x,-y,-z
1/2+x,y,-z
1/2-x,y,z
x,-y,z
loop_
_atom_site_type_symbol
_atom_site_label
_atom_site_fract_x
_atom_site_fract_y
_atom_site_fract_z
Si Si1 0.430358 0.216855 0.674353
Si Si2 0.430964 0.099198 0.926007
Si Si3 0.670294 0.639375 0.974321
Si Si4 0.070007 0.597730 0.783831
Si Si5 0.829132 0.166316 0.873467
Si Si6 0.913809 0.405182 0.729880
Si Si7 0.090392 0.778279 0.380690
O O1 0.404843 0.158675 0.800485
O O2 0.409560 0.319934 0.689339
O O3 0.394345 0.188263 0.532915
O O4 0.512479 0.198350 0.664608
O O5 0.445171 0.000000 0.874272
O O6 0.500000 0.138638 0.000000
O O7 0.370983 0.095077 0.039543
O O8 0.750000 0.613976 0.013399
O O9 0.615797 0.604193 0.082601
O O10 0.662366 0.743460 0.955563
O O11 0.650207 0.593908 0.834246
O O12 0.084169 0.500000 0.719558
O O13 0.986786 0.607811 0.812467
O O14 0.750000 0.134414 0.862259
O O15 0.857146 0.173994 0.720969
O O16 0.914228 0.500000 0.654355
O O17 0.902173 0.328099 0.621554
#
# Coordination Sequence:
#
# PCOD8208154 Si02
#       7
#     8   8   8   8   8   8   8
#     4  10  19  36  58  83 117 148 186 237 283 330
#     4  11  22  38  63  91 114 143 184 233 286 341
#     4  10  19  30  48  75 106 143 187 235 280 325
#     4  10  19  30  49  77 109 147 187 229 280 330
#     4  10  20  37  59  83 113 150 189 233 284 338
#     4   9  18  30  47  73 107 147 190 230 274 330
#     4   9  19  34  56  81 113 153 188 226 285 337
#
# _framework density 19.426607000000001
#
# number of rings (size 3 to 8) (size 9 to 14) (size 15 to 20)
#    0.000    2.143    2.857    0.857    0.000    3.143 
#    0.000    6.429    0.000    0.000    0.000    2.000 
#    0.000    0.000    0.000    0.000    0.000    0.000 
#
# Total GULP energy -693952.353479 kJ/mol
# GULP energy per Si atom -12392.006312 kJ/mol
# Density = 1.938239 g / cm^3
# Si number density = 19.426607 Si / 1000 Ang^3
#
#
#
# Elastic Constant Matrix: (Units=GPa)
#
#
# Indices 1 2 3 4 5 6 
#
# 1 80.0606 15.4262 44.4597 0.0000 0.0000 0.0000
# 2 15.4262 63.9799 37.9126 0.0000 0.0000 0.0000
# 3 44.4597 37.9126 118.5240 0.0000 0.0000 0.0000
# 4 0.0000 0.0000 0.0000 9.7500 0.0000 0.0000
# 5 0.0000 0.0000 0.0000 0.0000 19.2793 0.0000
# 6 0.0000 0.0000 0.0000 0.0000 0.0000 13.7797
#
#
#
# Elastic Compliance Matrix: (Units=1/GPa)
#
#
# Indices 1 2 3 4 5 6 
#
# 1 0.015784 -0.000367 -0.005803 0.000000 0.000000 0.000000
# 2 -0.000367 0.019294 -0.006034 0.000000 0.000000 0.000000
# 3 -0.005803 -0.006034 0.012544 0.000000 0.000000 0.000000
# 4 0.000000 0.000000 0.000000 0.102564 0.000000 0.000000
# 5 0.000000 0.000000 0.000000 0.000000 0.051869 0.000000
# 6 0.000000 0.000000 0.000000 0.000000 0.000000 0.072570
#
#
# Mechanical properties :
#
#
# Convention : Reuss Voigt Hill
#
# Bulk Modulus (GPa) = 43.07804 50.90683 46.99243
# Shear Modulus (GPa) = 16.29877 19.54621 17.92249
#
# Velocity S-wave (km/s) = 2.89968 3.17544 3.04069
# Velocity P-wave (km/s) = 5.78219 6.30128 6.04731
#
# Compressibility (1/GPa) = 0.02321368
#
# Stress axis : x y z
#
# Youngs Moduli (GPa) = 63.35525 51.82973 79.71827
#
# Poissons Ratio (x) = 0.01901 0.46264
# Poissons Ratio (y) = 0.02323 0.48102
# Poissons Ratio (z) = 0.36768 0.31274
#
# Static dielectric constant tensor:
#      x y z
#    x 3.405690 0.000000 0.000000 
#    y 0.000000 3.475520 0.000000 
#    z 0.000000 0.000000 3.355030 
# 
# 
# High freq. dielectric constant tensor:
#      x y z
#    x 1.735820 0.000000 0.000000 
#    y 0.000000 1.749760 0.000000 
#    z 0.000000 0.000000 1.736700 
# 
# From -- ./inp_files/11117.got.cif
#   From: 2010.03.12/outbox.cif.g09.slc.cpg/sg51_6_cif.got.tgz:11117.got - 2010.04.16 13:43:02.
