data_PCOD8208331
_publ_section_title
;
Structure prediction by ZEFSAII (Michael W. Deem and Ramdas Pophale) SiO2 
 PCOD8208331
Probable space group: P M M A
;
_chemical_formula_sum "Si O2"
_cell_formula_units_Z 64
_cell_length_a 28.207756
_cell_length_b 9.048924
_cell_length_c 15.502653
_cell_angle_alpha 90.000000
_cell_angle_beta 90.000000
_cell_angle_gamma 90.000000
_cell_volume 3957.049702
_symmetry_space_group_name_H-M "P M M A"
_symmetry_group_IT_number 51
_symmetry_cell_setting 'orthorhombic'
loop_
_space_group_symop_operation_xyz
x,y,z
1/2-x,-y,z
1/2+x,-y,-z
-x,y,-z
-x,-y,-z
1/2+x,y,-z
1/2-x,y,z
x,-y,z
loop_
_atom_site_type_symbol
_atom_site_label
_atom_site_fract_x
_atom_site_fract_y
_atom_site_fract_z
Si Si1 0.803755 0.826940 0.895839
Si Si2 0.697467 0.667597 0.071855
Si Si3 0.444577 0.827722 0.996566
Si Si4 0.558310 0.327916 0.336978
Si Si5 0.393561 0.675230 0.155789
Si Si6 0.443711 0.833138 0.494164
Si Si7 0.102843 0.329418 0.840371
Si Si8 0.949668 0.327043 0.675314
O O1 0.750000 0.787384 0.867763
O O2 0.840353 0.739649 0.834809
O O3 0.813609 0.000000 0.888597
O O4 0.812999 0.778847 0.994157
O O5 0.750000 0.695534 0.110561
O O6 0.693092 0.500000 0.035951
O O7 0.659108 0.695062 0.146656
O O8 0.418409 0.738361 0.071135
O O9 0.433068 0.000000 0.007952
O O10 0.500000 0.794747 0.000000
O O11 0.426665 0.772896 0.904301
O O12 0.561384 0.500000 0.358131
O O13 0.577952 0.243346 0.420903
O O14 0.591179 0.281639 0.256959
O O15 0.504538 0.282220 0.313813
O O16 0.391529 0.500000 0.147657
O O17 0.422654 0.726983 0.239386
O O18 0.500000 0.821719 0.500000
O O19 0.426361 0.752305 0.407399
O O20 0.425388 0.000000 0.490859
O O21 0.088047 0.500000 0.855931
O O22 0.943556 0.500000 0.660722
#
# Coordination Sequence:
#
# PCOD8208331 Si02
#       8
#     8   8   8   8   8   8   8   8
#     4  10  20  33  49  69  94 124 158 198 244 288
#     4   9  17  30  48  69  92 120 157 199 239 277
#     4  11  23  34  44  63  95 132 164 195 233 278
#     4   9  17  30  47  67  93 124 158 193 233 282
#     4  11  21  33  50  71  94 125 163 200 238 283
#     4   9  17  29  46  68  92 119 152 192 238 282
#     4  10  19  31  48  69  92 125 162 196 234 278
#     4   9  18  31  47  67  92 123 157 194 234 279
#
# _framework density 16.173666000000001
#
# number of rings (size 3 to 8) (size 9 to 14) (size 15 to 20)
#    0.000    2.250    1.250    2.250    0.000    5.750 
#    0.000    2.500    0.000    0.000    0.000    0.875 
#    0.000    5.000    0.000    0.000    0.000    0.000 
#
# Total GULP energy -793639.984280 kJ/mol
# GULP energy per Si atom -12400.624754 kJ/mol
# Density = 1.613685 g / cm^3
# Si number density = 16.173666 Si / 1000 Ang^3
#
#
#
# Elastic Constant Matrix: (Units=GPa)
#
#
# Indices 1 2 3 4 5 6 
#
# 1 76.5495 30.9674 33.8298 0.0000 0.0000 0.0000
# 2 30.9674 60.9303 32.2642 0.0000 0.0000 0.0000
# 3 33.8298 32.2642 86.8522 0.0000 0.0000 0.0000
# 4 0.0000 0.0000 0.0000 9.5518 0.0000 0.0000
# 5 0.0000 0.0000 0.0000 0.0000 13.0953 0.0000
# 6 0.0000 0.0000 0.0000 0.0000 0.0000 20.0279
#
#
#
# Elastic Compliance Matrix: (Units=1/GPa)
#
#
# Indices 1 2 3 4 5 6 
#
# 1 0.017713 -0.006659 -0.004426 0.000000 0.000000 0.000000
# 2 -0.006659 0.022935 -0.005926 0.000000 0.000000 0.000000
# 3 -0.004426 -0.005926 0.015439 0.000000 0.000000 0.000000
# 4 0.000000 0.000000 0.000000 0.104692 0.000000 0.000000
# 5 0.000000 0.000000 0.000000 0.000000 0.076363 0.000000
# 6 0.000000 0.000000 0.000000 0.000000 0.000000 0.049930
#
#
# Mechanical properties :
#
#
# Convention : Reuss Voigt Hill
#
# Bulk Modulus (GPa) = 45.32022 46.49497 45.90760
# Shear Modulus (GPa) = 15.22304 17.01971 16.12137
#
# Velocity S-wave (km/s) = 3.07127 3.24745 3.16059
# Velocity P-wave (km/s) = 6.37642 6.54759 6.46257
#
# Compressibility (1/GPa) = 0.02206520
#
# Stress axis : x y z
#
# Youngs Moduli (GPa) = 56.45513 43.60216 64.77057
#
# Poissons Ratio (x) = 0.29035 0.28666
# Poissons Ratio (y) = 0.37594 0.38383
# Poissons Ratio (z) = 0.24985 0.25839
#
# Static dielectric constant tensor:
#      x y z
#    x 3.132200 0.000000 0.000000 
#    y 0.000000 3.123610 0.000000 
#    z 0.000000 0.000000 3.023180 
# 
# 
# High freq. dielectric constant tensor:
#      x y z
#    x 1.604610 0.000000 0.000000 
#    y 0.000000 1.629540 0.000000 
#    z 0.000000 0.000000 1.607170 
# 
# From -- ./inp_files/26573.got.cif
#   From: 2010.03.12/outbox.cif.g09.slc.cpg/sg51_14_cif.got.tgz:26573.got - 2010.04.16 13:43:02.
