data_PCOD8208960
_publ_section_title
;
Structure prediction by ZEFSAII (Michael W. Deem and Ramdas Pophale) SiO2 
 PCOD8208960
Probable space group: P M M A
;
_chemical_formula_sum "Si O2"
_cell_formula_units_Z 64
_cell_length_a 8.993211
_cell_length_b 18.224884
_cell_length_c 20.721944
_cell_angle_alpha 90.000000
_cell_angle_beta 90.000000
_cell_angle_gamma 90.000000
_cell_volume 3396.331331
_symmetry_space_group_name_H-M "P M M A"
_symmetry_group_IT_number 51
_symmetry_cell_setting 'orthorhombic'
loop_
_space_group_symop_operation_xyz
x,y,z
1/2-x,-y,z
1/2+x,-y,-z
-x,y,-z
-x,-y,-z
1/2+x,y,-z
1/2-x,y,z
x,-y,z
loop_
_atom_site_type_symbol
_atom_site_label
_atom_site_fract_x
_atom_site_fract_y
_atom_site_fract_z
Si Si1 0.924120 0.180244 0.808917
Si Si2 0.924627 0.667621 0.565965
Si Si3 0.427112 0.917279 0.308675
Si Si4 0.576534 0.837735 0.564753
Si Si5 0.918244 0.647267 0.063395
Si Si6 0.579810 0.414083 0.317417
Si Si7 0.416440 0.821870 0.937572
Si Si8 0.574796 0.649653 0.805837
O O1 0.750000 0.169199 0.819061
O O2 0.987175 0.132071 0.750021
O O3 0.961815 0.264826 0.794526
O O4 0.002347 0.150738 0.873242
O O5 0.750000 0.651976 0.561897
O O6 0.960170 0.752861 0.577227
O O7 0.000000 0.639673 0.500000
O O8 0.992157 0.624664 0.625491
O O9 0.250000 0.914634 0.309272
O O10 0.488565 0.883817 0.375400
O O11 0.486530 0.000000 0.300718
O O12 0.500000 0.866985 0.500000
O O13 0.750000 0.851024 0.556496
O O14 0.750000 0.616625 0.066296
O O15 0.917022 0.734517 0.059830
O O16 0.008156 0.621480 0.126444
O O17 0.000000 0.615173 0.000000
O O18 0.750000 0.386452 0.315783
O O19 0.571747 0.500000 0.330054
O O20 0.501921 0.396422 0.250035
O O21 0.250000 0.853076 0.937630
O O22 0.500000 0.854179 0.000000
O O23 0.750000 0.634811 0.805672
#
# Coordination Sequence:
#
# PCOD8208960 Si02
#       8
#     8   8   8   8   8   8   8   8
#     4   9  17  30  49  73  99 129 168 211 252 297
#     4  10  20  36  58  81 105 133 167 208 252 300
#     4   9  17  30  49  72 100 135 171 206 247 296
#     4   9  18  33  53  78 104 131 166 206 247 293
#     4   9  16  27  45  72 104 134 167 209 257 306
#     4  11  24  39  54  75 104 136 170 209 252 300
#     4   9  16  26  43  69  99 129 161 203 254 302
#     4  10  19  32  52  76 102 134 172 213 256 303
#
# _framework density 18.843862000000001
#
# number of rings (size 3 to 8) (size 9 to 14) (size 15 to 20)
#    0.000    2.500    0.000    2.625    0.000    7.500 
#    0.000    0.625    0.000    1.875    0.000    0.000 
#    0.000    0.000    0.000    0.000    0.000    0.000 
#
# Total GULP energy -793690.774801 kJ/mol
# GULP energy per Si atom -12401.418356 kJ/mol
# Density = 1.880097 g / cm^3
# Si number density = 18.843862 Si / 1000 Ang^3
#
#
#
# Elastic Constant Matrix: (Units=GPa)
#
#
# Indices 1 2 3 4 5 6 
#
# 1 84.5818 16.5295 40.2780 0.0000 0.0000 0.0000
# 2 16.5295 26.9715 15.0373 0.0000 0.0000 0.0000
# 3 40.2780 15.0373 128.1394 0.0000 0.0000 0.0000
# 4 0.0000 0.0000 0.0000 -2.5892 0.0000 0.0000
# 5 0.0000 0.0000 0.0000 0.0000 40.3620 0.0000
# 6 0.0000 0.0000 0.0000 0.0000 0.0000 13.8004
#
#
#
# Elastic Compliance Matrix: (Units=1/GPa)
#
#
# Indices 1 2 3 4 5 6 
#
# 1 0.015061 -0.007052 -0.003907 0.000000 0.000000 0.000000
# 2 -0.007052 0.042974 -0.002826 0.000000 0.000000 0.000000
# 3 -0.003907 -0.002826 0.009364 0.000000 0.000000 0.000000
# 4 0.000000 0.000000 0.000000 -0.386220 0.000000 0.000000
# 5 0.000000 0.000000 0.000000 0.000000 0.024776 0.000000
# 6 0.000000 0.000000 0.000000 0.000000 0.000000 0.072462
#
#
# Mechanical properties :
#
#
# Convention : Reuss Voigt Hill
#
# Bulk Modulus (GPa) = 25.10770 42.59803 33.85286
# Shear Modulus (GPa) = -27.66448 21.50451 -3.07998
#
# Velocity S-wave (km/s) = -3.83572 3.38182 -1.27985
# Velocity P-wave (km/s) = 2.50280 6.15661 3.97742
#
# Compressibility (1/GPa) = 0.03982843
#
# Stress axis : x y z
#
# Youngs Moduli (GPa) = 66.39469 23.26993 106.79609
#
# Poissons Ratio (x) = 0.16411 0.41721
# Poissons Ratio (y) = 0.46824 0.30183
# Poissons Ratio (z) = 0.25938 0.06577
#
# Static dielectric constant tensor:
#      x y z
#    x 3.471100 0.000000 0.000000 
#    y 0.000000 3.162270 0.000000 
#    z 0.000000 0.000000 3.788040 
# 
# 
# High freq. dielectric constant tensor:
#      x y z
#    x 1.728370 0.000000 0.000000 
#    y 0.000000 1.695140 0.000000 
#    z 0.000000 0.000000 1.751170 
# 
# From -- ./inp_files/32372.got.cif
#   From: 2010.03.12/outbox.cif.g09.slc.cpg/sg51_17_cif.got.tgz:32372.got - 2010.04.16 13:43:02.
