data_PCOD8208422
_publ_section_title
;
Structure prediction by ZEFSAII (Michael W. Deem and Ramdas Pophale) SiO2 
 PCOD8208422
Probable space group: P M M A
;
_chemical_formula_sum "Si O2"
_cell_formula_units_Z 48
_cell_length_a 8.966858
_cell_length_b 23.388190
_cell_length_c 13.716638
_cell_angle_alpha 90.000000
_cell_angle_beta 90.000000
_cell_angle_gamma 90.000000
_cell_volume 2876.633825
_symmetry_space_group_name_H-M "P M M A"
_symmetry_group_IT_number 51
_symmetry_cell_setting 'orthorhombic'
loop_
_space_group_symop_operation_xyz
x,y,z
1/2-x,-y,z
1/2+x,-y,-z
-x,y,-z
-x,-y,-z
1/2+x,y,-z
1/2-x,y,z
x,-y,z
loop_
_atom_site_type_symbol
_atom_site_label
_atom_site_fract_x
_atom_site_fract_y
_atom_site_fract_z
Si Si1 0.076653 0.063752 0.901240
Si Si2 0.575639 0.565085 0.400083
Si Si3 0.420375 0.340729 0.288173
Si Si4 0.574455 0.172204 0.217668
Si Si5 0.924911 0.729065 0.899846
Si Si6 0.425791 0.225301 0.396649
O O1 0.250000 0.063702 0.924162
O O2 0.039840 0.107221 0.813880
O O3 0.021421 0.000000 0.871374
O O4 0.000000 0.085076 0.000000
O O5 0.500000 0.585780 0.500000
O O6 0.750000 0.571921 0.414212
O O7 0.530262 0.500000 0.375418
O O8 0.522387 0.604806 0.311502
O O9 0.250000 0.358939 0.303356
O O10 0.450401 0.321945 0.177242
O O11 0.462651 0.289075 0.360445
O O12 0.750000 0.184928 0.225591
O O13 0.503809 0.213574 0.136845
O O14 0.496933 0.180234 0.321902
O O15 0.750000 0.741654 0.913651
O O16 0.000000 0.708849 0.000000
O O17 0.500000 0.214667 0.500000
O O18 0.250000 0.214565 0.402078
#
# Coordination Sequence:
#
# PCOD8208422 Si02
#       6
#     8   8   8   8   8   8
#     4   9  18  31  47  69  96 125 157 193 233 278
#     4  10  20  32  48  71  97 125 156 191 231 275
#     4   9  19  33  49  70  95 124 155 190 232 277
#     4  10  19  31  49  71  96 127 159 193 236 281
#     4  10  20  33  49  71  98 126 158 195 236 281
#     4  10  20  33  49  71  98 125 157 195 236 282
#
# _framework density 16.686170000000001
#
# number of rings (size 3 to 8) (size 9 to 14) (size 15 to 20)
#    0.000    2.333    0.000    4.000    0.000    9.000 
#    0.000    0.000    0.000    1.000    0.000    0.000 
#    0.000    0.000    0.000    0.000    0.000    0.000 
#
# Total GULP energy -595290.857790 kJ/mol
# GULP energy per Si atom -12401.892871 kJ/mol
# Density = 1.664819 g / cm^3
# Si number density = 16.686170 Si / 1000 Ang^3
#
#
#
# Elastic Constant Matrix: (Units=GPa)
#
#
# Indices 1 2 3 4 5 6 
#
# 1 89.1699 51.3380 57.6164 0.0000 0.0000 0.0000
# 2 51.3380 91.0585 59.6795 0.0000 0.0000 0.0000
# 3 57.6164 59.6795 128.8612 0.0000 0.0000 0.0000
# 4 0.0000 0.0000 0.0000 22.1057 0.0000 0.0000
# 5 0.0000 0.0000 0.0000 0.0000 34.0696 0.0000
# 6 0.0000 0.0000 0.0000 0.0000 0.0000 25.7038
#
#
#
# Elastic Compliance Matrix: (Units=1/GPa)
#
#
# Indices 1 2 3 4 5 6 
#
# 1 0.018579 -0.007223 -0.004962 0.000000 0.000000 0.000000
# 2 -0.007223 0.018576 -0.005374 0.000000 0.000000 0.000000
# 3 -0.004962 -0.005374 0.012468 0.000000 0.000000 0.000000
# 4 0.000000 0.000000 0.000000 0.045237 0.000000 0.000000
# 5 0.000000 0.000000 0.000000 0.000000 0.029352 0.000000
# 6 0.000000 0.000000 0.000000 0.000000 0.000000 0.038905
#
#
# Mechanical properties :
#
#
# Convention : Reuss Voigt Hill
#
# Bulk Modulus (GPa) = 68.93749 71.81748 70.37749
# Shear Modulus (GPa) = 24.62227 25.73952 25.18089
#
# Velocity S-wave (km/s) = 3.84553 3.93181 3.88891
# Velocity P-wave (km/s) = 7.81801 7.98409 7.90149
#
# Compressibility (1/GPa) = 0.01450589
#
# Stress axis : x y z
#
# Youngs Moduli (GPa) = 53.82427 53.83325 80.20763
#
# Poissons Ratio (x) = 0.38881 0.39799
# Poissons Ratio (y) = 0.38875 0.43101
# Poissons Ratio (z) = 0.26708 0.28928
#
# Static dielectric constant tensor:
#      x y z
#    x 3.231810 0.000000 0.000000 
#    y 0.000000 3.151640 0.000000 
#    z 0.000000 0.000000 2.995880 
# 
# 
# High freq. dielectric constant tensor:
#      x y z
#    x 1.657630 0.000000 0.000000 
#    y 0.000000 1.630010 0.000000 
#    z 0.000000 0.000000 1.634320 
# 
# From -- ./inp_files/21986.got.cif
#   From: 2010.03.12/outbox.cif.g09.slc.cpg/sg51_11_cif.got.tgz:21986.got - 2010.04.16 13:43:02.
