data_PCOD8208183
_publ_section_title
;
Structure prediction by ZEFSAII (Michael W. Deem and Ramdas Pophale) SiO2 
 PCOD8208183
Probable space group: P M M A
;
_chemical_formula_sum "Si O2"
_cell_formula_units_Z 48
_cell_length_a 10.099837
_cell_length_b 27.486787
_cell_length_c 9.023266
_cell_angle_alpha 90.000000
_cell_angle_beta 90.000000
_cell_angle_gamma 90.000000
_cell_volume 2504.967538
_symmetry_space_group_name_H-M "P M M A"
_symmetry_group_IT_number 51
_symmetry_cell_setting 'orthorhombic'
loop_
_space_group_symop_operation_xyz
x,y,z
1/2-x,-y,z
1/2+x,-y,-z
-x,y,-z
-x,-y,-z
1/2+x,y,-z
1/2-x,y,z
x,-y,z
loop_
_atom_site_type_symbol
_atom_site_label
_atom_site_fract_x
_atom_site_fract_y
_atom_site_fract_z
Si Si1 0.098192 0.136318 0.363264
Si Si2 0.250000 0.620548 0.640496
Si Si3 0.750000 0.702686 0.869017
Si Si4 0.014729 0.553678 0.674711
Si Si5 0.599028 0.943977 0.871542
Si Si6 0.983940 0.772828 0.828996
Si Si7 0.750000 0.722069 0.210737
Si Si8 0.250000 0.602182 0.292418
O O1 0.250000 0.138400 0.419186
O O2 0.070379 0.086474 0.276025
O O3 0.071301 0.180807 0.254607
O O4 0.000000 0.138752 0.500000
O O5 0.124310 0.593868 0.713785
O O6 0.250000 0.677364 0.676440
O O7 0.250000 0.617638 0.463625
O O8 0.880748 0.729070 0.809294
O O9 0.750000 0.648426 0.811984
O O10 0.750000 0.700868 0.045992
O O11 0.053826 0.500000 0.735863
O O12 0.000000 0.550125 0.500000
O O13 0.877304 0.570007 0.748020
O O14 0.750000 0.935719 0.926642
O O15 0.572530 0.000000 0.830711
O O16 0.500000 0.926354 0.000000
O O17 0.122489 0.755617 0.758818
O O18 0.000000 0.787734 0.000000
#
# Coordination Sequence:
#
# PCOD8208183 Si02
#       8
#     8   4   4   8   8   8   4   4
#     4  11  24  39  57  86 121 155 190 238 294 343
#     4  10  19  32  50  78 100 133 171 222 269 324
#     4  10  20  37  55  77 107 143 176 228 281 331
#     4   9  17  30  49  74 102 133 173 216 261 318
#     4   9  19  38  63  90 120 157 201 245 286 336
#     4  10  21  39  59  79 105 147 191 235 278 340
#     4  10  22  35  57  81 105 137 186 224 283 337
#     4  10  19  30  52  74 102 135 173 214 269 324
#
# _framework density 19.161926999999999
#
# number of rings (size 3 to 8) (size 9 to 14) (size 15 to 20)
#    0.000    2.167    0.833    2.000    1.167    4.333 
#    0.000    0.000    0.000    3.000    0.000    0.000 
#    0.000    0.000    0.000    0.000    0.000    0.000 
#
# Total GULP energy -595302.546688 kJ/mol
# GULP energy per Si atom -12402.136389 kJ/mol
# Density = 1.911831 g / cm^3
# Si number density = 19.161927 Si / 1000 Ang^3
#
#
#
# Elastic Constant Matrix: (Units=GPa)
#
#
# Indices 1 2 3 4 5 6 
#
# 1 112.0858 22.7698 24.3491 0.0000 0.0000 0.0000
# 2 22.7698 82.2124 27.5254 0.0000 0.0000 0.0000
# 3 24.3491 27.5254 46.1846 0.0000 0.0000 0.0000
# 4 0.0000 0.0000 0.0000 22.5930 0.0000 0.0000
# 5 0.0000 0.0000 0.0000 0.0000 22.3558 0.0000
# 6 0.0000 0.0000 0.0000 0.0000 0.0000 60.9697
#
#
#
# Elastic Compliance Matrix: (Units=1/GPa)
#
#
# Indices 1 2 3 4 5 6 
#
# 1 0.010182 -0.001278 -0.004607 0.000000 0.000000 0.000000
# 2 -0.001278 0.015356 -0.008478 0.000000 0.000000 0.000000
# 3 -0.004607 -0.008478 0.029134 0.000000 0.000000 0.000000
# 4 0.000000 0.000000 0.000000 0.044261 0.000000 0.000000
# 5 0.000000 0.000000 0.000000 0.000000 0.044731 0.000000
# 6 0.000000 0.000000 0.000000 0.000000 0.000000 0.016402
#
#
# Mechanical properties :
#
#
# Convention : Reuss Voigt Hill
#
# Bulk Modulus (GPa) = 38.54067 43.30794 40.92431
# Shear Modulus (GPa) = 25.32406 32.23959 28.78183
#
# Velocity S-wave (km/s) = 3.63930 4.10626 3.87981
# Velocity P-wave (km/s) = 6.14949 6.71803 6.44003
#
# Compressibility (1/GPa) = 0.02594662
#
# Stress axis : x y z
#
# Youngs Moduli (GPa) = 98.21235 65.12051 34.32425
#
# Poissons Ratio (x) = 0.08321 0.15812
# Poissons Ratio (y) = 0.12549 0.29102
# Poissons Ratio (z) = 0.45242 0.55212
#
# Static dielectric constant tensor:
#      x y z
#    x 3.868020 0.000000 0.000000 
#    y 0.000000 3.568650 0.000000 
#    z 0.000000 0.000000 3.151590 
# 
# 
# High freq. dielectric constant tensor:
#      x y z
#    x 1.764360 0.000000 0.000000 
#    y 0.000000 1.756440 0.000000 
#    z 0.000000 0.000000 1.711560 
# 
# From -- ./inp_files/6335.got.cif
#   From: 2010.03.12/outbox.cif.g09.slc.cpg/sg51_4_cif.got.tgz:6335.got - 2010.04.16 13:43:02.
