data_PCOD8208680
_publ_section_title
;
Structure prediction by ZEFSAII (Michael W. Deem and Ramdas Pophale) SiO2 
 PCOD8208680
Probable space group: P M M A
;
_chemical_formula_sum "Si O2"
_cell_formula_units_Z 64
_cell_length_a 31.251715
_cell_length_b 8.880284
_cell_length_c 12.175604
_cell_angle_alpha 90.000000
_cell_angle_beta 90.000000
_cell_angle_gamma 90.000000
_cell_volume 3379.023599
_symmetry_space_group_name_H-M "P M M A"
_symmetry_group_IT_number 51
_symmetry_cell_setting 'orthorhombic'
loop_
_space_group_symop_operation_xyz
x,y,z
1/2-x,-y,z
1/2+x,-y,-z
-x,y,-z
-x,-y,-z
1/2+x,y,-z
1/2-x,y,z
x,-y,z
loop_
_atom_site_type_symbol
_atom_site_label
_atom_site_fract_x
_atom_site_fract_y
_atom_site_fract_z
Si Si1 0.390707 0.178259 0.860676
Si Si2 0.135360 0.822848 0.094253
Si Si3 0.450451 0.678512 0.487809
Si Si4 0.015151 0.178574 0.884224
Si Si5 0.201175 0.322308 0.485806
Si Si6 0.125040 0.821915 0.619758
Si Si7 0.200478 0.332522 0.237259
Si Si8 0.437607 0.822055 0.260384
O O1 0.438587 0.244963 0.855641
O O2 0.367309 0.223332 0.747569
O O3 0.393186 0.000000 0.871065
O O4 0.367797 0.244300 0.970186
O O5 0.179845 0.775511 0.147486
O O6 0.097089 0.764921 0.171969
O O7 0.132828 0.000000 0.086849
O O8 0.500000 0.733229 0.500000
O O9 0.447553 0.500000 0.495953
O O10 0.419604 0.748800 0.580299
O O11 0.430750 0.733192 0.372819
O O12 0.983694 0.225240 0.786264
O O13 0.016167 0.000000 0.895538
O O14 0.000000 0.248257 0.000000
O O15 0.250000 0.279708 0.519589
O O16 0.194259 0.500000 0.498820
O O17 0.167316 0.234637 0.559108
O O18 0.192616 0.272170 0.360421
O O19 0.120596 0.000000 0.603965
O O20 0.250000 0.335176 0.209996
O O21 0.181133 0.500000 0.225961
O O22 0.433594 0.000000 0.282702
#
# Coordination Sequence:
#
# PCOD8208680 Si02
#       8
#     8   8   8   8   8   8   8   8
#     4   9  18  32  49  75 110 143 175 215 264 315
#     4  10  19  32  52  80 108 133 167 210 260 315
#     4  11  24  39  53  73 109 152 187 224 274 329
#     4   9  14  26  49  75 103 137 174 214 258 308
#     4   9  19  38  62  84 109 144 182 222 274 334
#     4  11  22  36  57  83 111 144 184 232 279 324
#     4   9  19  36  56  77 102 133 169 211 261 315
#     4  10  19  31  54  83 105 131 175 224 266 313
#
# _framework density 18.940384000000002
#
# number of rings (size 3 to 8) (size 9 to 14) (size 15 to 20)
#    0.000    2.250    1.250    3.000    0.000    5.500 
#    0.000    3.125    0.000    4.875    0.000    0.000 
#    0.000    0.000    0.000    0.000    0.000    0.000 
#
# Total GULP energy -793384.197009 kJ/mol
# GULP energy per Si atom -12396.628078 kJ/mol
# Density = 1.889727 g / cm^3
# Si number density = 18.940384 Si / 1000 Ang^3
#
#
#
# Elastic Constant Matrix: (Units=GPa)
#
#
# Indices 1 2 3 4 5 6 
#
# 1 103.7480 30.2251 66.0197 0.0000 0.0000 0.0000
# 2 30.2251 36.6005 37.1614 0.0000 0.0000 0.0000
# 3 66.0197 37.1614 148.8663 0.0000 0.0000 0.0000
# 4 0.0000 0.0000 0.0000 5.5117 0.0000 0.0000
# 5 0.0000 0.0000 0.0000 0.0000 31.9756 0.0000
# 6 0.0000 0.0000 0.0000 0.0000 0.0000 28.5065
#
#
#
# Elastic Compliance Matrix: (Units=1/GPa)
#
#
# Indices 1 2 3 4 5 6 
#
# 1 0.014803 -0.007446 -0.004706 0.000000 0.000000 0.000000
# 2 -0.007446 0.040344 -0.006769 0.000000 0.000000 0.000000
# 3 -0.004706 -0.006769 0.010494 0.000000 0.000000 0.000000
# 4 0.000000 0.000000 0.000000 0.181431 0.000000 0.000000
# 5 0.000000 0.000000 0.000000 0.000000 0.031274 0.000000
# 6 0.000000 0.000000 0.000000 0.000000 0.000000 0.035080
#
#
# Mechanical properties :
#
#
# Convention : Reuss Voigt Hill
#
# Bulk Modulus (GPa) = 35.97282 61.78080 48.87681
# Shear Modulus (GPa) = 13.86836 23.58600 18.72718
#
# Velocity S-wave (km/s) = 2.70888 3.53267 3.14784
# Velocity P-wave (km/s) = 5.36823 7.02347 6.25088
#
# Compressibility (1/GPa) = 0.02779876
#
# Stress axis : x y z
#
# Youngs Moduli (GPa) = 67.55538 24.78710 95.29150
#
# Poissons Ratio (x) = 0.18457 0.44844
# Poissons Ratio (y) = 0.50303 0.64500
# Poissons Ratio (z) = 0.31791 0.16778
#
# Static dielectric constant tensor:
#      x y z
#    x 3.519920 0.000000 0.000000 
#    y 0.000000 3.160370 0.000000 
#    z 0.000000 0.000000 3.689640 
# 
# 
# High freq. dielectric constant tensor:
#      x y z
#    x 1.734970 0.000000 0.000000 
#    y 0.000000 1.702760 0.000000 
#    z 0.000000 0.000000 1.745350 
# 
# From -- ./inp_files/19581.got.cif
#   From: 2010.03.12/outbox.cif.g09.slc.cpg/sg51_10_cif.got.tgz:19581.got - 2010.04.16 13:43:02.
