data_PCOD8208410
_publ_section_title
;
Structure prediction by ZEFSAII (Michael W. Deem and Ramdas Pophale) SiO2 
 PCOD8208410
Probable space group: P M M A
;
_chemical_formula_sum "Si O2"
_cell_formula_units_Z 64
_cell_length_a 17.538368
_cell_length_b 9.250432
_cell_length_c 22.549943
_cell_angle_alpha 90.000000
_cell_angle_beta 90.000000
_cell_angle_gamma 90.000000
_cell_volume 3658.445939
_symmetry_space_group_name_H-M "P M M A"
_symmetry_group_IT_number 51
_symmetry_cell_setting 'orthorhombic'
loop_
_space_group_symop_operation_xyz
x,y,z
1/2-x,-y,z
1/2+x,-y,-z
-x,y,-z
-x,-y,-z
1/2+x,y,-z
1/2-x,y,z
x,-y,z
loop_
_atom_site_type_symbol
_atom_site_label
_atom_site_fract_x
_atom_site_fract_y
_atom_site_fract_z
Si Si1 0.925173 0.840603 0.039451
Si Si2 0.612381 0.669306 0.425291
Si Si3 0.459628 0.170482 0.133236
Si Si4 0.834600 0.162881 0.535477
Si Si5 0.839021 0.669908 0.946245
Si Si6 0.022226 0.168833 0.742901
Si Si7 0.471817 0.167768 0.385292
Si Si8 0.664496 0.331805 0.295331
O O1 0.958604 0.788257 0.102910
O O2 0.887043 0.000000 0.044108
O O3 0.864198 0.730839 0.010861
O O4 0.000000 0.850026 0.000000
O O5 0.603005 0.500000 0.434018
O O6 0.659691 0.731149 0.479888
O O7 0.529406 0.741105 0.425402
O O8 0.655718 0.708677 0.364550
O O9 0.387965 0.256323 0.106044
O O10 0.469072 0.214881 0.201926
O O11 0.443176 0.000000 0.124599
O O12 0.750000 0.174431 0.561656
O O13 0.888516 0.206209 0.590262
O O14 0.853251 0.000000 0.513765
O O15 0.750000 0.704148 0.935816
O O16 0.855230 0.500000 0.945713
O O17 0.104262 0.246424 0.744937
O O18 0.976464 0.213910 0.683631
O O19 0.039755 0.000000 0.745667
O O20 0.492615 0.000000 0.392450
O O21 0.750000 0.289497 0.275375
O O22 0.648706 0.500000 0.285736
#
# Coordination Sequence:
#
# PCOD8208410 Si02
#       8
#     8   8   8   8   8   8   8   8
#     4   8  15  29  49  71  95 123 154 189 231 278
#     4  10  19  31  49  71  93 119 154 195 239 290
#     4   9  18  33  52  74  98 126 163 201 236 279
#     4  10  20  32  46  66  93 123 154 192 241 292
#     4  10  20  32  48  74 104 130 160 198 236 276
#     4   9  18  33  52  72  94 124 164 202 233 274
#     4   9  18  33  50  68  93 124 157 195 238 285
#     4   9  18  32  48  68  95 124 154 192 240 290
#
# _framework density 17.493766000000001
#
# number of rings (size 3 to 8) (size 9 to 14) (size 15 to 20)
#    0.000    2.750    0.000    2.250    0.000    7.250 
#    0.000    1.250    0.000    6.000    0.000    0.000 
#    0.000    0.000    0.000    0.000    0.000    0.000 
#
# Total GULP energy -793409.205709 kJ/mol
# GULP energy per Si atom -12397.018839 kJ/mol
# Density = 1.745395 g / cm^3
# Si number density = 17.493766 Si / 1000 Ang^3
#
#
#
# Elastic Constant Matrix: (Units=GPa)
#
#
# Indices 1 2 3 4 5 6 
#
# 1 114.0571 51.1002 46.6743 0.0000 0.0000 0.0000
# 2 51.1002 67.1986 33.7169 0.0000 0.0000 0.0000
# 3 46.6743 33.7169 77.5254 0.0000 0.0000 0.0000
# 4 0.0000 0.0000 0.0000 18.7453 0.0000 0.0000
# 5 0.0000 0.0000 0.0000 0.0000 21.2142 0.0000
# 6 0.0000 0.0000 0.0000 0.0000 0.0000 23.5587
#
#
#
# Elastic Compliance Matrix: (Units=1/GPa)
#
#
# Indices 1 2 3 4 5 6 
#
# 1 0.014728 -0.008635 -0.005111 0.000000 0.000000 0.000000
# 2 -0.008635 0.024098 -0.005282 0.000000 0.000000 0.000000
# 3 -0.005111 -0.005282 0.018274 0.000000 0.000000 0.000000
# 4 0.000000 0.000000 0.000000 0.053347 0.000000 0.000000
# 5 0.000000 0.000000 0.000000 0.000000 0.047138 0.000000
# 6 0.000000 0.000000 0.000000 0.000000 0.000000 0.042447
#
#
# Mechanical properties :
#
#
# Convention : Reuss Voigt Hill
#
# Bulk Modulus (GPa) = 52.51352 57.97376 55.24364
# Shear Modulus (GPa) = 20.45530 21.18960 20.82245
#
# Velocity S-wave (km/s) = 3.42320 3.48410 3.45378
# Velocity P-wave (km/s) = 6.76077 7.02829 6.89583
#
# Compressibility (1/GPa) = 0.01904272
#
# Stress axis : x y z
#
# Youngs Moduli (GPa) = 67.89827 41.49768 54.72401
#
# Poissons Ratio (x) = 0.35833 0.27972
# Poissons Ratio (y) = 0.58630 0.28904
# Poissons Ratio (z) = 0.34706 0.21918
#
# Static dielectric constant tensor:
#      x y z
#    x 3.221110 0.000000 0.000000 
#    y 0.000000 3.242590 0.000000 
#    z 0.000000 0.000000 3.472330 
# 
# 
# High freq. dielectric constant tensor:
#      x y z
#    x 1.665960 0.000000 0.000000 
#    y 0.000000 1.673410 0.000000 
#    z 0.000000 0.000000 1.664890 
# 
# From -- ./inp_files/33929.got.cif
#   From: 2010.03.12/outbox.cif.g09.slc.cpg/sg51_17_cif.got.tgz:33929.got - 2010.04.16 13:43:02.
