data_PCOD8208222
_publ_section_title
;
Structure prediction by ZEFSAII (Michael W. Deem and Ramdas Pophale) SiO2 
 PCOD8208222
Probable space group: P M M A
;
_chemical_formula_sum "Si O2"
_cell_formula_units_Z 64
_cell_length_a 8.740567
_cell_length_b 20.838714
_cell_length_c 18.655141
_cell_angle_alpha 90.000000
_cell_angle_beta 90.000000
_cell_angle_gamma 90.000000
_cell_volume 3397.887974
_symmetry_space_group_name_H-M "P M M A"
_symmetry_group_IT_number 51
_symmetry_cell_setting 'orthorhombic'
loop_
_space_group_symop_operation_xyz
x,y,z
1/2-x,-y,z
1/2+x,-y,-z
-x,y,-z
-x,-y,-z
1/2+x,y,-z
1/2-x,y,z
x,-y,z
loop_
_atom_site_type_symbol
_atom_site_label
_atom_site_fract_x
_atom_site_fract_y
_atom_site_fract_z
Si Si1 0.425161 0.067986 0.674051
Si Si2 0.071125 0.574059 0.849192
Si Si3 0.067698 0.324192 0.577274
Si Si4 0.427900 0.929658 0.175604
Si Si5 0.568336 0.429386 0.312110
Si Si6 0.430101 0.308547 0.076055
Si Si7 0.430248 0.200729 0.825160
Si Si8 0.927316 0.204267 0.339290
O O1 0.250000 0.074419 0.703175
O O2 0.539383 0.066238 0.740150
O O3 0.460394 0.132487 0.628088
O O4 0.443376 0.000000 0.630667
O O5 0.250000 0.588995 0.857975
O O6 0.036180 0.500000 0.868415
O O7 0.016088 0.589416 0.768087
O O8 0.978277 0.619451 0.902551
O O9 0.250000 0.324489 0.571959
O O10 0.004803 0.379140 0.630332
O O11 0.998396 0.257353 0.608730
O O12 0.000000 0.337540 0.500000
O O13 0.250000 0.916075 0.163134
O O14 0.521574 0.869363 0.142895
O O15 0.472669 0.000000 0.141791
O O16 0.750000 0.430462 0.313127
O O17 0.504860 0.500000 0.332152
O O18 0.250000 0.304885 0.070357
O O19 0.487763 0.257519 0.133563
O O20 0.500000 0.289907 0.000000
O O21 0.250000 0.208870 0.833327
O O22 0.486640 0.206654 0.742586
O O23 0.750000 0.221150 0.337537
#
# Coordination Sequence:
#
# PCOD8208222 Si02
#       8
#     8   8   8   8   8   8   8   8
#     4   8  13  23  41  65  90 118 158 206 252 298
#     4   9  18  36  62  86 105 130 168 211 255 305
#     4  10  19  31  46  66  95 129 165 203 246 296
#     4   9  16  26  43  72 108 138 164 202 256 312
#     4   8  15  30  53  76  97 126 163 201 244 297
#     4  12  25  39  55  77 108 142 174 209 253 303
#     4  10  19  34  56  78 100 131 176 222 261 304
#     4   8  15  28  48  70  92 123 161 203 250 300
#
# _framework density 18.835229999999999
#
# number of rings (size 3 to 8) (size 9 to 14) (size 15 to 20)
#    0.000    2.750    0.000    4.125    0.000    3.500 
#    0.000    5.000    0.000    1.500    0.000    0.000 
#    0.000    0.000    0.000    0.000    0.000    0.000 
#
# Total GULP energy -792933.707607 kJ/mol
# GULP energy per Si atom -12389.589181 kJ/mol
# Density = 1.879236 g / cm^3
# Si number density = 18.835230 Si / 1000 Ang^3
#
#
#
# Elastic Constant Matrix: (Units=GPa)
#
#
# Indices 1 2 3 4 5 6 
#
# 1 60.5082 24.8186 11.3561 0.0000 0.0000 0.0000
# 2 24.8186 112.7324 17.8223 0.0000 0.0000 0.0000
# 3 11.3561 17.8223 39.2983 0.0000 0.0000 0.0000
# 4 0.0000 0.0000 0.0000 5.8549 0.0000 0.0000
# 5 0.0000 0.0000 0.0000 0.0000 21.3566 0.0000
# 6 0.0000 0.0000 0.0000 0.0000 0.0000 25.4678
#
#
#
# Elastic Compliance Matrix: (Units=1/GPa)
#
#
# Indices 1 2 3 4 5 6 
#
# 1 0.018681 -0.003511 -0.003806 0.000000 0.000000 0.000000
# 2 -0.003511 0.010216 -0.003618 0.000000 0.000000 0.000000
# 3 -0.003806 -0.003618 0.028187 0.000000 0.000000 0.000000
# 4 0.000000 0.000000 0.000000 0.170796 0.000000 0.000000
# 5 0.000000 0.000000 0.000000 0.000000 0.046824 0.000000
# 6 0.000000 0.000000 0.000000 0.000000 0.000000 0.039265
#
#
# Mechanical properties :
#
#
# Convention : Reuss Voigt Hill
#
# Bulk Modulus (GPa) = 28.39850 35.61478 32.00664
# Shear Modulus (GPa) = 14.38527 21.10533 17.74530
#
# Velocity S-wave (km/s) = 2.76659 3.35105 3.07275
# Velocity P-wave (km/s) = 5.03144 5.82429 5.44233
#
# Compressibility (1/GPa) = 0.03521313
#
# Stress axis : x y z
#
# Youngs Moduli (GPa) = 53.53001 97.88985 35.47716
#
# Poissons Ratio (x) = 0.34369 0.13503
# Poissons Ratio (y) = 0.18795 0.12837
# Poissons Ratio (z) = 0.20374 0.35419
#
# Static dielectric constant tensor:
#      x y z
#    x 3.178920 0.000000 0.000000 
#    y 0.000000 4.125400 0.000000 
#    z 0.000000 0.000000 3.145810 
# 
# 
# High freq. dielectric constant tensor:
#      x y z
#    x 1.704790 0.000000 0.000000 
#    y 0.000000 1.762750 0.000000 
#    z 0.000000 0.000000 1.685020 
# 
# From -- ./inp_files/28337.got.cif
#   From: 2010.03.12/outbox.cif.g09.slc.cpg/sg51_15_cif.got.tgz:28337.got - 2010.04.16 13:43:02.
