data_PCOD8208507
_publ_section_title
;
Structure prediction by ZEFSAII (Michael W. Deem and Ramdas Pophale) SiO2 
 PCOD8208507
Probable space group: P M M A
;
_chemical_formula_sum "Si O2"
_cell_formula_units_Z 64
_cell_length_a 16.109229
_cell_length_b 19.216548
_cell_length_c 11.187816
_cell_angle_alpha 90.000000
_cell_angle_beta 90.000000
_cell_angle_gamma 90.000000
_cell_volume 3463.342525
_symmetry_space_group_name_H-M "P M M A"
_symmetry_group_IT_number 51
_symmetry_cell_setting 'orthorhombic'
loop_
_space_group_symop_operation_xyz
x,y,z
1/2-x,-y,z
1/2+x,-y,-z
-x,y,-z
-x,-y,-z
1/2+x,y,-z
1/2-x,y,z
x,-y,z
loop_
_atom_site_type_symbol
_atom_site_label
_atom_site_fract_x
_atom_site_fract_y
_atom_site_fract_z
Si Si1 0.652729 0.422414 0.789970
Si Si2 0.659498 0.923300 0.769375
Si Si3 0.152477 0.306768 0.020262
Si Si4 0.156968 0.074640 0.512529
Si Si5 0.418713 0.280022 0.769226
Si Si6 0.446349 0.340563 0.391751
Si Si7 0.960170 0.817232 0.883855
Si Si8 0.153664 0.227778 0.536959
O O1 0.750000 0.424006 0.772222
O O2 0.617611 0.500000 0.812848
O O3 0.619313 0.394181 0.662533
O O4 0.629727 0.375970 0.905408
O O5 0.750000 0.896140 0.813070
O O6 0.658669 0.926139 0.628563
O O7 0.587191 0.873994 0.810014
O O8 0.643802 0.000000 0.822642
O O9 0.250000 0.289376 0.026468
O O10 0.125193 0.317387 0.882161
O O11 0.101316 0.245065 0.080601
O O12 0.250000 0.074277 0.564655
O O13 0.116162 0.148724 0.550647
O O14 0.114380 0.000000 0.555373
O O15 0.491497 0.327776 0.717719
O O16 0.461826 0.208239 0.806866
O O17 0.351515 0.264591 0.665941
O O18 0.500000 0.373793 0.500000
O O19 0.400497 0.270019 0.438731
O O20 0.000000 0.853069 0.000000
O O21 0.250000 0.226279 0.494974
#
# Coordination Sequence:
#
# PCOD8208507 Si02
#       8
#     8   8   8   8   8   8   8   8
#     4  10  21  37  58  84 110 139 181 226 264 316
#     4   9  17  30  48  71  99 132 175 223 265 316
#     4  10  20  35  57  78 102 139 180 220 268 317
#     4   8  15  27  45  71  99 129 171 219 261 306
#     4  10  20  34  50  78 111 133 174 225 267 317
#     4  10  20  34  54  79 111 145 176 219 265 325
#     4  10  19  31  50  71  99 132 172 220 268 321
#     4  10  19  32  54  78 106 145 185 222 267 319
#
# _framework density 18.479258999999999
#
# number of rings (size 3 to 8) (size 9 to 14) (size 15 to 20)
#    0.000    2.375    1.250    2.625    0.000    0.500 
#    0.000    1.875    0.000    6.375    0.000   14.000 
#    0.000    0.000    0.000    0.000    0.000    0.000 
#
# Total GULP energy -792904.166791 kJ/mol
# GULP energy per Si atom -12389.127606 kJ/mol
# Density = 1.843720 g / cm^3
# Si number density = 18.479259 Si / 1000 Ang^3
#
#
#
# Elastic Constant Matrix: (Units=GPa)
#
#
# Indices 1 2 3 4 5 6 
#
# 1 52.2231 24.3782 21.2145 0.0000 0.0000 0.0000
# 2 24.3782 101.1394 41.3621 0.0000 0.0000 0.0000
# 3 21.2145 41.3621 74.2148 0.0000 0.0000 0.0000
# 4 0.0000 0.0000 0.0000 23.0769 0.0000 0.0000
# 5 0.0000 0.0000 0.0000 0.0000 30.5345 0.0000
# 6 0.0000 0.0000 0.0000 0.0000 0.0000 -6.2592
#
#
#
# Elastic Compliance Matrix: (Units=1/GPa)
#
#
# Indices 1 2 3 4 5 6 
#
# 1 0.022655 -0.003642 -0.004446 0.000000 0.000000 0.000000
# 2 -0.003642 0.013392 -0.006422 0.000000 0.000000 0.000000
# 3 -0.004446 -0.006422 0.018325 0.000000 0.000000 0.000000
# 4 0.000000 0.000000 0.000000 0.043333 0.000000 0.000000
# 5 0.000000 0.000000 0.000000 0.000000 0.032750 0.000000
# 6 0.000000 0.000000 0.000000 0.000000 0.000000 -0.159765
#
#
# Mechanical properties :
#
#
# Convention : Reuss Voigt Hill
#
# Bulk Modulus (GPa) = 39.44798 44.60966 42.02882
# Shear Modulus (GPa) = 612.63980 18.84528 315.74254
#
# Velocity S-wave (km/s) = 18.22767 3.19691 13.08565
# Velocity P-wave (km/s) = 21.54973 6.14978 15.84630
#
# Compressibility (1/GPa) = 0.02534984
#
# Stress axis : x y z
#
# Youngs Moduli (GPa) = 44.14038 74.67237 54.57114
#
# Poissons Ratio (x) = 0.27199 0.24262
# Poissons Ratio (y) = 0.16078 0.35048
# Poissons Ratio (z) = 0.19625 0.47958
#
# Static dielectric constant tensor:
#      x y z
#    x 3.511590 0.000000 0.000000 
#    y 0.000000 3.555960 0.000000 
#    z 0.000000 0.000000 3.435370 
# 
# 
# High freq. dielectric constant tensor:
#      x y z
#    x 1.716210 0.000000 0.000000 
#    y 0.000000 1.701460 0.000000 
#    z 0.000000 0.000000 1.709740 
# 
# From -- ./inp_files/16833.got.cif
#   From: 2010.03.12/outbox.cif.g09.slc.cpg/sg51_9_cif.got.tgz:16833.got - 2010.04.16 13:43:02.
