data_PCOD8208764
_publ_section_title
;
Structure prediction by ZEFSAII (Michael W. Deem and Ramdas Pophale) SiO2 
 PCOD8208764
Probable space group: P M M A
;
_chemical_formula_sum "Si O2"
_cell_formula_units_Z 52
_cell_length_a 9.184076
_cell_length_b 10.309478
_cell_length_c 30.447847
_cell_angle_alpha 90.000000
_cell_angle_beta 90.000000
_cell_angle_gamma 90.000000
_cell_volume 2882.894395
_symmetry_space_group_name_H-M "P M M A"
_symmetry_group_IT_number 51
_symmetry_cell_setting 'orthorhombic'
loop_
_space_group_symop_operation_xyz
x,y,z
1/2-x,-y,z
1/2+x,-y,-z
-x,y,-z
-x,-y,-z
1/2+x,y,-z
1/2-x,y,z
x,-y,z
loop_
_atom_site_type_symbol
_atom_site_label
_atom_site_fract_x
_atom_site_fract_y
_atom_site_fract_z
Si Si1 0.909657 0.354497 0.871957
Si Si2 0.919889 0.648829 0.703993
Si Si3 0.579222 0.280429 0.046871
Si Si4 0.079989 0.148965 0.371011
Si Si5 0.087565 0.346228 0.791359
Si Si6 0.586751 0.153756 0.458399
Si Si7 0.412245 0.000000 0.956714
O O1 0.750000 0.287234 0.878371
O O2 0.882099 0.500000 0.855958
O O3 0.999244 0.367030 0.917351
O O4 0.001932 0.285056 0.833249
O O5 0.750000 0.660772 0.714646
O O6 0.958605 0.500000 0.690334
O O7 0.967087 0.750164 0.666569
O O8 0.005786 0.693534 0.747047
O O9 0.750000 0.317657 0.041968
O O10 0.557880 0.135237 0.068081
O O11 0.500000 0.297366 0.000000
O O12 0.250000 0.160395 0.381700
O O13 0.993914 0.194563 0.413958
O O14 0.041002 0.000000 0.357566
O O15 0.250000 0.286619 0.790769
O O16 0.097172 0.500000 0.795769
O O17 0.500000 0.212475 0.500000
O O18 0.750000 0.211272 0.458062
O O19 0.592039 0.000000 0.462466
O O20 0.250000 0.000000 0.974501
O O21 0.500000 0.000000 0.000000
#
# Coordination Sequence:
#
# PCOD8208764 Si02
#       7
#     8   8   8   8   8   8   4
#     4  10  20  33  49  70  96 124 154 189 230 276
#     4   9  17  30  49  71  94 122 157 196 236 282
#     4  10  19  32  50  71  95 122 153 189 229 274
#     4   9  17  29  46  69  97 127 157 193 238 284
#     4   9  17  30  49  71  92 117 152 192 231 272
#     4   9  16  26  42  65  93 125 161 199 237 280
#     4   8  16  30  48  68  88 114 148 186 222 260
#
# _framework density 18.037427999999998
#
# number of rings (size 3 to 8) (size 9 to 14) (size 15 to 20)
#    0.000    2.769    0.000    1.846    0.000    6.154 
#    0.000    0.000    1.692    0.462    0.000    0.000 
#    0.000    0.000    0.000    0.000    0.000    0.000 
#
# Total GULP energy -644317.343096 kJ/mol
# GULP energy per Si atom -12390.718136 kJ/mol
# Density = 1.799637 g / cm^3
# Si number density = 18.037428 Si / 1000 Ang^3
#
#
#
# Elastic Constant Matrix: (Units=GPa)
#
#
# Indices 1 2 3 4 5 6 
#
# 1 128.3142 22.9185 85.2070 0.0000 0.0000 0.0000
# 2 22.9185 41.9497 35.1795 0.0000 0.0000 0.0000
# 3 85.2070 35.1795 156.7313 0.0000 0.0000 0.0000
# 4 0.0000 0.0000 0.0000 18.0405 0.0000 0.0000
# 5 0.0000 0.0000 0.0000 0.0000 36.2475 0.0000
# 6 0.0000 0.0000 0.0000 0.0000 0.0000 12.6114
#
#
#
# Elastic Compliance Matrix: (Units=1/GPa)
#
#
# Indices 1 2 3 4 5 6 
#
# 1 0.012260 -0.001366 -0.006358 0.000000 0.000000 0.000000
# 2 -0.001366 0.029518 -0.005883 0.000000 0.000000 0.000000
# 3 -0.006358 -0.005883 0.011158 0.000000 0.000000 0.000000
# 4 0.000000 0.000000 0.000000 0.055431 0.000000 0.000000
# 5 0.000000 0.000000 0.000000 0.000000 0.027588 0.000000
# 6 0.000000 0.000000 0.000000 0.000000 0.000000 0.079293
#
#
# Mechanical properties :
#
#
# Convention : Reuss Voigt Hill
#
# Bulk Modulus (GPa) = 38.87905 68.17835 53.52870
# Shear Modulus (GPa) = 19.91754 25.62589 22.77172
#
# Velocity S-wave (km/s) = 3.32661 3.77332 3.55698
# Velocity P-wave (km/s) = 6.02964 7.54084 6.82718
#
# Compressibility (1/GPa) = 0.02572079
#
# Stress axis : x y z
#
# Youngs Moduli (GPa) = 81.56888 33.87789 89.62502
#
# Poissons Ratio (x) = 0.04626 0.56987
# Poissons Ratio (y) = 0.11139 0.52727
# Poissons Ratio (z) = 0.51865 0.19931
#
# Static dielectric constant tensor:
#      x y z
#    x 3.619200 0.000000 0.000000 
#    y 0.000000 3.124060 0.000000 
#    z 0.000000 0.000000 3.232830 
# 
# 
# High freq. dielectric constant tensor:
#      x y z
#    x 1.715040 0.000000 0.000000 
#    y 0.000000 1.651840 0.000000 
#    z 0.000000 0.000000 1.693530 
# 
# From -- ./inp_files/36201.got.cif
#   From: 2010.03.12/outbox.cif.g09.slc.cpg/sg51_19_cif.got.tgz:36201.got - 2010.04.16 13:43:02.
