data_PCOD8208342
_publ_section_title
;
Structure prediction by ZEFSAII (Michael W. Deem and Ramdas Pophale) SiO2 
 PCOD8208342
Probable space group: P M M A
;
_chemical_formula_sum "Si O2"
_cell_formula_units_Z 40
_cell_length_a 8.766290
_cell_length_b 18.811913
_cell_length_c 13.810306
_cell_angle_alpha 90.000000
_cell_angle_beta 90.000000
_cell_angle_gamma 90.000000
_cell_volume 2277.467020
_symmetry_space_group_name_H-M "P M M A"
_symmetry_group_IT_number 51
_symmetry_cell_setting 'orthorhombic'
loop_
_space_group_symop_operation_xyz
x,y,z
1/2-x,-y,z
1/2+x,-y,-z
-x,y,-z
-x,-y,-z
1/2+x,y,-z
1/2-x,y,z
x,-y,z
loop_
_atom_site_type_symbol
_atom_site_label
_atom_site_fract_x
_atom_site_fract_y
_atom_site_fract_z
Si Si1 0.930105 0.785863 0.287751
Si Si2 0.069340 0.352968 0.603319
Si Si3 0.073777 0.581378 0.214763
Si Si4 0.431184 0.294569 0.898155
Si Si5 0.069410 0.920854 0.603404
O O1 0.750000 0.788987 0.285544
O O2 0.981913 0.726447 0.365309
O O3 0.987507 0.763841 0.180809
O O4 0.994633 0.863085 0.319497
O O5 0.250000 0.360804 0.599513
O O6 0.000000 0.371907 0.500000
O O7 0.004767 0.408396 0.681128
O O8 0.250000 0.603700 0.222256
O O9 0.055018 0.500000 0.182821
O O10 0.992359 0.628214 0.132488
O O11 0.250000 0.298486 0.904705
O O12 0.500000 0.270591 0.000000
O O13 0.250000 0.915485 0.593452
O O14 0.000000 0.902262 0.500000
O O15 0.019804 0.000000 0.637522
#
# Coordination Sequence:
#
# PCOD8208342 Si02
#       5
#     8   8   8   8   8
#     4   8  16  30  47  69  95 124 159 197 235 276
#     4  10  19  31  48  69  96 129 164 200 236 280
#     4  10  21  36  52  71  95 122 155 195 239 288
#     4  10  20  35  54  73  94 120 155 198 241 287
#     4   9  16  27  45  70 100 131 160 190 227 272
#
# _framework density 17.563371
#
# number of rings (size 3 to 8) (size 9 to 14) (size 15 to 20)
#    0.000    2.600    0.000    3.600    0.000    2.400 
#    0.000    5.000    0.000    0.600    0.000    0.000 
#    0.000    0.000    0.000    0.000    0.000    0.800 
#
# Total GULP energy -495900.142660 kJ/mol
# GULP energy per Si atom -12397.503566 kJ/mol
# Density = 1.752340 g / cm^3
# Si number density = 17.563371 Si / 1000 Ang^3
#
#
#
# Elastic Constant Matrix: (Units=GPa)
#
#
# Indices 1 2 3 4 5 6 
#
# 1 68.9983 30.1052 33.3655 0.0000 0.0000 0.0000
# 2 30.1052 112.6836 51.6395 0.0000 0.0000 0.0000
# 3 33.3655 51.6395 115.1670 0.0000 0.0000 0.0000
# 4 0.0000 0.0000 0.0000 22.8450 0.0000 0.0000
# 5 0.0000 0.0000 0.0000 0.0000 31.1348 0.0000
# 6 0.0000 0.0000 0.0000 0.0000 0.0000 17.9881
#
#
#
# Elastic Compliance Matrix: (Units=1/GPa)
#
#
# Indices 1 2 3 4 5 6 
#
# 1 0.017615 -0.002980 -0.003767 0.000000 0.000000 0.000000
# 2 -0.002980 0.011674 -0.004371 0.000000 0.000000 0.000000
# 3 -0.003767 -0.004371 0.011734 0.000000 0.000000 0.000000
# 4 0.000000 0.000000 0.000000 0.043773 0.000000 0.000000
# 5 0.000000 0.000000 0.000000 0.000000 0.032118 0.000000
# 6 0.000000 0.000000 0.000000 0.000000 0.000000 0.055592
#
#
# Mechanical properties :
#
#
# Convention : Reuss Voigt Hill
#
# Bulk Modulus (GPa) = 53.22837 58.56324 55.89580
# Shear Modulus (GPa) = 24.87498 26.50949 25.69223
#
# Velocity S-wave (km/s) = 3.76746 3.88927 3.82885
# Velocity P-wave (km/s) = 7.02120 7.32017 7.17224
#
# Compressibility (1/GPa) = 0.01878697
#
# Stress axis : x y z
#
# Youngs Moduli (GPa) = 56.77008 85.66337 85.21960
#
# Poissons Ratio (x) = 0.25525 0.32104
# Poissons Ratio (y) = 0.16916 0.37250
# Poissons Ratio (z) = 0.21387 0.37444
#
# Static dielectric constant tensor:
#      x y z
#    x 3.196480 0.000000 0.000000 
#    y 0.000000 3.520950 0.000000 
#    z 0.000000 0.000000 3.327070 
# 
# 
# High freq. dielectric constant tensor:
#      x y z
#    x 1.674410 0.000000 0.000000 
#    y 0.000000 1.672390 0.000000 
#    z 0.000000 0.000000 1.670580 
# 
# From -- ./inp_files/14024.got.cif
#   From: 2010.03.12/outbox.cif.g09.slc.cpg/sg51_8_cif.got.tgz:14024.got - 2010.04.16 13:43:02.
