data_PCOD8208214
_publ_section_title
;
Structure prediction by ZEFSAII (Michael W. Deem and Ramdas Pophale) SiO2 
 PCOD8208214
Probable space group: P M M A
;
_chemical_formula_sum "Si O2"
_cell_formula_units_Z 52
_cell_length_a 8.940081
_cell_length_b 13.997097
_cell_length_c 23.568469
_cell_angle_alpha 90.000000
_cell_angle_beta 90.000000
_cell_angle_gamma 90.000000
_cell_volume 2949.244633
_symmetry_space_group_name_H-M "P M M A"
_symmetry_group_IT_number 51
_symmetry_cell_setting 'orthorhombic'
loop_
_space_group_symop_operation_xyz
x,y,z
1/2-x,-y,z
1/2+x,-y,-z
-x,y,-z
-x,-y,-z
1/2+x,y,-z
1/2-x,y,z
x,-y,z
loop_
_atom_site_type_symbol
_atom_site_label
_atom_site_fract_x
_atom_site_fract_y
_atom_site_fract_z
Si Si1 0.574075 0.766820 0.654770
Si Si2 0.919866 0.500000 0.941947
Si Si3 0.572480 0.388701 0.271834
Si Si4 0.923711 0.293728 0.939152
Si Si5 0.925338 0.108114 0.439172
Si Si6 0.915572 0.740259 0.168459
Si Si7 0.416437 0.892445 0.741092
O O1 0.750000 0.753864 0.645075
O O2 0.504561 0.664914 0.674722
O O3 0.498257 0.807969 0.598164
O O4 0.542613 0.844848 0.702813
O O5 0.750000 0.500000 0.959708
O O6 0.958491 0.399981 0.912031
O O7 0.000000 0.500000 0.000000
O O8 0.750000 0.375104 0.278175
O O9 0.525434 0.500000 0.272006
O O10 0.519242 0.339856 0.212435
O O11 0.750000 0.272647 0.947848
O O12 0.988364 0.233183 0.887456
O O13 0.000000 0.274971 0.000000
O O14 0.750000 0.128334 0.444740
O O15 0.000000 0.115702 0.500000
O O16 0.952791 0.000000 0.414382
O O17 0.750000 0.707449 0.149252
O O18 0.910549 0.842076 0.198504
O O19 0.250000 0.884931 0.712331
O O20 0.464851 0.000000 0.751823
#
# Coordination Sequence:
#
# PCOD8208214 Si02
#       7
#     8   4   8   8   8   8   8
#     4  11  21  32  50  78 109 139 171 209 253 302
#     4   8  16  28  40  58  82 112 148 182 219 270
#     4   9  19  36  55  74  99 135 175 212 251 298
#     4  10  19  31  46  65  92 125 159 196 241 294
#     4  10  20  34  53  78 109 143 177 214 256 302
#     4   9  18  31  49  74  98 122 158 202 251 301
#     4   9  18  34  54  73  97 131 169 208 250 298
#
# _framework density 17.631633000000001
#
# number of rings (size 3 to 8) (size 9 to 14) (size 15 to 20)
#    0.000    2.462    0.000    3.692    1.077    6.462 
#    0.000    0.000    0.000    0.923    0.000    0.000 
#    0.000    0.000    0.000    0.000    0.000    0.000 
#
# Total GULP energy -644199.712014 kJ/mol
# GULP energy per Si atom -12388.456000 kJ/mol
# Density = 1.759150 g / cm^3
# Si number density = 17.631633 Si / 1000 Ang^3
#
#
#
# Elastic Constant Matrix: (Units=GPa)
#
#
# Indices 1 2 3 4 5 6 
#
# 1 89.6905 29.0631 46.1965 0.0000 0.0000 0.0000
# 2 29.0631 106.4061 36.8407 0.0000 0.0000 0.0000
# 3 46.1965 36.8407 92.1415 0.0000 0.0000 0.0000
# 4 0.0000 0.0000 0.0000 15.9759 0.0000 0.0000
# 5 0.0000 0.0000 0.0000 0.0000 32.3343 0.0000
# 6 0.0000 0.0000 0.0000 0.0000 0.0000 20.2167
#
#
#
# Elastic Compliance Matrix: (Units=1/GPa)
#
#
# Indices 1 2 3 4 5 6 
#
# 1 0.015313 -0.001769 -0.006970 0.000000 0.000000 0.000000
# 2 -0.001769 0.011112 -0.003556 0.000000 0.000000 0.000000
# 3 -0.006970 -0.003556 0.015769 0.000000 0.000000 0.000000
# 4 0.000000 0.000000 0.000000 0.062594 0.000000 0.000000
# 5 0.000000 0.000000 0.000000 0.000000 0.030927 0.000000
# 6 0.000000 0.000000 0.000000 0.000000 0.000000 0.049464
#
#
# Mechanical properties :
#
#
# Convention : Reuss Voigt Hill
#
# Bulk Modulus (GPa) = 56.80539 56.93765 56.87152
# Shear Modulus (GPa) = 23.18706 25.44790 24.31748
#
# Velocity S-wave (km/s) = 3.63034 3.80321 3.71778
# Velocity P-wave (km/s) = 7.06118 7.18672 7.12423
#
# Compressibility (1/GPa) = 0.01760396
#
# Stress axis : x y z
#
# Youngs Moduli (GPa) = 65.30532 89.98961 63.41512
#
# Poissons Ratio (x) = 0.15922 0.44199
# Poissons Ratio (y) = 0.11554 0.22550
# Poissons Ratio (z) = 0.45517 0.32000
#
# Static dielectric constant tensor:
#      x y z
#    x 3.260990 0.000000 0.000000 
#    y 0.000000 3.368540 0.000000 
#    z 0.000000 0.000000 3.131410 
# 
# 
# High freq. dielectric constant tensor:
#      x y z
#    x 1.683650 0.000000 0.000000 
#    y 0.000000 1.667360 0.000000 
#    z 0.000000 0.000000 1.669900 
# 
# From -- ./inp_files/31761.got.cif
#   From: 2010.03.12/outbox.cif.g09.slc.cpg/sg51_16_cif.got.tgz:31761.got - 2010.04.16 13:43:02.
