data_PCOD8208006
_publ_section_title
;
Structure prediction by ZEFSAII (Michael W. Deem and Ramdas Pophale) SiO2 
 PCOD8208006
Probable space group: P M M A
;
_chemical_formula_sum "Si O2"
_cell_formula_units_Z 48
_cell_length_a 9.283152
_cell_length_b 13.652393
_cell_length_c 23.736751
_cell_angle_alpha 90.000000
_cell_angle_beta 90.000000
_cell_angle_gamma 90.000000
_cell_volume 3008.330294
_symmetry_space_group_name_H-M "P M M A"
_symmetry_group_IT_number 51
_symmetry_cell_setting 'orthorhombic'
loop_
_space_group_symop_operation_xyz
x,y,z
1/2-x,-y,z
1/2+x,-y,-z
-x,y,-z
-x,-y,-z
1/2+x,y,-z
1/2-x,y,z
x,-y,z
loop_
_atom_site_type_symbol
_atom_site_label
_atom_site_fract_x
_atom_site_fract_y
_atom_site_fract_z
Si Si1 0.417746 0.277220 0.227528
Si Si2 0.416004 0.386999 0.113870
Si Si3 0.416259 0.112965 0.831701
Si Si4 0.920387 0.612407 0.323779
Si Si5 0.418070 0.222696 0.945155
Si Si6 0.908238 0.616014 0.449126
O O1 0.250000 0.262659 0.239818
O O2 0.446294 0.354465 0.177769
O O3 0.485134 0.172567 0.211570
O O4 0.493825 0.316304 0.283124
O O5 0.250000 0.367091 0.097829
O O6 0.457326 0.500000 0.108319
O O7 0.517558 0.328427 0.071182
O O8 0.250000 0.132756 0.816590
O O9 0.447605 0.145288 0.895692
O O10 0.457770 0.000000 0.825663
O O11 0.750000 0.628164 0.316827
O O12 0.960751 0.500000 0.310288
O O13 0.970943 0.640251 0.387214
O O14 0.250000 0.235002 0.958328
O O15 0.500000 0.182042 0.000000
O O16 0.750000 0.662103 0.454567
O O17 0.899274 0.500000 0.455984
O O18 0.000000 0.662856 0.500000
#
# Coordination Sequence:
#
# PCOD8208006 Si02
#       6
#     8   8   8   8   8   8
#     4  10  19  30  46  69  93 115 145 186 227 266
#     4   9  18  32  47  63  87 118 148 179 215 254
#     4   9  19  36  54  69  87 113 143 176 219 271
#     4   9  17  28  42  62  91 127 161 189 220 261
#     4  10  20  33  49  69  90 112 141 176 214 259
#     4   8  14  24  37  55  82 118 158 194 224 254
#
# _framework density 15.955695
#
# number of rings (size 3 to 8) (size 9 to 14) (size 15 to 20)
#    0.000    2.833    0.000    2.500    0.000    4.333 
#    0.000    1.667    0.000    0.000    0.000    0.000 
#    0.000    0.667    0.000    2.167    0.000    2.667 
#
# Total GULP energy -595156.257383 kJ/mol
# GULP energy per Si atom -12399.088695 kJ/mol
# Density = 1.591938 g / cm^3
# Si number density = 15.955695 Si / 1000 Ang^3
#
#
#
# Elastic Constant Matrix: (Units=GPa)
#
#
# Indices 1 2 3 4 5 6 
#
# 1 85.4457 46.1500 64.0997 0.0000 0.0000 0.0000
# 2 46.1500 82.9042 45.5460 0.0000 0.0000 0.0000
# 3 64.0997 45.5460 115.4337 0.0000 0.0000 0.0000
# 4 0.0000 0.0000 0.0000 14.3558 0.0000 0.0000
# 5 0.0000 0.0000 0.0000 0.0000 31.1901 0.0000
# 6 0.0000 0.0000 0.0000 0.0000 0.0000 20.9713
#
#
#
# Elastic Compliance Matrix: (Units=1/GPa)
#
#
# Indices 1 2 3 4 5 6 
#
# 1 0.023174 -0.007444 -0.009931 0.000000 0.000000 0.000000
# 2 -0.007444 0.017792 -0.002886 0.000000 0.000000 0.000000
# 3 -0.009931 -0.002886 0.015317 0.000000 0.000000 0.000000
# 4 0.000000 0.000000 0.000000 0.069658 0.000000 0.000000
# 5 0.000000 0.000000 0.000000 0.000000 0.032062 0.000000
# 6 0.000000 0.000000 0.000000 0.000000 0.000000 0.047684
#
#
# Mechanical properties :
#
#
# Convention : Reuss Voigt Hill
#
# Bulk Modulus (GPa) = 63.45578 66.15277 64.80427
# Shear Modulus (GPa) = 19.88362 21.83597 20.85979
#
# Velocity S-wave (km/s) = 3.53395 3.70339 3.61966
# Velocity P-wave (km/s) = 7.51719 7.73544 7.62710
#
# Compressibility (1/GPa) = 0.01575901
#
# Stress axis : x y z
#
# Youngs Moduli (GPa) = 43.15104 56.20586 65.28861
#
# Poissons Ratio (x) = 0.41841 0.64841
# Poissons Ratio (y) = 0.32123 0.18844
# Poissons Ratio (z) = 0.42855 0.16222
#
# Static dielectric constant tensor:
#      x y z
#    x 3.151630 0.000000 0.000000 
#    y 0.000000 2.756910 0.000000 
#    z 0.000000 0.000000 3.062200 
# 
# 
# High freq. dielectric constant tensor:
#      x y z
#    x 1.619460 0.000000 0.000000 
#    y 0.000000 1.577610 0.000000 
#    z 0.000000 0.000000 1.611180 
# 
# From -- ./inp_files/34550.got.cif
#   From: 2010.03.12/outbox.cif.g09.slc.cpg/sg51_18_cif.got.tgz:34550.got - 2010.04.16 13:43:02.
