data_PCOD8208218
_publ_section_title
;
Structure prediction by ZEFSAII (Michael W. Deem and Ramdas Pophale) SiO2 
 PCOD8208218
Probable space group: P M M A
;
_chemical_formula_sum "Si O2"
_cell_formula_units_Z 64
_cell_length_a 9.271376
_cell_length_b 19.164096
_cell_length_c 23.216578
_cell_angle_alpha 90.000000
_cell_angle_beta 90.000000
_cell_angle_gamma 90.000000
_cell_volume 4125.064460
_symmetry_space_group_name_H-M "P M M A"
_symmetry_group_IT_number 51
_symmetry_cell_setting 'orthorhombic'
loop_
_space_group_symop_operation_xyz
x,y,z
1/2-x,-y,z
1/2+x,-y,-z
-x,y,-z
-x,-y,-z
1/2+x,y,-z
1/2-x,y,z
x,-y,z
loop_
_atom_site_type_symbol
_atom_site_label
_atom_site_fract_x
_atom_site_fract_y
_atom_site_fract_z
Si Si1 0.417376 0.079394 0.780209
Si Si2 0.419010 0.201832 0.169825
Si Si3 0.415869 0.277073 0.731075
Si Si4 0.918571 0.080579 0.557762
Si Si5 0.915971 0.575702 0.237883
Si Si6 0.585113 0.149559 0.341000
Si Si7 0.082357 0.577749 0.120489
Si Si8 0.082438 0.713341 0.056795
O O1 0.250000 0.088507 0.795446
O O2 0.509275 0.125671 0.824572
O O3 0.447229 0.103009 0.714924
O O4 0.468445 0.000000 0.787095
O O5 0.250000 0.195584 0.181659
O O6 0.484274 0.254664 0.216261
O O7 0.452252 0.231045 0.106565
O O8 0.250000 0.263586 0.749701
O O9 0.444907 0.359568 0.718283
O O10 0.447256 0.230865 0.674279
O O11 0.750000 0.094622 0.549290
O O12 0.000000 0.103280 0.500000
O O13 0.976575 0.127915 0.609208
O O14 0.950757 0.000000 0.572393
O O15 0.750000 0.575061 0.219432
O O16 0.957946 0.500000 0.265761
O O17 0.004007 0.589133 0.180464
O O18 0.750000 0.138792 0.361672
O O19 0.250000 0.589685 0.133583
O O20 0.052089 0.500000 0.095587
O O21 0.028527 0.635850 0.075336
O O22 0.250000 0.711913 0.041986
O O23 0.000000 0.737628 0.000000
#
# Coordination Sequence:
#
# PCOD8208218 Si02
#       8
#     8   8   8   8   8   8   8   8
#     4   9  18  32  50  71  93 118 145 175 219 270
#     4  10  19  31  46  66  89 111 142 181 222 267
#     4   9  17  29  45  65  91 122 151 182 225 269
#     4  10  20  32  46  65  91 125 161 192 221 254
#     4   9  16  26  43  66  89 116 151 185 217 261
#     4   9  17  29  45  66  93 123 152 183 216 255
#     4   9  17  30  45  61  85 114 143 178 220 264
#     4  10  21  33  45  63  84 111 145 182 222 266
#
# _framework density 15.514908999999999
#
# number of rings (size 3 to 8) (size 9 to 14) (size 15 to 20)
#    0.000    2.625    1.250    1.875    0.000    5.250 
#    0.000    0.000    0.000    0.375    0.000    0.000 
#    0.000    0.500    0.000    0.875    0.000    1.250 
#
# Total GULP energy -793338.561028 kJ/mol
# GULP energy per Si atom -12395.915016 kJ/mol
# Density = 1.547960 g / cm^3
# Si number density = 15.514909 Si / 1000 Ang^3
#
#
#
# Elastic Constant Matrix: (Units=GPa)
#
#
# Indices 1 2 3 4 5 6 
#
# 1 65.4685 46.7319 47.3432 0.0000 0.0000 0.0000
# 2 46.7319 134.1043 56.6470 0.0000 0.0000 0.0000
# 3 47.3432 56.6470 78.9941 0.0000 0.0000 0.0000
# 4 0.0000 0.0000 0.0000 21.0453 0.0000 0.0000
# 5 0.0000 0.0000 0.0000 0.0000 26.6355 0.0000
# 6 0.0000 0.0000 0.0000 0.0000 0.0000 21.4332
#
#
#
# Elastic Compliance Matrix: (Units=1/GPa)
#
#
# Indices 1 2 3 4 5 6 
#
# 1 0.028291 -0.003868 -0.014182 0.000000 0.000000 0.000000
# 2 -0.003868 0.011226 -0.005732 0.000000 0.000000 0.000000
# 3 -0.014182 -0.005732 0.025269 0.000000 0.000000 0.000000
# 4 0.000000 0.000000 0.000000 0.047516 0.000000 0.000000
# 5 0.000000 0.000000 0.000000 0.000000 0.037544 0.000000
# 6 0.000000 0.000000 0.000000 0.000000 0.000000 0.046657
#
#
# Mechanical properties :
#
#
# Convention : Reuss Voigt Hill
#
# Bulk Modulus (GPa) = 58.06351 64.44566 61.25459
# Shear Modulus (GPa) = 20.01540 22.34579 21.18059
#
# Velocity S-wave (km/s) = 3.59566 3.79922 3.69884
# Velocity P-wave (km/s) = 7.39891 7.80215 7.60320
#
# Compressibility (1/GPa) = 0.01722252
#
# Stress axis : x y z
#
# Youngs Moduli (GPa) = 35.34682 89.07820 39.57419
#
# Poissons Ratio (x) = 0.34458 0.56123
# Poissons Ratio (y) = 0.13673 0.22684
# Poissons Ratio (z) = 0.50128 0.51059
#
# Static dielectric constant tensor:
#      x y z
#    x 2.948900 0.000000 0.000000 
#    y 0.000000 3.302910 0.000000 
#    z 0.000000 0.000000 2.654610 
# 
# 
# High freq. dielectric constant tensor:
#      x y z
#    x 1.601140 0.000000 0.000000 
#    y 0.000000 1.602290 0.000000 
#    z 0.000000 0.000000 1.554000 
# 
# From -- ./inp_files/32560.got.cif
#   From: 2010.03.12/outbox.cif.g09.slc.cpg/sg51_17_cif.got.tgz:32560.got - 2010.04.16 13:43:02.
