data_PCOD8208139
_publ_section_title
;
Structure prediction by ZEFSAII (Michael W. Deem and Ramdas Pophale) SiO2 
 PCOD8208139
Probable space group: P M M A
;
_chemical_formula_sum "Si O2"
_cell_formula_units_Z 56
_cell_length_a 9.555141
_cell_length_b 14.436888
_cell_length_c 23.212808
_cell_angle_alpha 90.000000
_cell_angle_beta 90.000000
_cell_angle_gamma 90.000000
_cell_volume 3202.125629
_symmetry_space_group_name_H-M "P M M A"
_symmetry_group_IT_number 51
_symmetry_cell_setting 'orthorhombic'
loop_
_space_group_symop_operation_xyz
x,y,z
1/2-x,-y,z
1/2+x,-y,-z
-x,y,-z
-x,-y,-z
1/2+x,y,-z
1/2-x,y,z
x,-y,z
loop_
_atom_site_type_symbol
_atom_site_label
_atom_site_fract_x
_atom_site_fract_y
_atom_site_fract_z
Si Si1 0.588037 0.893626 0.229897
Si Si2 0.583913 0.397725 0.838385
Si Si3 0.589888 0.896286 0.878624
Si Si4 0.913669 0.607795 0.709363
Si Si5 0.412532 0.894093 0.555816
Si Si6 0.585789 0.768354 0.336964
Si Si7 0.588236 0.278750 0.945069
O O1 0.750000 0.880254 0.215065
O O2 0.501998 0.860652 0.174458
O O3 0.541317 0.831907 0.283416
O O4 0.553970 0.000000 0.245302
O O5 0.750000 0.398681 0.837596
O O6 0.526132 0.500000 0.852595
O O7 0.534280 0.368000 0.774437
O O8 0.528842 0.329995 0.888230
O O9 0.750000 0.890732 0.857791
O O10 0.566750 0.830648 0.933836
O O11 0.547370 0.000000 0.897478
O O12 0.750000 0.629515 0.701674
O O13 0.943732 0.500000 0.695565
O O14 0.001378 0.671776 0.665530
O O15 0.500000 0.865798 0.500000
O O16 0.250000 0.882556 0.540837
O O17 0.458005 0.824575 0.606253
O O18 0.444583 0.000000 0.574809
O O19 0.750000 0.746137 0.336543
O O20 0.750000 0.303856 0.956562
O O21 0.500000 0.310725 0.000000
#
# Coordination Sequence:
#
# PCOD8208139 Si02
#       7
#     8   8   8   8   8   8   8
#     4   9  17  29  46  70  98 125 153 187 232 287
#     4   8  15  30  50  68  88 116 147 181 228 282
#     4   9  18  32  47  63  86 117 152 190 231 274
#     4   9  18  33  53  75  97 124 160 199 238 285
#     4   9  18  33  51  72 102 139 174 204 235 275
#     4  10  19  30  48  74 103 132 159 194 242 288
#     4  10  20  32  46  64  86 113 147 187 228 273
#
# _framework density 17.488384
#
# number of rings (size 3 to 8) (size 9 to 14) (size 15 to 20)
#    0.000    2.857    0.000    2.143    0.000    5.429 
#    0.000    0.714    0.000    5.571    0.000    0.000 
#    0.000    0.000    0.000    0.000    0.000    0.000 
#
# Total GULP energy -694288.863690 kJ/mol
# GULP energy per Si atom -12398.015423 kJ/mol
# Density = 1.744858 g / cm^3
# Si number density = 17.488384 Si / 1000 Ang^3
#
#
#
# Elastic Constant Matrix: (Units=GPa)
#
#
# Indices 1 2 3 4 5 6 
#
# 1 46.7774 38.5538 41.8760 0.0000 0.0000 0.0000
# 2 38.5538 93.8234 57.5958 0.0000 0.0000 0.0000
# 3 41.8760 57.5958 94.8791 0.0000 0.0000 0.0000
# 4 0.0000 0.0000 0.0000 25.1374 0.0000 0.0000
# 5 0.0000 0.0000 0.0000 0.0000 31.0957 0.0000
# 6 0.0000 0.0000 0.0000 0.0000 0.0000 25.2917
#
#
#
# Elastic Compliance Matrix: (Units=1/GPa)
#
#
# Indices 1 2 3 4 5 6 
#
# 1 0.039425 -0.008797 -0.012061 0.000000 0.000000 0.000000
# 2 -0.008797 0.018952 -0.007622 0.000000 0.000000 0.000000
# 3 -0.012061 -0.007622 0.020490 0.000000 0.000000 0.000000
# 4 0.000000 0.000000 0.000000 0.039781 0.000000 0.000000
# 5 0.000000 0.000000 0.000000 0.000000 0.032159 0.000000
# 6 0.000000 0.000000 0.000000 0.000000 0.000000 0.039539
#
#
# Mechanical properties :
#
#
# Convention : Reuss Voigt Hill
#
# Bulk Modulus (GPa) = 45.64599 56.83679 51.24139
# Shear Modulus (GPa) = 19.63805 22.80193 21.21999
#
# Velocity S-wave (km/s) = 3.35464 3.61478 3.48713
# Velocity P-wave (km/s) = 6.41578 7.07054 6.75110
#
# Compressibility (1/GPa) = 0.02190773
#
# Stress axis : x y z
#
# Youngs Moduli (GPa) = 25.36460 52.76438 48.80458
#
# Poissons Ratio (x) = 0.46416 0.58862
# Poissons Ratio (y) = 0.22313 0.37200
# Poissons Ratio (z) = 0.30591 0.40218
#
# Static dielectric constant tensor:
#      x y z
#    x 3.038170 0.000000 0.000000 
#    y 0.000000 3.373250 0.000000 
#    z 0.000000 0.000000 3.139370 
# 
# 
# High freq. dielectric constant tensor:
#      x y z
#    x 1.656890 0.000000 0.000000 
#    y 0.000000 1.680310 0.000000 
#    z 0.000000 0.000000 1.658360 
# 
# From -- ./inp_files/31906.got.cif
#   From: 2010.03.12/outbox.cif.g09.slc.cpg/sg51_16_cif.got.tgz:31906.got - 2010.04.16 13:43:02.
