data_PCOD8208074
_publ_section_title
;
Structure prediction by ZEFSAII (Michael W. Deem and Ramdas Pophale) SiO2 
 PCOD8208074
Probable space group: P M M A
;
_chemical_formula_sum "Si O2"
_cell_formula_units_Z 56
_cell_length_a 17.140506
_cell_length_b 15.708887
_cell_length_c 10.193563
_cell_angle_alpha 90.000000
_cell_angle_beta 90.000000
_cell_angle_gamma 90.000000
_cell_volume 2744.701158
_symmetry_space_group_name_H-M "P M M A"
_symmetry_group_IT_number 51
_symmetry_cell_setting 'orthorhombic'
loop_
_space_group_symop_operation_xyz
x,y,z
1/2-x,-y,z
1/2+x,-y,-z
-x,y,-z
-x,-y,-z
1/2+x,y,-z
1/2-x,y,z
x,-y,z
loop_
_atom_site_type_symbol
_atom_site_label
_atom_site_fract_x
_atom_site_fract_y
_atom_site_fract_z
Si Si1 0.842173 0.270022 0.433693
Si Si2 0.659803 0.910043 0.789836
Si Si3 0.159725 0.905691 0.685764
Si Si4 0.158351 0.593959 0.770542
Si Si5 0.157025 0.727390 0.275903
Si Si6 0.911841 0.673899 0.987721
Si Si7 0.913561 0.131716 0.045264
O O1 0.750000 0.273809 0.424358
O O2 0.867793 0.171354 0.409875
O O3 0.879412 0.334959 0.326948
O O4 0.867398 0.302844 0.578601
O O5 0.750000 0.908918 0.754566
O O6 0.622406 0.824125 0.731325
O O7 0.648435 0.909249 0.946371
O O8 0.624512 0.000000 0.734357
O O9 0.250000 0.891197 0.726736
O O10 0.150100 0.000000 0.619486
O O11 0.104403 0.904468 0.812128
O O12 0.250000 0.594891 0.751659
O O13 0.125625 0.500000 0.734705
O O14 0.140396 0.612912 0.922611
O O15 0.250000 0.725210 0.252526
O O16 0.116384 0.669795 0.164236
O O17 0.903066 0.767257 0.047600
O O18 0.000000 0.641126 0.000000
O O19 0.000000 0.104976 0.000000
#
# Coordination Sequence:
#
# PCOD8208074 Si02
#       7
#     8   8   8   8   8   8   8
#     4   9  18  34  54  78 109 141 175 222 271 321
#     4   9  17  28  44  68  98 132 174 222 268 311
#     4  10  19  30  49  77 107 143 185 227 275 328
#     4  10  20  36  61  87 109 139 178 221 274 332
#     4   9  18  33  55  79 106 143 181 221 271 322
#     4  10  20  35  56  81 109 143 181 225 273 322
#     4  10  19  30  47  71 103 143 183 223 268 314
#
# _framework density 20.402950000000001
#
# number of rings (size 3 to 8) (size 9 to 14) (size 15 to 20)
#    0.000    2.429    1.429    1.286    0.000    4.286 
#    0.000    4.286    0.000    3.429    0.000    4.000 
#    0.000    0.000    0.000    0.000    0.000    0.000 
#
# Total GULP energy -693863.627885 kJ/mol
# GULP energy per Si atom -12390.421927 kJ/mol
# Density = 2.035651 g / cm^3
# Si number density = 20.402950 Si / 1000 Ang^3
#
#
#
# Elastic Constant Matrix: (Units=GPa)
#
#
# Indices 1 2 3 4 5 6 
#
# 1 33.1589 17.2042 21.7816 0.0000 0.0000 0.0000
# 2 17.2042 113.1936 55.1673 0.0000 0.0000 0.0000
# 3 21.7816 55.1673 139.1599 0.0000 0.0000 0.0000
# 4 0.0000 0.0000 0.0000 17.6792 0.0000 0.0000
# 5 0.0000 0.0000 0.0000 0.0000 15.0112 0.0000
# 6 0.0000 0.0000 0.0000 0.0000 0.0000 12.5823
#
#
#
# Elastic Compliance Matrix: (Units=1/GPa)
#
#
# Indices 1 2 3 4 5 6 
#
# 1 0.034548 -0.003242 -0.004122 0.000000 0.000000 0.000000
# 2 -0.003242 0.011254 -0.003954 0.000000 0.000000 0.000000
# 3 -0.004122 -0.003954 0.009399 0.000000 0.000000 0.000000
# 4 0.000000 0.000000 0.000000 0.056564 0.000000 0.000000
# 5 0.000000 0.000000 0.000000 0.000000 0.066617 0.000000
# 6 0.000000 0.000000 0.000000 0.000000 0.000000 0.079477
#
#
# Mechanical properties :
#
#
# Convention : Reuss Voigt Hill
#
# Bulk Modulus (GPa) = 30.70857 52.64652 41.67755
# Shear Modulus (GPa) = 17.16154 21.81183 19.48669
#
# Velocity S-wave (km/s) = 2.90337 3.27318 3.09381
# Velocity P-wave (km/s) = 5.13061 6.33596 5.76487
#
# Compressibility (1/GPa) = 0.03256420
#
# Stress axis : x y z
#
# Youngs Moduli (GPa) = 28.94553 88.85524 106.39713
#
# Poissons Ratio (x) = 0.28805 0.43860
# Poissons Ratio (y) = 0.09383 0.42071
# Poissons Ratio (z) = 0.11932 0.35134
#
# Static dielectric constant tensor:
#      x y z
#    x 3.343120 0.000000 0.000000 
#    y 0.000000 3.981370 0.000000 
#    z 0.000000 0.000000 3.662240 
# 
# 
# High freq. dielectric constant tensor:
#      x y z
#    x 1.758740 0.000000 0.000000 
#    y 0.000000 1.791220 0.000000 
#    z 0.000000 0.000000 1.786860 
# 
# From -- ./inp_files/10957.got.cif
#   From: 2010.03.12/outbox.cif.g09.slc.cpg/sg51_6_cif.got.tgz:10957.got - 2010.04.16 13:43:02.
