data_PCOD8208358
_publ_section_title
;
Structure prediction by ZEFSAII (Michael W. Deem and Ramdas Pophale) SiO2 
 PCOD8208358
Probable space group: P M M A
;
_chemical_formula_sum "Si O2"
_cell_formula_units_Z 64
_cell_length_a 18.764398
_cell_length_b 9.100288
_cell_length_c 21.450937
_cell_angle_alpha 90.000000
_cell_angle_beta 90.000000
_cell_angle_gamma 90.000000
_cell_volume 3662.992590
_symmetry_space_group_name_H-M "P M M A"
_symmetry_group_IT_number 51
_symmetry_cell_setting 'orthorhombic'
loop_
_space_group_symop_operation_xyz
x,y,z
1/2-x,-y,z
1/2+x,-y,-z
-x,y,-z
-x,-y,-z
1/2+x,y,-z
1/2-x,y,z
x,-y,z
loop_
_atom_site_type_symbol
_atom_site_label
_atom_site_fract_x
_atom_site_fract_y
_atom_site_fract_z
Si Si1 0.441111 0.669819 0.305574
Si Si2 0.477660 0.160967 0.190820
Si Si3 0.599582 0.327701 0.350136
Si Si4 0.831865 0.670132 0.591450
Si Si5 0.332520 0.828363 0.535874
Si Si6 0.171022 0.668886 0.888000
Si Si7 0.537552 0.825734 0.063689
Si Si8 0.138153 0.163754 0.766531
O O1 0.431383 0.500000 0.292888
O O2 0.430383 0.741384 0.237175
O O3 0.516880 0.704899 0.336798
O O4 0.379761 0.728387 0.351479
O O5 0.486368 0.226711 0.120771
O O6 0.555415 0.150317 0.219703
O O7 0.442168 0.000000 0.187157
O O8 0.616410 0.500000 0.350335
O O9 0.617896 0.258873 0.416504
O O10 0.649205 0.250325 0.298178
O O11 0.750000 0.691164 0.611019
O O12 0.848808 0.500000 0.575827
O O13 0.851546 0.768347 0.532236
O O14 0.250000 0.797780 0.551576
O O15 0.350774 0.000000 0.538742
O O16 0.250000 0.679415 0.918422
O O17 0.147696 0.500000 0.878740
O O18 0.114446 0.748050 0.933143
O O19 0.176034 0.745911 0.820916
O O20 0.550516 0.000000 0.068426
O O21 0.500000 0.778457 0.000000
O O22 0.171624 0.000000 0.761188
#
# Coordination Sequence:
#
# PCOD8208358 Si02
#       8
#     8   8   8   8   8   8   8   8
#     4   9  18  31  49  73  96 120 153 194 237 282
#     4   8  15  28  47  71  96 120 148 187 232 276
#     4  10  19  31  48  70  97 126 157 195 239 287
#     4   9  18  34  53  69  88 118 156 196 240 289
#     4  10  21  35  48  64  89 121 158 198 239 288
#     4  10  20  32  47  71 102 133 167 205 243 287
#     4   9  18  33  53  76 101 132 170 206 242 288
#     4   9  17  30  47  67  93 125 160 195 233 279
#
# _framework density 17.472054
#
# number of rings (size 3 to 8) (size 9 to 14) (size 15 to 20)
#    0.000    2.750    0.000    2.250    0.000    7.000 
#    0.000    2.500    0.000    0.750    0.000    3.500 
#    0.000    0.000    0.000    0.000    0.000    0.000 
#
# Total GULP energy -793430.376116 kJ/mol
# GULP energy per Si atom -12397.349627 kJ/mol
# Density = 1.743229 g / cm^3
# Si number density = 17.472054 Si / 1000 Ang^3
#
#
#
# Elastic Constant Matrix: (Units=GPa)
#
#
# Indices 1 2 3 4 5 6 
#
# 1 62.9409 42.7416 58.8195 0.0000 0.0000 0.0000
# 2 42.7416 93.5237 60.6031 0.0000 0.0000 0.0000
# 3 58.8195 60.6031 140.6341 0.0000 0.0000 0.0000
# 4 0.0000 0.0000 0.0000 29.2496 0.0000 0.0000
# 5 0.0000 0.0000 0.0000 0.0000 17.1214 0.0000
# 6 0.0000 0.0000 0.0000 0.0000 0.0000 18.1744
#
#
#
# Elastic Compliance Matrix: (Units=1/GPa)
#
#
# Indices 1 2 3 4 5 6 
#
# 1 0.029541 -0.007623 -0.009070 0.000000 0.000000 0.000000
# 2 -0.007623 0.016802 -0.004052 0.000000 0.000000 0.000000
# 3 -0.009070 -0.004052 0.012650 0.000000 0.000000 0.000000
# 4 0.000000 0.000000 0.000000 0.034188 0.000000 0.000000
# 5 0.000000 0.000000 0.000000 0.000000 0.058406 0.000000
# 6 0.000000 0.000000 0.000000 0.000000 0.000000 0.055022
#
#
# Mechanical properties :
#
#
# Convention : Reuss Voigt Hill
#
# Bulk Modulus (GPa) = 57.13521 69.04744 63.09133
# Shear Modulus (GPa) = 19.68999 21.90473 20.79736
#
# Velocity S-wave (km/s) = 3.36064 3.54460 3.45385
# Velocity P-wave (km/s) = 6.91595 7.50712 7.21759
#
# Compressibility (1/GPa) = 0.01750234
#
# Stress axis : x y z
#
# Youngs Moduli (GPa) = 33.85128 59.51629 79.04833
#
# Poissons Ratio (x) = 0.45370 0.71700
# Poissons Ratio (y) = 0.25805 0.32032
# Poissons Ratio (z) = 0.30704 0.24117
#
# Static dielectric constant tensor:
#      x y z
#    x 3.084340 0.000000 0.000000 
#    y 0.000000 3.391830 0.000000 
#    z 0.000000 0.000000 3.331180 
# 
# 
# High freq. dielectric constant tensor:
#      x y z
#    x 1.648500 0.000000 0.000000 
#    y 0.000000 1.681950 0.000000 
#    z 0.000000 0.000000 1.668240 
# 
# From -- ./inp_files/34059.got.cif
#   From: 2010.03.12/outbox.cif.g09.slc.cpg/sg51_18_cif.got.tgz:34059.got - 2010.04.16 13:43:02.
