data_PCOD8208373
_publ_section_title
;
Structure prediction by ZEFSAII (Michael W. Deem and Ramdas Pophale) SiO2 
 PCOD8208373
Probable space group: P M M A
;
_chemical_formula_sum "Si O2"
_cell_formula_units_Z 64
_cell_length_a 9.094402
_cell_length_b 14.946481
_cell_length_c 25.041233
_cell_angle_alpha 90.000000
_cell_angle_beta 90.000000
_cell_angle_gamma 90.000000
_cell_volume 3403.837441
_symmetry_space_group_name_H-M "P M M A"
_symmetry_group_IT_number 51
_symmetry_cell_setting 'orthorhombic'
loop_
_space_group_symop_operation_xyz
x,y,z
1/2-x,-y,z
1/2+x,-y,-z
-x,y,-z
-x,-y,-z
1/2+x,y,-z
1/2-x,y,z
x,-y,z
loop_
_atom_site_type_symbol
_atom_site_label
_atom_site_fract_x
_atom_site_fract_y
_atom_site_fract_z
Si Si1 0.922464 0.601806 0.555959
Si Si2 0.915404 0.599535 0.257985
Si Si3 0.413715 0.665469 0.164644
Si Si4 0.081842 0.099157 0.904195
Si Si5 0.925193 0.734533 0.947365
Si Si6 0.416512 0.135105 0.200452
Si Si7 0.082245 0.099441 0.692265
Si Si8 0.422462 0.715821 0.644613
O O1 0.750000 0.618602 0.549174
O O2 0.953638 0.500000 0.575760
O O3 0.000000 0.619011 0.500000
O O4 0.986237 0.674819 0.596327
O O5 0.750000 0.628620 0.246171
O O6 0.926958 0.500000 0.282294
O O7 0.981421 0.668311 0.301206
O O8 0.993051 0.598130 0.200314
O O9 0.250000 0.626912 0.161633
O O10 0.473910 0.675843 0.104024
O O11 0.419411 0.758763 0.195471
O O12 0.250000 0.134046 0.902569
O O13 0.983976 0.164607 0.940370
O O14 0.019627 0.092418 0.844350
O O15 0.074330 0.000000 0.929496
O O16 0.750000 0.738026 0.953056
O O17 0.000000 0.691817 0.000000
O O18 0.250000 0.099474 0.193540
O O19 0.475010 0.106097 0.257737
O O20 0.250000 0.113293 0.712001
O O21 0.045607 0.177462 0.649167
O O22 0.062730 0.000000 0.666336
O O23 0.250000 0.695323 0.635707
#
# Coordination Sequence:
#
# PCOD8208373 Si02
#       8
#     8   8   8   8   8   8   8   8
#     4  10  21  37  59  87 117 151 190 231 277 331
#     4  10  20  33  53  82 111 142 178 213 263 328
#     4   9  19  34  51  73 102 134 170 211 261 321
#     4  10  20  32  47  68  95 129 169 214 265 321
#     4  10  21  36  53  73  94 125 169 215 266 324
#     4  10  19  31  48  71 101 137 178 222 268 318
#     4  10  20  33  51  76 107 148 194 232 271 321
#     4  10  20  35  55  81 117 154 187 230 275 320
#
# _framework density 18.802306999999999
#
# number of rings (size 3 to 8) (size 9 to 14) (size 15 to 20)
#    0.000    2.125    1.250    3.000    0.000    8.000 
#    0.000    0.000    0.000    0.750    0.000    0.000 
#    0.000    0.000    0.000    0.000    0.000    0.000 
#
# Total GULP energy -793401.047857 kJ/mol
# GULP energy per Si atom -12396.891373 kJ/mol
# Density = 1.875951 g / cm^3
# Si number density = 18.802307 Si / 1000 Ang^3
#
#
#
# Elastic Constant Matrix: (Units=GPa)
#
#
# Indices 1 2 3 4 5 6 
#
# 1 84.2223 31.1413 48.4442 0.0000 0.0000 0.0000
# 2 31.1413 85.1134 48.6753 0.0000 0.0000 0.0000
# 3 48.4442 48.6753 110.5000 0.0000 0.0000 0.0000
# 4 0.0000 0.0000 0.0000 15.1325 0.0000 0.0000
# 5 0.0000 0.0000 0.0000 0.0000 35.3191 0.0000
# 6 0.0000 0.0000 0.0000 0.0000 0.0000 21.3808
#
#
#
# Elastic Compliance Matrix: (Units=1/GPa)
#
#
# Indices 1 2 3 4 5 6 
#
# 1 0.016267 -0.002504 -0.006028 0.000000 0.000000 0.000000
# 2 -0.002504 0.016091 -0.005990 0.000000 0.000000 0.000000
# 3 -0.006028 -0.005990 0.014331 0.000000 0.000000 0.000000
# 4 0.000000 0.000000 0.000000 0.066083 0.000000 0.000000
# 5 0.000000 0.000000 0.000000 0.000000 0.028313 0.000000
# 6 0.000000 0.000000 0.000000 0.000000 0.000000 0.046771
#
#
# Mechanical properties :
#
#
# Convention : Reuss Voigt Hill
#
# Bulk Modulus (GPa) = 56.67793 59.59525 58.13659
# Shear Modulus (GPa) = 22.44334 24.47146 23.45740
#
# Velocity S-wave (km/s) = 3.45867 3.61156 3.53594
# Velocity P-wave (km/s) = 6.79407 7.01111 6.90345
#
# Compressibility (1/GPa) = 0.01764355
#
# Stress axis : x y z
#
# Youngs Moduli (GPa) = 61.47506 62.14650 69.77675
#
# Poissons Ratio (x) = 0.15562 0.42064
# Poissons Ratio (y) = 0.15394 0.41798
# Poissons Ratio (z) = 0.37060 0.37228
#
# Static dielectric constant tensor:
#      x y z
#    x 3.504570 0.000000 0.000000 
#    y 0.000000 3.410410 0.000000 
#    z 0.000000 0.000000 3.279160 
# 
# 
# High freq. dielectric constant tensor:
#      x y z
#    x 1.734170 0.000000 0.000000 
#    y 0.000000 1.719860 0.000000 
#    z 0.000000 0.000000 1.707910 
# 
# From -- ./inp_files/34948.got.cif
#   From: 2010.03.12/outbox.cif.g09.slc.cpg/sg51_18_cif.got.tgz:34948.got - 2010.04.16 13:43:02.
