data_PCOD8208305
_publ_section_title
;
Structure prediction by ZEFSAII (Michael W. Deem and Ramdas Pophale) SiO2 
 PCOD8208305
Probable space group: P M M A
;
_chemical_formula_sum "Si O2"
_cell_formula_units_Z 64
_cell_length_a 14.904145
_cell_length_b 17.721243
_cell_length_c 12.109236
_cell_angle_alpha 90.000000
_cell_angle_beta 90.000000
_cell_angle_gamma 90.000000
_cell_volume 3198.291113
_symmetry_space_group_name_H-M "P M M A"
_symmetry_group_IT_number 51
_symmetry_cell_setting 'orthorhombic'
loop_
_space_group_symop_operation_xyz
x,y,z
1/2-x,-y,z
1/2+x,-y,-z
-x,y,-z
-x,-y,-z
1/2+x,y,-z
1/2-x,y,z
x,-y,z
loop_
_atom_site_type_symbol
_atom_site_label
_atom_site_fract_x
_atom_site_fract_y
_atom_site_fract_z
Si Si1 0.356724 0.710748 0.257745
Si Si2 0.900174 0.791224 0.534211
Si Si3 0.356627 0.203591 0.796765
Si Si4 0.848760 0.672226 0.375179
Si Si5 0.085447 0.416823 0.927023
Si Si6 0.849833 0.730878 0.985722
Si Si7 0.003249 0.584600 0.308406
Si Si8 0.644407 0.916280 0.374606
O O1 0.250000 0.693705 0.255081
O O2 0.381458 0.782884 0.334725
O O3 0.395794 0.730749 0.135327
O O4 0.408307 0.636722 0.303027
O O5 0.836202 0.729342 0.477364
O O6 0.878154 0.875400 0.490873
O O7 0.000000 0.769450 0.500000
O O8 0.250000 0.196386 0.802214
O O9 0.381856 0.279012 0.730203
O O10 0.395759 0.131112 0.729910
O O11 0.395831 0.213099 0.922395
O O12 0.750000 0.634647 0.356061
O O13 0.928732 0.612216 0.398678
O O14 0.125057 0.500000 0.955530
O O15 0.056373 0.414204 0.801185
O O16 0.156603 0.352868 0.960482
O O17 0.000000 0.398158 0.000000
O O18 0.750000 0.760427 0.966017
O O19 0.035986 0.500000 0.336748
O O20 0.750000 0.922274 0.361988
O O21 0.601272 0.000000 0.374834
#
# Coordination Sequence:
#
# PCOD8208305 Si02
#       8
#     8   8   8   8   8   8   8   8
#     4  11  23  38  54  78 113 153 195 235 280 342
#     4  11  21  37  61  83 109 146 190 233 279 331
#     4   8  15  29  51  80 109 140 177 219 271 329
#     4  10  19  35  57  79 107 139 182 240 291 333
#     4  10  19  31  47  71 107 141 181 234 280 324
#     4  10  19  31  51  77 109 147 189 230 277 339
#     4  11  22  35  54  81 108 142 190 241 297 346
#     4   9  18  34  59  89 117 144 179 229 281 325
#
# _framework density 20.010687000000001
#
# number of rings (size 3 to 8) (size 9 to 14) (size 15 to 20)
#    0.000    2.000    3.750    1.875    0.000    1.000 
#    0.000    3.750    0.000    2.250    0.000    4.375 
#    0.000    0.000    0.000    0.000    0.000    0.000 
#
# Total GULP energy -792872.497143 kJ/mol
# GULP energy per Si atom -12388.632768 kJ/mol
# Density = 1.996514 g / cm^3
# Si number density = 20.010687 Si / 1000 Ang^3
#
#
#
# Elastic Constant Matrix: (Units=GPa)
#
#
# Indices 1 2 3 4 5 6 
#
# 1 58.8328 25.6281 9.4931 0.0000 0.0000 0.0000
# 2 25.6281 129.7301 57.0507 0.0000 0.0000 0.0000
# 3 9.4931 57.0507 86.9452 0.0000 0.0000 0.0000
# 4 0.0000 0.0000 0.0000 21.4054 0.0000 0.0000
# 5 0.0000 0.0000 0.0000 0.0000 19.6092 0.0000
# 6 0.0000 0.0000 0.0000 0.0000 0.0000 18.6435
#
#
#
# Elastic Compliance Matrix: (Units=1/GPa)
#
#
# Indices 1 2 3 4 5 6 
#
# 1 0.018615 -0.003913 0.000535 0.000000 0.000000 0.000000
# 2 -0.003913 0.011657 -0.007222 0.000000 0.000000 0.000000
# 3 0.000535 -0.007222 0.016182 0.000000 0.000000 0.000000
# 4 0.000000 0.000000 0.000000 0.046717 0.000000 0.000000
# 5 0.000000 0.000000 0.000000 0.000000 0.050997 0.000000
# 6 0.000000 0.000000 0.000000 0.000000 0.000000 0.053638
#
#
# Mechanical properties :
#
#
# Convention : Reuss Voigt Hill
#
# Bulk Modulus (GPa) = 39.59600 51.09464 45.34532
# Shear Modulus (GPa) = 21.98537 24.15403 23.06970
#
# Velocity S-wave (km/s) = 3.31823 3.47804 3.39908
# Velocity P-wave (km/s) = 5.87463 6.45896 6.17371
#
# Compressibility (1/GPa) = 0.02525508
#
# Stress axis : x y z
#
# Youngs Moduli (GPa) = 53.71893 85.78412 61.79765
#
# Poissons Ratio (x) = 0.33564 -0.03305
# Poissons Ratio (y) = 0.21018 0.44629
# Poissons Ratio (z) = -0.02873 0.61952
#
# Static dielectric constant tensor:
#      x y z
#    x 3.411370 0.000000 0.000000 
#    y 0.000000 3.718890 0.000000 
#    z 0.000000 0.000000 3.757600 
# 
# 
# High freq. dielectric constant tensor:
#      x y z
#    x 1.767390 0.000000 0.000000 
#    y 0.000000 1.743670 0.000000 
#    z 0.000000 0.000000 1.783560 
# 
# From -- ./inp_files/16831.got.cif
#   From: 2010.03.12/outbox.cif.g09.slc.cpg/sg51_9_cif.got.tgz:16831.got - 2010.04.16 13:43:02.
