data_PCOD8208827
_publ_section_title
;
Structure prediction by ZEFSAII (Michael W. Deem and Ramdas Pophale) SiO2 
 PCOD8208827
Probable space group: P M M A
;
_chemical_formula_sum "Si O2"
_cell_formula_units_Z 40
_cell_length_a 21.515514
_cell_length_b 8.677069
_cell_length_c 11.659295
_cell_angle_alpha 90.000000
_cell_angle_beta 90.000000
_cell_angle_gamma 90.000000
_cell_volume 2176.692433
_symmetry_space_group_name_H-M "P M M A"
_symmetry_group_IT_number 51
_symmetry_cell_setting 'orthorhombic'
loop_
_space_group_symop_operation_xyz
x,y,z
1/2-x,-y,z
1/2+x,-y,-z
-x,y,-z
-x,-y,-z
1/2+x,y,-z
1/2-x,y,z
x,-y,z
loop_
_atom_site_type_symbol
_atom_site_label
_atom_site_fract_x
_atom_site_fract_y
_atom_site_fract_z
Si Si1 0.414238 0.321250 0.956106
Si Si2 0.530479 0.181730 0.833687
Si Si3 0.057382 0.816838 0.423189
Si Si4 0.681105 0.183554 0.457006
Si Si5 0.321681 0.171212 0.800590
O O1 0.421285 0.500000 0.983992
O O2 0.468105 0.267892 0.870101
O O3 0.349942 0.287138 0.893206
O O4 0.415877 0.228373 0.076231
O O5 0.548992 0.238654 0.707135
O O6 0.519148 0.000000 0.836539
O O7 0.124407 0.751381 0.465823
O O8 0.000000 0.752803 0.500000
O O9 0.058373 0.000000 0.431835
O O10 0.750000 0.243944 0.497211
O O11 0.667750 0.237723 0.327059
O O12 0.682583 0.000000 0.459732
O O13 0.250000 0.160221 0.829831
O O14 0.351856 0.000000 0.810984
#
# Coordination Sequence:
#
# PCOD8208827 Si02
#       5
#     8   8   8   8   8
#     4  11  21  33  49  69  98 131 162 201 247 291
#     4  10  19  32  51  72  96 127 163 202 242 288
#     4   9  16  26  45  73  99 123 156 200 247 292
#     4   8  14  26  46  73 101 124 151 195 247 292
#     4   9  17  31  53  77  98 124 161 201 239 285
#
# _framework density 18.376507
#
# number of rings (size 3 to 8) (size 9 to 14) (size 15 to 20)
#    0.000    2.600    0.000    6.000    0.000    3.600 
#    0.000    1.000    0.000   14.400    0.000    0.000 
#    0.000    0.000    0.000    0.000    0.000    0.000 
#
# Total GULP energy -495815.108415 kJ/mol
# GULP energy per Si atom -12395.377710 kJ/mol
# Density = 1.833468 g / cm^3
# Si number density = 18.376507 Si / 1000 Ang^3
#
#
#
# Elastic Constant Matrix: (Units=GPa)
#
#
# Indices 1 2 3 4 5 6 
#
# 1 104.4915 11.0973 74.7942 0.0000 0.0000 0.0000
# 2 11.0973 35.1753 13.1910 0.0000 0.0000 0.0000
# 3 74.7942 13.1910 141.6971 0.0000 0.0000 0.0000
# 4 0.0000 0.0000 0.0000 2.7336 0.0000 0.0000
# 5 0.0000 0.0000 0.0000 0.0000 32.9004 0.0000
# 6 0.0000 0.0000 0.0000 0.0000 0.0000 10.4202
#
#
#
# Elastic Compliance Matrix: (Units=1/GPa)
#
#
# Indices 1 2 3 4 5 6 
#
# 1 0.015502 -0.001888 -0.008007 0.000000 0.000000 0.000000
# 2 -0.001888 0.029687 -0.001767 0.000000 0.000000 0.000000
# 3 -0.008007 -0.001767 0.011448 0.000000 0.000000 0.000000
# 4 0.000000 0.000000 0.000000 0.365816 0.000000 0.000000
# 5 0.000000 0.000000 0.000000 0.000000 0.030395 0.000000
# 6 0.000000 0.000000 0.000000 0.000000 0.000000 0.095968
#
#
# Mechanical properties :
#
#
# Convention : Reuss Voigt Hill
#
# Bulk Modulus (GPa) = 30.01785 53.28100 41.64942
# Shear Modulus (GPa) = 8.57273 21.36293 14.96783
#
# Velocity S-wave (km/s) = 2.16222 3.41326 2.85706
# Velocity P-wave (km/s) = 4.75436 6.67764 5.79633
#
# Compressibility (1/GPa) = 0.03331352
#
# Stress axis : x y z
#
# Youngs Moduli (GPa) = 64.50808 33.68439 87.34993
#
# Poissons Ratio (x) = 0.06360 0.69940
# Poissons Ratio (y) = 0.12179 0.15436
# Poissons Ratio (z) = 0.51651 0.05952
#
# Static dielectric constant tensor:
#      x y z
#    x 3.561900 0.000000 0.000000 
#    y 0.000000 3.111770 0.000000 
#    z 0.000000 0.000000 3.549110 
# 
# 
# High freq. dielectric constant tensor:
#      x y z
#    x 1.712540 0.000000 0.000000 
#    y 0.000000 1.671240 0.000000 
#    z 0.000000 0.000000 1.710860 
# 
# From -- ./inp_files/17890.got.cif
#   From: 2010.03.12/outbox.cif.g09.slc.cpg/sg51_9_cif.got.tgz:17890.got - 2010.04.16 13:43:02.
