data_PCOD8208400
_publ_section_title
;
Structure prediction by ZEFSAII (Michael W. Deem and Ramdas Pophale) SiO2 
 PCOD8208400
Probable space group: P M M A
;
_chemical_formula_sum "Si O2"
_cell_formula_units_Z 64
_cell_length_a 9.131988
_cell_length_b 14.755186
_cell_length_c 29.634515
_cell_angle_alpha 90.000000
_cell_angle_beta 90.000000
_cell_angle_gamma 90.000000
_cell_volume 3993.078468
_symmetry_space_group_name_H-M "P M M A"
_symmetry_group_IT_number 51
_symmetry_cell_setting 'orthorhombic'
loop_
_space_group_symop_operation_xyz
x,y,z
1/2-x,-y,z
1/2+x,-y,-z
-x,y,-z
-x,-y,-z
1/2+x,y,-z
1/2-x,y,z
x,-y,z
loop_
_atom_site_type_symbol
_atom_site_label
_atom_site_fract_x
_atom_site_fract_y
_atom_site_fract_z
Si Si1 0.076951 0.767148 0.697989
Si Si2 0.415692 0.891906 0.955890
Si Si3 0.414183 0.106951 0.130923
Si Si4 0.085009 0.139012 0.457492
Si Si5 0.419827 0.602266 0.639045
Si Si6 0.923879 0.104852 0.222345
Si Si7 0.587874 0.902577 0.374712
Si Si8 0.419962 0.352211 0.453998
O O1 0.250000 0.769653 0.702231
O O2 0.024499 0.666782 0.681071
O O3 0.016787 0.815885 0.743445
O O4 0.017745 0.830916 0.658605
O O5 0.250000 0.854318 0.956341
O O6 0.499097 0.852824 0.912011
O O7 0.413943 0.000000 0.955140
O O8 0.500000 0.855897 0.000000
O O9 0.250000 0.148011 0.132599
O O10 0.501464 0.133232 0.175757
O O11 0.404728 0.000000 0.125692
O O12 0.250000 0.109612 0.463667
O O13 0.063793 0.245392 0.451225
O O14 0.000000 0.101564 0.500000
O O15 0.020130 0.086069 0.415807
O O16 0.250000 0.625193 0.628497
O O17 0.438885 0.500000 0.656941
O O18 0.507302 0.610662 0.591936
O O19 0.750000 0.110354 0.216689
O O20 0.966415 0.000000 0.236141
O O21 0.750000 0.870753 0.390671
O O22 0.599170 0.000000 0.350073
O O23 0.500000 0.388107 0.500000
O O24 0.250000 0.382864 0.455892
#
# Coordination Sequence:
#
# PCOD8208400 Si02
#       8
#     8   8   8   8   8   8   8   8
#     4   9  17  31  49  67  88 110 137 174 209 249
#     4   9  15  22  33  50  74 107 147 189 230 268
#     4   9  16  25  36  53  79 109 143 185 227 263
#     4  10  20  33  49  67  87 112 138 165 199 239
#     4  10  20  34  53  74  93 114 138 166 206 254
#     4   9  16  27  44  63  82 109 145 181 217 255
#     4  10  19  31  49  69  87 111 140 169 204 244
#     4  10  20  34  53  73  92 114 138 165 202 246
#
# _framework density 16.027733999999999
#
# number of rings (size 3 to 8) (size 9 to 14) (size 15 to 20)
#    0.000    2.500    1.250    1.875    0.000    6.500 
#    0.000    1.250    0.000    1.500    0.000    0.000 
#    0.000    0.000    0.000    0.000    0.000    0.625 
#
# Total GULP energy -792846.376202 kJ/mol
# GULP energy per Si atom -12388.224628 kJ/mol
# Density = 1.599125 g / cm^3
# Si number density = 16.027734 Si / 1000 Ang^3
#
#
#
# Elastic Constant Matrix: (Units=GPa)
#
#
# Indices 1 2 3 4 5 6 
#
# 1 83.4911 24.2277 49.9029 0.0000 0.0000 0.0000
# 2 24.2277 65.8543 42.6438 0.0000 0.0000 0.0000
# 3 49.9029 42.6438 129.9573 0.0000 0.0000 0.0000
# 4 0.0000 0.0000 0.0000 2.2039 0.0000 0.0000
# 5 0.0000 0.0000 0.0000 0.0000 24.9239 0.0000
# 6 0.0000 0.0000 0.0000 0.0000 0.0000 9.2230
#
#
#
# Elastic Compliance Matrix: (Units=1/GPa)
#
#
# Indices 1 2 3 4 5 6 
#
# 1 0.015838 -0.002398 -0.005295 0.000000 0.000000 0.000000
# 2 -0.002398 0.019645 -0.005525 0.000000 0.000000 0.000000
# 3 -0.005295 -0.005525 0.011541 0.000000 0.000000 0.000000
# 4 0.000000 0.000000 0.000000 0.453739 0.000000 0.000000
# 5 0.000000 0.000000 0.000000 0.000000 0.040122 0.000000
# 6 0.000000 0.000000 0.000000 0.000000 0.000000 0.108425
#
#
# Mechanical properties :
#
#
# Convention : Reuss Voigt Hill
#
# Bulk Modulus (GPa) = 48.57296 56.98350 52.77823
# Shear Modulus (GPa) = 7.32483 18.10537 12.71510
#
# Velocity S-wave (km/s) = 2.14010 3.36464 2.81965
# Velocity P-wave (km/s) = 6.03971 7.12212 6.60313
#
# Compressibility (1/GPa) = 0.02058759
#
# Stress axis : x y z
#
# Youngs Moduli (GPa) = 63.13964 50.90272 86.64671
#
# Poissons Ratio (x) = 0.12207 0.45877
# Poissons Ratio (y) = 0.15142 0.47877
# Poissons Ratio (z) = 0.33431 0.28126
#
# Static dielectric constant tensor:
#      x y z
#    x 3.053280 0.000000 0.000000 
#    y 0.000000 2.889470 0.000000 
#    z 0.000000 0.000000 3.118710 
# 
# 
# High freq. dielectric constant tensor:
#      x y z
#    x 1.613820 0.000000 0.000000 
#    y 0.000000 1.574740 0.000000 
#    z 0.000000 0.000000 1.605270 
# 
# From -- ./inp_files/37671.got.cif
#   From: 2010.03.12/outbox.cif.g09.slc.cpg/sg51_19_cif.got.tgz:37671.got - 2010.04.16 13:43:02.
