data_PCOD8208659
_publ_section_title
;
Structure prediction by ZEFSAII (Michael W. Deem and Ramdas Pophale) SiO2 
 PCOD8208659
Probable space group: P M M A
;
_chemical_formula_sum "Si O2"
_cell_formula_units_Z 64
_cell_length_a 14.871575
_cell_length_b 9.126987
_cell_length_c 24.508488
_cell_angle_alpha 90.000000
_cell_angle_beta 90.000000
_cell_angle_gamma 90.000000
_cell_volume 3326.602555
_symmetry_space_group_name_H-M "P M M A"
_symmetry_group_IT_number 51
_symmetry_cell_setting 'orthorhombic'
loop_
_space_group_symop_operation_xyz
x,y,z
1/2-x,-y,z
1/2+x,-y,-z
-x,y,-z
-x,-y,-z
1/2+x,y,-z
1/2-x,y,z
x,-y,z
loop_
_atom_site_type_symbol
_atom_site_label
_atom_site_fract_x
_atom_site_fract_y
_atom_site_fract_z
Si Si1 0.149656 0.826115 0.784779
Si Si2 0.855068 0.837805 0.885839
Si Si3 0.356135 0.330388 0.219998
Si Si4 0.147268 0.158652 0.902761
Si Si5 0.648048 0.825785 0.500966
Si Si6 0.506771 0.825264 0.706594
Si Si7 0.396005 0.660611 0.006651
Si Si8 0.498390 0.826176 0.583230
O O1 0.250000 0.760284 0.773999
O O2 0.109114 0.781392 0.844767
O O3 0.080601 0.767160 0.739335
O O4 0.154541 0.000000 0.781434
O O5 0.750000 0.853862 0.879154
O O6 0.892373 0.738609 0.836803
O O7 0.875603 0.766680 0.943729
O O8 0.899528 0.000000 0.883528
O O9 0.250000 0.308269 0.227083
O O10 0.382917 0.500000 0.219742
O O11 0.403381 0.247361 0.269652
O O12 0.250000 0.129252 0.889306
O O13 0.103330 0.000000 0.918997
O O14 0.140525 0.274559 0.950672
O O15 0.750000 0.759554 0.501555
O O16 0.590384 0.772039 0.553606
O O17 0.591994 0.771052 0.447810
O O18 0.654920 0.000000 0.500757
O O19 0.496535 0.767827 0.644869
O O20 0.517095 0.000000 0.709960
O O21 0.351777 0.500000 0.016413
O O22 0.500000 0.641124 0.000000
O O23 0.497822 0.000000 0.582112
#
# Coordination Sequence:
#
# PCOD8208659 Si02
#       8
#     8   8   8   8   8   8   8   8
#     4   8  16  31  50  74 103 133 168 212 264 317
#     4  10  21  38  59  79  98 126 168 215 261 312
#     4  10  22  39  56  75 104 141 175 212 264 323
#     4   9  18  34  53  70  91 124 166 210 257 312
#     4   8  13  23  39  61  98 145 179 211 261 309
#     4  10  19  31  52  80 107 138 177 224 268 307
#     4  11  24  36  48  74 106 132 162 204 256 316
#     4   8  15  25  38  66 103 134 174 219 258 306
#
# _framework density 19.238848999999998
#
# number of rings (size 3 to 8) (size 9 to 14) (size 15 to 20)
#    0.000    2.750    0.000    3.000    1.750    5.250 
#    0.000    3.750    0.000    1.125    0.000    1.750 
#    0.000    1.000    0.000    0.000    0.000    0.000 
#
# Total GULP energy -793101.456438 kJ/mol
# GULP energy per Si atom -12392.210257 kJ/mol
# Density = 1.919506 g / cm^3
# Si number density = 19.238849 Si / 1000 Ang^3
#
#
#
# Elastic Constant Matrix: (Units=GPa)
#
#
# Indices 1 2 3 4 5 6 
#
# 1 93.9524 22.6055 54.0038 0.0000 0.0000 0.0000
# 2 22.6055 69.6814 39.9182 0.0000 0.0000 0.0000
# 3 54.0038 39.9182 164.6828 0.0000 0.0000 0.0000
# 4 0.0000 0.0000 0.0000 -3.6092 0.0000 0.0000
# 5 0.0000 0.0000 0.0000 0.0000 28.4411 0.0000
# 6 0.0000 0.0000 0.0000 0.0000 0.0000 15.4629
#
#
#
# Elastic Compliance Matrix: (Units=1/GPa)
#
#
# Indices 1 2 3 4 5 6 
#
# 1 0.013381 -0.002122 -0.003874 0.000000 0.000000 0.000000
# 2 -0.002122 0.017002 -0.003425 0.000000 0.000000 0.000000
# 3 -0.003874 -0.003425 0.008173 0.000000 0.000000 0.000000
# 4 0.000000 0.000000 0.000000 -0.277071 0.000000 0.000000
# 5 0.000000 0.000000 0.000000 0.000000 0.035160 0.000000
# 6 0.000000 0.000000 0.000000 0.000000 0.000000 0.064671
#
#
# Mechanical properties :
#
#
# Convention : Reuss Voigt Hill
#
# Bulk Modulus (GPa) = 50.72596 62.37460 56.55028
# Shear Modulus (GPa) = -44.14171 22.17824 -10.98173
#
# Velocity S-wave (km/s) = -4.79519 3.39895 -2.39176
# Velocity P-wave (km/s) = 2.05787 6.92065 4.67229
#
# Compressibility (1/GPa) = 0.01971377
#
# Stress axis : x y z
#
# Youngs Moduli (GPa) = 74.73426 58.81787 122.35709
#
# Poissons Ratio (x) = 0.12480 0.47396
# Poissons Ratio (y) = 0.15857 0.41911
# Poissons Ratio (z) = 0.28949 0.20147
#
# Static dielectric constant tensor:
#      x y z
#    x 3.691010 0.000000 0.000000 
#    y 0.000000 5.632270 0.000000 
#    z 0.000000 0.000000 3.704440 
# 
# 
# High freq. dielectric constant tensor:
#      x y z
#    x 1.752490 0.000000 0.000000 
#    y 0.000000 1.704160 0.000000 
#    z 0.000000 0.000000 1.750630 
# 
# From -- ./inp_files/35723.got.cif
#   From: 2010.03.12/outbox.cif.g09.slc.cpg/sg51_18_cif.got.tgz:35723.got - 2010.04.16 13:43:02.
