data_PCOD8208589
_publ_section_title
;
Structure prediction by ZEFSAII (Michael W. Deem and Ramdas Pophale) SiO2 
 PCOD8208589
Probable space group: P M M A
;
_chemical_formula_sum "Si O2"
_cell_formula_units_Z 64
_cell_length_a 28.881622
_cell_length_b 9.419350
_cell_length_c 12.554477
_cell_angle_alpha 90.000000
_cell_angle_beta 90.000000
_cell_angle_gamma 90.000000
_cell_volume 3415.396583
_symmetry_space_group_name_H-M "P M M A"
_symmetry_group_IT_number 51
_symmetry_cell_setting 'orthorhombic'
loop_
_space_group_symop_operation_xyz
x,y,z
1/2-x,-y,z
1/2+x,-y,-z
-x,y,-z
-x,-y,-z
1/2+x,y,-z
1/2-x,y,z
x,-y,z
loop_
_atom_site_type_symbol
_atom_site_label
_atom_site_fract_x
_atom_site_fract_y
_atom_site_fract_z
Si Si1 0.803255 0.164903 0.587498
Si Si2 0.000531 0.668149 0.826220
Si Si3 0.827523 0.331633 0.011121
Si Si4 0.370259 0.832536 0.603505
Si Si5 0.801415 0.162485 0.211533
Si Si6 0.467003 0.668647 0.598324
Si Si7 0.069236 0.331313 0.004148
Si Si8 0.197157 0.654585 0.219570
O O1 0.750000 0.206683 0.561045
O O2 0.836109 0.210735 0.491476
O O3 0.824235 0.241779 0.692119
O O4 0.806746 0.000000 0.611614
O O5 0.002636 0.500000 0.822920
O O6 0.007116 0.723838 0.705715
O O7 0.952543 0.719046 0.881997
O O8 0.041097 0.727731 0.902627
O O9 0.823739 0.500000 0.027746
O O10 0.800743 0.257463 0.106297
O O11 0.879574 0.272710 0.007963
O O12 0.805801 0.282838 0.899202
O O13 0.342127 0.786748 0.709362
O O14 0.417589 0.745698 0.591161
O O15 0.381291 0.000000 0.603290
O O16 0.750000 0.177432 0.264310
O O17 0.810324 0.000000 0.179271
O O18 0.500000 0.712023 0.500000
O O19 0.458054 0.500000 0.599788
O O20 0.068230 0.500000 0.001974
O O21 0.250000 0.634771 0.250497
O O22 0.171858 0.500000 0.223958
#
# Coordination Sequence:
#
# PCOD8208589 Si02
#       8
#     8   8   8   8   8   8   8   8
#     4   9  18  34  55  75  97 132 179 223 261 310
#     4   8  14  27  45  67  95 124 159 199 240 289
#     4  10  19  31  50  77 106 135 169 209 255 306
#     4  10  21  37  56  77 103 137 177 221 269 317
#     4  10  21  36  54  77 107 143 180 218 261 312
#     4  10  21  35  53  78 105 133 168 214 265 318
#     4   8  14  25  45  69  92 124 162 200 239 284
#     4   9  18  31  46  68 100 133 164 206 259 307
#
# _framework density 18.738674
#
# number of rings (size 3 to 8) (size 9 to 14) (size 15 to 20)
#    0.000    2.750    0.000    2.250    0.000    6.000 
#    0.000    3.750    0.000    3.000    0.000    3.500 
#    0.000    0.000    0.000    0.000    0.000    0.000 
#
# Total GULP energy -793118.823666 kJ/mol
# GULP energy per Si atom -12392.481620 kJ/mol
# Density = 1.869602 g / cm^3
# Si number density = 18.738674 Si / 1000 Ang^3
#
#
#
# Elastic Constant Matrix: (Units=GPa)
#
#
# Indices 1 2 3 4 5 6 
#
# 1 98.7620 28.5318 48.7296 0.0000 0.0000 0.0000
# 2 28.5318 36.0301 42.7618 0.0000 0.0000 0.0000
# 3 48.7296 42.7618 157.0952 0.0000 0.0000 0.0000
# 4 0.0000 0.0000 0.0000 24.0553 0.0000 0.0000
# 5 0.0000 0.0000 0.0000 0.0000 26.7896 0.0000
# 6 0.0000 0.0000 0.0000 0.0000 0.0000 23.5601
#
#
#
# Elastic Compliance Matrix: (Units=1/GPa)
#
#
# Indices 1 2 3 4 5 6 
#
# 1 0.013497 -0.008449 -0.001887 0.000000 0.000000 0.000000
# 2 -0.008449 0.046289 -0.009979 0.000000 0.000000 0.000000
# 3 -0.001887 -0.009979 0.009667 0.000000 0.000000 0.000000
# 4 0.000000 0.000000 0.000000 0.041571 0.000000 0.000000
# 5 0.000000 0.000000 0.000000 0.000000 0.037328 0.000000
# 6 0.000000 0.000000 0.000000 0.000000 0.000000 0.042445
#
#
# Mechanical properties :
#
#
# Convention : Reuss Voigt Hill
#
# Bulk Modulus (GPa) = 34.69412 59.10373 46.89892
# Shear Modulus (GPa) = 20.74398 26.33862 23.54130
#
# Velocity S-wave (km/s) = 3.33079 3.75317 3.54827
# Velocity P-wave (km/s) = 5.77470 7.09868 6.47064
#
# Compressibility (1/GPa) = 0.02882333
#
# Stress axis : x y z
#
# Youngs Moduli (GPa) = 74.08960 21.60359 103.44224
#
# Poissons Ratio (x) = 0.18252 0.19519
# Poissons Ratio (y) = 0.62596 1.03227
# Poissons Ratio (z) = 0.13980 0.21559
#
# Static dielectric constant tensor:
#      x y z
#    x 3.553190 0.000000 0.000000 
#    y 0.000000 3.151320 0.000000 
#    z 0.000000 0.000000 3.639820 
# 
# 
# High freq. dielectric constant tensor:
#      x y z
#    x 1.727580 0.000000 0.000000 
#    y 0.000000 1.687720 0.000000 
#    z 0.000000 0.000000 1.738220 
# 
# From -- ./inp_files/19527.got.cif
#   From: 2010.03.12/outbox.cif.g09.slc.cpg/sg51_10_cif.got.tgz:19527.got - 2010.04.16 13:43:02.
