data_PCOD8208947
_publ_section_title
;
Structure prediction by ZEFSAII (Michael W. Deem and Ramdas Pophale) SiO2 
 PCOD8208947
Probable space group: P M M A
;
_chemical_formula_sum "Si O2"
_cell_formula_units_Z 52
_cell_length_a 26.633980
_cell_length_b 9.676240
_cell_length_c 11.138714
_cell_angle_alpha 90.000000
_cell_angle_beta 90.000000
_cell_angle_gamma 90.000000
_cell_volume 2870.633535
_symmetry_space_group_name_H-M "P M M A"
_symmetry_group_IT_number 51
_symmetry_cell_setting 'orthorhombic'
loop_
_space_group_symop_operation_xyz
x,y,z
1/2-x,-y,z
1/2+x,-y,-z
-x,y,-z
-x,-y,-z
1/2+x,y,-z
1/2-x,y,z
x,-y,z
loop_
_atom_site_type_symbol
_atom_site_label
_atom_site_fract_x
_atom_site_fract_y
_atom_site_fract_z
Si Si1 0.807640 0.163157 0.516497
Si Si2 0.304343 0.835996 0.214030
Si Si3 0.500000 0.756263 0.500000
Si Si4 0.105942 0.653881 0.593911
Si Si5 0.067218 0.658255 0.851901
Si Si6 0.515495 0.150447 0.759053
Si Si7 0.604642 0.157584 0.932429
O O1 0.750000 0.198079 0.475298
O O2 0.815748 0.216975 0.651971
O O3 0.850861 0.238942 0.441435
O O4 0.816837 0.000000 0.503075
O O5 0.250000 0.782455 0.172345
O O6 0.342645 0.782255 0.114234
O O7 0.306088 0.000000 0.220205
O O8 0.550173 0.671557 0.463629
O O9 0.483151 0.846099 0.385526
O O10 0.123628 0.500000 0.558917
O O11 0.103423 0.669832 0.737650
O O12 0.058124 0.500000 0.889988
O O13 0.014194 0.724626 0.818360
O O14 0.089058 0.741708 0.962508
O O15 0.570642 0.163358 0.813530
O O16 0.492482 0.000000 0.794887
O O17 0.607730 0.000000 0.981277
#
# Coordination Sequence:
#
# PCOD8208947 Si02
#       7
#     8   8   4   8   8   8   8
#     4   9  18  34  57  83 108 134 169 214 262 313
#     4   8  15  30  52  77 103 128 157 201 254 301
#     4  10  20  34  54  80 110 138 168 210 260 314
#     4  10  21  36  53  74 105 142 176 212 256 308
#     4  10  22  37  50  69 101 139 174 209 251 298
#     4  10  20  33  52  78 104 132 168 209 253 303
#     4  10  19  32  52  76 100 130 170 210 247 293
#
# _framework density 18.114469
#
# number of rings (size 3 to 8) (size 9 to 14) (size 15 to 20)
#    0.000    2.462    0.000    3.231    0.000    8.308 
#    0.000    3.077    0.000    4.154    0.000    0.000 
#    0.000    0.000    0.000    0.000    0.000    0.000 
#
# Total GULP energy -644314.648021 kJ/mol
# GULP energy per Si atom -12390.666308 kJ/mol
# Density = 1.807324 g / cm^3
# Si number density = 18.114469 Si / 1000 Ang^3
#
#
#
# Elastic Constant Matrix: (Units=GPa)
#
#
# Indices 1 2 3 4 5 6 
#
# 1 106.7898 56.8545 57.2346 0.0000 0.0000 0.0000
# 2 56.8545 103.4201 50.1186 0.0000 0.0000 0.0000
# 3 57.2346 50.1186 103.1427 0.0000 0.0000 0.0000
# 4 0.0000 0.0000 0.0000 20.9851 0.0000 0.0000
# 5 0.0000 0.0000 0.0000 0.0000 26.1585 0.0000
# 6 0.0000 0.0000 0.0000 0.0000 0.0000 17.6204
#
#
#
# Elastic Compliance Matrix: (Units=1/GPa)
#
#
# Indices 1 2 3 4 5 6 
#
# 1 0.015537 -0.005707 -0.005848 0.000000 0.000000 0.000000
# 2 -0.005707 0.014744 -0.003997 0.000000 0.000000 0.000000
# 3 -0.005848 -0.003997 0.014883 0.000000 0.000000 0.000000
# 4 0.000000 0.000000 0.000000 0.047653 0.000000 0.000000
# 5 0.000000 0.000000 0.000000 0.000000 0.038229 0.000000
# 6 0.000000 0.000000 0.000000 0.000000 0.000000 0.056752
#
#
# Mechanical properties :
#
#
# Convention : Reuss Voigt Hill
#
# Bulk Modulus (GPa) = 71.13323 71.30754 71.22039
# Shear Modulus (GPa) = 22.36234 22.89579 22.62906
#
# Velocity S-wave (km/s) = 3.51736 3.55906 3.53827
# Velocity P-wave (km/s) = 7.47327 7.50598 7.48964
#
# Compressibility (1/GPa) = 0.01405813
#
# Stress axis : x y z
#
# Youngs Moduli (GPa) = 64.36158 67.82436 67.19066
#
# Poissons Ratio (x) = 0.38709 0.39296
# Poissons Ratio (y) = 0.36733 0.26858
# Poissons Ratio (z) = 0.37642 0.27112
#
# Static dielectric constant tensor:
#      x y z
#    x 3.585440 0.000000 0.000000 
#    y 0.000000 3.265980 0.000000 
#    z 0.000000 0.000000 3.430050 
# 
# 
# High freq. dielectric constant tensor:
#      x y z
#    x 1.700830 0.000000 0.000000 
#    y 0.000000 1.687850 0.000000 
#    z 0.000000 0.000000 1.700890 
# 
# From -- ./inp_files/19049.got.cif
#   From: 2010.03.12/outbox.cif.g09.slc.cpg/sg51_10_cif.got.tgz:19049.got - 2010.04.16 13:43:02.
