data_PCOD8208185
_publ_section_title
;
Structure prediction by ZEFSAII (Michael W. Deem and Ramdas Pophale) SiO2 
 PCOD8208185
Probable space group: P M M A
;
_chemical_formula_sum "Si O2"
_cell_formula_units_Z 56
_cell_length_a 27.166030
_cell_length_b 10.244928
_cell_length_c 11.085496
_cell_angle_alpha 90.000000
_cell_angle_beta 90.000000
_cell_angle_gamma 90.000000
_cell_volume 3085.248971
_symmetry_space_group_name_H-M "P M M A"
_symmetry_group_IT_number 51
_symmetry_cell_setting 'orthorhombic'
loop_
_space_group_symop_operation_xyz
x,y,z
1/2-x,-y,z
1/2+x,-y,-z
-x,y,-z
-x,-y,-z
1/2+x,y,-z
1/2-x,y,z
x,-y,z
loop_
_atom_site_type_symbol
_atom_site_label
_atom_site_fract_x
_atom_site_fract_y
_atom_site_fract_z
Si Si1 0.194822 0.845803 0.375731
Si Si2 0.195883 0.357004 0.025023
Si Si3 0.633087 0.848432 0.853989
Si Si4 0.195984 0.642175 0.743637
Si Si5 0.975074 0.849776 0.380295
Si Si6 0.982192 0.151854 0.869980
Si Si7 0.860016 0.850436 0.386083
O O1 0.250000 0.786028 0.363783
O O2 0.159200 0.800877 0.268457
O O3 0.168639 0.797815 0.496951
O O4 0.198354 0.000000 0.376551
O O5 0.250000 0.318391 0.077926
O O6 0.179948 0.500000 0.077983
O O7 0.156114 0.243960 0.045321
O O8 0.200657 0.371590 0.884396
O O9 0.575238 0.822602 0.849399
O O10 0.644264 0.000000 0.883419
O O11 0.250000 0.678820 0.690281
O O12 0.179210 0.500000 0.691256
O O13 0.156907 0.755968 0.720011
O O14 0.917665 0.834564 0.402981
O O15 0.000000 0.784661 0.500000
O O16 0.990752 0.787133 0.249684
O O17 0.992230 0.000000 0.375028
O O18 0.995595 0.000000 0.875472
O O19 0.000000 0.213234 0.000000
O O20 0.846309 0.000000 0.354993
#
# Coordination Sequence:
#
# PCOD8208185 Si02
#       7
#     8   8   8   8   8   8   8
#     4   9  17  29  45  72 107 133 157 202 259 303
#     4   9  19  35  52  71 100 136 168 204 255 309
#     4  10  19  31  52  75 100 134 172 207 251 305
#     4   9  19  35  51  69  99 135 165 200 255 314
#     4   9  17  30  48  71 102 137 171 206 256 315
#     4   9  18  30  45  70 104 133 163 214 265 298
#     4  10  19  30  52  78 100 129 171 214 250 293
#
# _framework density 18.150884999999999
#
# number of rings (size 3 to 8) (size 9 to 14) (size 15 to 20)
#    0.000    2.714    0.000    2.571    2.000    5.714 
#    0.000    2.143    0.000    4.286    0.000    0.000 
#    0.000    0.000    0.000    0.000    0.000    0.000 
#
# Total GULP energy -693815.177872 kJ/mol
# GULP energy per Si atom -12389.556748 kJ/mol
# Density = 1.810957 g / cm^3
# Si number density = 18.150885 Si / 1000 Ang^3
#
#
#
# Elastic Constant Matrix: (Units=GPa)
#
#
# Indices 1 2 3 4 5 6 
#
# 1 105.3411 36.4666 49.4002 0.0000 0.0000 0.0000
# 2 36.4666 61.8328 19.7199 0.0000 0.0000 0.0000
# 3 49.4002 19.7199 102.2327 0.0000 0.0000 0.0000
# 4 0.0000 0.0000 0.0000 9.7659 0.0000 0.0000
# 5 0.0000 0.0000 0.0000 0.0000 31.0377 0.0000
# 6 0.0000 0.0000 0.0000 0.0000 0.0000 13.1231
#
#
#
# Elastic Compliance Matrix: (Units=1/GPa)
#
#
# Indices 1 2 3 4 5 6 
#
# 1 0.014500 -0.006731 -0.005708 0.000000 0.000000 0.000000
# 2 -0.006731 0.020357 -0.000674 0.000000 0.000000 0.000000
# 3 -0.005708 -0.000674 0.012670 0.000000 0.000000 0.000000
# 4 0.000000 0.000000 0.000000 0.102397 0.000000 0.000000
# 5 0.000000 0.000000 0.000000 0.000000 0.032219 0.000000
# 6 0.000000 0.000000 0.000000 0.000000 0.000000 0.076202
#
#
# Mechanical properties :
#
#
# Convention : Reuss Voigt Hill
#
# Bulk Modulus (GPa) = 46.94772 53.39778 50.17275
# Shear Modulus (GPa) = 17.14253 21.70666 19.42460
#
# Velocity S-wave (km/s) = 3.07652 3.46193 3.27490
# Velocity P-wave (km/s) = 6.20817 6.74260 6.48090
#
# Compressibility (1/GPa) = 0.02130029
#
# Stress axis : x y z
#
# Youngs Moduli (GPa) = 68.96558 49.12221 78.92693
#
# Poissons Ratio (x) = 0.33064 0.45053
# Poissons Ratio (y) = 0.46421 0.05322
# Poissons Ratio (z) = 0.39367 0.03312
#
# Static dielectric constant tensor:
#      x y z
#    x 3.361420 0.000000 0.000000 
#    y 0.000000 2.992250 0.000000 
#    z 0.000000 0.000000 3.489050 
# 
# 
# High freq. dielectric constant tensor:
#      x y z
#    x 1.710210 0.000000 0.000000 
#    y 0.000000 1.652160 0.000000 
#    z 0.000000 0.000000 1.705800 
# 
# From -- ./inp_files/18794.got.cif
#   From: 2010.03.12/outbox.cif.g09.slc.cpg/sg51_10_cif.got.tgz:18794.got - 2010.04.16 13:43:02.
