data_PCOD8208199
_publ_section_title
;
Structure prediction by ZEFSAII (Michael W. Deem and Ramdas Pophale) SiO2 
 PCOD8208199
Probable space group: P M M A
;
_chemical_formula_sum "Si O2"
_cell_formula_units_Z 64
_cell_length_a 9.281082
_cell_length_b 19.179792
_cell_length_c 23.637800
_cell_angle_alpha 90.000000
_cell_angle_beta 90.000000
_cell_angle_gamma 90.000000
_cell_volume 4207.746395
_symmetry_space_group_name_H-M "P M M A"
_symmetry_group_IT_number 51
_symmetry_cell_setting 'orthorhombic'
loop_
_space_group_symop_operation_xyz
x,y,z
1/2-x,-y,z
1/2+x,-y,-z
-x,y,-z
-x,-y,-z
1/2+x,y,-z
1/2-x,y,z
x,-y,z
loop_
_atom_site_type_symbol
_atom_site_label
_atom_site_fract_x
_atom_site_fract_y
_atom_site_fract_z
Si Si1 0.580167 0.079880 0.216343
Si Si2 0.081071 0.201650 0.166485
Si Si3 0.417692 0.918764 0.555607
Si Si4 0.916864 0.712616 0.944390
Si Si5 0.581884 0.148446 0.331729
Si Si6 0.917261 0.577703 0.881130
Si Si7 0.583828 0.575639 0.234272
Si Si8 0.417249 0.277206 0.735630
O O1 0.750000 0.093471 0.209597
O O2 0.494683 0.126123 0.170597
O O3 0.526628 0.102162 0.279009
O O4 0.539592 0.000000 0.205611
O O5 0.250000 0.194685 0.179147
O O6 0.051552 0.231138 0.104207
O O7 0.012945 0.254732 0.211397
O O8 0.500000 0.892709 0.500000
O O9 0.250000 0.902709 0.546436
O O10 0.486225 0.876715 0.608989
O O11 0.445351 0.000000 0.567136
O O12 0.750000 0.709855 0.959777
O O13 0.971754 0.635613 0.925439
O O14 0.000000 0.736811 0.000000
O O15 0.750000 0.134934 0.338211
O O16 0.544695 0.230042 0.319368
O O17 0.750000 0.590369 0.867927
O O18 0.945654 0.500000 0.905830
O O19 0.996799 0.588336 0.822400
O O20 0.750000 0.575684 0.216724
O O21 0.542580 0.500000 0.261807
O O22 0.552807 0.640503 0.276976
O O23 0.250000 0.264062 0.751564
#
# Coordination Sequence:
#
# PCOD8208199 Si02
#       8
#     8   8   8   8   8   8   8   8
#     4   9  17  30  49  70  88 109 138 169 205 253
#     4  10  19  31  45  64  88 109 134 169 212 255
#     4   9  16  26  40  57  81 114 147 176 204 237
#     4  10  21  33  45  62  82 108 140 174 209 248
#     4   8  14  25  42  63  85 112 144 174 202 239
#     4   9  17  30  45  60  82 111 140 169 203 247
#     4   9  16  25  40  63  87 110 137 170 208 249
#     4   9  16  27  44  63  84 112 143 173 208 251
#
# _framework density 15.210043000000001
#
# number of rings (size 3 to 8) (size 9 to 14) (size 15 to 20)
#    0.000    2.875    1.250    1.500    0.000    3.500 
#    0.000    2.500    0.000    3.375    0.000    0.000 
#    0.000    0.500    0.000    0.375    0.000    0.750 
#
# Total GULP energy -793133.947434 kJ/mol
# GULP energy per Si atom -12392.717929 kJ/mol
# Density = 1.517542 g / cm^3
# Si number density = 15.210043 Si / 1000 Ang^3
#
#
#
# Elastic Constant Matrix: (Units=GPa)
#
#
# Indices 1 2 3 4 5 6 
#
# 1 41.5680 38.3087 34.9678 0.0000 0.0000 0.0000
# 2 38.3087 134.5824 60.9680 0.0000 0.0000 0.0000
# 3 34.9678 60.9680 90.2329 0.0000 0.0000 0.0000
# 4 0.0000 0.0000 0.0000 22.0369 0.0000 0.0000
# 5 0.0000 0.0000 0.0000 0.0000 19.4886 0.0000
# 6 0.0000 0.0000 0.0000 0.0000 0.0000 18.9930
#
#
#
# Elastic Compliance Matrix: (Units=1/GPa)
#
#
# Indices 1 2 3 4 5 6 
#
# 1 0.038897 -0.006115 -0.010942 0.000000 0.000000 0.000000
# 2 -0.006115 0.011669 -0.005515 0.000000 0.000000 0.000000
# 3 -0.010942 -0.005515 0.019049 0.000000 0.000000 0.000000
# 4 0.000000 0.000000 0.000000 0.045378 0.000000 0.000000
# 5 0.000000 0.000000 0.000000 0.000000 0.051312 0.000000
# 6 0.000000 0.000000 0.000000 0.000000 0.000000 0.052651
#
#
# Mechanical properties :
#
#
# Convention : Reuss Voigt Hill
#
# Bulk Modulus (GPa) = 40.86363 59.43028 50.14696
# Shear Modulus (GPa) = 18.36490 20.91294 19.63892
#
# Velocity S-wave (km/s) = 3.47856 3.71204 3.59720
# Velocity P-wave (km/s) = 6.56189 7.58487 7.09185
#
# Compressibility (1/GPa) = 0.02447164
#
# Stress axis : x y z
#
# Youngs Moduli (GPa) = 25.70876 85.69410 52.49613
#
# Poissons Ratio (x) = 0.52404 0.57441
# Poissons Ratio (y) = 0.15721 0.28951
# Poissons Ratio (z) = 0.28130 0.47259
#
# Static dielectric constant tensor:
#      x y z
#    x 2.804310 0.000000 0.000000 
#    y 0.000000 3.239710 0.000000 
#    z 0.000000 0.000000 2.754120 
# 
# 
# High freq. dielectric constant tensor:
#      x y z
#    x 1.574180 0.000000 0.000000 
#    y 0.000000 1.589600 0.000000 
#    z 0.000000 0.000000 1.545500 
# 
# From -- ./inp_files/35193.got.cif
#   From: 2010.03.12/outbox.cif.g09.slc.cpg/sg51_18_cif.got.tgz:35193.got - 2010.04.16 13:43:02.
