data_PCOD8208032
_publ_section_title
;
Structure prediction by ZEFSAII (Michael W. Deem and Ramdas Pophale) SiO2 
 PCOD8208032
Probable space group: P M M A
;
_chemical_formula_sum "Si O2"
_cell_formula_units_Z 64
_cell_length_a 8.929616
_cell_length_b 19.993545
_cell_length_c 18.044830
_cell_angle_alpha 90.000000
_cell_angle_beta 90.000000
_cell_angle_gamma 90.000000
_cell_volume 3221.627938
_symmetry_space_group_name_H-M "P M M A"
_symmetry_group_IT_number 51
_symmetry_cell_setting 'orthorhombic'
loop_
_space_group_symop_operation_xyz
x,y,z
1/2-x,-y,z
1/2+x,-y,-z
-x,y,-z
-x,-y,-z
1/2+x,y,-z
1/2-x,y,z
x,-y,z
loop_
_atom_site_type_symbol
_atom_site_label
_atom_site_fract_x
_atom_site_fract_y
_atom_site_fract_z
Si Si1 0.426709 0.928195 0.765705
Si Si2 0.427350 0.297407 0.573956
Si Si3 0.086800 0.424092 0.781269
Si Si4 0.419026 0.386580 0.075039
Si Si5 0.572210 0.215042 0.281418
Si Si6 0.426086 0.884991 0.926386
Si Si7 0.925809 0.422141 0.636407
Si Si8 0.080438 0.759230 0.132937
O O1 0.250000 0.928098 0.758393
O O2 0.486144 0.862872 0.721172
O O3 0.471212 0.925442 0.852596
O O4 0.489565 0.000000 0.734909
O O5 0.500000 0.265618 0.500000
O O6 0.250000 0.300021 0.566534
O O7 0.477195 0.249743 0.642113
O O8 0.489122 0.373334 0.579808
O O9 0.250000 0.386796 0.781008
O O10 0.117154 0.500000 0.760891
O O11 0.007977 0.421575 0.859662
O O12 0.979019 0.395984 0.717180
O O13 0.250000 0.414227 0.073517
O O14 0.421071 0.307670 0.085785
O O15 0.500000 0.407505 0.000000
O O16 0.750000 0.217835 0.270323
O O17 0.496424 0.254049 0.212904
O O18 0.250000 0.883245 0.938713
O O19 0.485641 0.810080 0.916203
O O20 0.500000 0.917433 0.000000
O O21 0.750000 0.410255 0.630226
O O22 0.965865 0.500000 0.620010
O O23 0.250000 0.785158 0.144995
#
# Coordination Sequence:
#
# PCOD8208032 Si02
#       8
#     8   8   8   8   8   8   8   8
#     4   8  15  30  52  76 102 136 180 226 270 317
#     4  11  23  38  58  85 116 147 178 214 259 312
#     4  10  21  37  56  76  99 131 171 214 261 314
#     4  11  23  35  49  70  96 130 173 222 275 324
#     4   9  19  35  56  81 107 138 176 218 263 313
#     4  10  19  30  46  70 102 139 177 218 266 316
#     4  10  21  38  60  85 113 145 180 217 258 309
#     4  10  20  33  51  74  99 131 171 214 262 315
#
# _framework density 19.865732999999999
#
# number of rings (size 3 to 8) (size 9 to 14) (size 15 to 20)
#    0.000    2.125    0.000    4.125    0.000    8.250 
#    0.000    0.000    0.000    9.375    0.000    0.000 
#    0.000    0.000    0.000    0.000    0.000    0.125 
#
# Total GULP energy -793301.697519 kJ/mol
# GULP energy per Si atom -12395.339024 kJ/mol
# Density = 1.982052 g / cm^3
# Si number density = 19.865733 Si / 1000 Ang^3
#
#
#
# Elastic Constant Matrix: (Units=GPa)
#
#
# Indices 1 2 3 4 5 6 
#
# 1 83.3576 23.3238 31.8858 0.0000 0.0000 0.0000
# 2 23.3238 69.2298 28.3709 0.0000 0.0000 0.0000
# 3 31.8858 28.3709 105.4819 0.0000 0.0000 0.0000
# 4 0.0000 0.0000 0.0000 9.4002 0.0000 0.0000
# 5 0.0000 0.0000 0.0000 0.0000 35.3520 0.0000
# 6 0.0000 0.0000 0.0000 0.0000 0.0000 15.1728
#
#
#
# Elastic Compliance Matrix: (Units=1/GPa)
#
#
# Indices 1 2 3 4 5 6 
#
# 1 0.014247 -0.003411 -0.003389 0.000000 0.000000 0.000000
# 2 -0.003411 0.017051 -0.003555 0.000000 0.000000 0.000000
# 3 -0.003389 -0.003555 0.011461 0.000000 0.000000 0.000000
# 4 0.000000 0.000000 0.000000 0.106380 0.000000 0.000000
# 5 0.000000 0.000000 0.000000 0.000000 0.028287 0.000000
# 6 0.000000 0.000000 0.000000 0.000000 0.000000 0.065908
#
#
# Mechanical properties :
#
#
# Convention : Reuss Voigt Hill
#
# Bulk Modulus (GPa) = 45.35460 47.24782 46.30121
# Shear Modulus (GPa) = 18.42339 23.61758 21.02049
#
# Velocity S-wave (km/s) = 3.04862 3.45173 3.25642
# Velocity P-wave (km/s) = 5.93904 6.30247 6.12345
#
# Compressibility (1/GPa) = 0.02204848
#
# Stress axis : x y z
#
# Youngs Moduli (GPa) = 70.18821 58.64868 87.25239
#
# Poissons Ratio (x) = 0.20005 0.29573
# Poissons Ratio (y) = 0.23941 0.31018
# Poissons Ratio (z) = 0.23789 0.20849
#
# Static dielectric constant tensor:
#      x y z
#    x 3.731490 0.000000 0.000000 
#    y 0.000000 3.773150 0.000000 
#    z 0.000000 0.000000 3.602020 
# 
# 
# High freq. dielectric constant tensor:
#      x y z
#    x 1.772720 0.000000 0.000000 
#    y 0.000000 1.767850 0.000000 
#    z 0.000000 0.000000 1.760160 
# 
# From -- ./inp_files/28418.got.cif
#   From: 2010.03.12/outbox.cif.g09.slc.cpg/sg51_15_cif.got.tgz:28418.got - 2010.04.16 13:43:02.
