data_PCOD8208363
_publ_section_title
;
Structure prediction by ZEFSAII (Michael W. Deem and Ramdas Pophale) SiO2 
 PCOD8208363
Probable space group: P M M A
;
_chemical_formula_sum "Si O2"
_cell_formula_units_Z 64
_cell_length_a 18.842182
_cell_length_b 9.280758
_cell_length_c 20.789576
_cell_angle_alpha 90.000000
_cell_angle_beta 90.000000
_cell_angle_gamma 90.000000
_cell_volume 3635.467570
_symmetry_space_group_name_H-M "P M M A"
_symmetry_group_IT_number 51
_symmetry_cell_setting 'orthorhombic'
loop_
_space_group_symop_operation_xyz
x,y,z
1/2-x,-y,z
1/2+x,-y,-z
-x,y,-z
-x,-y,-z
1/2+x,y,-z
1/2-x,y,z
x,-y,z
loop_
_atom_site_type_symbol
_atom_site_label
_atom_site_fract_x
_atom_site_fract_y
_atom_site_fract_z
Si Si1 0.334305 0.340425 0.488784
Si Si2 0.069302 0.833233 0.729191
Si Si3 0.167418 0.332922 0.632591
Si Si4 0.076159 0.664872 0.122553
Si Si5 0.834313 0.163613 0.631519
Si Si6 0.578932 0.668879 0.734585
Si Si7 0.414908 0.840383 0.005854
Si Si8 0.065649 0.164512 0.870498
O O1 0.250000 0.345625 0.488665
O O2 0.363549 0.500000 0.471413
O O3 0.359444 0.296416 0.560339
O O4 0.362718 0.226264 0.436553
O O5 0.125457 0.768527 0.680557
O O6 0.103544 0.818510 0.801219
O O7 0.995418 0.749038 0.724182
O O8 0.055323 0.000000 0.712194
O O9 0.250000 0.296554 0.640169
O O10 0.152868 0.500000 0.648518
O O11 0.073383 0.500000 0.103377
O O12 0.110553 0.689393 0.193005
O O13 0.997299 0.722810 0.128363
O O14 0.116988 0.741580 0.062987
O O15 0.750000 0.170321 0.634314
O O16 0.862898 0.262434 0.688457
O O17 0.861846 0.000000 0.638264
O O18 0.568206 0.500000 0.719288
O O19 0.384762 0.803240 0.933565
O O20 0.392156 0.000000 0.025703
O O21 0.500000 0.823608 0.000000
O O22 0.036055 0.000000 0.877543
#
# Coordination Sequence:
#
# PCOD8208363 Si02
#       8
#     8   8   8   8   8   8   8   8
#     4   8  15  30  51  71  92 121 154 187 227 276
#     4  10  19  31  48  70  98 128 158 196 237 275
#     4   9  18  33  52  73  97 125 157 191 229 279
#     4   9  16  24  37  60  86 113 149 190 227 264
#     4  10  20  33  51  75  98 119 150 194 236 274
#     4  10  20  33  48  67  96 131 160 188 230 284
#     4   8  13  22  36  54  80 115 150 183 223 271
#     4   8  15  26  38  56  85 120 152 182 225 276
#
# _framework density 17.604337000000001
#
# number of rings (size 3 to 8) (size 9 to 14) (size 15 to 20)
#    0.000    3.000    0.000    3.000    0.000    5.750 
#    0.000    1.875    0.000    3.750    0.000    0.875 
#    0.000    1.000    0.000    0.000    0.000    0.000 
#
# Total GULP energy -792851.825098 kJ/mol
# GULP energy per Si atom -12388.309767 kJ/mol
# Density = 1.756427 g / cm^3
# Si number density = 17.604337 Si / 1000 Ang^3
#
#
#
# Elastic Constant Matrix: (Units=GPa)
#
#
# Indices 1 2 3 4 5 6 
#
# 1 21.4580 26.2484 28.4598 0.0000 0.0000 0.0000
# 2 26.2484 126.4369 88.7300 0.0000 0.0000 0.0000
# 3 28.4598 88.7300 160.8355 0.0000 0.0000 0.0000
# 4 0.0000 0.0000 0.0000 34.7132 0.0000 0.0000
# 5 0.0000 0.0000 0.0000 0.0000 -17.2635 0.0000
# 6 0.0000 0.0000 0.0000 0.0000 0.0000 20.8734
#
#
#
# Elastic Compliance Matrix: (Units=1/GPa)
#
#
# Indices 1 2 3 4 5 6 
#
# 1 0.066728 -0.009083 -0.006796 0.000000 0.000000 0.000000
# 2 -0.009083 0.014142 -0.006195 0.000000 0.000000 0.000000
# 3 -0.006796 -0.006195 0.010838 0.000000 0.000000 0.000000
# 4 0.000000 0.000000 0.000000 0.028807 0.000000 0.000000
# 5 0.000000 0.000000 0.000000 0.000000 -0.057926 0.000000
# 6 0.000000 0.000000 0.000000 0.000000 0.000000 0.047908
#
#
# Mechanical properties :
#
#
# Convention : Reuss Voigt Hill
#
# Bulk Modulus (GPa) = 21.02650 66.17855 43.60253
# Shear Modulus (GPa) = 29.32570 18.68408 24.00489
#
# Velocity S-wave (km/s) = 4.08588 3.26135 3.69667
# Velocity P-wave (km/s) = 5.85056 7.20109 6.56067
#
# Compressibility (1/GPa) = 0.04755903
#
# Stress axis : x y z
#
# Youngs Moduli (GPa) = 14.98621 70.71145 92.27126
#
# Poissons Ratio (x) = 0.64229 0.62712
# Poissons Ratio (y) = 0.13612 0.57158
# Poissons Ratio (z) = 0.10185 0.43803
#
# Static dielectric constant tensor:
#      x y z
#    x 2.609510 0.000000 0.000000 
#    y 0.000000 3.434690 0.000000 
#    z 0.000000 0.000000 3.959680 
# 
# 
# High freq. dielectric constant tensor:
#      x y z
#    x 1.603750 0.000000 0.000000 
#    y 0.000000 1.690650 0.000000 
#    z 0.000000 0.000000 1.708680 
# 
# From -- ./inp_files/34092.got.cif
#   From: 2010.03.12/outbox.cif.g09.slc.cpg/sg51_18_cif.got.tgz:34092.got - 2010.04.16 13:43:02.
