data_PCOD8208146
_publ_section_title
;
Structure prediction by ZEFSAII (Michael W. Deem and Ramdas Pophale) SiO2 
 PCOD8208146
Probable space group: P M M A
;
_chemical_formula_sum "Si O2"
_cell_formula_units_Z 48
_cell_length_a 30.321082
_cell_length_b 9.323303
_cell_length_c 9.750665
_cell_angle_alpha 90.000000
_cell_angle_beta 90.000000
_cell_angle_gamma 90.000000
_cell_volume 2756.441180
_symmetry_space_group_name_H-M "P M M A"
_symmetry_group_IT_number 51
_symmetry_cell_setting 'orthorhombic'
loop_
_space_group_symop_operation_xyz
x,y,z
1/2-x,-y,z
1/2+x,-y,-z
-x,y,-z
-x,-y,-z
1/2+x,y,-z
1/2-x,y,z
x,-y,z
loop_
_atom_site_type_symbol
_atom_site_label
_atom_site_fract_x
_atom_site_fract_y
_atom_site_fract_z
Si Si1 0.634995 0.331075 0.641709
Si Si2 0.128165 0.334148 0.674992
Si Si3 0.699411 0.666118 0.104660
Si Si4 0.545626 0.839383 0.330007
Si Si5 0.948885 0.837846 0.655402
Si Si6 0.698225 0.834562 0.834314
O O1 0.637470 0.500000 0.669954
O O2 0.638730 0.292674 0.481337
O O3 0.589210 0.270464 0.705372
O O4 0.675571 0.251200 0.711642
O O5 0.117748 0.500000 0.688001
O O6 0.170131 0.288672 0.765215
O O7 0.084212 0.257824 0.733209
O O8 0.750000 0.696139 0.145198
O O9 0.692348 0.500000 0.064544
O O10 0.684333 0.763405 0.977865
O O11 0.496502 0.787917 0.284086
O O12 0.548351 0.833681 0.492733
O O13 0.553388 0.000000 0.276433
O O14 0.937958 0.000000 0.704238
O O15 0.750000 0.819355 0.810099
O O16 0.683186 0.000000 0.834458
#
# Coordination Sequence:
#
# PCOD8208146 Si02
#       6
#     8   8   8   8   8   8
#     4  10  19  30  48  75 102 128 158 194 238 283
#     4   9  18  30  47  74 102 126 156 196 239 282
#     4   9  18  34  53  70  92 125 161 195 235 285
#     4   8  14  25  43  66  94 129 162 192 231 278
#     4   8  14  26  43  65  95 129 162 194 230 275
#     4  10  21  36  52  70  93 124 162 200 238 283
#
# _framework density 17.413758000000001
#
# number of rings (size 3 to 8) (size 9 to 14) (size 15 to 20)
#    0.000    3.000    0.000    2.000    0.000    3.667 
#    0.000    5.000    0.000    3.000    0.000    7.000 
#    0.000    0.000    0.000    0.000    0.000    0.000 
#
# Total GULP energy -595017.724700 kJ/mol
# GULP energy per Si atom -12396.202598 kJ/mol
# Density = 1.737412 g / cm^3
# Si number density = 17.413758 Si / 1000 Ang^3
#
#
#
# Elastic Constant Matrix: (Units=GPa)
#
#
# Indices 1 2 3 4 5 6 
#
# 1 100.9710 61.3419 50.5620 0.0000 0.0000 0.0000
# 2 61.3419 95.8225 46.7518 0.0000 0.0000 0.0000
# 3 50.5620 46.7518 58.2777 0.0000 0.0000 0.0000
# 4 0.0000 0.0000 0.0000 20.0225 0.0000 0.0000
# 5 0.0000 0.0000 0.0000 0.0000 5.4844 0.0000
# 6 0.0000 0.0000 0.0000 0.0000 0.0000 36.0580
#
#
#
# Elastic Compliance Matrix: (Units=1/GPa)
#
#
# Indices 1 2 3 4 5 6 
#
# 1 0.020121 -0.007170 -0.011706 0.000000 0.000000 0.000000
# 2 -0.007170 0.019702 -0.009585 0.000000 0.000000 0.000000
# 3 -0.011706 -0.009585 0.035005 0.000000 0.000000 0.000000
# 4 0.000000 0.000000 0.000000 0.049944 0.000000 0.000000
# 5 0.000000 0.000000 0.000000 0.000000 0.182335 0.000000
# 6 0.000000 0.000000 0.000000 0.000000 0.000000 0.027733
#
#
# Mechanical properties :
#
#
# Convention : Reuss Voigt Hill
#
# Bulk Modulus (GPa) = 55.84375 63.59805 59.72090
# Shear Modulus (GPa) = 12.57133 18.74069 15.65601
#
# Velocity S-wave (km/s) = 2.68977 3.28411 3.00169
# Velocity P-wave (km/s) = 6.46412 7.14013 6.81052
#
# Compressibility (1/GPa) = 0.01790711
#
# Stress axis : x y z
#
# Youngs Moduli (GPa) = 49.69887 50.75530 28.56771
#
# Poissons Ratio (x) = 0.36390 0.33440
# Poissons Ratio (y) = 0.35632 0.27383
# Poissons Ratio (z) = 0.58175 0.48651
#
# Static dielectric constant tensor:
#      x y z
#    x 3.575620 0.000000 0.000000 
#    y 0.000000 3.347560 0.000000 
#    z 0.000000 0.000000 2.930370 
# 
# 
# High freq. dielectric constant tensor:
#      x y z
#    x 1.684070 0.000000 0.000000 
#    y 0.000000 1.675220 0.000000 
#    z 0.000000 0.000000 1.630430 
# 
# From -- ./inp_files/12844.got.cif
#   From: 2010.03.12/outbox.cif.g09.slc.cpg/sg51_7_cif.got.tgz:12844.got - 2010.04.16 13:43:02.
