data_PCOD8208900
_publ_section_title
;
Structure prediction by ZEFSAII (Michael W. Deem and Ramdas Pophale) SiO2 
 PCOD8208900
Probable space group: P M M A
;
_chemical_formula_sum "Si O2"
_cell_formula_units_Z 40
_cell_length_a 8.593170
_cell_length_b 25.455717
_cell_length_c 9.991567
_cell_angle_alpha 90.000000
_cell_angle_beta 90.000000
_cell_angle_gamma 90.000000
_cell_volume 2185.608357
_symmetry_space_group_name_H-M "P M M A"
_symmetry_group_IT_number 51
_symmetry_cell_setting 'orthorhombic'
loop_
_space_group_symop_operation_xyz
x,y,z
1/2-x,-y,z
1/2+x,-y,-z
-x,y,-z
-x,-y,-z
1/2+x,y,-z
1/2-x,y,z
x,-y,z
loop_
_atom_site_type_symbol
_atom_site_label
_atom_site_fract_x
_atom_site_fract_y
_atom_site_fract_z
Si Si1 0.433620 0.251773 0.643989
Si Si2 0.570185 0.438520 0.141815
Si Si3 0.932726 0.055380 0.853740
Si Si4 0.432923 0.363882 0.358016
Si Si5 0.434733 0.830524 0.149260
O O1 0.500000 0.234999 0.500000
O O2 0.250000 0.252817 0.633836
O O3 0.493126 0.308939 0.688015
O O4 0.486136 0.211220 0.755543
O O5 0.750000 0.421829 0.147515
O O6 0.548303 0.500000 0.167807
O O7 0.472539 0.408832 0.253323
O O8 0.500000 0.421868 0.000000
O O9 0.750000 0.055897 0.868209
O O10 0.981876 0.111478 0.789715
O O11 0.984103 0.000000 0.778941
O O12 0.000000 0.053698 0.000000
O O13 0.500000 0.382111 0.500000
O O14 0.250000 0.356294 0.370431
O O15 0.250000 0.822034 0.147135
O O16 0.500000 0.823294 0.000000
#
# Coordination Sequence:
#
# PCOD8208900 Si02
#       5
#     8   8   8   8   8
#     4  11  22  38  57  77 104 138 176 217 266 318
#     4  10  21  38  59  84 114 146 179 216 261 311
#     4   8  14  25  43  68  99 133 167 207 255 305
#     4  11  22  38  59  82 108 139 178 220 263 311
#     4  10  19  32  51  78 108 137 174 217 261 310
#
# _framework density 18.301539999999999
#
# number of rings (size 3 to 8) (size 9 to 14) (size 15 to 20)
#    0.000    2.000    0.000    6.000    0.000    3.200 
#    0.000    4.000    0.000    0.600    0.000    0.000 
#    0.000    0.000    0.000    0.000    0.000    0.000 
#
# Total GULP energy -495676.704589 kJ/mol
# GULP energy per Si atom -12391.917615 kJ/mol
# Density = 1.825989 g / cm^3
# Si number density = 18.301540 Si / 1000 Ang^3
#
#
#
# Elastic Constant Matrix: (Units=GPa)
#
#
# Indices 1 2 3 4 5 6 
#
# 1 125.7227 48.0734 46.4276 0.0000 0.0000 0.0000
# 2 48.0734 103.7380 72.5107 0.0000 0.0000 0.0000
# 3 46.4276 72.5107 92.0938 0.0000 0.0000 0.0000
# 4 0.0000 0.0000 0.0000 -126.2918 0.0000 0.0000
# 5 0.0000 0.0000 0.0000 0.0000 30.7514 0.0000
# 6 0.0000 0.0000 0.0000 0.0000 0.0000 -23.6062
#
#
#
# Elastic Compliance Matrix: (Units=1/GPa)
#
#
# Indices 1 2 3 4 5 6 
#
# 1 0.010053 -0.002482 -0.003114 0.000000 0.000000 0.000000
# 2 -0.002482 0.022051 -0.016110 0.000000 0.000000 0.000000
# 3 -0.003114 -0.016110 0.025113 0.000000 0.000000 0.000000
# 4 0.000000 0.000000 0.000000 -0.007918 0.000000 0.000000
# 5 0.000000 0.000000 0.000000 0.000000 0.032519 0.000000
# 6 0.000000 0.000000 0.000000 0.000000 0.000000 -0.042362
#
#
# Mechanical properties :
#
#
# Convention : Reuss Voigt Hill
#
# Bulk Modulus (GPa) = 72.44307 72.84199 72.64253
# Shear Modulus (GPa) = 57.16262 -13.52646 21.81808
#
# Velocity S-wave (km/s) = 5.59478 -2.72157 3.45649
# Velocity P-wave (km/s) = 9.02244 5.47828 7.46378
#
# Compressibility (1/GPa) = 0.01380394
#
# Stress axis : x y z
#
# Youngs Moduli (GPa) = 99.47282 45.34957 39.82029
#
# Poissons Ratio (x) = 0.11257 0.12398
# Poissons Ratio (y) = 0.24693 0.64152
# Poissons Ratio (z) = 0.30971 0.73060
#
# Static dielectric constant tensor:
#      x y z
#    x 3.555720 0.000000 0.000000 
#    y 0.000000 3.905820 0.000000 
#    z 0.000000 0.000000 3.498550 
# 
# 
# High freq. dielectric constant tensor:
#      x y z
#    x 1.727980 0.000000 0.000000 
#    y 0.000000 1.729840 0.000000 
#    z 0.000000 0.000000 1.679900 
# 
# From -- ./inp_files/5257.got.cif
#   From: 2010.03.12/outbox.cif.g09.slc.cpg/sg51_3_cif.got.tgz:5257.got - 2010.04.16 13:43:02.
