data_PCOD8208871
_publ_section_title
;
Structure prediction by ZEFSAII (Michael W. Deem and Ramdas Pophale) SiO2 
 PCOD8208871
Probable space group: P M M A
;
_chemical_formula_sum "Si O2"
_cell_formula_units_Z 48
_cell_length_a 9.047081
_cell_length_b 16.351297
_cell_length_c 18.568398
_cell_angle_alpha 90.000000
_cell_angle_beta 90.000000
_cell_angle_gamma 90.000000
_cell_volume 2746.851125
_symmetry_space_group_name_H-M "P M M A"
_symmetry_group_IT_number 51
_symmetry_cell_setting 'orthorhombic'
loop_
_space_group_symop_operation_xyz
x,y,z
1/2-x,-y,z
1/2+x,-y,-z
-x,y,-z
-x,-y,-z
1/2+x,y,-z
1/2-x,y,z
x,-y,z
loop_
_atom_site_type_symbol
_atom_site_label
_atom_site_fract_x
_atom_site_fract_y
_atom_site_fract_z
Si Si1 0.925728 0.409723 0.211561
Si Si2 0.076818 0.176440 0.422704
Si Si3 0.078595 0.679433 0.927211
Si Si4 0.073144 0.000000 0.079218
Si Si5 0.917975 0.000000 0.573316
Si Si6 0.076171 0.748811 0.708476
Si Si7 0.921650 0.153688 0.149377
O O1 0.750000 0.410637 0.208519
O O2 0.988473 0.500000 0.230757
O O3 0.985509 0.380933 0.133885
O O4 0.975321 0.342522 0.269766
O O5 0.250000 0.193436 0.432604
O O6 0.000000 0.187520 0.500000
O O7 0.009576 0.238071 0.365514
O O8 0.045217 0.085732 0.387385
O O9 0.250000 0.663855 0.937922
O O10 0.048990 0.773477 0.906633
O O11 0.000000 0.655555 0.000000
O O12 0.023991 0.078663 0.125401
O O13 0.250000 0.000000 0.070467
O O14 0.000000 0.000000 0.000000
O O15 0.000000 0.000000 0.500000
O O16 0.750000 0.000000 0.550006
O O17 0.250000 0.753034 0.694006
O O18 0.034587 0.814550 0.770631
O O19 0.750000 0.126768 0.147749
#
# Coordination Sequence:
#
# PCOD8208871 Si02
#       7
#     8   8   8   4   4   8   8
#     4   8  15  30  51  72  95 125 159 194 237 292
#     4  10  19  32  51  75 104 134 165 201 240 286
#     4   9  17  29  47  70  95 124 158 196 240 290
#     4  12  24  35  50  71  96 130 174 218 254 289
#     4   8  16  29  44  65  93 124 154 184 221 265
#     4   9  18  33  53  75  98 127 163 201 244 293
#     4   9  19  35  50  67  95 130 167 205 246 293
#
# _framework density 17.474554000000001
#
# number of rings (size 3 to 8) (size 9 to 14) (size 15 to 20)
#    0.000    2.833    0.000    3.750    0.000    4.333 
#    0.000    4.167    0.000    2.000    0.000    0.000 
#    0.000    0.000    0.000    0.000    0.000    0.000 
#
# Total GULP energy -594757.898489 kJ/mol
# GULP energy per Si atom -12390.789552 kJ/mol
# Density = 1.743478 g / cm^3
# Si number density = 17.474554 Si / 1000 Ang^3
#
#
#
# Elastic Constant Matrix: (Units=GPa)
#
#
# Indices 1 2 3 4 5 6 
#
# 1 64.9985 50.2271 48.6499 0.0000 0.0000 0.0000
# 2 50.2271 133.4996 69.8993 0.0000 0.0000 0.0000
# 3 48.6499 69.8993 123.1473 0.0000 0.0000 0.0000
# 4 0.0000 0.0000 0.0000 16.6101 0.0000 0.0000
# 5 0.0000 0.0000 0.0000 0.0000 31.6703 0.0000
# 6 0.0000 0.0000 0.0000 0.0000 0.0000 15.4976
#
#
#
# Elastic Compliance Matrix: (Units=1/GPa)
#
#
# Indices 1 2 3 4 5 6 
#
# 1 0.024796 -0.005976 -0.006404 0.000000 0.000000 0.000000
# 2 -0.005976 0.012099 -0.004506 0.000000 0.000000 0.000000
# 3 -0.006404 -0.004506 0.013208 0.000000 0.000000 0.000000
# 4 0.000000 0.000000 0.000000 0.060204 0.000000 0.000000
# 5 0.000000 0.000000 0.000000 0.000000 0.031575 0.000000
# 6 0.000000 0.000000 0.000000 0.000000 0.000000 0.064526
#
#
# Mechanical properties :
#
#
# Convention : Reuss Voigt Hill
#
# Bulk Modulus (GPa) = 61.23608 73.24420 67.24014
# Shear Modulus (GPa) = 20.35632 22.94687 21.65160
#
# Velocity S-wave (km/s) = 3.41678 3.62769 3.52381
# Velocity P-wave (km/s) = 7.11934 7.71703 7.42420
#
# Compressibility (1/GPa) = 0.01633024
#
# Stress axis : x y z
#
# Youngs Moduli (GPa) = 40.32901 82.65425 75.71190
#
# Poissons Ratio (x) = 0.49396 0.48483
# Poissons Ratio (y) = 0.24102 0.34118
# Poissons Ratio (z) = 0.25825 0.37247
#
# Static dielectric constant tensor:
#      x y z
#    x 3.039800 0.000000 0.000000 
#    y 0.000000 3.514300 0.000000 
#    z 0.000000 0.000000 3.107580 
# 
# 
# High freq. dielectric constant tensor:
#      x y z
#    x 1.658440 0.000000 0.000000 
#    y 0.000000 1.675410 0.000000 
#    z 0.000000 0.000000 1.663520 
# 
# From -- ./inp_files/27680.got.cif
#   From: 2010.03.12/outbox.cif.g09.slc.cpg/sg51_14_cif.got.tgz:27680.got - 2010.04.16 13:43:02.
