data_PCOD8208285
_publ_section_title
;
Structure prediction by ZEFSAII (Michael W. Deem and Ramdas Pophale) SiO2 
 PCOD8208285
Probable space group: P M M A
;
_chemical_formula_sum "Si O2"
_cell_formula_units_Z 56
_cell_length_a 9.356945
_cell_length_b 18.980216
_cell_length_c 18.691658
_cell_angle_alpha 90.000000
_cell_angle_beta 90.000000
_cell_angle_gamma 90.000000
_cell_volume 3319.579343
_symmetry_space_group_name_H-M "P M M A"
_symmetry_group_IT_number 51
_symmetry_cell_setting 'orthorhombic'
loop_
_space_group_symop_operation_xyz
x,y,z
1/2-x,-y,z
1/2+x,-y,-z
-x,y,-z
-x,-y,-z
1/2+x,y,-z
1/2-x,y,z
x,-y,z
loop_
_atom_site_type_symbol
_atom_site_label
_atom_site_fract_x
_atom_site_fract_y
_atom_site_fract_z
Si Si1 0.918116 0.720128 0.784530
Si Si2 0.419703 0.577047 0.280281
Si Si3 0.916137 0.080644 0.430231
Si Si4 0.593547 0.417223 0.562791
Si Si5 0.919404 0.844649 0.283715
Si Si6 0.586177 0.208063 0.930022
Si Si7 0.085548 0.079792 0.163726
O O1 0.750000 0.731363 0.768964
O O2 0.966201 0.638937 0.773594
O O3 0.955226 0.738596 0.866238
O O4 0.006460 0.769382 0.730304
O O5 0.250000 0.572104 0.286447
O O6 0.478398 0.500000 0.254714
O O7 0.478535 0.595926 0.359561
O O8 0.750000 0.086274 0.448024
O O9 0.956944 0.130216 0.363592
O O10 0.000000 0.107717 0.500000
O O11 0.958611 0.000000 0.411700
O O12 0.500000 0.381874 0.500000
O O13 0.750000 0.381805 0.559143
O O14 0.607921 0.500000 0.549339
O O15 0.750000 0.838944 0.271405
O O16 0.982783 0.902519 0.229595
O O17 0.750000 0.215620 0.951162
O O18 0.549157 0.128893 0.904209
O O19 0.500000 0.229003 0.000000
O O20 0.250000 0.093242 0.187520
O O21 0.059490 0.000000 0.139313
#
# Coordination Sequence:
#
# PCOD8208285 Si02
#       7
#     8   8   8   8   8   8   8
#     4   9  18  33  51  70  92 119 153 190 229 278
#     4   8  14  27  49  72  90 114 153 196 231 267
#     4   9  18  31  46  65  89 119 158 201 238 271
#     4   8  13  22  38  61  87 113 141 174 214 260
#     4  10  19  31  47  68  95 124 156 194 234 277
#     4   9  18  31  47  68  93 122 153 184 221 268
#     4   9  18  32  49  70  95 122 154 190 226 268
#
# _framework density 16.869607999999999
#
# number of rings (size 3 to 8) (size 9 to 14) (size 15 to 20)
#    0.000    3.143    0.000    2.571    0.000    4.571 
#    0.000    2.857    0.000    5.143    0.000    0.000 
#    0.000    0.000    0.000    0.000    0.000    0.286 
#
# Total GULP energy -694090.733259 kJ/mol
# GULP energy per Si atom -12394.477380 kJ/mol
# Density = 1.683121 g / cm^3
# Si number density = 16.869608 Si / 1000 Ang^3
#
#
#
# Elastic Constant Matrix: (Units=GPa)
#
#
# Indices 1 2 3 4 5 6 
#
# 1 58.0112 33.3933 53.5965 0.0000 0.0000 0.0000
# 2 33.3933 116.5183 68.7881 0.0000 0.0000 0.0000
# 3 53.5965 68.7881 128.4171 0.0000 0.0000 0.0000
# 4 0.0000 0.0000 0.0000 17.0991 0.0000 0.0000
# 5 0.0000 0.0000 0.0000 0.0000 30.5662 0.0000
# 6 0.0000 0.0000 0.0000 0.0000 0.0000 13.3627
#
#
#
# Elastic Compliance Matrix: (Units=1/GPa)
#
#
# Indices 1 2 3 4 5 6 
#
# 1 0.028275 -0.001662 -0.010911 0.000000 0.000000 0.000000
# 2 -0.001662 0.012649 -0.006082 0.000000 0.000000 0.000000
# 3 -0.010911 -0.006082 0.015599 0.000000 0.000000 0.000000
# 4 0.000000 0.000000 0.000000 0.058483 0.000000 0.000000
# 5 0.000000 0.000000 0.000000 0.000000 0.032716 0.000000
# 6 0.000000 0.000000 0.000000 0.000000 0.000000 0.074835
#
#
# Mechanical properties :
#
#
# Convention : Reuss Voigt Hill
#
# Bulk Modulus (GPa) = 52.04672 68.27804 60.16238
# Shear Modulus (GPa) = 18.77785 22.01684 20.39735
#
# Velocity S-wave (km/s) = 3.33996 3.61656 3.48101
# Velocity P-wave (km/s) = 6.76706 7.61585 7.20397
#
# Compressibility (1/GPa) = 0.01921351
#
# Stress axis : x y z
#
# Youngs Moduli (GPa) = 35.36668 79.05576 64.10800
#
# Poissons Ratio (x) = 0.13141 0.69946
# Poissons Ratio (y) = 0.05879 0.38990
# Poissons Ratio (z) = 0.38587 0.48081
#
# Static dielectric constant tensor:
#      x y z
#    x 3.121180 0.000000 0.000000 
#    y 0.000000 3.197680 0.000000 
#    z 0.000000 0.000000 3.060120 
# 
# 
# High freq. dielectric constant tensor:
#      x y z
#    x 1.635640 0.000000 0.000000 
#    y 0.000000 1.633380 0.000000 
#    z 0.000000 0.000000 1.640330 
# 
# From -- ./inp_files/28222.got.cif
#   From: 2010.03.12/outbox.cif.g09.slc.cpg/sg51_15_cif.got.tgz:28222.got - 2010.04.16 13:43:02.
