data_PCOD8208308
_publ_section_title
;
Structure prediction by ZEFSAII (Michael W. Deem and Ramdas Pophale) SiO2 
 PCOD8208308
Probable space group: P M M A
;
_chemical_formula_sum "Si O2"
_cell_formula_units_Z 56
_cell_length_a 14.739204
_cell_length_b 9.583842
_cell_length_c 21.681331
_cell_angle_alpha 90.000000
_cell_angle_beta 90.000000
_cell_angle_gamma 90.000000
_cell_volume 3062.665841
_symmetry_space_group_name_H-M "P M M A"
_symmetry_group_IT_number 51
_symmetry_cell_setting 'orthorhombic'
loop_
_space_group_symop_operation_xyz
x,y,z
1/2-x,-y,z
1/2+x,-y,-z
-x,y,-z
-x,-y,-z
1/2+x,y,-z
1/2-x,y,z
x,-y,z
loop_
_atom_site_type_symbol
_atom_site_label
_atom_site_fract_x
_atom_site_fract_y
_atom_site_fract_z
Si Si1 0.645428 0.159912 0.184554
Si Si2 0.351339 0.652136 0.924303
Si Si3 0.515620 0.836524 0.731505
Si Si4 0.352457 0.834189 0.509346
Si Si5 0.352149 0.165398 0.164356
Si Si6 0.512559 0.166231 0.594792
Si Si7 0.599040 0.157034 0.971600
O O1 0.750000 0.190807 0.200815
O O2 0.604074 0.251633 0.128610
O O3 0.586415 0.193188 0.244955
O O4 0.631918 0.000000 0.163389
O O5 0.250000 0.625117 0.901865
O O6 0.400608 0.500000 0.930315
O O7 0.344220 0.732390 0.989170
O O8 0.588803 0.770854 0.779269
O O9 0.524551 0.769564 0.663377
O O10 0.534211 0.000000 0.726749
O O11 0.250000 0.771137 0.514042
O O12 0.401352 0.784568 0.446014
O O13 0.416546 0.781953 0.565669
O O14 0.346306 0.000000 0.510143
O O15 0.250000 0.225644 0.167974
O O16 0.398154 0.207305 0.099259
O O17 0.350945 0.000000 0.169977
O O18 0.509677 0.000000 0.596953
O O19 0.639663 0.000000 0.977355
O O20 0.500000 0.162988 0.000000
#
# Coordination Sequence:
#
# PCOD8208308 Si02
#       7
#     8   8   8   8   8   8   8
#     4   9  17  29  45  64  86 114 148 186 229 273
#     4  10  20  32  46  65  88 113 143 182 228 276
#     4   9  16  26  39  56  80 108 142 182 217 255
#     4   8  13  21  32  47  71 104 139 172 208 251
#     4   9  17  27  39  57  79 103 134 174 220 267
#     4   8  14  22  32  49  72 101 139 177 208 244
#     4  10  19  31  48  66  84 110 145 186 232 278
#
# _framework density 18.284724000000001
#
# number of rings (size 3 to 8) (size 9 to 14) (size 15 to 20)
#    0.000    3.000    0.000    2.571    0.000    5.143 
#    0.000    5.714    0.000    0.000    0.000    0.000 
#    0.000    0.000    0.000    2.571    0.000    6.571 
#
# Total GULP energy -693816.679626 kJ/mol
# GULP energy per Si atom -12389.583565 kJ/mol
# Density = 1.824311 g / cm^3
# Si number density = 18.284724 Si / 1000 Ang^3
#
#
#
# Elastic Constant Matrix: (Units=GPa)
#
#
# Indices 1 2 3 4 5 6 
#
# 1 123.4983 10.8746 68.5761 0.0000 0.0000 0.0000
# 2 10.8746 40.0734 25.2920 0.0000 0.0000 0.0000
# 3 68.5761 25.2920 175.2090 0.0000 0.0000 0.0000
# 4 0.0000 0.0000 0.0000 1.1998 0.0000 0.0000
# 5 0.0000 0.0000 0.0000 0.0000 23.6653 0.0000
# 6 0.0000 0.0000 0.0000 0.0000 0.0000 5.4431
#
#
#
# Elastic Compliance Matrix: (Units=1/GPa)
#
#
# Indices 1 2 3 4 5 6 
#
# 1 0.010349 -0.000277 -0.004010 0.000000 0.000000 0.000000
# 2 -0.000277 0.027463 -0.003856 0.000000 0.000000 0.000000
# 3 -0.004010 -0.003856 0.007834 0.000000 0.000000 0.000000
# 4 0.000000 0.000000 0.000000 0.833453 0.000000 0.000000
# 5 0.000000 0.000000 0.000000 0.000000 0.042256 0.000000
# 6 0.000000 0.000000 0.000000 0.000000 0.000000 0.183720
#
#
# Mechanical properties :
#
#
# Convention : Reuss Voigt Hill
#
# Bulk Modulus (GPa) = 34.06172 60.91847 47.49009
# Shear Modulus (GPa) = 4.42029 21.66416 13.04223
#
# Velocity S-wave (km/s) = 1.55651 3.44586 2.67364
# Velocity P-wave (km/s) = 4.67966 7.01576 5.96323
#
# Compressibility (1/GPa) = 0.02935847
#
# Stress axis : x y z
#
# Youngs Moduli (GPa) = 96.63181 36.41254 127.65314
#
# Poissons Ratio (x) = 0.01009 0.51194
# Poissons Ratio (y) = 0.02678 0.49222
# Poissons Ratio (z) = 0.38753 0.14040
#
# Static dielectric constant tensor:
#      x y z
#    x 3.558960 0.000000 0.000000 
#    y 0.000000 2.936980 0.000000 
#    z 0.000000 0.000000 3.626340 
# 
# 
# High freq. dielectric constant tensor:
#      x y z
#    x 1.713310 0.000000 0.000000 
#    y 0.000000 1.631410 0.000000 
#    z 0.000000 0.000000 1.709340 
# 
# From -- ./inp_files/33364.got.cif
#   From: 2010.03.12/outbox.cif.g09.slc.cpg/sg51_17_cif.got.tgz:33364.got - 2010.04.16 13:43:02.
