data_PCOD8208562
_publ_section_title
;
Structure prediction by ZEFSAII (Michael W. Deem and Ramdas Pophale) SiO2 
 PCOD8208562
Probable space group: P M M A
;
_chemical_formula_sum "Si O2"
_cell_formula_units_Z 64
_cell_length_a 16.051389
_cell_length_b 9.107757
_cell_length_c 23.069689
_cell_angle_alpha 90.000000
_cell_angle_beta 90.000000
_cell_angle_gamma 90.000000
_cell_volume 3372.607447
_symmetry_space_group_name_H-M "P M M A"
_symmetry_group_IT_number 51
_symmetry_cell_setting 'orthorhombic'
loop_
_space_group_symop_operation_xyz
x,y,z
1/2-x,-y,z
1/2+x,-y,-z
-x,y,-z
-x,-y,-z
1/2+x,y,-z
1/2-x,y,z
x,-y,z
loop_
_atom_site_type_symbol
_atom_site_label
_atom_site_fract_x
_atom_site_fract_y
_atom_site_fract_z
Si Si1 0.157063 0.332510 0.306612
Si Si2 0.509185 0.831314 0.751827
Si Si3 0.511344 0.327137 0.130579
Si Si4 0.843966 0.330790 0.936570
Si Si5 0.588781 0.333463 0.574338
Si Si6 0.160244 0.167852 0.528537
Si Si7 0.344960 0.827104 0.943247
Si Si8 0.552443 0.164147 0.368324
O O1 0.250000 0.306792 0.282972
O O2 0.127593 0.500000 0.294065
O O3 0.158695 0.304966 0.376271
O O4 0.098094 0.219807 0.273094
O O5 0.480328 0.731229 0.804504
O O6 0.439385 0.812974 0.701016
O O7 0.516778 0.000000 0.772154
O O8 0.526537 0.500000 0.129389
O O9 0.417715 0.288687 0.108179
O O10 0.585370 0.253212 0.094547
O O11 0.750000 0.307150 0.910019
O O12 0.854236 0.500000 0.956164
O O13 0.856034 0.226595 0.991308
O O14 0.585359 0.500000 0.554411
O O15 0.597157 0.243897 0.515260
O O16 0.503828 0.290160 0.605115
O O17 0.250000 0.242927 0.520638
O O18 0.138477 0.181268 0.596861
O O19 0.162665 0.000000 0.509593
O O20 0.250000 0.791655 0.921892
O O21 0.361917 0.000000 0.940818
O O22 0.514935 0.000000 0.379226
#
# Coordination Sequence:
#
# PCOD8208562 Si02
#       8
#     8   8   8   8   8   8   8   8
#     4   9  18  33  51  71 100 137 172 209 259 319
#     4  10  21  36  53  74 101 135 179 226 265 307
#     4  11  22  36  57  83 112 149 188 225 269 322
#     4   9  19  36  57  83 116 151 183 215 259 320
#     4  10  19  31  50  76 102 128 161 203 254 311
#     4  10  20  33  50  72  97 126 161 203 254 312
#     4  10  21  37  58  85 115 146 182 227 276 319
#     4   9  19  36  53  69  95 132 171 209 253 307
#
# _framework density 18.976413999999998
#
# number of rings (size 3 to 8) (size 9 to 14) (size 15 to 20)
#    0.000    2.250    0.000    2.625    0.000    7.750 
#    0.000    1.875    0.000    2.250    0.000    0.000 
#    0.000    0.000    0.000    0.000    0.000    0.000 
#
# Total GULP energy -793156.079284 kJ/mol
# GULP energy per Si atom -12393.063739 kJ/mol
# Density = 1.893322 g / cm^3
# Si number density = 18.976414 Si / 1000 Ang^3
#
#
#
# Elastic Constant Matrix: (Units=GPa)
#
#
# Indices 1 2 3 4 5 6 
#
# 1 79.1613 43.7688 44.5161 0.0000 0.0000 0.0000
# 2 43.7688 86.2133 49.0686 0.0000 0.0000 0.0000
# 3 44.5161 49.0686 105.5867 0.0000 0.0000 0.0000
# 4 0.0000 0.0000 0.0000 32.1124 0.0000 0.0000
# 5 0.0000 0.0000 0.0000 0.0000 16.9738 0.0000
# 6 0.0000 0.0000 0.0000 0.0000 0.0000 24.3875
#
#
#
# Elastic Compliance Matrix: (Units=1/GPa)
#
#
# Indices 1 2 3 4 5 6 
#
# 1 0.019234 -0.007001 -0.004856 0.000000 0.000000 0.000000
# 2 -0.007001 0.018319 -0.005561 0.000000 0.000000 0.000000
# 3 -0.004856 -0.005561 0.014103 0.000000 0.000000 0.000000
# 4 0.000000 0.000000 0.000000 0.031141 0.000000 0.000000
# 5 0.000000 0.000000 0.000000 0.000000 0.058914 0.000000
# 6 0.000000 0.000000 0.000000 0.000000 0.000000 0.041005
#
#
# Mechanical properties :
#
#
# Convention : Reuss Voigt Hill
#
# Bulk Modulus (GPa) = 59.45659 60.62982 60.04320
# Shear Modulus (GPa) = 22.40572 23.60193 23.00383
#
# Velocity S-wave (km/s) = 3.43988 3.53051 3.48549
# Velocity P-wave (km/s) = 6.86854 6.97415 6.92155
#
# Compressibility (1/GPa) = 0.01681899
#
# Stress axis : x y z
#
# Youngs Moduli (GPa) = 51.99157 54.58884 70.90905
#
# Poissons Ratio (x) = 0.38218 0.34430
# Poissons Ratio (y) = 0.36400 0.39436
# Poissons Ratio (z) = 0.25245 0.30359
#
# Static dielectric constant tensor:
#      x y z
#    x 3.598040 0.000000 0.000000 
#    y 0.000000 3.523830 0.000000 
#    z 0.000000 0.000000 3.479780 
# 
# 
# High freq. dielectric constant tensor:
#      x y z
#    x 1.727080 0.000000 0.000000 
#    y 0.000000 1.743530 0.000000 
#    z 0.000000 0.000000 1.730120 
# 
# From -- ./inp_files/35698.got.cif
#   From: 2010.03.12/outbox.cif.g09.slc.cpg/sg51_18_cif.got.tgz:35698.got - 2010.04.16 13:43:02.
