data_PCOD8208710
_publ_section_title
;
Structure prediction by ZEFSAII (Michael W. Deem and Ramdas Pophale) SiO2 
 PCOD8208710
Probable space group: P M M A
;
_chemical_formula_sum "Si O2"
_cell_formula_units_Z 52
_cell_length_a 9.040878
_cell_length_b 15.257231
_cell_length_c 23.008758
_cell_angle_alpha 90.000000
_cell_angle_beta 90.000000
_cell_angle_gamma 90.000000
_cell_volume 3173.799642
_symmetry_space_group_name_H-M "P M M A"
_symmetry_group_IT_number 51
_symmetry_cell_setting 'orthorhombic'
loop_
_space_group_symop_operation_xyz
x,y,z
1/2-x,-y,z
1/2+x,-y,-z
-x,y,-z
-x,-y,-z
1/2+x,y,-z
1/2-x,y,z
x,-y,z
loop_
_atom_site_type_symbol
_atom_site_label
_atom_site_fract_x
_atom_site_fract_y
_atom_site_fract_z
Si Si1 0.574384 0.164835 0.056564
Si Si2 0.427185 0.598275 0.318095
Si Si3 0.587821 0.603588 0.554069
Si Si4 0.418956 0.669342 0.100222
Si Si5 0.422990 0.098061 0.817794
Si Si6 0.573594 0.500000 0.062494
Si Si7 0.916481 0.258692 0.771276
O O1 0.750000 0.171933 0.048382
O O2 0.499835 0.260204 0.059787
O O3 0.531846 0.111778 0.114751
O O4 0.500000 0.118191 0.000000
O O5 0.250000 0.596978 0.317543
O O6 0.483352 0.500000 0.300881
O O7 0.485144 0.623415 0.382874
O O8 0.489267 0.671931 0.273852
O O9 0.500000 0.645948 0.500000
O O10 0.750000 0.646102 0.551914
O O11 0.599064 0.500000 0.545960
O O12 0.250000 0.655091 0.078324
O O13 0.516123 0.582729 0.097944
O O14 0.420176 0.697326 0.166471
O O15 0.250000 0.112090 0.811217
O O16 0.497615 0.166508 0.773607
O O17 0.471543 0.000000 0.799918
O O18 0.750000 0.500000 0.057889
O O19 0.500000 0.500000 0.000000
O O20 0.750000 0.237144 0.751786
#
# Coordination Sequence:
#
# PCOD8208710 Si02
#       7
#     8   8   8   8   8   4   8
#     4  10  19  32  49  67  88 111 138 173 218 271
#     4   8  14  25  43  66  93 125 157 186 220 259
#     4   8  13  22  37  58  86 122 158 188 216 249
#     4  10  20  33  48  66  86 111 144 182 224 264
#     4   9  19  35  51  66  89 119 144 174 226 281
#     4  12  24  36  48  62  82 110 147 186 223 264
#     4   9  18  31  50  71  90 115 150 189 222 259
#
# _framework density 16.384146000000001
#
# number of rings (size 3 to 8) (size 9 to 14) (size 15 to 20)
#    0.000    2.769    0.000    3.000    1.077    1.846 
#    0.000    0.769    0.000    0.923    0.000    0.000 
#    0.000    0.615    0.000    1.385    0.000    2.462 
#
# Total GULP energy -644462.084675 kJ/mol
# GULP energy per Si atom -12393.501628 kJ/mol
# Density = 1.634686 g / cm^3
# Si number density = 16.384146 Si / 1000 Ang^3
#
#
#
# Elastic Constant Matrix: (Units=GPa)
#
#
# Indices 1 2 3 4 5 6 
#
# 1 68.2667 35.6920 26.5734 0.0000 0.0000 0.0000
# 2 35.6920 104.7462 42.8719 0.0000 0.0000 0.0000
# 3 26.5734 42.8719 87.1948 0.0000 0.0000 0.0000
# 4 0.0000 0.0000 0.0000 11.9020 0.0000 0.0000
# 5 0.0000 0.0000 0.0000 0.0000 21.3200 0.0000
# 6 0.0000 0.0000 0.0000 0.0000 0.0000 22.2664
#
#
#
# Elastic Compliance Matrix: (Units=1/GPa)
#
#
# Indices 1 2 3 4 5 6 
#
# 1 0.018502 -0.005003 -0.003178 0.000000 0.000000 0.000000
# 2 -0.005003 0.013305 -0.005017 0.000000 0.000000 0.000000
# 3 -0.003178 -0.005017 0.014904 0.000000 0.000000 0.000000
# 4 0.000000 0.000000 0.000000 0.084019 0.000000 0.000000
# 5 0.000000 0.000000 0.000000 0.000000 0.046904 0.000000
# 6 0.000000 0.000000 0.000000 0.000000 0.000000 0.044911
#
#
# Mechanical properties :
#
#
# Convention : Reuss Voigt Hill
#
# Bulk Modulus (GPa) = 49.22965 52.27581 50.75273
# Shear Modulus (GPa) = 19.55308 21.43572 20.49440
#
# Velocity S-wave (km/s) = 3.45833 3.62100 3.54060
# Velocity P-wave (km/s) = 6.78669 7.03262 6.91075
#
# Compressibility (1/GPa) = 0.02031296
#
# Stress axis : x y z
#
# Youngs Moduli (GPa) = 54.04929 75.15825 67.09607
#
# Poissons Ratio (x) = 0.37605 0.21326
# Poissons Ratio (y) = 0.27043 0.33663
# Poissons Ratio (z) = 0.17179 0.37707
#
# Static dielectric constant tensor:
#      x y z
#    x 3.137060 0.000000 0.000000 
#    y 0.000000 2.986750 0.000000 
#    z 0.000000 0.000000 3.156750 
# 
# 
# High freq. dielectric constant tensor:
#      x y z
#    x 1.620760 0.000000 0.000000 
#    y 0.000000 1.605110 0.000000 
#    z 0.000000 0.000000 1.617200 
# 
# From -- ./inp_files/34719.got.cif
#   From: 2010.03.12/outbox.cif.g09.slc.cpg/sg51_18_cif.got.tgz:34719.got - 2010.04.16 13:43:02.
