data_PCOD8208470
_publ_section_title
;
Structure prediction by ZEFSAII (Michael W. Deem and Ramdas Pophale) SiO2 
 PCOD8208470
Probable space group: P M M A
;
_chemical_formula_sum "Si O2"
_cell_formula_units_Z 40
_cell_length_a 8.962846
_cell_length_b 25.210133
_cell_length_c 10.134361
_cell_angle_alpha 90.000000
_cell_angle_beta 90.000000
_cell_angle_gamma 90.000000
_cell_volume 2289.904875
_symmetry_space_group_name_H-M "P M M A"
_symmetry_group_IT_number 51
_symmetry_cell_setting 'orthorhombic'
loop_
_space_group_symop_operation_xyz
x,y,z
1/2-x,-y,z
1/2+x,-y,-z
-x,y,-z
-x,-y,-z
1/2+x,y,-z
1/2-x,y,z
x,-y,z
loop_
_atom_site_type_symbol
_atom_site_label
_atom_site_fract_x
_atom_site_fract_y
_atom_site_fract_z
Si Si1 0.572747 0.171345 0.355819
Si Si2 0.574408 0.242955 0.863280
Si Si3 0.076188 0.365588 0.133135
Si Si4 0.576835 0.055954 0.360972
Si Si5 0.574504 0.439617 0.634732
O O1 0.500000 0.178068 0.500000
O O2 0.750000 0.181354 0.366010
O O3 0.499079 0.212884 0.258212
O O4 0.535306 0.112395 0.293928
O O5 0.750000 0.231218 0.869948
O O6 0.538989 0.304494 0.837750
O O7 0.500000 0.223935 0.000000
O O8 0.250000 0.375109 0.115437
O O9 0.012170 0.401392 0.251245
O O10 0.000000 0.385467 0.000000
O O11 0.500000 0.053855 0.500000
O O12 0.750000 0.056996 0.391067
O O13 0.536091 0.000000 0.283287
O O14 0.500000 0.420492 0.500000
O O15 0.750000 0.433381 0.617879
O O16 0.529332 0.500000 0.668815
#
# Coordination Sequence:
#
# PCOD8208470 Si02
#       5
#     8   8   8   8   8
#     4  10  19  31  49  74 101 128 161 200 241 286
#     4  10  20  35  52  70  96 129 164 201 244 292
#     4   9  19  34  51  72  96 124 159 198 238 282
#     4   8  14  25  42  65  93 123 154 191 235 281
#     4   9  18  33  51  72  99 128 158 193 234 280
#
# _framework density 17.467974999999999
#
# number of rings (size 3 to 8) (size 9 to 14) (size 15 to 20)
#    0.000    2.800    0.000    1.200    0.000    3.600 
#    0.000    2.000    0.000    0.600    0.000    0.000 
#    0.000    0.000    0.000    0.000    0.000    0.000 
#
# Total GULP energy -495590.074005 kJ/mol
# GULP energy per Si atom -12389.751850 kJ/mol
# Density = 1.742822 g / cm^3
# Si number density = 17.467975 Si / 1000 Ang^3
#
#
#
# Elastic Constant Matrix: (Units=GPa)
#
#
# Indices 1 2 3 4 5 6 
#
# 1 55.2286 43.3685 49.0852 0.0000 0.0000 0.0000
# 2 43.3685 106.0753 86.4586 0.0000 0.0000 0.0000
# 3 49.0852 86.4586 131.2569 0.0000 0.0000 0.0000
# 4 0.0000 0.0000 0.0000 3.8745 0.0000 0.0000
# 5 0.0000 0.0000 0.0000 0.0000 31.3499 0.0000
# 6 0.0000 0.0000 0.0000 0.0000 0.0000 19.2171
#
#
#
# Elastic Compliance Matrix: (Units=1/GPa)
#
#
# Indices 1 2 3 4 5 6 
#
# 1 0.029075 -0.006532 -0.006571 0.000000 0.000000 0.000000
# 2 -0.006532 0.021824 -0.011932 0.000000 0.000000 0.000000
# 3 -0.006571 -0.011932 0.017936 0.000000 0.000000 0.000000
# 4 0.000000 0.000000 0.000000 0.258101 0.000000 0.000000
# 5 0.000000 0.000000 0.000000 0.000000 0.031898 0.000000
# 6 0.000000 0.000000 0.000000 0.000000 0.000000 0.052037
#
#
# Mechanical properties :
#
#
# Convention : Reuss Voigt Hill
#
# Bulk Modulus (GPa) = 53.29123 72.26504 62.77814
# Shear Modulus (GPa) = 10.70216 18.46486 14.58351
#
# Velocity S-wave (km/s) = 2.47791 3.25479 2.89255
# Velocity P-wave (km/s) = 6.22583 7.45551 6.86825
#
# Compressibility (1/GPa) = 0.01876481
#
# Stress axis : x y z
#
# Youngs Moduli (GPa) = 34.39325 45.82209 55.75488
#
# Poissons Ratio (x) = 0.29931 0.36634
# Poissons Ratio (y) = 0.22465 0.66529
# Poissons Ratio (z) = 0.22598 0.54677
#
# Static dielectric constant tensor:
#      x y z
#    x 3.307630 0.000000 0.000000 
#    y 0.000000 3.806760 0.000000 
#    z 0.000000 0.000000 3.072760 
# 
# 
# High freq. dielectric constant tensor:
#      x y z
#    x 1.680110 0.000000 0.000000 
#    y 0.000000 1.691040 0.000000 
#    z 0.000000 0.000000 1.646820 
# 
# From -- ./inp_files/5211.got.cif
#   From: 2010.03.12/outbox.cif.g09.slc.cpg/sg51_3_cif.got.tgz:5211.got - 2010.04.16 13:43:02.
