data_PCOD8208829
_publ_section_title
;
Structure prediction by ZEFSAII (Michael W. Deem and Ramdas Pophale) SiO2 
 PCOD8208829
Probable space group: P M M A
;
_chemical_formula_sum "Si O2"
_cell_formula_units_Z 40
_cell_length_a 18.220728
_cell_length_b 8.887182
_cell_length_c 13.804750
_cell_angle_alpha 90.000000
_cell_angle_beta 90.000000
_cell_angle_gamma 90.000000
_cell_volume 2235.415949
_symmetry_space_group_name_H-M "P M M A"
_symmetry_group_IT_number 51
_symmetry_cell_setting 'orthorhombic'
loop_
_space_group_symop_operation_xyz
x,y,z
1/2-x,-y,z
1/2+x,-y,-z
-x,y,-z
-x,-y,-z
1/2+x,y,-z
1/2-x,y,z
x,-y,z
loop_
_atom_site_type_symbol
_atom_site_label
_atom_site_fract_x
_atom_site_fract_y
_atom_site_fract_z
Si Si1 0.165998 0.677142 0.912813
Si Si2 0.957500 0.178399 0.200258
Si Si3 0.167788 0.174109 0.293700
Si Si4 0.903395 0.677155 0.883957
Si Si5 0.525549 0.176753 0.601199
O O1 0.250000 0.730601 0.907797
O O2 0.159200 0.500000 0.897739
O O3 0.122398 0.759906 0.826992
O O4 0.132261 0.727116 0.015148
O O5 0.018008 0.243081 0.126265
O O6 0.976517 0.235511 0.308957
O O7 0.959114 0.000000 0.193513
O O8 0.250000 0.205019 0.331771
O O9 0.152940 0.273598 0.199407
O O10 0.110960 0.217564 0.379110
O O11 0.156257 0.000000 0.264239
O O12 0.915975 0.500000 0.878872
O O13 0.500000 0.253453 0.500000
O O14 0.514440 0.000000 0.592749
#
# Coordination Sequence:
#
# PCOD8208829 Si02
#       5
#     8   8   8   8   8
#     4  10  21  35  49  68  98 135 168 195 230 281
#     4  10  20  33  51  75  98 123 160 203 244 284
#     4   9  17  29  47  73 100 124 156 203 253 289
#     4  10  19  32  51  72  96 130 166 195 232 287
#     4   8  15  30  50  70  94 124 158 198 243 291
#
# _framework density 17.893761000000001
#
# number of rings (size 3 to 8) (size 9 to 14) (size 15 to 20)
#    0.000    2.600    0.000    3.600    0.000    5.600 
#    0.000    1.000    0.000   18.600    0.000    0.000 
#    0.000    0.000    0.000    0.000    0.000    0.000 
#
# Total GULP energy -495954.384536 kJ/mol
# GULP energy per Si atom -12398.859613 kJ/mol
# Density = 1.785303 g / cm^3
# Si number density = 17.893761 Si / 1000 Ang^3
#
#
#
# Elastic Constant Matrix: (Units=GPa)
#
#
# Indices 1 2 3 4 5 6 
#
# 1 154.2511 35.2773 85.8704 0.0000 0.0000 0.0000
# 2 35.2773 37.6200 29.0193 0.0000 0.0000 0.0000
# 3 85.8704 29.0193 117.6379 0.0000 0.0000 0.0000
# 4 0.0000 0.0000 0.0000 7.9728 0.0000 0.0000
# 5 0.0000 0.0000 0.0000 0.0000 22.3943 0.0000
# 6 0.0000 0.0000 0.0000 0.0000 0.0000 28.9745
#
#
#
# Elastic Compliance Matrix: (Units=1/GPa)
#
#
# Indices 1 2 3 4 5 6 
#
# 1 0.011758 -0.005440 -0.007241 0.000000 0.000000 0.000000
# 2 -0.005440 0.035346 -0.004748 0.000000 0.000000 0.000000
# 3 -0.007241 -0.004748 0.014957 0.000000 0.000000 0.000000
# 4 0.000000 0.000000 0.000000 0.125427 0.000000 0.000000
# 5 0.000000 0.000000 0.000000 0.000000 0.044654 0.000000
# 6 0.000000 0.000000 0.000000 0.000000 0.000000 0.034513
#
#
# Mechanical properties :
#
#
# Convention : Reuss Voigt Hill
#
# Bulk Modulus (GPa) = 36.76093 67.76034 52.26063
# Shear Modulus (GPa) = 16.09885 22.49111 19.29498
#
# Velocity S-wave (km/s) = 3.00274 3.54916 3.28732
# Velocity P-wave (km/s) = 5.71056 7.39904 6.60894
#
# Compressibility (1/GPa) = 0.02720280
#
# Stress axis : x y z
#
# Youngs Moduli (GPa) = 85.04806 28.29200 66.85674
#
# Poissons Ratio (x) = 0.15392 0.48410
# Poissons Ratio (y) = 0.46270 0.31743
# Poissons Ratio (z) = 0.61582 0.13433
#
# Static dielectric constant tensor:
#      x y z
#    x 3.458120 0.000000 0.000000 
#    y 0.000000 3.111970 0.000000 
#    z 0.000000 0.000000 3.448080 
# 
# 
# High freq. dielectric constant tensor:
#      x y z
#    x 1.699030 0.000000 0.000000 
#    y 0.000000 1.675100 0.000000 
#    z 0.000000 0.000000 1.678600 
# 
# From -- ./inp_files/24530.got.cif
#   From: 2010.03.12/outbox.cif.g09.slc.cpg/sg51_13_cif.got.tgz:24530.got - 2010.04.16 13:43:02.
