data_PCOD8208549
_publ_section_title
;
Structure prediction by ZEFSAII (Michael W. Deem and Ramdas Pophale) SiO2 
 PCOD8208549
Probable space group: P M M A
;
_chemical_formula_sum "Si O2"
_cell_formula_units_Z 64
_cell_length_a 18.878915
_cell_length_b 9.243154
_cell_length_c 19.910188
_cell_angle_alpha 90.000000
_cell_angle_beta 90.000000
_cell_angle_gamma 90.000000
_cell_volume 3474.342115
_symmetry_space_group_name_H-M "P M M A"
_symmetry_group_IT_number 51
_symmetry_cell_setting 'orthorhombic'
loop_
_space_group_symop_operation_xyz
x,y,z
1/2-x,-y,z
1/2+x,-y,-z
-x,y,-z
-x,-y,-z
1/2+x,y,-z
1/2-x,y,z
x,-y,z
loop_
_atom_site_type_symbol
_atom_site_label
_atom_site_fract_x
_atom_site_fract_y
_atom_site_fract_z
Si Si1 0.168925 0.669650 0.470481
Si Si2 0.416730 0.671401 0.340272
Si Si3 0.832655 0.835516 0.770388
Si Si4 0.551234 0.169004 0.296159
Si Si5 0.669961 0.166900 0.398841
Si Si6 0.553295 0.827900 0.143634
Si Si7 0.669761 0.172602 0.040921
Si Si8 0.595952 0.830435 0.907644
O O1 0.250000 0.716101 0.456108
O O2 0.162426 0.500000 0.481374
O O3 0.121548 0.722064 0.408376
O O4 0.139854 0.744872 0.537745
O O5 0.424132 0.500000 0.336545
O O6 0.371253 0.724068 0.277551
O O7 0.493281 0.744012 0.338376
O O8 0.750000 0.817706 0.759829
O O9 0.852007 0.794554 0.846342
O O10 0.857568 0.000000 0.754782
O O11 0.625789 0.199744 0.331892
O O12 0.555872 0.228929 0.220141
O O13 0.531274 0.000000 0.296857
O O14 0.750000 0.214771 0.382414
O O15 0.665318 0.000000 0.419055
O O16 0.623486 0.774219 0.104640
O O17 0.482590 0.766429 0.107006
O O18 0.550737 0.000000 0.144225
O O19 0.750000 0.233564 0.047039
O O20 0.672313 0.000000 0.037410
O O21 0.631503 0.236719 0.974369
O O22 0.587865 0.000000 0.919000
#
# Coordination Sequence:
#
# PCOD8208549 Si02
#       8
#     8   8   8   8   8   8   8   8
#     4   9  19  36  55  74 100 134 169 208 256 307
#     4  11  22  35  52  75 105 137 173 215 256 302
#     4  10  19  31  50  75 103 137 172 207 253 307
#     4  10  20  35  53  75 105 138 172 211 257 310
#     4   9  19  35  55  78 102 131 169 213 259 307
#     4   9  16  27  44  64  94 136 170 201 249 306
#     4   9  16  24  38  67 102 131 164 209 257 302
#     4   9  15  26  43  66  98 133 166 203 250 305
#
# _framework density 18.420753000000001
#
# number of rings (size 3 to 8) (size 9 to 14) (size 15 to 20)
#    0.000    2.500    1.250    1.500    0.000    6.250 
#    0.000    6.250    0.000    0.000    0.000    1.750 
#    0.000    1.000    0.000    0.000    0.000    0.000 
#
# Total GULP energy -793542.238617 kJ/mol
# GULP energy per Si atom -12399.097478 kJ/mol
# Density = 1.837883 g / cm^3
# Si number density = 18.420753 Si / 1000 Ang^3
#
#
#
# Elastic Constant Matrix: (Units=GPa)
#
#
# Indices 1 2 3 4 5 6 
#
# 1 111.6344 26.9427 59.2579 0.0000 0.0000 0.0000
# 2 26.9427 26.1480 28.0598 0.0000 0.0000 0.0000
# 3 59.2579 28.0598 112.1339 0.0000 0.0000 0.0000
# 4 0.0000 0.0000 0.0000 3.5830 0.0000 0.0000
# 5 0.0000 0.0000 0.0000 0.0000 37.2496 0.0000
# 6 0.0000 0.0000 0.0000 0.0000 0.0000 17.6648
#
#
#
# Elastic Compliance Matrix: (Units=1/GPa)
#
#
# Indices 1 2 3 4 5 6 
#
# 1 0.013765 -0.008719 -0.005093 0.000000 0.000000 0.000000
# 2 -0.008719 0.057806 -0.009858 0.000000 0.000000 0.000000
# 3 -0.005093 -0.009858 0.014076 0.000000 0.000000 0.000000
# 4 0.000000 0.000000 0.000000 0.279094 0.000000 0.000000
# 5 0.000000 0.000000 0.000000 0.000000 0.026846 0.000000
# 6 0.000000 0.000000 0.000000 0.000000 0.000000 0.056610
#
#
# Mechanical properties :
#
#
# Convention : Reuss Voigt Hill
#
# Bulk Modulus (GPa) = 26.10343 53.15970 39.63157
# Shear Modulus (GPa) = 9.83663 20.74320 15.28991
#
# Velocity S-wave (km/s) = 2.31334 3.35935 2.88416
# Velocity P-wave (km/s) = 4.61918 6.63085 5.71424
#
# Compressibility (1/GPa) = 0.03830914
#
# Stress axis : x y z
#
# Youngs Moduli (GPa) = 72.64612 17.29930 71.04357
#
# Poissons Ratio (x) = 0.15083 0.36180
# Poissons Ratio (y) = 0.63338 0.70032
# Poissons Ratio (z) = 0.36996 0.17053
#
# Static dielectric constant tensor:
#      x y z
#    x 3.606880 0.000000 0.000000 
#    y 0.000000 2.952170 0.000000 
#    z 0.000000 0.000000 3.543840 
# 
# 
# High freq. dielectric constant tensor:
#      x y z
#    x 1.724870 0.000000 0.000000 
#    y 0.000000 1.660000 0.000000 
#    z 0.000000 0.000000 1.723160 
# 
# From -- ./inp_files/30594.got.cif
#   From: 2010.03.12/outbox.cif.g09.slc.cpg/sg51_16_cif.got.tgz:30594.got - 2010.04.16 13:43:02.
