data_PCOD8208932
_publ_section_title
;
Structure prediction by ZEFSAII (Michael W. Deem and Ramdas Pophale) SiO2 
 PCOD8208932
Probable space group: P M M A
;
_chemical_formula_sum "Si O2"
_cell_formula_units_Z 64
_cell_length_a 19.883917
_cell_length_b 9.309511
_cell_length_c 19.780389
_cell_angle_alpha 90.000000
_cell_angle_beta 90.000000
_cell_angle_gamma 90.000000
_cell_volume 3661.538789
_symmetry_space_group_name_H-M "P M M A"
_symmetry_group_IT_number 51
_symmetry_cell_setting 'orthorhombic'
loop_
_space_group_symop_operation_xyz
x,y,z
1/2-x,-y,z
1/2+x,-y,-z
-x,y,-z
-x,-y,-z
1/2+x,y,-z
1/2-x,y,z
x,-y,z
loop_
_atom_site_type_symbol
_atom_site_label
_atom_site_fract_x
_atom_site_fract_y
_atom_site_fract_z
Si Si1 0.931232 0.663404 0.318700
Si Si2 0.572527 0.335109 0.024048
Si Si3 0.586565 0.330883 0.667909
Si Si4 0.535433 0.336742 0.171220
Si Si5 0.405196 0.832404 0.198556
Si Si6 0.325031 0.831929 0.594163
Si Si7 0.825862 0.833509 0.933664
Si Si8 0.172247 0.834498 0.438639
O O1 0.915852 0.500000 0.338367
O O2 0.920518 0.690278 0.238483
O O3 0.879540 0.760848 0.358198
O O4 0.007459 0.704013 0.338988
O O5 0.579734 0.500000 0.002051
O O6 0.580878 0.315031 0.104854
O O7 0.500000 0.276519 0.000000
O O8 0.630984 0.248441 0.988845
O O9 0.599442 0.500000 0.674431
O O10 0.615954 0.252945 0.734185
O O11 0.624712 0.270699 0.603058
O O12 0.506146 0.500000 0.173764
O O13 0.474433 0.225857 0.167656
O O14 0.348263 0.803855 0.143035
O O15 0.413054 0.000000 0.216034
O O16 0.250000 0.774891 0.611581
O O17 0.341810 0.797377 0.516545
O O18 0.328138 0.000000 0.607173
O O19 0.750000 0.778455 0.940483
O O20 0.832736 0.000000 0.950988
O O21 0.250000 0.805636 0.420371
O O22 0.154020 0.000000 0.423133
#
# Coordination Sequence:
#
# PCOD8208932 Si02
#       8
#     8   8   8   8   8   8   8   8
#     4   9  19  34  52  76 107 139 169 212 262 311
#     4  10  19  33  57  81 101 134 178 221 263 312
#     4  10  21  35  52  78 111 140 173 217 261 308
#     4   9  18  34  53  77 107 133 168 217 264 309
#     4  10  19  32  52  75 101 138 179 213 257 312
#     4   9  19  36  56  77 102 134 175 221 264 311
#     4  10  22  37  51  74 109 142 175 218 264 313
#     4   9  19  36  55  75 102 137 176 217 262 313
#
# _framework density 17.478988999999999
#
# number of rings (size 3 to 8) (size 9 to 14) (size 15 to 20)
#    0.000    2.500    1.250    2.250    0.000    6.000 
#    0.000    5.625    0.000    3.750    0.000    0.000 
#    0.000    0.000    0.000    0.000    0.000    0.000 
#
# Total GULP energy -793605.188951 kJ/mol
# GULP energy per Si atom -12400.081077 kJ/mol
# Density = 1.743921 g / cm^3
# Si number density = 17.478989 Si / 1000 Ang^3
#
#
#
# Elastic Constant Matrix: (Units=GPa)
#
#
# Indices 1 2 3 4 5 6 
#
# 1 111.6011 61.4841 80.9349 0.0000 0.0000 0.0000
# 2 61.4841 82.7262 67.5708 0.0000 0.0000 0.0000
# 3 80.9349 67.5708 126.9731 0.0000 0.0000 0.0000
# 4 0.0000 0.0000 0.0000 34.4933 0.0000 0.0000
# 5 0.0000 0.0000 0.0000 0.0000 26.7986 0.0000
# 6 0.0000 0.0000 0.0000 0.0000 0.0000 21.7962
#
#
#
# Elastic Compliance Matrix: (Units=1/GPa)
#
#
# Indices 1 2 3 4 5 6 
#
# 1 0.018953 -0.007462 -0.008110 0.000000 0.000000 0.000000
# 2 -0.007462 0.024321 -0.008186 0.000000 0.000000 0.000000
# 3 -0.008110 -0.008186 0.017401 0.000000 0.000000 0.000000
# 4 0.000000 0.000000 0.000000 0.028991 0.000000 0.000000
# 5 0.000000 0.000000 0.000000 0.000000 0.037315 0.000000
# 6 0.000000 0.000000 0.000000 0.000000 0.000000 0.045880
#
#
# Mechanical properties :
#
#
# Convention : Reuss Voigt Hill
#
# Bulk Modulus (GPa) = 75.99508 82.36445 79.17976
# Shear Modulus (GPa) = 22.24561 24.03831 23.14196
#
# Velocity S-wave (km/s) = 3.57137 3.71248 3.64261
# Velocity P-wave (km/s) = 7.78323 8.09944 7.94291
#
# Compressibility (1/GPa) = 0.01315875
#
# Stress axis : x y z
#
# Youngs Moduli (GPa) = 52.76208 41.11757 57.46682
#
# Poissons Ratio (x) = 0.30683 0.46605
# Poissons Ratio (y) = 0.39372 0.47042
# Poissons Ratio (z) = 0.42789 0.33659
#
# Static dielectric constant tensor:
#      x y z
#    x 3.119360 0.000000 0.000000 
#    y 0.000000 3.237870 0.000000 
#    z 0.000000 0.000000 3.345330 
# 
# 
# High freq. dielectric constant tensor:
#      x y z
#    x 1.658800 0.000000 0.000000 
#    y 0.000000 1.677620 0.000000 
#    z 0.000000 0.000000 1.684600 
# 
# From -- ./inp_files/33963.got.cif
#   From: 2010.03.12/outbox.cif.g09.slc.cpg/sg51_17_cif.got.tgz:33963.got - 2010.04.16 13:43:02.
