data_PCOD8208137
_publ_section_title
;
Structure prediction by ZEFSAII (Michael W. Deem and Ramdas Pophale) SiO2 
 PCOD8208137
Probable space group: P M M A
;
_chemical_formula_sum "Si O2"
_cell_formula_units_Z 56
_cell_length_a 9.011846
_cell_length_b 14.510566
_cell_length_c 23.157669
_cell_angle_alpha 90.000000
_cell_angle_beta 90.000000
_cell_angle_gamma 90.000000
_cell_volume 3028.258582
_symmetry_space_group_name_H-M "P M M A"
_symmetry_group_IT_number 51
_symmetry_cell_setting 'orthorhombic'
loop_
_space_group_symop_operation_xyz
x,y,z
1/2-x,-y,z
1/2+x,-y,-z
-x,y,-z
-x,-y,-z
1/2+x,y,-z
1/2-x,y,z
x,-y,z
loop_
_atom_site_type_symbol
_atom_site_label
_atom_site_fract_x
_atom_site_fract_y
_atom_site_fract_z
Si Si1 0.924446 0.605789 0.559071
Si Si2 0.579481 0.107267 0.156198
Si Si3 0.078990 0.103122 0.274740
Si Si4 0.079947 0.395797 0.763947
Si Si5 0.922062 0.715482 0.667819
Si Si6 0.579376 0.605559 0.102928
Si Si7 0.074507 0.222995 0.058130
O O1 0.750000 0.618615 0.551224
O O2 0.965294 0.500000 0.573992
O O3 0.991189 0.671081 0.609777
O O4 0.000000 0.637847 0.500000
O O5 0.750000 0.139680 0.151751
O O6 0.523716 0.128212 0.220619
O O7 0.480752 0.163126 0.111558
O O8 0.562121 0.000000 0.141595
O O9 0.250000 0.111350 0.254738
O O10 0.046175 0.174677 0.327092
O O11 0.044020 0.000000 0.297566
O O12 0.250000 0.385615 0.745334
O O13 0.025593 0.500000 0.754258
O O14 0.058639 0.367546 0.830277
O O15 0.982327 0.329443 0.725691
O O16 0.750000 0.692719 0.665887
O O17 0.750000 0.621191 0.084560
O O18 0.532503 0.500000 0.091916
O O19 0.473347 0.670478 0.065470
O O20 0.250000 0.215531 0.052938
O O21 0.000000 0.183379 0.000000
#
# Coordination Sequence:
#
# PCOD8208137 Si02
#       7
#     8   8   8   8   8   8   8
#     4   9  18  32  48  68  97 133 173 214 253 295
#     4  10  21  38  59  81 106 135 166 205 256 310
#     4   9  18  33  53  78 106 134 165 202 248 304
#     4   9  18  31  48  73 103 132 161 197 246 301
#     4  10  19  30  48  74 102 133 168 208 252 295
#     4   9  19  37  57  76 103 137 171 210 255 304
#     4  12  25  39  56  77 102 133 171 214 257 306
#
# _framework density 18.492477000000001
#
# number of rings (size 3 to 8) (size 9 to 14) (size 15 to 20)
#    0.000    2.286    0.000    3.857    0.000    6.571 
#    0.000    2.857    0.000    0.429    0.000    0.000 
#    0.000    0.000    0.000    0.000    0.000    0.000 
#
# Total GULP energy -694418.579338 kJ/mol
# GULP energy per Si atom -12400.331774 kJ/mol
# Density = 1.845039 g / cm^3
# Si number density = 18.492477 Si / 1000 Ang^3
#
#
#
# Elastic Constant Matrix: (Units=GPa)
#
#
# Indices 1 2 3 4 5 6 
#
# 1 79.1017 39.5853 39.4155 0.0000 0.0000 0.0000
# 2 39.5853 89.9349 57.2879 0.0000 0.0000 0.0000
# 3 39.4155 57.2879 81.3314 0.0000 0.0000 0.0000
# 4 0.0000 0.0000 0.0000 24.2332 0.0000 0.0000
# 5 0.0000 0.0000 0.0000 0.0000 28.6266 0.0000
# 6 0.0000 0.0000 0.0000 0.0000 0.0000 25.4326
#
#
#
# Elastic Compliance Matrix: (Units=1/GPa)
#
#
# Indices 1 2 3 4 5 6 
#
# 1 0.017488 -0.004170 -0.005538 0.000000 0.000000 0.000000
# 2 -0.004170 0.021162 -0.012886 0.000000 0.000000 0.000000
# 3 -0.005538 -0.012886 0.024056 0.000000 0.000000 0.000000
# 4 0.000000 0.000000 0.000000 0.041266 0.000000 0.000000
# 5 0.000000 0.000000 0.000000 0.000000 0.034932 0.000000
# 6 0.000000 0.000000 0.000000 0.000000 0.000000 0.039320
#
#
# Mechanical properties :
#
#
# Convention : Reuss Voigt Hill
#
# Bulk Modulus (GPa) = 57.07990 58.10505 57.59248
# Shear Modulus (GPa) = 21.81014 23.26377 22.53695
#
# Velocity S-wave (km/s) = 3.43797 3.55070 3.49479
# Velocity P-wave (km/s) = 6.83324 6.94975 6.89174
#
# Compressibility (1/GPa) = 0.01751930
#
# Stress axis : x y z
#
# Youngs Moduli (GPa) = 57.18113 47.25342 41.57026
#
# Poissons Ratio (x) = 0.19703 0.23023
# Poissons Ratio (y) = 0.23843 0.53566
# Poissons Ratio (z) = 0.31668 0.60889
#
# Static dielectric constant tensor:
#      x y z
#    x 3.329900 0.000000 0.000000 
#    y 0.000000 3.588820 0.000000 
#    z 0.000000 0.000000 3.350280 
# 
# 
# High freq. dielectric constant tensor:
#      x y z
#    x 1.712630 0.000000 0.000000 
#    y 0.000000 1.722960 0.000000 
#    z 0.000000 0.000000 1.701120 
# 
# From -- ./inp_files/31864.got.cif
#   From: 2010.03.12/outbox.cif.g09.slc.cpg/sg51_16_cif.got.tgz:31864.got - 2010.04.16 13:43:02.
