data_PCOD8208126
_publ_section_title
;
Structure prediction by ZEFSAII (Michael W. Deem and Ramdas Pophale) SiO2 
 PCOD8208126
Probable space group: P M M A
;
_chemical_formula_sum "Si O2"
_cell_formula_units_Z 40
_cell_length_a 25.166367
_cell_length_b 9.314321
_cell_length_c 9.909640
_cell_angle_alpha 90.000000
_cell_angle_beta 90.000000
_cell_angle_gamma 90.000000
_cell_volume 2322.895134
_symmetry_space_group_name_H-M "P M M A"
_symmetry_group_IT_number 51
_symmetry_cell_setting 'orthorhombic'
loop_
_space_group_symop_operation_xyz
x,y,z
1/2-x,-y,z
1/2+x,-y,-z
-x,y,-z
-x,-y,-z
1/2+x,y,-z
1/2-x,y,z
x,-y,z
loop_
_atom_site_type_symbol
_atom_site_label
_atom_site_fract_x
_atom_site_fract_y
_atom_site_fract_z
Si Si1 0.310569 0.833856 0.143464
Si Si2 0.109760 0.331022 0.648310
Si Si3 0.506396 0.342147 0.659489
Si Si4 0.393832 0.831296 0.370788
Si Si5 0.689104 0.332400 0.120058
O O1 0.250000 0.792584 0.179140
O O2 0.345695 0.792783 0.271955
O O3 0.316282 0.000000 0.106858
O O4 0.330919 0.746836 0.013979
O O5 0.113946 0.500000 0.614248
O O6 0.119368 0.243664 0.511752
O O7 0.154094 0.280251 0.753965
O O8 0.051856 0.296120 0.714430
O O9 0.500000 0.350107 0.500000
O O10 0.522465 0.500000 0.715468
O O11 0.551813 0.227963 0.697419
O O12 0.400505 0.000000 0.394251
O O13 0.750000 0.292548 0.152766
O O14 0.681450 0.500000 0.094361
#
# Coordination Sequence:
#
# PCOD8208126 Si02
#       5
#     8   8   8   8   8
#     4   9  19  35  50  66  94 128 157 189 233 281
#     4   9  18  32  49  71  98 124 152 190 235 280
#     4   8  15  29  47  66  93 127 155 184 230 280
#     4  10  19  30  48  73  96 121 157 196 229 269
#     4   9  18  33  52  72  93 120 157 197 233 273
#
# _framework density 17.219888999999998
#
# number of rings (size 3 to 8) (size 9 to 14) (size 15 to 20)
#    0.000    3.000    0.000    1.800    0.000    6.800 
#    0.000    1.000    0.000    6.000    0.000    0.000 
#    0.000    0.000    0.000    0.000    0.000    0.000 
#
# Total GULP energy -495892.684668 kJ/mol
# GULP energy per Si atom -12397.317117 kJ/mol
# Density = 1.718070 g / cm^3
# Si number density = 17.219889 Si / 1000 Ang^3
#
#
#
# Elastic Constant Matrix: (Units=GPa)
#
#
# Indices 1 2 3 4 5 6 
#
# 1 115.2822 58.1211 73.6430 0.0000 0.0000 0.0000
# 2 58.1211 73.9458 60.5421 0.0000 0.0000 0.0000
# 3 73.6430 60.5421 98.5654 0.0000 0.0000 0.0000
# 4 0.0000 0.0000 0.0000 27.3174 0.0000 0.0000
# 5 0.0000 0.0000 0.0000 0.0000 8.1962 0.0000
# 6 0.0000 0.0000 0.0000 0.0000 0.0000 26.2080
#
#
#
# Elastic Compliance Matrix: (Units=1/GPa)
#
#
# Indices 1 2 3 4 5 6 
#
# 1 0.017940 -0.006289 -0.009541 0.000000 0.000000 0.000000
# 2 -0.006289 0.029409 -0.013365 0.000000 0.000000 0.000000
# 3 -0.009541 -0.013365 0.025483 0.000000 0.000000 0.000000
# 4 0.000000 0.000000 0.000000 0.036607 0.000000 0.000000
# 5 0.000000 0.000000 0.000000 0.000000 0.122008 0.000000
# 6 0.000000 0.000000 0.000000 0.000000 0.000000 0.038156
#
#
# Mechanical properties :
#
#
# Convention : Reuss Voigt Hill
#
# Bulk Modulus (GPa) = 69.24189 74.71177 71.97683
# Shear Modulus (GPa) = 15.02373 18.71014 16.86694
#
# Velocity S-wave (km/s) = 2.95695 3.29985 3.13310
# Velocity P-wave (km/s) = 7.20804 7.61576 7.41470
#
# Compressibility (1/GPa) = 0.01444212
#
# Stress axis : x y z
#
# Youngs Moduli (GPa) = 55.74189 34.00285 39.24199
#
# Poissons Ratio (x) = 0.21386 0.37439
# Poissons Ratio (y) = 0.35059 0.52447
# Poissons Ratio (z) = 0.53181 0.45445
#
# Static dielectric constant tensor:
#      x y z
#    x 3.677200 0.000000 0.000000 
#    y 0.000000 3.209670 0.000000 
#    z 0.000000 0.000000 2.979770 
# 
# 
# High freq. dielectric constant tensor:
#      x y z
#    x 1.674980 0.000000 0.000000 
#    y 0.000000 1.663580 0.000000 
#    z 0.000000 0.000000 1.637740 
# 
# From -- ./inp_files/12095.got.cif
#   From: 2010.03.12/outbox.cif.g09.slc.cpg/sg51_7_cif.got.tgz:12095.got - 2010.04.16 13:43:02.
