data_PCOD8208730
_publ_section_title
;
Structure prediction by ZEFSAII (Michael W. Deem and Ramdas Pophale) SiO2 
 PCOD8208730
Probable space group: P M M A
;
_chemical_formula_sum "Si O2"
_cell_formula_units_Z 44
_cell_length_a 9.134916
_cell_length_b 14.063030
_cell_length_c 18.926125
_cell_angle_alpha 90.000000
_cell_angle_beta 90.000000
_cell_angle_gamma 90.000000
_cell_volume 2431.337035
_symmetry_space_group_name_H-M "P M M A"
_symmetry_group_IT_number 51
_symmetry_cell_setting 'orthorhombic'
loop_
_space_group_symop_operation_xyz
x,y,z
1/2-x,-y,z
1/2+x,-y,-z
-x,y,-z
-x,-y,-z
1/2+x,y,-z
1/2-x,y,z
x,-y,z
loop_
_atom_site_type_symbol
_atom_site_label
_atom_site_fract_x
_atom_site_fract_y
_atom_site_fract_z
Si Si1 0.920233 0.743959 0.792696
Si Si2 0.080343 0.390667 0.333982
Si Si3 0.418833 0.754904 0.571772
Si Si4 0.082072 0.890162 0.699780
Si Si5 0.585648 0.000000 0.070304
Si Si6 0.078838 0.792786 0.924575
O O1 0.750000 0.756713 0.809370
O O2 0.952068 0.653817 0.742852
O O3 0.977186 0.839294 0.755364
O O4 0.004886 0.724422 0.866514
O O5 0.250000 0.377763 0.353862
O O6 0.033210 0.500000 0.330969
O O7 0.985577 0.340064 0.393994
O O8 0.500000 0.781009 0.500000
O O9 0.250000 0.734378 0.555742
O O10 0.440326 0.845074 0.622640
O O11 0.250000 0.877596 0.725003
O O12 0.037176 0.000000 0.695621
O O13 0.554076 0.100240 0.109225
O O14 0.750000 0.000000 0.044060
O O15 0.500000 0.000000 0.000000
O O16 0.250000 0.768378 0.933567
O O17 0.000000 0.780373 0.000000
#
# Coordination Sequence:
#
# PCOD8208730 Si02
#       6
#     8   8   8   8   4   8
#     4  10  20  33  51  77 103 130 168 212 257 305
#     4   9  19  37  58  77 100 131 167 209 257 307
#     4  10  20  34  53  78 106 135 168 209 252 299
#     4   9  19  35  52  71 100 139 178 210 245 292
#     4   8  16  28  42  62  90 126 163 196 233 280
#     4  10  19  32  49  71 101 137 173 210 253 298
#
# _framework density 18.097038000000001
#
# number of rings (size 3 to 8) (size 9 to 14) (size 15 to 20)
#    0.000    2.545    0.000    1.636    1.273    3.636 
#    0.000    0.000    0.000    0.545    0.000    0.000 
#    0.000    0.000    0.000    0.000    0.000    0.000 
#
# Total GULP energy -545428.364680 kJ/mol
# GULP energy per Si atom -12396.099197 kJ/mol
# Density = 1.805585 g / cm^3
# Si number density = 18.097038 Si / 1000 Ang^3
#
#
#
# Elastic Constant Matrix: (Units=GPa)
#
#
# Indices 1 2 3 4 5 6 
#
# 1 97.0067 27.0644 51.6239 0.0000 0.0000 0.0000
# 2 27.0644 80.8898 15.7987 0.0000 0.0000 0.0000
# 3 51.6239 15.7987 88.9524 0.0000 0.0000 0.0000
# 4 0.0000 0.0000 0.0000 15.1140 0.0000 0.0000
# 5 0.0000 0.0000 0.0000 0.0000 38.6446 0.0000
# 6 0.0000 0.0000 0.0000 0.0000 0.0000 22.5457
#
#
#
# Elastic Compliance Matrix: (Units=1/GPa)
#
#
# Indices 1 2 3 4 5 6 
#
# 1 0.015887 -0.003641 -0.008573 0.000000 0.000000 0.000000
# 2 -0.003641 0.013641 -0.000310 0.000000 0.000000 0.000000
# 3 -0.008573 -0.000310 0.016273 0.000000 0.000000 0.000000
# 4 0.000000 0.000000 0.000000 0.066164 0.000000 0.000000
# 5 0.000000 0.000000 0.000000 0.000000 0.025877 0.000000
# 6 0.000000 0.000000 0.000000 0.000000 0.000000 0.044354
#
#
# Mechanical properties :
#
#
# Convention : Reuss Voigt Hill
#
# Bulk Modulus (GPa) = 48.18698 50.64698 49.41698
# Shear Modulus (GPa) = 23.34688 26.75165 25.04926
#
# Velocity S-wave (km/s) = 3.59568 3.84895 3.72447
# Velocity P-wave (km/s) = 6.62747 6.91373 6.77211
#
# Compressibility (1/GPa) = 0.02075249
#
# Stress axis : x y z
#
# Youngs Moduli (GPa) = 62.94520 73.30731 61.45320
#
# Poissons Ratio (x) = 0.26691 0.52686
# Poissons Ratio (y) = 0.22918 0.01903
# Poissons Ratio (z) = 0.53965 0.02271
#
# Static dielectric constant tensor:
#      x y z
#    x 3.426130 0.000000 0.000000 
#    y 0.000000 3.245680 0.000000 
#    z 0.000000 0.000000 3.263950 
# 
# 
# High freq. dielectric constant tensor:
#      x y z
#    x 1.711170 0.000000 0.000000 
#    y 0.000000 1.678880 0.000000 
#    z 0.000000 0.000000 1.702620 
# 
# From -- ./inp_files/27357.got.cif
#   From: 2010.03.12/outbox.cif.g09.slc.cpg/sg51_14_cif.got.tgz:27357.got - 2010.04.16 13:43:02.
