data_PCOD8208100
_publ_section_title
;
Structure prediction by ZEFSAII (Michael W. Deem and Ramdas Pophale) SiO2 
 PCOD8208100
Probable space group: P M M A
;
_chemical_formula_sum "Si O2"
_cell_formula_units_Z 48
_cell_length_a 18.241029
_cell_length_b 9.620236
_cell_length_c 15.478285
_cell_angle_alpha 90.000000
_cell_angle_beta 90.000000
_cell_angle_gamma 90.000000
_cell_volume 2716.175946
_symmetry_space_group_name_H-M "P M M A"
_symmetry_group_IT_number 51
_symmetry_cell_setting 'orthorhombic'
loop_
_space_group_symop_operation_xyz
x,y,z
1/2-x,-y,z
1/2+x,-y,-z
-x,y,-z
-x,-y,-z
1/2+x,y,-z
1/2-x,y,z
x,-y,z
loop_
_atom_site_type_symbol
_atom_site_label
_atom_site_fract_x
_atom_site_fract_y
_atom_site_fract_z
Si Si1 0.335063 0.837913 0.316453
Si Si2 0.832698 0.334579 0.998062
Si Si3 0.084731 0.664694 0.173369
Si Si4 0.337018 0.846625 0.510103
Si Si5 0.664155 0.338897 0.334160
Si Si6 0.916821 0.335327 0.164481
O O1 0.250000 0.800140 0.303178
O O2 0.383200 0.741675 0.255735
O O3 0.361197 0.802015 0.413892
O O4 0.348476 0.000000 0.296142
O O5 0.750000 0.276385 0.998953
O O6 0.832892 0.500000 0.001549
O O7 0.875843 0.272998 0.080600
O O8 0.872199 0.283709 0.911186
O O9 0.092339 0.500000 0.187479
O O10 0.000881 0.711108 0.162087
O O11 0.250000 0.850794 0.512147
O O12 0.366851 0.739455 0.581363
O O13 0.368058 0.000000 0.531767
O O14 0.750000 0.312154 0.319476
O O15 0.646959 0.500000 0.348753
O O16 0.622044 0.278480 0.250892
O O17 0.909530 0.500000 0.162377
#
# Coordination Sequence:
#
# PCOD8208100 Si02
#       6
#     8   8   8   8   8   8
#     4   9  18  33  51  69  92 124 157 189 232 282
#     4   9  16  27  46  71  95 121 157 196 229 268
#     4  10  19  30  47  72  98 123 154 192 231 272
#     4   8  15  29  48  68  90 118 153 193 235 275
#     4   9  16  27  46  70  92 119 158 197 231 271
#     4   9  17  29  44  66  99 130 151 183 236 284
#
# _framework density 17.671904000000001
#
# number of rings (size 3 to 8) (size 9 to 14) (size 15 to 20)
#    0.000    3.000    0.000    2.500    0.000    5.667 
#    0.000    3.333    0.000    8.000    0.000    2.333 
#    0.000    0.000    0.000    0.000    0.000    0.000 
#
# Total GULP energy -595088.853526 kJ/mol
# GULP energy per Si atom -12397.684448 kJ/mol
# Density = 1.763168 g / cm^3
# Si number density = 17.671904 Si / 1000 Ang^3
#
#
#
# Elastic Constant Matrix: (Units=GPa)
#
#
# Indices 1 2 3 4 5 6 
#
# 1 107.4560 34.1515 77.7370 0.0000 0.0000 0.0000
# 2 34.1515 40.7215 55.1317 0.0000 0.0000 0.0000
# 3 77.7370 55.1317 177.9535 0.0000 0.0000 0.0000
# 4 0.0000 0.0000 0.0000 2.1287 0.0000 0.0000
# 5 0.0000 0.0000 0.0000 0.0000 8.8307 0.0000
# 6 0.0000 0.0000 0.0000 0.0000 0.0000 13.3312
#
#
#
# Elastic Compliance Matrix: (Units=1/GPa)
#
#
# Indices 1 2 3 4 5 6 
#
# 1 0.014449 -0.006153 -0.004405 0.000000 0.000000 0.000000
# 2 -0.006153 0.044920 -0.011229 0.000000 0.000000 0.000000
# 3 -0.004405 -0.011229 0.011023 0.000000 0.000000 0.000000
# 4 0.000000 0.000000 0.000000 0.469772 0.000000 0.000000
# 5 0.000000 0.000000 0.000000 0.000000 0.113241 0.000000
# 6 0.000000 0.000000 0.000000 0.000000 0.000000 0.075012
#
#
# Mechanical properties :
#
#
# Convention : Reuss Voigt Hill
#
# Bulk Modulus (GPa) = 37.29039 73.35238 55.32138
# Shear Modulus (GPa) = 6.40263 15.46551 10.93407
#
# Velocity S-wave (km/s) = 1.90550 2.96150 2.49012
# Velocity P-wave (km/s) = 5.09790 7.30014 6.29605
#
# Compressibility (1/GPa) = 0.02681656
#
# Stress axis : x y z
#
# Youngs Moduli (GPa) = 69.21001 22.26202 90.72220
#
# Poissons Ratio (x) = 0.13698 0.39968
# Poissons Ratio (y) = 0.42586 1.01868
# Poissons Ratio (z) = 0.30490 0.24997
#
# Static dielectric constant tensor:
#      x y z
#    x 3.216160 0.000000 0.000000 
#    y 0.000000 2.965950 0.000000 
#    z 0.000000 0.000000 3.556040 
# 
# 
# High freq. dielectric constant tensor:
#      x y z
#    x 1.672060 0.000000 0.000000 
#    y 0.000000 1.639360 0.000000 
#    z 0.000000 0.000000 1.700550 
# 
# From -- ./inp_files/18112.got.cif
#   From: 2010.03.12/outbox.cif.g09.slc.cpg/sg51_10_cif.got.tgz:18112.got - 2010.04.16 13:43:02.
