data_PCOD8208499
_publ_section_title
;
Structure prediction by ZEFSAII (Michael W. Deem and Ramdas Pophale) SiO2 
 PCOD8208499
Probable space group: P M M A
;
_chemical_formula_sum "Si O2"
_cell_formula_units_Z 56
_cell_length_a 22.155288
_cell_length_b 9.565608
_cell_length_c 14.840431
_cell_angle_alpha 90.000000
_cell_angle_beta 90.000000
_cell_angle_gamma 90.000000
_cell_volume 3145.114735
_symmetry_space_group_name_H-M "P M M A"
_symmetry_group_IT_number 51
_symmetry_cell_setting 'orthorhombic'
loop_
_space_group_symop_operation_xyz
x,y,z
1/2-x,-y,z
1/2+x,-y,-z
-x,y,-z
-x,-y,-z
1/2+x,y,-z
1/2-x,y,z
x,-y,z
loop_
_atom_site_type_symbol
_atom_site_label
_atom_site_fract_x
_atom_site_fract_y
_atom_site_fract_z
Si Si1 0.181343 0.161126 0.690883
Si Si2 0.553065 0.665132 0.613458
Si Si3 0.516656 0.657682 0.097468
Si Si4 0.126912 0.161116 0.879162
Si Si5 0.581363 0.665708 0.414025
Si Si6 0.679438 0.838951 0.930896
Si Si7 0.605664 0.341685 0.795376
O O1 0.250000 0.202452 0.665960
O O2 0.173826 0.184176 0.798120
O O3 0.135514 0.256935 0.635853
O O4 0.168447 0.000000 0.666022
O O5 0.547579 0.500000 0.620081
O O6 0.584166 0.707359 0.519585
O O7 0.483822 0.719551 0.622134
O O8 0.595727 0.719740 0.694506
O O9 0.541480 0.500000 0.086390
O O10 0.567549 0.750872 0.143917
O O11 0.459224 0.662222 0.159853
O O12 0.500000 0.720996 0.000000
O O13 0.108357 0.000000 0.887783
O O14 0.155257 0.215745 0.972894
O O15 0.589495 0.500000 0.399936
O O16 0.750000 0.814771 0.929881
O O17 0.652418 0.753340 0.848216
O O18 0.662112 0.000000 0.916925
O O19 0.631008 0.500000 0.793735
#
# Coordination Sequence:
#
# PCOD8208499 Si02
#       7
#     8   8   8   8   8   8   8
#     4  10  21  36  52  74 106 140 172 211 261 308
#     4   8  16  32  56  81 103 130 163 206 258 307
#     4  10  19  31  49  77 108 132 159 206 259 297
#     4  10  20  34  53  73  98 136 177 208 244 301
#     4   9  17  34  58  80 101 129 169 210 252 306
#     4  10  21  36  51  68  95 133 175 213 243 280
#     4  10  19  33  52  75 104 134 163 199 249 303
#
# _framework density 17.805392000000001
#
# number of rings (size 3 to 8) (size 9 to 14) (size 15 to 20)
#    0.000    2.429    1.429    2.143    0.000    4.857 
#    0.000    3.571    0.000    6.857    0.000    0.000 
#    0.000    0.000    0.000    0.000    0.000    0.000 
#
# Total GULP energy -694291.595661 kJ/mol
# GULP energy per Si atom -12398.064208 kJ/mol
# Density = 1.776487 g / cm^3
# Si number density = 17.805392 Si / 1000 Ang^3
#
#
#
# Elastic Constant Matrix: (Units=GPa)
#
#
# Indices 1 2 3 4 5 6 
#
# 1 46.1953 29.7725 9.6030 0.0000 0.0000 0.0000
# 2 29.7725 48.0547 21.2662 0.0000 0.0000 0.0000
# 3 9.6030 21.2662 79.7822 0.0000 0.0000 0.0000
# 4 0.0000 0.0000 0.0000 24.7105 0.0000 0.0000
# 5 0.0000 0.0000 0.0000 0.0000 28.7845 0.0000
# 6 0.0000 0.0000 0.0000 0.0000 0.0000 11.3012
#
#
#
# Elastic Compliance Matrix: (Units=1/GPa)
#
#
# Indices 1 2 3 4 5 6 
#
# 1 0.036273 -0.023288 0.001841 0.000000 0.000000 0.000000
# 2 -0.023288 0.038544 -0.007471 0.000000 0.000000 0.000000
# 3 0.001841 -0.007471 0.014304 0.000000 0.000000 0.000000
# 4 0.000000 0.000000 0.000000 0.040469 0.000000 0.000000
# 5 0.000000 0.000000 0.000000 0.000000 0.034741 0.000000
# 6 0.000000 0.000000 0.000000 0.000000 0.000000 0.088486
#
#
# Mechanical properties :
#
#
# Convention : Reuss Voigt Hill
#
# Bulk Modulus (GPa) = 31.96318 32.81285 32.38802
# Shear Modulus (GPa) = 15.57238 20.51862 18.04550
#
# Velocity S-wave (km/s) = 2.96055 3.39836 3.18698
# Velocity P-wave (km/s) = 5.44765 5.81954 5.63666
#
# Compressibility (1/GPa) = 0.03128599
#
# Stress axis : x y z
#
# Youngs Moduli (GPa) = 27.56834 25.94424 69.91102
#
# Poissons Ratio (x) = 0.60420 -0.12874
# Poissons Ratio (y) = 0.64202 0.52230
# Poissons Ratio (z) = -0.05077 0.19383
#
# Static dielectric constant tensor:
#      x y z
#    x 3.190580 0.000000 0.000000 
#    y 0.000000 3.162640 0.000000 
#    z 0.000000 0.000000 4.114820 
# 
# 
# High freq. dielectric constant tensor:
#      x y z
#    x 1.680050 0.000000 0.000000 
#    y 0.000000 1.667700 0.000000 
#    z 0.000000 0.000000 1.698550 
# 
# From -- ./inp_files/25714.got.cif
#   From: 2010.03.12/outbox.cif.g09.slc.cpg/sg51_13_cif.got.tgz:25714.got - 2010.04.16 13:43:02.
