data_PCOD8208267
_publ_section_title
;
Structure prediction by ZEFSAII (Michael W. Deem and Ramdas Pophale) SiO2 
 PCOD8208267
Probable space group: P M M A
;
_chemical_formula_sum "Si O2"
_cell_formula_units_Z 44
_cell_length_a 9.026397
_cell_length_b 15.447118
_cell_length_c 17.893910
_cell_angle_alpha 90.000000
_cell_angle_beta 90.000000
_cell_angle_gamma 90.000000
_cell_volume 2494.980431
_symmetry_space_group_name_H-M "P M M A"
_symmetry_group_IT_number 51
_symmetry_cell_setting 'orthorhombic'
loop_
_space_group_symop_operation_xyz
x,y,z
1/2-x,-y,z
1/2+x,-y,-z
-x,y,-z
-x,-y,-z
1/2+x,y,-z
1/2-x,y,z
x,-y,z
loop_
_atom_site_type_symbol
_atom_site_label
_atom_site_fract_x
_atom_site_fract_y
_atom_site_fract_z
Si Si1 0.576417 0.680024 0.142169
Si Si2 0.426154 0.163609 0.074933
Si Si3 0.580530 0.500000 0.076582
Si Si4 0.576506 0.597882 0.577476
Si Si5 0.424253 0.093830 0.234217
Si Si6 0.424563 0.726423 0.291724
O O1 0.750000 0.702166 0.135564
O O2 0.484861 0.738672 0.084098
O O3 0.536057 0.582228 0.124639
O O4 0.521834 0.688768 0.226094
O O5 0.250000 0.162192 0.065937
O O6 0.480794 0.113749 0.149802
O O7 0.500000 0.122785 0.000000
O O8 0.750000 0.500000 0.055370
O O9 0.500000 0.500000 0.000000
O O10 0.500000 0.621098 0.500000
O O11 0.750000 0.602583 0.564098
O O12 0.531975 0.500000 0.604339
O O13 0.526780 0.672978 0.635080
O O14 0.250000 0.086798 0.228955
O O15 0.464372 0.169997 0.293921
O O16 0.490268 0.000000 0.259770
O O17 0.250000 0.713902 0.275188
#
# Coordination Sequence:
#
# PCOD8208267 Si02
#       6
#     8   8   4   8   8   8
#     4  10  20  33  47  66  92 123 161 200 240 287
#     4  10  19  31  47  67  91 121 159 202 249 294
#     4  10  22  34  44  62  87 120 161 200 237 280
#     4   9  18  32  50  75 104 131 160 192 230 279
#     4   8  15  29  48  69  93 122 159 200 242 288
#     4   9  18  32  51  74  97 125 159 195 237 283
#
# _framework density 17.635408999999999
#
# number of rings (size 3 to 8) (size 9 to 14) (size 15 to 20)
#    0.000    2.727    0.000    2.727    1.273    4.000 
#    0.000    0.000    0.000   13.636    0.000    0.000 
#    0.000    0.000    0.000    0.000    0.000    0.000 
#
# Total GULP energy -545186.743596 kJ/mol
# GULP energy per Si atom -12390.607809 kJ/mol
# Density = 1.759527 g / cm^3
# Si number density = 17.635409 Si / 1000 Ang^3
#
#
#
# Elastic Constant Matrix: (Units=GPa)
#
#
# Indices 1 2 3 4 5 6 
#
# 1 31.8403 25.0376 19.4210 0.0000 0.0000 0.0000
# 2 25.0376 153.3937 64.2718 0.0000 0.0000 0.0000
# 3 19.4210 64.2718 95.7142 0.0000 0.0000 0.0000
# 4 0.0000 0.0000 0.0000 12.9706 0.0000 0.0000
# 5 0.0000 0.0000 0.0000 0.0000 29.5577 0.0000
# 6 0.0000 0.0000 0.0000 0.0000 0.0000 15.5460
#
#
#
# Elastic Compliance Matrix: (Units=1/GPa)
#
#
# Indices 1 2 3 4 5 6 
#
# 1 0.037602 -0.004092 -0.004882 0.000000 0.000000 0.000000
# 2 -0.004092 0.009517 -0.005560 0.000000 0.000000 0.000000
# 3 -0.004882 -0.005560 0.015172 0.000000 0.000000 0.000000
# 4 0.000000 0.000000 0.000000 0.077098 0.000000 0.000000
# 5 0.000000 0.000000 0.000000 0.000000 0.033832 0.000000
# 6 0.000000 0.000000 0.000000 0.000000 0.000000 0.064325
#
#
# Mechanical properties :
#
#
# Convention : Reuss Voigt Hill
#
# Bulk Modulus (GPa) = 30.09994 55.37879 42.73936
# Shear Modulus (GPa) = 18.00577 23.09604 20.55090
#
# Velocity S-wave (km/s) = 3.19878 3.62282 3.41738
# Velocity P-wave (km/s) = 5.54507 6.99786 6.31339
#
# Compressibility (1/GPa) = 0.03322265
#
# Stress axis : x y z
#
# Youngs Moduli (GPa) = 26.59414 105.07715 65.91088
#
# Poissons Ratio (x) = 0.42999 0.32177
# Poissons Ratio (y) = 0.10883 0.36648
# Poissons Ratio (z) = 0.12983 0.58425
#
# Static dielectric constant tensor:
#      x y z
#    x 3.151090 0.000000 0.000000 
#    y 0.000000 3.969930 0.000000 
#    z 0.000000 0.000000 3.105940 
# 
# 
# High freq. dielectric constant tensor:
#      x y z
#    x 1.668570 0.000000 0.000000 
#    y 0.000000 1.689560 0.000000 
#    z 0.000000 0.000000 1.659700 
# 
# From -- ./inp_files/27385.got.cif
#   From: 2010.03.12/outbox.cif.g09.slc.cpg/sg51_14_cif.got.tgz:27385.got - 2010.04.16 13:43:02.
