data_PCOD8208877
_publ_section_title
;
Structure prediction by ZEFSAII (Michael W. Deem and Ramdas Pophale) SiO2 
 PCOD8208877
Probable space group: P M M A
;
_chemical_formula_sum "Si O2"
_cell_formula_units_Z 40
_cell_length_a 17.747566
_cell_length_b 7.787635
_cell_length_c 15.418792
_cell_angle_alpha 90.000000
_cell_angle_beta 90.000000
_cell_angle_gamma 90.000000
_cell_volume 2131.055390
_symmetry_space_group_name_H-M "P M M A"
_symmetry_group_IT_number 51
_symmetry_cell_setting 'orthorhombic'
loop_
_space_group_symop_operation_xyz
x,y,z
1/2-x,-y,z
1/2+x,-y,-z
-x,y,-z
-x,-y,-z
1/2+x,y,-z
1/2-x,y,z
x,-y,z
loop_
_atom_site_type_symbol
_atom_site_label
_atom_site_fract_x
_atom_site_fract_y
_atom_site_fract_z
Si Si1 0.084597 0.699311 0.997771
Si Si2 0.834391 0.804232 0.170161
Si Si3 0.885548 0.694168 0.808003
Si Si4 0.487602 0.000000 0.398714
Si Si5 0.963115 0.310144 0.287310
Si Si6 0.332947 0.000000 0.304456
O O1 0.081578 0.500000 0.972061
O O2 0.124693 0.729013 0.090169
O O3 0.133553 0.796910 0.926890
O O4 0.000000 0.774776 0.000000
O O5 0.750000 0.727886 0.171177
O O6 0.883346 0.699210 0.239200
O O7 0.834720 0.000000 0.200812
O O8 0.859282 0.500000 0.784548
O O9 0.973557 0.719640 0.785814
O O10 0.836831 0.829929 0.754582
O O11 0.500000 0.000000 0.500000
O O12 0.528164 0.169314 0.362088
O O13 0.398266 0.000000 0.376974
O O14 0.970589 0.500000 0.329397
O O15 0.250000 0.000000 0.348994
#
# Coordination Sequence:
#
# PCOD8208877 Si02
#       6
#     8   8   8   4   8   4
#     4  10  19  32  51  75 107 151 198 241 281 324
#     4  11  23  35  50  79 117 155 198 246 290 329
#     4   9  19  34  55  81 109 149 197 233 269 329
#     4  10  22  42  65  91 116 140 180 226 282 352
#     4  10  19  37  62  84 110 148 188 229 282 341
#     4  10  22  38  58  84 113 147 180 225 288 337
#
# _framework density 18.770042
#
# number of rings (size 3 to 8) (size 9 to 14) (size 15 to 20)
#    0.000    2.000    3.000    0.600    1.400    3.600 
#    0.000    3.000    0.000    0.000    0.000    0.000 
#    0.000    0.000    0.000    0.000    0.000    0.000 
#
# Total GULP energy -496030.441260 kJ/mol
# GULP energy per Si atom -12400.761031 kJ/mol
# Density = 1.872732 g / cm^3
# Si number density = 18.770042 Si / 1000 Ang^3
#
#
#
# Elastic Constant Matrix: (Units=GPa)
#
#
# Indices 1 2 3 4 5 6 
#
# 1 123.5811 33.1903 43.0053 0.0000 0.0000 0.0000
# 2 33.1903 108.4721 48.8657 0.0000 0.0000 0.0000
# 3 43.0053 48.8657 111.0711 0.0000 0.0000 0.0000
# 4 0.0000 0.0000 0.0000 11.4511 0.0000 0.0000
# 5 0.0000 0.0000 0.0000 0.0000 16.6260 0.0000
# 6 0.0000 0.0000 0.0000 0.0000 0.0000 16.6992
#
#
#
# Elastic Compliance Matrix: (Units=1/GPa)
#
#
# Indices 1 2 3 4 5 6 
#
# 1 0.009561 -0.001569 -0.003012 0.000000 0.000000 0.000000
# 2 -0.001569 0.011755 -0.004564 0.000000 0.000000 0.000000
# 3 -0.003012 -0.004564 0.012177 0.000000 0.000000 0.000000
# 4 0.000000 0.000000 0.000000 0.087328 0.000000 0.000000
# 5 0.000000 0.000000 0.000000 0.000000 0.060147 0.000000
# 6 0.000000 0.000000 0.000000 0.000000 0.000000 0.059883
#
#
# Mechanical properties :
#
#
# Convention : Reuss Voigt Hill
#
# Bulk Modulus (GPa) = 65.77160 65.91634 65.84397
# Shear Modulus (GPa) = 18.92439 23.49279 21.20859
#
# Velocity S-wave (km/s) = 3.17870 3.54165 3.36507
# Velocity P-wave (km/s) = 6.97058 7.20545 7.08898
#
# Compressibility (1/GPa) = 0.01520413
#
# Stress axis : x y z
#
# Youngs Moduli (GPa) = 104.58865 85.06923 82.11907
#
# Poissons Ratio (x) = 0.13345 0.24733
# Poissons Ratio (y) = 0.16407 0.37481
# Poissons Ratio (z) = 0.31500 0.38828
#
# Static dielectric constant tensor:
#      x y z
#    x 3.421380 0.000000 0.000000 
#    y 0.000000 3.595700 0.000000 
#    z 0.000000 0.000000 3.026040 
# 
# 
# High freq. dielectric constant tensor:
#      x y z
#    x 1.722630 0.000000 0.000000 
#    y 0.000000 1.741760 0.000000 
#    z 0.000000 0.000000 1.690100 
# 
# From -- ./inp_files/23734.got.cif
#   From: 2010.03.12/outbox.cif.g09.slc.cpg/sg51_12_cif.got.tgz:23734.got - 2010.04.16 13:43:02.
