data_PCOD8208734
_publ_section_title
;
Structure prediction by ZEFSAII (Michael W. Deem and Ramdas Pophale) SiO2 
 PCOD8208734
Probable space group: P M M A
;
_chemical_formula_sum "Si O2"
_cell_formula_units_Z 64
_cell_length_a 24.546426
_cell_length_b 9.382981
_cell_length_c 14.876269
_cell_angle_alpha 90.000000
_cell_angle_beta 90.000000
_cell_angle_gamma 90.000000
_cell_volume 3426.282175
_symmetry_space_group_name_H-M "P M M A"
_symmetry_group_IT_number 51
_symmetry_cell_setting 'orthorhombic'
loop_
_space_group_symop_operation_xyz
x,y,z
1/2-x,-y,z
1/2+x,-y,-z
-x,y,-z
-x,-y,-z
1/2+x,y,-z
1/2-x,y,z
x,-y,z
loop_
_atom_site_type_symbol
_atom_site_label
_atom_site_fract_x
_atom_site_fract_y
_atom_site_fract_z
Si Si1 0.187390 0.163966 0.120750
Si Si2 0.648238 0.340720 0.539890
Si Si3 0.311000 0.838365 0.616406
Si Si4 0.512668 0.160288 0.271756
Si Si5 0.889216 0.167879 0.715001
Si Si6 0.459484 0.344157 0.568816
Si Si7 0.686945 0.333430 0.056258
Si Si8 0.125327 0.836959 0.793583
O O1 0.250000 0.189557 0.148686
O O2 0.150302 0.210090 0.204056
O O3 0.170273 0.261146 0.037353
O O4 0.177108 0.000000 0.093948
O O5 0.670771 0.500000 0.564930
O O6 0.689212 0.252738 0.476488
O O7 0.630998 0.256083 0.629262
O O8 0.597982 0.360802 0.475359
O O9 0.250000 0.826836 0.656263
O O10 0.352706 0.787983 0.694817
O O11 0.325580 0.000000 0.588710
O O12 0.450819 0.213310 0.253242
O O13 0.544142 0.250093 0.344710
O O14 0.558769 0.171667 0.193622
O O15 0.508074 0.000000 0.306851
O O16 0.885632 0.000000 0.692969
O O17 0.500000 0.265705 0.500000
O O18 0.483362 0.500000 0.594560
O O19 0.750000 0.303337 0.078215
O O20 0.674428 0.500000 0.048818
O O21 0.650505 0.267975 0.134059
O O22 0.144467 0.000000 0.810713
#
# Coordination Sequence:
#
# PCOD8208734 Si02
#       8
#     8   8   8   8   8   8   8   8
#     4   9  19  38  62  83 105 137 177 221 270 324
#     4  11  22  34  51  76 108 146 185 225 270 321
#     4  10  21  36  53  75 106 144 186 230 272 320
#     4  10  20  33  53  80 109 141 182 228 269 314
#     4  10  21  36  56  83 111 142 184 230 273 319
#     4  10  19  32  49  72 104 142 183 223 264 312
#     4  10  21  37  59  86 110 135 174 223 272 323
#     4  10  20  35  56  81 109 143 180 220 272 327
#
# _framework density 18.679138999999999
#
# number of rings (size 3 to 8) (size 9 to 14) (size 15 to 20)
#    0.000    2.000    2.500    1.125    0.000    4.250 
#    0.000    1.875    0.000    3.750    0.000    0.000 
#    0.000    0.000    0.000    0.000    0.000    0.000 
#
# Total GULP energy -793016.780655 kJ/mol
# GULP energy per Si atom -12390.887198 kJ/mol
# Density = 1.863662 g / cm^3
# Si number density = 18.679139 Si / 1000 Ang^3
#
#
#
# Elastic Constant Matrix: (Units=GPa)
#
#
# Indices 1 2 3 4 5 6 
#
# 1 97.6643 39.6827 59.4781 0.0000 0.0000 0.0000
# 2 39.6827 87.4539 70.0848 0.0000 0.0000 0.0000
# 3 59.4781 70.0848 111.4841 0.0000 0.0000 0.0000
# 4 0.0000 0.0000 0.0000 53.5247 0.0000 0.0000
# 5 0.0000 0.0000 0.0000 0.0000 25.1229 0.0000
# 6 0.0000 0.0000 0.0000 0.0000 0.0000 26.1679
#
#
#
# Elastic Compliance Matrix: (Units=1/GPa)
#
#
# Indices 1 2 3 4 5 6 
#
# 1 0.015195 -0.000802 -0.007602 0.000000 0.000000 0.000000
# 2 -0.000802 0.023087 -0.014085 0.000000 0.000000 0.000000
# 3 -0.007602 -0.014085 0.021881 0.000000 0.000000 0.000000
# 4 0.000000 0.000000 0.000000 0.018683 0.000000 0.000000
# 5 0.000000 0.000000 0.000000 0.000000 0.039804 0.000000
# 6 0.000000 0.000000 0.000000 0.000000 0.000000 0.038215
#
#
# Mechanical properties :
#
#
# Convention : Reuss Voigt Hill
#
# Bulk Modulus (GPa) = 65.86705 70.56595 68.21650
# Shear Modulus (GPa) = 24.16568 29.45355 26.80962
#
# Velocity S-wave (km/s) = 3.60074 3.97522 3.79261
# Velocity P-wave (km/s) = 7.25438 7.67657 7.46846
#
# Compressibility (1/GPa) = 0.01518210
#
# Stress axis : x y z
#
# Youngs Moduli (GPa) = 65.81100 43.31518 45.70259
#
# Poissons Ratio (x) = 0.03476 0.34744
# Poissons Ratio (y) = 0.05281 0.64374
# Poissons Ratio (z) = 0.50031 0.61011
#
# Static dielectric constant tensor:
#      x y z
#    x 3.558620 0.000000 0.000000 
#    y 0.000000 3.690660 0.000000 
#    z 0.000000 0.000000 3.089830 
# 
# 
# High freq. dielectric constant tensor:
#      x y z
#    x 1.732120 0.000000 0.000000 
#    y 0.000000 1.726190 0.000000 
#    z 0.000000 0.000000 1.701670 
# 
# From -- ./inp_files/26320.got.cif
#   From: 2010.03.12/outbox.cif.g09.slc.cpg/sg51_14_cif.got.tgz:26320.got - 2010.04.16 13:43:02.
