data_PCOD8208168
_publ_section_title
;
Structure prediction by ZEFSAII (Michael W. Deem and Ramdas Pophale) SiO2 
 PCOD8208168
Probable space group: P M M A
;
_chemical_formula_sum "Si O2"
_cell_formula_units_Z 64
_cell_length_a 26.711752
_cell_length_b 9.101523
_cell_length_c 12.315727
_cell_angle_alpha 90.000000
_cell_angle_beta 90.000000
_cell_angle_gamma 90.000000
_cell_volume 2994.170301
_symmetry_space_group_name_H-M "P M M A"
_symmetry_group_IT_number 51
_symmetry_cell_setting 'orthorhombic'
loop_
_space_group_symop_operation_xyz
x,y,z
1/2-x,-y,z
1/2+x,-y,-z
-x,y,-z
-x,-y,-z
1/2+x,y,-z
1/2-x,y,z
x,-y,z
loop_
_atom_site_type_symbol
_atom_site_label
_atom_site_fract_x
_atom_site_fract_y
_atom_site_fract_z
Si Si1 0.192967 0.333946 0.970184
Si Si2 0.098995 0.327659 0.251414
Si Si3 0.481686 0.825115 0.119452
Si Si4 0.306474 0.828255 0.193043
Si Si5 0.337598 0.836339 0.770990
Si Si6 0.804477 0.669884 0.427493
Si Si7 0.911282 0.670115 0.509126
Si Si8 0.051135 0.162334 0.686415
O O1 0.250000 0.334193 0.929832
O O2 0.175105 0.500000 0.997328
O O3 0.159169 0.264932 0.876729
O O4 0.186341 0.229651 0.072197
O O5 0.102704 0.500000 0.228079
O O6 0.071195 0.249439 0.150413
O O7 0.154628 0.261520 0.266530
O O8 0.071613 0.295906 0.367069
O O9 0.519419 0.769308 0.213813
O O10 0.475517 0.000000 0.118862
O O11 0.500000 0.771811 0.000000
O O12 0.250000 0.797399 0.234660
O O13 0.319088 0.000000 0.196573
O O14 0.301642 0.763189 0.682674
O O15 0.392598 0.845349 0.724707
O O16 0.317707 0.000000 0.799371
O O17 0.750000 0.695111 0.486602
O O18 0.810656 0.500000 0.395404
O O19 0.852719 0.720384 0.497866
O O20 0.915647 0.500000 0.482546
O O21 0.949851 0.746730 0.425917
O O22 0.030295 0.000000 0.660414
#
# Coordination Sequence:
#
# PCOD8208168 Si02
#       8
#     8   8   8   8   8   8   8   8
#     4  10  20  33  50  76 111 152 198 245 296 356
#     4  11  24  41  63  93 125 158 201 251 304 365
#     4  10  23  43  66  91 121 160 203 251 310 370
#     4  10  22  40  61  86 118 159 204 247 296 355
#     4  10  19  30  49  78 113 152 195 244 300 357
#     4   9  17  31  51  76 109 152 200 244 291 351
#     4   9  20  38  59  85 118 158 201 248 305 364
#     4   9  20  38  59  86 117 154 201 250 301 358
#
# _framework density 21.374869
#
# number of rings (size 3 to 8) (size 9 to 14) (size 15 to 20)
#    0.000    2.250    0.000    1.875    1.750    6.500 
#    0.000    3.750    0.000    0.000    0.000    0.000 
#    0.000    0.000    0.000    0.000    0.000    0.000 
#
# Total GULP energy -793287.104027 kJ/mol
# GULP energy per Si atom -12395.111000 kJ/mol
# Density = 2.132622 g / cm^3
# Si number density = 21.374869 Si / 1000 Ang^3
#
#
#
# Elastic Constant Matrix: (Units=GPa)
#
#
# Indices 1 2 3 4 5 6 
#
# 1 61.6656 32.6423 36.1283 0.0000 0.0000 0.0000
# 2 32.6423 73.2916 45.7170 0.0000 0.0000 0.0000
# 3 36.1283 45.7170 114.5753 0.0000 0.0000 0.0000
# 4 0.0000 0.0000 0.0000 32.6540 0.0000 0.0000
# 5 0.0000 0.0000 0.0000 0.0000 21.1247 0.0000
# 6 0.0000 0.0000 0.0000 0.0000 0.0000 23.2333
#
#
#
# Elastic Compliance Matrix: (Units=1/GPa)
#
#
# Indices 1 2 3 4 5 6 
#
# 1 0.022605 -0.007484 -0.004141 0.000000 0.000000 0.000000
# 2 -0.007484 0.020643 -0.005877 0.000000 0.000000 0.000000
# 3 -0.004141 -0.005877 0.012379 0.000000 0.000000 0.000000
# 4 0.000000 0.000000 0.000000 0.030624 0.000000 0.000000
# 5 0.000000 0.000000 0.000000 0.000000 0.047338 0.000000
# 6 0.000000 0.000000 0.000000 0.000000 0.000000 0.043042
#
#
# Mechanical properties :
#
#
# Convention : Reuss Voigt Hill
#
# Bulk Modulus (GPa) = 48.49348 53.16753 50.83051
# Shear Modulus (GPa) = 22.88228 24.40538 23.64383
#
# Velocity S-wave (km/s) = 3.27543 3.38269 3.32949
# Velocity P-wave (km/s) = 6.08613 6.33913 6.21392
#
# Compressibility (1/GPa) = 0.02062133
#
# Stress axis : x y z
#
# Youngs Moduli (GPa) = 44.23870 48.44177 80.78335
#
# Poissons Ratio (x) = 0.36255 0.33456
# Poissons Ratio (y) = 0.33109 0.47476
# Poissons Ratio (z) = 0.18321 0.28469
#
# Static dielectric constant tensor:
#      x y z
#    x 3.884690 0.000000 0.000000 
#    y 0.000000 3.956160 0.000000 
#    z 0.000000 0.000000 3.782570 
# 
# 
# High freq. dielectric constant tensor:
#      x y z
#    x 1.836920 0.000000 0.000000 
#    y 0.000000 1.834730 0.000000 
#    z 0.000000 0.000000 1.831750 
# 
# From -- ./inp_files/19512.got.cif
#   From: 2010.03.12/outbox.cif.g09.slc.cpg/sg51_10_cif.got.tgz:19512.got - 2010.04.16 13:43:02.
