data_PCOD8208237
_publ_section_title
;
Structure prediction by ZEFSAII (Michael W. Deem and Ramdas Pophale) SiO2 
 PCOD8208237
Probable space group: P M M A
;
_chemical_formula_sum "Si O2"
_cell_formula_units_Z 64
_cell_length_a 9.241109
_cell_length_b 18.146528
_cell_length_c 26.801165
_cell_angle_alpha 90.000000
_cell_angle_beta 90.000000
_cell_angle_gamma 90.000000
_cell_volume 4494.395722
_symmetry_space_group_name_H-M "P M M A"
_symmetry_group_IT_number 51
_symmetry_cell_setting 'orthorhombic'
loop_
_space_group_symop_operation_xyz
x,y,z
1/2-x,-y,z
1/2+x,-y,-z
-x,y,-z
-x,-y,-z
1/2+x,y,-z
1/2-x,y,z
x,-y,z
loop_
_atom_site_type_symbol
_atom_site_label
_atom_site_fract_x
_atom_site_fract_y
_atom_site_fract_z
Si Si1 0.087099 0.702816 0.701619
Si Si2 0.582731 0.915092 0.654238
Si Si3 0.079815 0.674502 0.451239
Si Si4 0.422789 0.082210 0.154974
Si Si5 0.582202 0.415350 0.647424
Si Si6 0.918710 0.176081 0.752660
Si Si7 0.413852 0.203351 0.601481
Si Si8 0.910000 0.087708 0.954176
O O1 0.250000 0.686452 0.719421
O O2 0.084577 0.750856 0.652048
O O3 0.007455 0.625800 0.690549
O O4 0.004180 0.747628 0.744801
O O5 0.750000 0.904316 0.639802
O O6 0.551262 0.881433 0.708441
O O7 0.486465 0.875743 0.611909
O O8 0.537595 0.000000 0.655802
O O9 0.250000 0.684420 0.461029
O O10 0.048372 0.617132 0.407075
O O11 0.000000 0.642214 0.500000
O O12 0.009360 0.753932 0.439319
O O13 0.250000 0.079104 0.155034
O O14 0.478738 0.138938 0.196705
O O15 0.476889 0.108798 0.100093
O O16 0.482369 0.000000 0.166746
O O17 0.750000 0.405116 0.660361
O O18 0.534376 0.500000 0.647327
O O19 0.750000 0.195499 0.756356
O O20 0.250000 0.192685 0.581769
O O21 0.750000 0.121137 0.959055
O O22 0.904423 0.000000 0.958079
O O23 0.000000 0.122006 0.000000
#
# Coordination Sequence:
#
# PCOD8208237 Si02
#       8
#     8   8   8   8   8   8   8   8
#     4   9  17  28  41  58  80 104 128 154 185 222
#     4   9  16  25  39  59  79  98 123 157 195 232
#     4  10  19  31  47  65  84 104 125 150 181 216
#     4   8  13  21  34  52  72  96 131 173 209 239
#     4   9  18  32  48  65  84 105 129 154 177 207
#     4   9  15  24  39  56  75 101 131 161 194 232
#     4   9  17  29  43  58  77 102 130 155 181 219
#     4   8  13  21  32  45  63  90 126 167 207 244
#
# _framework density 14.239955999999999
#
# number of rings (size 3 to 8) (size 9 to 14) (size 15 to 20)
#    0.000    3.125    0.000    2.250    0.000    5.750 
#    0.000    0.625    0.000    2.250    0.000    0.000 
#    0.000    0.000    0.000    0.000    0.000    0.625 
#
# Total GULP energy -793348.177689 kJ/mol
# GULP energy per Si atom -12396.065276 kJ/mol
# Density = 1.420755 g / cm^3
# Si number density = 14.239956 Si / 1000 Ang^3
#
#
#
# Elastic Constant Matrix: (Units=GPa)
#
#
# Indices 1 2 3 4 5 6 
#
# 1 73.8541 46.6575 39.4560 0.0000 0.0000 0.0000
# 2 46.6575 90.2511 46.2161 0.0000 0.0000 0.0000
# 3 39.4560 46.2161 74.4972 0.0000 0.0000 0.0000
# 4 0.0000 0.0000 0.0000 11.9492 0.0000 0.0000
# 5 0.0000 0.0000 0.0000 0.0000 18.7188 0.0000
# 6 0.0000 0.0000 0.0000 0.0000 0.0000 15.5395
#
#
#
# Elastic Compliance Matrix: (Units=1/GPa)
#
#
# Indices 1 2 3 4 5 6 
#
# 1 0.022238 -0.008010 -0.006809 0.000000 0.000000 0.000000
# 2 -0.008010 0.019124 -0.007622 0.000000 0.000000 0.000000
# 3 -0.006809 -0.007622 0.021758 0.000000 0.000000 0.000000
# 4 0.000000 0.000000 0.000000 0.083688 0.000000 0.000000
# 5 0.000000 0.000000 0.000000 0.000000 0.053422 0.000000
# 6 0.000000 0.000000 0.000000 0.000000 0.000000 0.064352
#
#
# Mechanical properties :
#
#
# Convention : Reuss Voigt Hill
#
# Bulk Modulus (GPa) = 54.82759 55.91795 55.37277
# Shear Modulus (GPa) = 15.84570 16.32633 16.08602
#
# Velocity S-wave (km/s) = 3.33943 3.38970 3.36466
# Velocity P-wave (km/s) = 7.31131 7.39416 7.35285
#
# Compressibility (1/GPa) = 0.01823899
#
# Stress axis : x y z
#
# Youngs Moduli (GPa) = 44.96806 52.29009 45.96025
#
# Poissons Ratio (x) = 0.41883 0.31294
# Poissons Ratio (y) = 0.36018 0.35030
# Poissons Ratio (z) = 0.30618 0.39855
#
# Static dielectric constant tensor:
#      x y z
#    x 2.838620 0.000000 0.000000 
#    y 0.000000 2.632960 0.000000 
#    z 0.000000 0.000000 2.794910 
# 
# 
# High freq. dielectric constant tensor:
#      x y z
#    x 1.541570 0.000000 0.000000 
#    y 0.000000 1.512660 0.000000 
#    z 0.000000 0.000000 1.520950 
# 
# From -- ./inp_files/36445.got.cif
#   From: 2010.03.12/outbox.cif.g09.slc.cpg/sg51_19_cif.got.tgz:36445.got - 2010.04.16 13:43:02.
