data_PCOD8208789
_publ_section_title
;
Structure prediction by ZEFSAII (Michael W. Deem and Ramdas Pophale) SiO2 
 PCOD8208789
Probable space group: P M M A
;
_chemical_formula_sum "Si O2"
_cell_formula_units_Z 52
_cell_length_a 9.111622
_cell_length_b 15.723760
_cell_length_c 21.080093
_cell_angle_alpha 90.000000
_cell_angle_beta 90.000000
_cell_angle_gamma 90.000000
_cell_volume 3020.122949
_symmetry_space_group_name_H-M "P M M A"
_symmetry_group_IT_number 51
_symmetry_cell_setting 'orthorhombic'
loop_
_space_group_symop_operation_xyz
x,y,z
1/2-x,-y,z
1/2+x,-y,-z
-x,y,-z
-x,-y,-z
1/2+x,y,-z
1/2-x,y,z
x,-y,z
loop_
_atom_site_type_symbol
_atom_site_label
_atom_site_fract_x
_atom_site_fract_y
_atom_site_fract_z
Si Si1 0.922232 0.500000 0.356990
Si Si2 0.410655 0.240258 0.324033
Si Si3 0.914612 0.360581 0.564528
Si Si4 0.917538 0.163210 0.148010
Si Si5 0.415529 0.091808 0.712281
Si Si6 0.074947 0.000000 0.932487
Si Si7 0.075260 0.675160 0.194999
Si Si8 0.575410 0.500000 0.209077
O O1 0.750000 0.500000 0.368505
O O2 0.962816 0.500000 0.283413
O O3 0.992288 0.420345 0.390817
O O4 0.250000 0.212381 0.300651
O O5 0.403732 0.275958 0.394662
O O6 0.507355 0.157384 0.334015
O O7 0.469723 0.302960 0.268214
O O8 0.750000 0.396033 0.550304
O O9 0.000000 0.343298 0.500000
O O10 0.750000 0.188494 0.131032
O O11 0.927571 0.122546 0.216450
O O12 0.976162 0.088097 0.101668
O O13 0.015688 0.249863 0.147795
O O14 0.250000 0.085545 0.689486
O O15 0.492117 0.000000 0.706379
O O16 0.250000 0.000000 0.937193
O O17 0.000000 0.000000 0.000000
O O18 0.250000 0.665114 0.185681
O O19 0.996819 0.585073 0.178511
O O20 0.750000 0.500000 0.196451
#
# Coordination Sequence:
#
# PCOD8208789 Si02
#       8
#     4   8   8   8   8   4   8   4
#     4  11  22  34  49  69  92 123 163 199 242 301
#     4   9  19  32  46  67  94 123 154 198 254 301
#     4  11  22  36  50  65  90 122 159 202 250 303
#     4   9  17  32  50  73 106 142 176 210 250 298
#     4   9  16  28  49  73  96 124 159 198 243 296
#     4  10  20  34  54  80 116 154 185 216 251 292
#     4  10  19  32  50  73 102 134 169 213 262 306
#     4  11  21  32  50  75 102 135 172 209 256 313
#
# _framework density 17.217842000000001
#
# number of rings (size 3 to 8) (size 9 to 14) (size 15 to 20)
#    0.000    2.154    2.308    1.615    0.000    3.385 
#    0.000    0.000    0.000    0.462    0.000    0.538 
#    0.000    0.000    0.000    0.000    0.000    0.000 
#
# Total GULP energy -644354.153116 kJ/mol
# GULP energy per Si atom -12391.426021 kJ/mol
# Density = 1.717865 g / cm^3
# Si number density = 17.217842 Si / 1000 Ang^3
#
#
#
# Elastic Constant Matrix: (Units=GPa)
#
#
# Indices 1 2 3 4 5 6 
#
# 1 82.7364 60.7521 28.4035 0.0000 0.0000 0.0000
# 2 60.7521 142.5675 31.5193 0.0000 0.0000 0.0000
# 3 28.4035 31.5193 53.3562 0.0000 0.0000 0.0000
# 4 0.0000 0.0000 0.0000 21.8600 0.0000 0.0000
# 5 0.0000 0.0000 0.0000 0.0000 22.4555 0.0000
# 6 0.0000 0.0000 0.0000 0.0000 0.0000 31.1409
#
#
#
# Elastic Compliance Matrix: (Units=1/GPa)
#
#
# Indices 1 2 3 4 5 6 
#
# 1 0.019225 -0.006820 -0.006205 0.000000 0.000000 0.000000
# 2 -0.006820 0.010488 -0.002565 0.000000 0.000000 0.000000
# 3 -0.006205 -0.002565 0.023560 0.000000 0.000000 0.000000
# 4 0.000000 0.000000 0.000000 0.045746 0.000000 0.000000
# 5 0.000000 0.000000 0.000000 0.000000 0.044533 0.000000
# 6 0.000000 0.000000 0.000000 0.000000 0.000000 0.032112
#
#
# Mechanical properties :
#
#
# Convention : Reuss Voigt Hill
#
# Bulk Modulus (GPa) = 45.26438 57.77888 51.52163
# Shear Modulus (GPa) = 23.34185 25.62362 24.48274
#
# Velocity S-wave (km/s) = 3.68595 3.86191 3.77495
# Velocity P-wave (km/s) = 6.66793 7.31548 6.99919
#
# Compressibility (1/GPa) = 0.02209243
#
# Stress axis : x y z
#
# Youngs Moduli (GPa) = 52.01573 95.35076 42.44453
#
# Poissons Ratio (x) = 0.65034 0.26337
# Poissons Ratio (y) = 0.35477 0.10885
# Poissons Ratio (z) = 0.32276 0.24454
#
# Static dielectric constant tensor:
#      x y z
#    x 3.433750 0.000000 0.000000 
#    y 0.000000 3.450720 0.000000 
#    z 0.000000 0.000000 2.910270 
# 
# 
# High freq. dielectric constant tensor:
#      x y z
#    x 1.671660 0.000000 0.000000 
#    y 0.000000 1.670690 0.000000 
#    z 0.000000 0.000000 1.620370 
# 
# From -- ./inp_files/31845.got.cif
#   From: 2010.03.12/outbox.cif.g09.slc.cpg/sg51_16_cif.got.tgz:31845.got - 2010.04.16 13:43:02.
