data_PCOD8208582
_publ_section_title
;
Structure prediction by ZEFSAII (Michael W. Deem and Ramdas Pophale) SiO2 
 PCOD8208582
Probable space group: P M M A
;
_chemical_formula_sum "Si O2"
_cell_formula_units_Z 48
_cell_length_a 17.238241
_cell_length_b 11.740652
_cell_length_c 13.793746
_cell_angle_alpha 90.000000
_cell_angle_beta 90.000000
_cell_angle_gamma 90.000000
_cell_volume 2791.691268
_symmetry_space_group_name_H-M "P M M A"
_symmetry_group_IT_number 51
_symmetry_cell_setting 'orthorhombic'
loop_
_space_group_symop_operation_xyz
x,y,z
1/2-x,-y,z
1/2+x,-y,-z
-x,y,-z
-x,-y,-z
1/2+x,y,-z
1/2-x,y,z
x,-y,z
loop_
_atom_site_type_symbol
_atom_site_label
_atom_site_fract_x
_atom_site_fract_y
_atom_site_fract_z
Si Si1 0.888133 0.131793 0.384927
Si Si2 0.053426 0.870048 0.297337
Si Si3 0.662851 0.262234 0.202305
Si Si4 0.532719 0.132086 0.103978
Si Si5 0.091768 0.500000 0.501065
Si Si6 0.658421 0.732847 0.572962
Si Si7 0.341055 0.500000 0.713954
O O1 0.838509 0.191008 0.301319
O O2 0.864434 0.183333 0.486765
O O3 0.979393 0.150296 0.366605
O O4 0.866128 0.000000 0.384831
O O5 0.031118 0.841783 0.186291
O O6 0.121616 0.784862 0.328990
O O7 0.082514 0.000000 0.306460
O O8 0.750000 0.262978 0.161230
O O9 0.608963 0.207443 0.120409
O O10 0.634041 0.390200 0.224254
O O11 0.557375 0.000000 0.109014
O O12 0.500000 0.166340 0.000000
O O13 0.124590 0.391483 0.445075
O O14 0.115912 0.500000 0.612303
O O15 0.000000 0.500000 0.500000
O O16 0.750000 0.725286 0.586349
O O17 0.250000 0.500000 0.690568
#
# Coordination Sequence:
#
# PCOD8208582 Si02
#       7
#     8   8   8   8   4   8   4
#     4  10  19  31  50  76 107 141 177 218 262 315
#     4   9  19  35  53  75 105 139 179 218 262 318
#     4  10  19  32  54  80 109 138 175 226 276 322
#     4   9  19  37  59  81 107 137 174 226 278 328
#     4  12  24  36  54  74 103 150 194 221 256 309
#     4  12  23  34  49  74 110 145 180 217 258 313
#     4  10  20  36  53  78 112 142 175 227 278 308
#
# _framework density 17.193878999999999
#
# number of rings (size 3 to 8) (size 9 to 14) (size 15 to 20)
#    0.000    1.833    1.667    4.750    2.333    4.667 
#    0.000    1.250    0.000    3.000    0.000    2.333 
#    0.000    0.000    0.000    0.000    0.000    0.000 
#
# Total GULP energy -595347.579678 kJ/mol
# GULP energy per Si atom -12403.074577 kJ/mol
# Density = 1.715474 g / cm^3
# Si number density = 17.193879 Si / 1000 Ang^3
#
#
#
# Elastic Constant Matrix: (Units=GPa)
#
#
# Indices 1 2 3 4 5 6 
#
# 1 112.4079 65.6535 61.4038 0.0000 0.0000 0.0000
# 2 65.6535 135.7804 56.1608 0.0000 0.0000 0.0000
# 3 61.4038 56.1608 102.0468 0.0000 0.0000 0.0000
# 4 0.0000 0.0000 0.0000 27.7160 0.0000 0.0000
# 5 0.0000 0.0000 0.0000 0.0000 19.5023 0.0000
# 6 0.0000 0.0000 0.0000 0.0000 0.0000 23.2583
#
#
#
# Elastic Compliance Matrix: (Units=1/GPa)
#
#
# Indices 1 2 3 4 5 6 
#
# 1 0.015202 -0.004618 -0.006606 0.000000 0.000000 0.000000
# 2 -0.004618 0.010938 -0.003241 0.000000 0.000000 0.000000
# 3 -0.006606 -0.003241 0.015558 0.000000 0.000000 0.000000
# 4 0.000000 0.000000 0.000000 0.036080 0.000000 0.000000
# 5 0.000000 0.000000 0.000000 0.000000 0.051276 0.000000
# 6 0.000000 0.000000 0.000000 0.000000 0.000000 0.042995
#
#
# Mechanical properties :
#
#
# Convention : Reuss Voigt Hill
#
# Bulk Modulus (GPa) = 78.31891 79.63015 78.97453
# Shear Modulus (GPa) = 24.36220 25.22979 24.79600
#
# Velocity S-wave (km/s) = 3.76827 3.83478 3.80167
# Velocity P-wave (km/s) = 8.03632 8.12533 8.08095
#
# Compressibility (1/GPa) = 0.01276831
#
# Stress axis : x y z
#
# Youngs Moduli (GPa) = 65.78071 91.42071 64.27624
#
# Poissons Ratio (x) = 0.42221 0.42459
# Poissons Ratio (y) = 0.30380 0.20831
# Poissons Ratio (z) = 0.43453 0.29629
#
# Static dielectric constant tensor:
#      x y z
#    x 3.182020 0.000000 0.000000 
#    y 0.000000 3.411660 0.000000 
#    z 0.000000 0.000000 2.951570 
# 
# 
# High freq. dielectric constant tensor:
#      x y z
#    x 1.659750 0.000000 0.000000 
#    y 0.000000 1.676430 0.000000 
#    z 0.000000 0.000000 1.638820 
# 
# From -- ./inp_files/24072.got.cif
#   From: 2010.03.12/outbox.cif.g09.slc.cpg/sg51_13_cif.got.tgz:24072.got - 2010.04.16 13:43:02.
