data_PCOD8208052
_publ_section_title
;
Structure prediction by ZEFSAII (Michael W. Deem and Ramdas Pophale) SiO2 
 PCOD8208052
Probable space group: P M M A
;
_chemical_formula_sum "Si O2"
_cell_formula_units_Z 64
_cell_length_a 29.651775
_cell_length_b 9.039608
_cell_length_c 15.055312
_cell_angle_alpha 90.000000
_cell_angle_beta 90.000000
_cell_angle_gamma 90.000000
_cell_volume 4035.432189
_symmetry_space_group_name_H-M "P M M A"
_symmetry_group_IT_number 51
_symmetry_cell_setting 'orthorhombic'
loop_
_space_group_symop_operation_xyz
x,y,z
1/2-x,-y,z
1/2+x,-y,-z
-x,y,-z
-x,-y,-z
1/2+x,y,-z
1/2-x,y,z
x,-y,z
loop_
_atom_site_type_symbol
_atom_site_label
_atom_site_fract_x
_atom_site_fract_y
_atom_site_fract_z
Si Si1 0.933987 0.324938 0.943386
Si Si2 0.801271 0.331334 0.714315
Si Si3 0.395326 0.326542 0.529882
Si Si4 0.442392 0.175328 0.364798
Si Si5 0.029997 0.325262 0.875193
Si Si6 0.701420 0.325195 0.513613
Si Si7 0.619294 0.173785 0.799540
Si Si8 0.534554 0.673816 0.322177
O O1 0.927842 0.500000 0.933841
O O2 0.893262 0.244074 0.894265
O O3 0.979991 0.267791 0.897304
O O4 0.935167 0.274974 0.047427
O O5 0.750000 0.320260 0.747592
O O6 0.818741 0.500000 0.719814
O O7 0.805742 0.269606 0.614192
O O8 0.830821 0.228630 0.777382
O O9 0.398863 0.500000 0.506396
O O10 0.416533 0.235376 0.450062
O O11 0.342653 0.277801 0.543224
O O12 0.421101 0.289123 0.620811
O O13 0.415668 0.225767 0.276702
O O14 0.492308 0.242246 0.364106
O O15 0.445864 0.000000 0.371949
O O16 0.028245 0.500000 0.877142
O O17 0.044682 0.268192 0.777871
O O18 0.750000 0.262217 0.476781
O O19 0.705623 0.500000 0.515839
O O20 0.619625 0.000000 0.809596
O O21 0.523374 0.500000 0.323207
#
# Coordination Sequence:
#
# PCOD8208052 Si02
#       8
#     8   8   8   8   8   8   8   8
#     4   9  16  29  49  65  82 116 153 187 226 270
#     4   9  17  30  49  68  86 115 152 186 222 266
#     4  10  19  30  47  67  86 116 154 187 222 262
#     4  11  22  32  41  60  93 129 155 179 217 265
#     4   8  15  28  46  67  86 109 150 193 230 264
#     4   8  14  26  44  65  87 110 141 181 219 259
#     4  11  21  30  43  67  95 122 151 184 226 268
#     4  10  19  31  47  66  88 116 154 196 226 261
#
# _framework density 15.859515
#
# number of rings (size 3 to 8) (size 9 to 14) (size 15 to 20)
#    0.000    2.500    2.500    2.625    0.000    3.250 
#    0.000    1.875    0.000    0.375    0.000    0.875 
#    0.000    5.000    0.000    0.000    0.000    0.125 
#
# Total GULP energy -793247.585433 kJ/mol
# GULP energy per Si atom -12394.493522 kJ/mol
# Density = 1.582342 g / cm^3
# Si number density = 15.859515 Si / 1000 Ang^3
#
#
#
# Elastic Constant Matrix: (Units=GPa)
#
#
# Indices 1 2 3 4 5 6 
#
# 1 118.8763 28.7890 58.0313 0.0000 0.0000 0.0000
# 2 28.7890 37.7897 26.7517 0.0000 0.0000 0.0000
# 3 58.0313 26.7517 90.1603 0.0000 0.0000 0.0000
# 4 0.0000 0.0000 0.0000 11.7300 0.0000 0.0000
# 5 0.0000 0.0000 0.0000 0.0000 18.7337 0.0000
# 6 0.0000 0.0000 0.0000 0.0000 0.0000 6.6132
#
#
#
# Elastic Compliance Matrix: (Units=1/GPa)
#
#
# Indices 1 2 3 4 5 6 
#
# 1 0.012980 -0.005031 -0.006862 0.000000 0.000000 0.000000
# 2 -0.005031 0.035448 -0.007280 0.000000 0.000000 0.000000
# 3 -0.006862 -0.007280 0.017668 0.000000 0.000000 0.000000
# 4 0.000000 0.000000 0.000000 0.085251 0.000000 0.000000
# 5 0.000000 0.000000 0.000000 0.000000 0.053380 0.000000
# 6 0.000000 0.000000 0.000000 0.000000 0.000000 0.151213
#
#
# Mechanical properties :
#
#
# Convention : Reuss Voigt Hill
#
# Bulk Modulus (GPa) = 36.03446 52.66336 44.34891
# Shear Modulus (GPa) = 12.39045 16.29901 14.34473
#
# Velocity S-wave (km/s) = 2.79814 3.20927 3.01073
# Velocity P-wave (km/s) = 5.76280 6.85644 6.33327
#
# Compressibility (1/GPa) = 0.02775122
#
# Stress axis : x y z
#
# Youngs Moduli (GPa) = 77.04018 28.21000 56.59950
#
# Poissons Ratio (x) = 0.14193 0.38838
# Poissons Ratio (y) = 0.38759 0.41203
# Poissons Ratio (z) = 0.52864 0.20536
#
# Static dielectric constant tensor:
#      x y z
#    x 3.206660 0.000000 0.000000 
#    y 0.000000 2.761330 0.000000 
#    z 0.000000 0.000000 3.184690 
# 
# 
# High freq. dielectric constant tensor:
#      x y z
#    x 1.600560 0.000000 0.000000 
#    y 0.000000 1.586750 0.000000 
#    z 0.000000 0.000000 1.592130 
# 
# From -- ./inp_files/26672.got.cif
#   From: 2010.03.12/outbox.cif.g09.slc.cpg/sg51_14_cif.got.tgz:26672.got - 2010.04.16 13:43:02.
