data_PCOD8208581
_publ_section_title
;
Structure prediction by ZEFSAII (Michael W. Deem and Ramdas Pophale) SiO2 
 PCOD8208581
Probable space group: P M M A
;
_chemical_formula_sum "Si O2"
_cell_formula_units_Z 52
_cell_length_a 8.938522
_cell_length_b 22.842853
_cell_length_c 14.168617
_cell_angle_alpha 90.000000
_cell_angle_beta 90.000000
_cell_angle_gamma 90.000000
_cell_volume 2892.967263
_symmetry_space_group_name_H-M "P M M A"
_symmetry_group_IT_number 51
_symmetry_cell_setting 'orthorhombic'
loop_
_space_group_symop_operation_xyz
x,y,z
1/2-x,-y,z
1/2+x,-y,-z
-x,y,-z
-x,-y,-z
1/2+x,y,-z
1/2-x,y,z
x,-y,z
loop_
_atom_site_type_symbol
_atom_site_label
_atom_site_fract_x
_atom_site_fract_y
_atom_site_fract_z
Si Si1 0.076107 0.778998 0.598450
Si Si2 0.425006 0.434742 0.403365
Si Si3 0.924856 0.851711 0.093260
Si Si4 0.423930 0.323588 0.291171
Si Si5 0.079002 0.103547 0.706934
Si Si6 0.573733 0.272822 0.905656
Si Si7 0.925403 0.000000 0.601658
O O1 0.250000 0.770597 0.580154
O O2 0.041729 0.832230 0.668610
O O3 0.000000 0.793855 0.500000
O O4 0.015053 0.719797 0.642818
O O5 0.500000 0.413328 0.500000
O O6 0.250000 0.434772 0.422230
O O7 0.480864 0.500000 0.374881
O O8 0.467146 0.389913 0.319642
O O9 0.750000 0.840015 0.075692
O O10 0.949135 0.895788 0.180514
O O11 0.003711 0.790315 0.115714
O O12 0.000000 0.880216 0.000000
O O13 0.250000 0.310379 0.308638
O O14 0.465181 0.315483 0.181349
O O15 0.250000 0.085965 0.683991
O O16 0.969916 0.057223 0.659836
O O17 0.750000 0.265915 0.920585
O O18 0.500000 0.300113 0.000000
O O19 0.000000 0.000000 0.500000
O O20 0.750000 0.000000 0.586010
#
# Coordination Sequence:
#
# PCOD8208581 Si02
#       7
#     8   8   8   8   8   8   4
#     4  11  22  35  52  77 108 140 173 215 267 317
#     4   9  18  33  51  72 101 138 179 219 262 314
#     4  10  19  34  56  83 111 141 175 215 265 317
#     4  10  20  33  51  77 105 137 176 219 267 317
#     4  10  22  40  59  80 109 143 180 219 264 316
#     4  10  19  31  50  76 107 139 174 215 263 320
#     4  12  26  42  63  84 107 142 185 224 266 316
#
# _framework density 17.974625
#
# number of rings (size 3 to 8) (size 9 to 14) (size 15 to 20)
#    0.000    1.846    1.538    3.923    0.000    6.154 
#    0.000    0.385    0.000    0.462    0.000    0.000 
#    0.000    0.000    0.000    0.000    0.000    0.615 
#
# Total GULP energy -644862.405905 kJ/mol
# GULP energy per Si atom -12401.200114 kJ/mol
# Density = 1.793371 g / cm^3
# Si number density = 17.974625 Si / 1000 Ang^3
#
#
#
# Elastic Constant Matrix: (Units=GPa)
#
#
# Indices 1 2 3 4 5 6 
#
# 1 94.7727 41.4018 57.0901 0.0000 0.0000 0.0000
# 2 41.4018 79.6290 47.9792 0.0000 0.0000 0.0000
# 3 57.0901 47.9792 134.3699 0.0000 0.0000 0.0000
# 4 0.0000 0.0000 0.0000 28.9425 0.0000 0.0000
# 5 0.0000 0.0000 0.0000 0.0000 31.4751 0.0000
# 6 0.0000 0.0000 0.0000 0.0000 0.0000 23.9846
#
#
#
# Elastic Compliance Matrix: (Units=1/GPa)
#
#
# Indices 1 2 3 4 5 6 
#
# 1 0.015761 -0.005300 -0.004804 0.000000 0.000000 0.000000
# 2 -0.005300 0.017783 -0.004098 0.000000 0.000000 0.000000
# 3 -0.004804 -0.004098 0.010946 0.000000 0.000000 0.000000
# 4 0.000000 0.000000 0.000000 0.034551 0.000000 0.000000
# 5 0.000000 0.000000 0.000000 0.000000 0.031771 0.000000
# 6 0.000000 0.000000 0.000000 0.000000 0.000000 0.041693
#
#
# Mechanical properties :
#
#
# Convention : Reuss Voigt Hill
#
# Bulk Modulus (GPa) = 62.16365 66.85710 64.51037
# Shear Modulus (GPa) = 26.84250 27.70045 27.27147
#
# Velocity S-wave (km/s) = 3.86859 3.92993 3.89938
# Velocity P-wave (km/s) = 7.39012 7.60713 7.49941
#
# Compressibility (1/GPa) = 0.01608657
#
# Stress axis : x y z
#
# Youngs Moduli (GPa) = 63.44907 56.23335 91.35436
#
# Poissons Ratio (x) = 0.29804 0.43885
# Poissons Ratio (y) = 0.33628 0.37436
# Poissons Ratio (z) = 0.30480 0.23044
#
# Static dielectric constant tensor:
#      x y z
#    x 3.401830 0.000000 0.000000 
#    y 0.000000 3.277640 0.000000 
#    z 0.000000 0.000000 3.694300 
# 
# 
# High freq. dielectric constant tensor:
#      x y z
#    x 1.704280 0.000000 0.000000 
#    y 0.000000 1.675690 0.000000 
#    z 0.000000 0.000000 1.705830 
# 
# From -- ./inp_files/21540.got.cif
#   From: 2010.03.12/outbox.cif.g09.slc.cpg/sg51_11_cif.got.tgz:21540.got - 2010.04.16 13:43:02.
