data_PCOD8208260
_publ_section_title
;
Structure prediction by ZEFSAII (Michael W. Deem and Ramdas Pophale) SiO2 
 PCOD8208260
Probable space group: P M M A
;
_chemical_formula_sum "Si O2"
_cell_formula_units_Z 56
_cell_length_a 8.895024
_cell_length_b 19.470245
_cell_length_c 15.565309
_cell_angle_alpha 90.000000
_cell_angle_beta 90.000000
_cell_angle_gamma 90.000000
_cell_volume 2695.729351
_symmetry_space_group_name_H-M "P M M A"
_symmetry_group_IT_number 51
_symmetry_cell_setting 'orthorhombic'
loop_
_space_group_symop_operation_xyz
x,y,z
1/2-x,-y,z
1/2+x,-y,-z
-x,y,-z
-x,-y,-z
1/2+x,y,-z
1/2-x,y,z
x,-y,z
loop_
_atom_site_type_symbol
_atom_site_label
_atom_site_fract_x
_atom_site_fract_y
_atom_site_fract_z
Si Si1 0.571399 0.807930 0.277924
Si Si2 0.926399 0.285806 0.584063
Si Si3 0.921559 0.576160 0.391796
Si Si4 0.926092 0.922460 0.412158
Si Si5 0.414730 0.807266 0.916313
Si Si6 0.581982 0.425271 0.779777
Si Si7 0.084110 0.646997 0.919646
O O1 0.750000 0.794398 0.275355
O O2 0.496014 0.743000 0.326794
O O3 0.525975 0.875696 0.331471
O O4 0.511056 0.817766 0.179326
O O5 0.750000 0.272521 0.583596
O O6 0.000000 0.248704 0.500000
O O7 0.962320 0.367124 0.572406
O O8 0.750000 0.601061 0.405242
O O9 0.946525 0.500000 0.433491
O O10 0.956735 0.570055 0.292290
O O11 0.750000 0.918980 0.426751
O O12 0.000000 0.895207 0.500000
O O13 0.980155 0.000000 0.391771
O O14 0.250000 0.842137 0.915221
O O15 0.397899 0.727264 0.933294
O O16 0.500000 0.839582 0.000000
O O17 0.750000 0.406131 0.745353
O O18 0.587582 0.500000 0.825992
O O19 0.526244 0.365304 0.840862
O O20 0.250000 0.613790 0.907784
O O21 0.000000 0.612675 0.000000
#
# Coordination Sequence:
#
# PCOD8208260 Si02
#       7
#     8   8   8   8   8   8   8
#     4  10  20  36  58  84 116 150 188 235 284 334
#     4  12  25  39  57  82 113 147 185 231 283 339
#     4  10  21  38  58  77 100 135 179 225 274 329
#     4   9  18  33  55  84 118 156 194 231 275 330
#     4   9  19  34  53  77 104 137 177 224 274 326
#     4  10  20  33  49  70  95 124 163 212 267 330
#     4  10  19  31  47  66  91 124 165 215 274 336
#
# _framework density 20.773599000000001
#
# number of rings (size 3 to 8) (size 9 to 14) (size 15 to 20)
#    0.000    2.000    0.000    3.857    0.000    6.286 
#    0.000    0.000    0.000    0.429    0.000    0.000 
#    0.000    0.000    0.000    0.000    0.000    0.000 
#
# Total GULP energy -693820.306404 kJ/mol
# GULP energy per Si atom -12389.648329 kJ/mol
# Density = 2.072632 g / cm^3
# Si number density = 20.773599 Si / 1000 Ang^3
#
#
#
# Elastic Constant Matrix: (Units=GPa)
#
#
# Indices 1 2 3 4 5 6 
#
# 1 95.1716 24.1138 50.3642 0.0000 0.0000 0.0000
# 2 24.1138 55.8067 26.9509 0.0000 0.0000 0.0000
# 3 50.3642 26.9509 160.8328 0.0000 0.0000 0.0000
# 4 0.0000 0.0000 0.0000 21.8244 0.0000 0.0000
# 5 0.0000 0.0000 0.0000 0.0000 34.7120 0.0000
# 6 0.0000 0.0000 0.0000 0.0000 0.0000 13.9252
#
#
#
# Elastic Compliance Matrix: (Units=1/GPa)
#
#
# Indices 1 2 3 4 5 6 
#
# 1 0.013403 -0.004096 -0.003511 0.000000 0.000000 0.000000
# 2 -0.004096 0.020748 -0.002194 0.000000 0.000000 0.000000
# 3 -0.003511 -0.002194 0.007685 0.000000 0.000000 0.000000
# 4 0.000000 0.000000 0.000000 0.045820 0.000000 0.000000
# 5 0.000000 0.000000 0.000000 0.000000 0.028808 0.000000
# 6 0.000000 0.000000 0.000000 0.000000 0.000000 0.071812
#
#
# Mechanical properties :
#
#
# Convention : Reuss Voigt Hill
#
# Bulk Modulus (GPa) = 44.97533 57.18544 51.08038
# Shear Modulus (GPa) = 23.22447 28.11781 25.67114
#
# Velocity S-wave (km/s) = 3.34725 3.68303 3.51915
# Velocity P-wave (km/s) = 6.05277 6.75826 6.41522
#
# Compressibility (1/GPa) = 0.02223441
#
# Stress axis : x y z
#
# Youngs Moduli (GPa) = 74.61029 48.19635 130.12876
#
# Poissons Ratio (x) = 0.19741 0.45685
# Poissons Ratio (y) = 0.30560 0.28553
# Poissons Ratio (z) = 0.26194 0.10575
#
# Static dielectric constant tensor:
#      x y z
#    x 3.868380 0.000000 0.000000 
#    y 0.000000 3.652570 0.000000 
#    z 0.000000 0.000000 3.986190 
# 
# 
# High freq. dielectric constant tensor:
#      x y z
#    x 1.810690 0.000000 0.000000 
#    y 0.000000 1.778530 0.000000 
#    z 0.000000 0.000000 1.820560 
# 
# From -- ./inp_files/21822.got.cif
#   From: 2010.03.12/outbox.cif.g09.slc.cpg/sg51_11_cif.got.tgz:21822.got - 2010.04.16 13:43:02.
