data_PCOD8208431
_publ_section_title
;
Structure prediction by ZEFSAII (Michael W. Deem and Ramdas Pophale) SiO2 
 PCOD8208431
Probable space group: P M M A
;
_chemical_formula_sum "Si O2"
_cell_formula_units_Z 56
_cell_length_a 21.347913
_cell_length_b 8.964700
_cell_length_c 16.667120
_cell_angle_alpha 90.000000
_cell_angle_beta 90.000000
_cell_angle_gamma 90.000000
_cell_volume 3189.714019
_symmetry_space_group_name_H-M "P M M A"
_symmetry_group_IT_number 51
_symmetry_cell_setting 'orthorhombic'
loop_
_space_group_symop_operation_xyz
x,y,z
1/2-x,-y,z
1/2+x,-y,-z
-x,y,-z
-x,-y,-z
1/2+x,y,-z
1/2-x,y,z
x,-y,z
loop_
_atom_site_type_symbol
_atom_site_label
_atom_site_fract_x
_atom_site_fract_y
_atom_site_fract_z
Si Si1 0.975080 0.823545 0.116440
Si Si2 0.519232 0.828235 0.300295
Si Si3 0.062077 0.676245 0.547129
Si Si4 0.914215 0.674844 0.980532
Si Si5 0.375867 0.170217 0.295312
Si Si6 0.818411 0.326294 0.852030
Si Si7 0.178700 0.825179 0.462259
O O1 0.964972 0.781161 0.209155
O O2 0.033932 0.735082 0.081207
O O3 0.985755 0.000000 0.106271
O O4 0.915592 0.766263 0.064427
O O5 0.559463 0.727421 0.360423
O O6 0.446901 0.798859 0.321113
O O7 0.537131 0.000000 0.314676
O O8 0.064684 0.500000 0.541957
O O9 0.127361 0.737421 0.513061
O O10 0.000000 0.736307 0.500000
O O11 0.925728 0.500000 0.996311
O O12 0.847533 0.705700 0.939394
O O13 0.361810 0.265802 0.217810
O O14 0.330676 0.214234 0.368567
O O15 0.366637 0.000000 0.269666
O O16 0.750000 0.250419 0.849725
O O17 0.812987 0.500000 0.836765
O O18 0.250000 0.779324 0.486169
O O19 0.167554 0.000000 0.476539
#
# Coordination Sequence:
#
# PCOD8208431 Si02
#       7
#     8   8   8   8   8   8   8
#     4  10  19  32  51  75 101 129 166 212 261 304
#     4  10  20  34  55  79 106 139 173 219 269 315
#     4  11  23  36  54  81 110 142 180 223 270 320
#     4  10  19  31  49  72 100 135 172 208 252 306
#     4  10  19  33  53  78 107 140 178 215 259 314
#     4  10  21  34  48  71 106 144 176 209 253 308
#     4  10  21  37  57  79 106 143 183 222 266 321
#
# _framework density 17.556432999999998
#
# number of rings (size 3 to 8) (size 9 to 14) (size 15 to 20)
#    0.000    1.857    2.857    2.571    0.000    4.571 
#    0.000    0.000    0.000    0.857    0.000    4.000 
#    0.000    0.000    0.000    0.000    0.000    0.000 
#
# Total GULP energy -694286.469046 kJ/mol
# GULP energy per Si atom -12397.972662 kJ/mol
# Density = 1.751647 g / cm^3
# Si number density = 17.556433 Si / 1000 Ang^3
#
#
#
# Elastic Constant Matrix: (Units=GPa)
#
#
# Indices 1 2 3 4 5 6 
#
# 1 77.3526 30.5767 53.7603 0.0000 0.0000 0.0000
# 2 30.5767 51.5200 44.9869 0.0000 0.0000 0.0000
# 3 53.7603 44.9869 110.8283 0.0000 0.0000 0.0000
# 4 0.0000 0.0000 0.0000 26.1660 0.0000 0.0000
# 5 0.0000 0.0000 0.0000 0.0000 17.9006 0.0000
# 6 0.0000 0.0000 0.0000 0.0000 0.0000 22.0041
#
#
#
# Elastic Compliance Matrix: (Units=1/GPa)
#
#
# Indices 1 2 3 4 5 6 
#
# 1 0.020421 -0.005375 -0.007724 0.000000 0.000000 0.000000
# 2 -0.005375 0.031482 -0.010172 0.000000 0.000000 0.000000
# 3 -0.007724 -0.010172 0.016898 0.000000 0.000000 0.000000
# 4 0.000000 0.000000 0.000000 0.038218 0.000000 0.000000
# 5 0.000000 0.000000 0.000000 0.000000 0.055864 0.000000
# 6 0.000000 0.000000 0.000000 0.000000 0.000000 0.045446
#
#
# Mechanical properties :
#
#
# Convention : Reuss Voigt Hill
#
# Bulk Modulus (GPa) = 44.92395 55.37209 50.14802
# Shear Modulus (GPa) = 19.06294 20.57261 19.81778
#
# Velocity S-wave (km/s) = 3.29874 3.42687 3.36341
# Velocity P-wave (km/s) = 6.33662 6.87502 6.61130
#
# Compressibility (1/GPa) = 0.02225984
#
# Stress axis : x y z
#
# Youngs Moduli (GPa) = 48.97030 31.76442 59.17738
#
# Poissons Ratio (x) = 0.17074 0.45707
# Poissons Ratio (y) = 0.26322 0.60193
# Poissons Ratio (z) = 0.37823 0.32309
#
# Static dielectric constant tensor:
#      x y z
#    x 3.399100 0.000000 0.000000 
#    y 0.000000 3.233450 0.000000 
#    z 0.000000 0.000000 3.347620 
# 
# 
# High freq. dielectric constant tensor:
#      x y z
#    x 1.660990 0.000000 0.000000 
#    y 0.000000 1.679600 0.000000 
#    z 0.000000 0.000000 1.678540 
# 
# From -- ./inp_files/30377.got.cif
#   From: 2010.03.12/outbox.cif.g09.slc.cpg/sg51_16_cif.got.tgz:30377.got - 2010.04.16 13:43:02.
