data_PCOD8208661
_publ_section_title
;
Structure prediction by ZEFSAII (Michael W. Deem and Ramdas Pophale) SiO2 
 PCOD8208661
Probable space group: P M M A
;
_chemical_formula_sum "Si O2"
_cell_formula_units_Z 64
_cell_length_a 9.051597
_cell_length_b 14.297239
_cell_length_c 26.113700
_cell_angle_alpha 90.000000
_cell_angle_beta 90.000000
_cell_angle_gamma 90.000000
_cell_volume 3379.448227
_symmetry_space_group_name_H-M "P M M A"
_symmetry_group_IT_number 51
_symmetry_cell_setting 'orthorhombic'
loop_
_space_group_symop_operation_xyz
x,y,z
1/2-x,-y,z
1/2+x,-y,-z
-x,y,-z
-x,-y,-z
1/2+x,y,-z
1/2-x,y,z
x,-y,z
loop_
_atom_site_type_symbol
_atom_site_label
_atom_site_fract_x
_atom_site_fract_y
_atom_site_fract_z
Si Si1 0.422828 0.708028 0.051731
Si Si2 0.575691 0.898126 0.309339
Si Si3 0.075730 0.296075 0.653834
Si Si4 0.579617 0.896111 0.899779
Si Si5 0.422878 0.392368 0.550714
Si Si6 0.911825 0.110221 0.198168
Si Si7 0.078489 0.610179 0.249957
Si Si8 0.921239 0.610545 0.146583
O O1 0.250000 0.683611 0.049567
O O2 0.449278 0.820427 0.055796
O O3 0.493941 0.655130 0.099189
O O4 0.500000 0.672558 0.000000
O O5 0.750000 0.908767 0.301972
O O6 0.538133 0.815188 0.348741
O O7 0.512749 0.868128 0.253312
O O8 0.511963 0.000000 0.327412
O O9 0.250000 0.314649 0.661565
O O10 0.018820 0.337061 0.600194
O O11 0.989138 0.343337 0.699810
O O12 0.750000 0.905666 0.887098
O O13 0.508395 0.851810 0.848589
O O14 0.517035 0.000000 0.914932
O O15 0.500000 0.351349 0.500000
O O16 0.250000 0.378780 0.543501
O O17 0.467032 0.500000 0.558730
O O18 0.750000 0.157380 0.193966
O O19 0.897880 0.000000 0.192336
O O20 0.250000 0.637114 0.244881
O O21 0.056114 0.500000 0.255875
O O22 0.992532 0.647574 0.199730
O O23 0.750000 0.639624 0.145305
O O24 0.941936 0.500000 0.142638
#
# Coordination Sequence:
#
# PCOD8208661 Si02
#       8
#     8   8   8   8   8   8   8   8
#     4  11  24  40  58  81 107 137 175 220 266 318
#     4   8  15  28  46  72 105 138 175 217 260 308
#     4  10  19  31  52  81 109 142 182 226 268 312
#     4   9  19  35  53  75 105 138 171 211 259 310
#     4   9  18  32  50  73 103 139 181 228 275 322
#     4   8  14  26  45  69  96 128 167 207 248 301
#     4  10  21  36  54  80 114 145 171 207 261 324
#     4  10  22  41  63  83 105 137 175 217 266 318
#
# _framework density 18.938002999999998
#
# number of rings (size 3 to 8) (size 9 to 14) (size 15 to 20)
#    0.000    2.625    0.000    2.250    1.750    4.000 
#    0.000    1.250    0.000    0.750    0.000    0.000 
#    0.000    0.000    0.000    0.000    0.000    0.000 
#
# Total GULP energy -793288.861648 kJ/mol
# GULP energy per Si atom -12395.138463 kJ/mol
# Density = 1.889490 g / cm^3
# Si number density = 18.938003 Si / 1000 Ang^3
#
#
#
# Elastic Constant Matrix: (Units=GPa)
#
#
# Indices 1 2 3 4 5 6 
#
# 1 79.0422 37.3601 60.6541 0.0000 0.0000 0.0000
# 2 37.3601 56.0654 62.2003 0.0000 0.0000 0.0000
# 3 60.6541 62.2003 157.3611 0.0000 0.0000 0.0000
# 4 0.0000 0.0000 0.0000 27.8318 0.0000 0.0000
# 5 0.0000 0.0000 0.0000 0.0000 31.6684 0.0000
# 6 0.0000 0.0000 0.0000 0.0000 0.0000 18.3436
#
#
#
# Elastic Compliance Matrix: (Units=1/GPa)
#
#
# Indices 1 2 3 4 5 6 
#
# 1 0.020011 -0.008509 -0.004350 0.000000 0.000000 0.000000
# 2 -0.008509 0.035385 -0.010707 0.000000 0.000000 0.000000
# 3 -0.004350 -0.010707 0.012264 0.000000 0.000000 0.000000
# 4 0.000000 0.000000 0.000000 0.035930 0.000000 0.000000
# 5 0.000000 0.000000 0.000000 0.000000 0.031577 0.000000
# 6 0.000000 0.000000 0.000000 0.000000 0.000000 0.054515
#
#
# Mechanical properties :
#
#
# Convention : Reuss Voigt Hill
#
# Bulk Modulus (GPa) = 48.71340 68.09975 58.40657
# Shear Modulus (GPa) = 20.52071 24.38570 22.45321
#
# Velocity S-wave (km/s) = 3.29534 3.59229 3.44701
# Velocity P-wave (km/s) = 6.34487 7.29681 6.83743
#
# Compressibility (1/GPa) = 0.02052823
#
# Stress axis : x y z
#
# Youngs Moduli (GPa) = 49.97182 28.26069 81.54222
#
# Poissons Ratio (x) = 0.24047 0.35470
# Poissons Ratio (y) = 0.42521 0.87306
# Poissons Ratio (z) = 0.21737 0.30258
#
# Static dielectric constant tensor:
#      x y z
#    x 3.509050 0.000000 0.000000 
#    y 0.000000 3.658840 0.000000 
#    z 0.000000 0.000000 3.460140 
# 
# 
# High freq. dielectric constant tensor:
#      x y z
#    x 1.720630 0.000000 0.000000 
#    y 0.000000 1.738780 0.000000 
#    z 0.000000 0.000000 1.722220 
# 
# From -- ./inp_files/34950.got.cif
#   From: 2010.03.12/outbox.cif.g09.slc.cpg/sg51_18_cif.got.tgz:34950.got - 2010.04.16 13:43:02.
