data_PCOD8208633
_publ_section_title
;
Structure prediction by ZEFSAII (Michael W. Deem and Ramdas Pophale) SiO2 
 PCOD8208633
Probable space group: P M M A
;
_chemical_formula_sum "Si O2"
_cell_formula_units_Z 64
_cell_length_a 9.513356
_cell_length_b 22.224837
_cell_length_c 15.759774
_cell_angle_alpha 90.000000
_cell_angle_beta 90.000000
_cell_angle_gamma 90.000000
_cell_volume 3332.132930
_symmetry_space_group_name_H-M "P M M A"
_symmetry_group_IT_number 51
_symmetry_cell_setting 'orthorhombic'
loop_
_space_group_symop_operation_xyz
x,y,z
1/2-x,-y,z
1/2+x,-y,-z
-x,y,-z
-x,-y,-z
1/2+x,y,-z
1/2-x,y,z
x,-y,z
loop_
_atom_site_type_symbol
_atom_site_label
_atom_site_fract_x
_atom_site_fract_y
_atom_site_fract_z
Si Si1 0.086212 0.067574 0.739602
Si Si2 0.902201 0.736714 0.569287
Si Si3 0.914911 0.398702 0.582214
Si Si4 0.595219 0.899957 0.072832
Si Si5 0.406103 0.772184 0.866090
Si Si6 0.417355 0.362129 0.915635
Si Si7 0.594053 0.174944 0.722997
Si Si8 0.912137 0.568746 0.771606
O O1 0.250000 0.083094 0.727146
O O2 0.040943 0.075595 0.837277
O O3 0.992138 0.116293 0.690134
O O4 0.052661 0.000000 0.708273
O O5 0.750000 0.729130 0.527098
O O6 0.957711 0.670917 0.594959
O O7 0.894100 0.779312 0.647893
O O8 0.000000 0.767862 0.500000
O O9 0.750000 0.409616 0.564961
O O10 0.958631 0.428400 0.672268
O O11 0.000000 0.424972 0.500000
O O12 0.750000 0.925233 0.056922
O O13 0.591946 0.827180 0.067207
O O14 0.500000 0.928251 0.000000
O O15 0.250000 0.768525 0.824468
O O16 0.442191 0.709528 0.911070
O O17 0.519659 0.787091 0.795548
O O18 0.250000 0.377694 0.921446
O O19 0.485163 0.392394 0.831870
O O20 0.500000 0.385130 0.000000
O O21 0.750000 0.155042 0.752972
O O22 0.750000 0.591692 0.780549
O O23 0.924400 0.500000 0.801777
#
# Coordination Sequence:
#
# PCOD8208633 Si02
#       8
#     8   8   8   8   8   8   8   8
#     4   9  19  35  50  65  92 132 173 210 252 303
#     4   9  18  31  49  76 107 134 160 196 246 304
#     4   9  18  34  56  83 114 145 176 213 263 323
#     4   9  17  29  45  67  95 124 156 196 242 295
#     4   9  19  34  51  74 103 134 167 204 256 319
#     4  11  23  38  58  82 108 141 183 232 281 327
#     4  10  19  31  51  78 104 131 167 213 257 299
#     4  10  22  40  59  79 108 147 187 226 270 322
#
# _framework density 19.206916
#
# number of rings (size 3 to 8) (size 9 to 14) (size 15 to 20)
#    0.000    2.500    0.000    2.625    0.000    6.750 
#    0.000    2.500    0.000    0.375    0.000    0.000 
#    0.000    0.000    0.000    0.000    0.000    0.000 
#
# Total GULP energy -793137.252635 kJ/mol
# GULP energy per Si atom -12392.769572 kJ/mol
# Density = 1.916320 g / cm^3
# Si number density = 19.206916 Si / 1000 Ang^3
#
#
#
# Elastic Constant Matrix: (Units=GPa)
#
#
# Indices 1 2 3 4 5 6 
#
# 1 99.7127 29.4363 45.1190 0.0000 0.0000 0.0000
# 2 29.4363 62.5319 12.0033 0.0000 0.0000 0.0000
# 3 45.1190 12.0033 71.3808 0.0000 0.0000 0.0000
# 4 0.0000 0.0000 0.0000 10.7012 0.0000 0.0000
# 5 0.0000 0.0000 0.0000 0.0000 34.2170 0.0000
# 6 0.0000 0.0000 0.0000 0.0000 0.0000 23.9964
#
#
#
# Elastic Compliance Matrix: (Units=1/GPa)
#
#
# Indices 1 2 3 4 5 6 
#
# 1 0.015797 -0.005704 -0.009026 0.000000 0.000000 0.000000
# 2 -0.005704 0.018585 0.000480 0.000000 0.000000 0.000000
# 3 -0.009026 0.000480 0.019634 0.000000 0.000000 0.000000
# 4 0.000000 0.000000 0.000000 0.093447 0.000000 0.000000
# 5 0.000000 0.000000 0.000000 0.000000 0.029225 0.000000
# 6 0.000000 0.000000 0.000000 0.000000 0.000000 0.041673
#
#
# Mechanical properties :
#
#
# Convention : Reuss Voigt Hill
#
# Bulk Modulus (GPa) = 39.19066 45.19362 42.19214
# Shear Modulus (GPa) = 19.57988 23.58739 21.58364
#
# Velocity S-wave (km/s) = 3.19630 3.50818 3.35586
# Velocity P-wave (km/s) = 5.83699 6.32382 6.08528
#
# Compressibility (1/GPa) = 0.02551628
#
# Stress axis : x y z
#
# Youngs Moduli (GPa) = 63.30467 53.80803 50.93273
#
# Poissons Ratio (x) = 0.30690 0.45971
# Poissons Ratio (y) = 0.36106 -0.02445
# Poissons Ratio (z) = 0.57137 -0.02583
#
# Static dielectric constant tensor:
#      x y z
#    x 3.973220 0.000000 0.000000 
#    y 0.000000 3.550870 0.000000 
#    z 0.000000 0.000000 3.276660 
# 
# 
# High freq. dielectric constant tensor:
#      x y z
#    x 1.752160 0.000000 0.000000 
#    y 0.000000 1.745070 0.000000 
#    z 0.000000 0.000000 1.721970 
# 
# From -- ./inp_files/22283.got.cif
#   From: 2010.03.12/outbox.cif.g09.slc.cpg/sg51_12_cif.got.tgz:22283.got - 2010.04.16 13:43:02.
