data_PCOD8208246
_publ_section_title
;
Structure prediction by ZEFSAII (Michael W. Deem and Ramdas Pophale) SiO2 
 PCOD8208246
Probable space group: P M M A
;
_chemical_formula_sum "Si O2"
_cell_formula_units_Z 64
_cell_length_a 9.114795
_cell_length_b 14.593055
_cell_length_c 28.417515
_cell_angle_alpha 90.000000
_cell_angle_beta 90.000000
_cell_angle_gamma 90.000000
_cell_volume 3779.890532
_symmetry_space_group_name_H-M "P M M A"
_symmetry_group_IT_number 51
_symmetry_cell_setting 'orthorhombic'
loop_
_space_group_symop_operation_xyz
x,y,z
1/2-x,-y,z
1/2+x,-y,-z
-x,y,-z
-x,-y,-z
1/2+x,y,-z
1/2-x,y,z
x,-y,z
loop_
_atom_site_type_symbol
_atom_site_label
_atom_site_fract_x
_atom_site_fract_y
_atom_site_fract_z
Si Si1 0.919070 0.102101 0.772140
Si Si2 0.574586 0.789825 0.951750
Si Si3 0.088493 0.391345 0.543629
Si Si4 0.418635 0.598962 0.088309
Si Si5 0.590450 0.350779 0.173451
Si Si6 0.424871 0.728927 0.730916
Si Si7 0.574925 0.602453 0.353328
Si Si8 0.586229 0.148476 0.136239
O O1 0.750000 0.131722 0.779673
O O2 0.995977 0.172919 0.736139
O O3 0.999358 0.097110 0.822540
O O4 0.928907 0.000000 0.750021
O O5 0.750000 0.800024 0.954523
O O6 0.522581 0.683966 0.942501
O O7 0.510126 0.856600 0.911479
O O8 0.500000 0.821365 0.000000
O O9 0.250000 0.347963 0.540882
O O10 0.097512 0.500000 0.538239
O O11 0.016743 0.368450 0.594670
O O12 0.000000 0.347768 0.500000
O O13 0.250000 0.617556 0.097487
O O14 0.446586 0.500000 0.062933
O O15 0.486551 0.589804 0.140445
O O16 0.750000 0.398583 0.175532
O O17 0.528123 0.338239 0.226222
O O18 0.605664 0.252453 0.150253
O O19 0.250000 0.745616 0.731709
O O20 0.480260 0.678252 0.683784
O O21 0.750000 0.599660 0.354424
O O22 0.517512 0.500000 0.340129
O O23 0.750000 0.105580 0.128905
#
# Coordination Sequence:
#
# PCOD8208246 Si02
#       8
#     8   8   8   8   8   8   8   8
#     4  10  20  33  50  72  97 123 148 178 222 273
#     4  10  19  31  47  65  87 114 143 177 219 266
#     4   8  13  22  37  56  80 114 156 199 238 274
#     4   9  18  30  41  55  78 109 144 180 216 255
#     4   8  15  26  40  59  79 102 135 174 214 253
#     4   9  17  29  46  67  91 120 155 192 226 266
#     4   8  14  25  41  62  90 125 162 197 234 274
#     4   9  17  31  50  69  87 108 139 175 209 252
#
# _framework density 16.931705999999998
#
# number of rings (size 3 to 8) (size 9 to 14) (size 15 to 20)
#    0.000    3.125    0.000    2.625    0.000    5.500 
#    0.000    1.875    0.000    1.500    0.000    0.000 
#    0.000    0.500    0.000    1.125    0.000    2.000 
#
# Total GULP energy -792909.815339 kJ/mol
# GULP energy per Si atom -12389.215865 kJ/mol
# Density = 1.689317 g / cm^3
# Si number density = 16.931706 Si / 1000 Ang^3
#
#
#
# Elastic Constant Matrix: (Units=GPa)
#
#
# Indices 1 2 3 4 5 6 
#
# 1 65.7174 22.6068 37.2079 0.0000 0.0000 0.0000
# 2 22.6068 56.4330 34.0190 0.0000 0.0000 0.0000
# 3 37.2079 34.0190 125.2955 0.0000 0.0000 0.0000
# 4 0.0000 0.0000 0.0000 12.8481 0.0000 0.0000
# 5 0.0000 0.0000 0.0000 0.0000 23.7474 0.0000
# 6 0.0000 0.0000 0.0000 0.0000 0.0000 13.5926
#
#
#
# Elastic Compliance Matrix: (Units=1/GPa)
#
#
# Indices 1 2 3 4 5 6 
#
# 1 0.019472 -0.005159 -0.004382 0.000000 0.000000 0.000000
# 2 -0.005159 0.022555 -0.004592 0.000000 0.000000 0.000000
# 3 -0.004382 -0.004592 0.010529 0.000000 0.000000 0.000000
# 4 0.000000 0.000000 0.000000 0.077833 0.000000 0.000000
# 5 0.000000 0.000000 0.000000 0.000000 0.042110 0.000000
# 6 0.000000 0.000000 0.000000 0.000000 0.000000 0.073569
#
#
# Mechanical properties :
#
#
# Convention : Reuss Voigt Hill
#
# Bulk Modulus (GPa) = 41.16772 48.34593 44.75683
# Shear Modulus (GPa) = 17.70347 20.27843 18.99095
#
# Velocity S-wave (km/s) = 3.23705 3.46448 3.35269
# Velocity P-wave (km/s) = 6.19178 6.67974 6.44038
#
# Compressibility (1/GPa) = 0.02429087
#
# Stress axis : x y z
#
# Youngs Moduli (GPa) = 51.35508 44.33627 94.97512
#
# Poissons Ratio (x) = 0.22873 0.41616
# Poissons Ratio (y) = 0.26495 0.43611
# Poissons Ratio (z) = 0.22503 0.20358
#
# Static dielectric constant tensor:
#      x y z
#    x 3.273280 0.000000 0.000000 
#    y 0.000000 2.947760 0.000000 
#    z 0.000000 0.000000 3.315430 
# 
# 
# High freq. dielectric constant tensor:
#      x y z
#    x 1.644810 0.000000 0.000000 
#    y 0.000000 1.619400 0.000000 
#    z 0.000000 0.000000 1.637850 
# 
# From -- ./inp_files/37605.got.cif
#   From: 2010.03.12/outbox.cif.g09.slc.cpg/sg51_19_cif.got.tgz:37605.got - 2010.04.16 13:43:02.
