data_PCOD8208594
_publ_section_title
;
Structure prediction by ZEFSAII (Michael W. Deem and Ramdas Pophale) SiO2 
 PCOD8208594
Probable space group: P M M A
;
_chemical_formula_sum "Si O2"
_cell_formula_units_Z 56
_cell_length_a 9.093426
_cell_length_b 15.365782
_cell_length_c 20.308691
_cell_angle_alpha 90.000000
_cell_angle_beta 90.000000
_cell_angle_gamma 90.000000
_cell_volume 2837.684684
_symmetry_space_group_name_H-M "P M M A"
_symmetry_group_IT_number 51
_symmetry_cell_setting 'orthorhombic'
loop_
_space_group_symop_operation_xyz
x,y,z
1/2-x,-y,z
1/2+x,-y,-z
-x,y,-z
-x,-y,-z
1/2+x,y,-z
1/2-x,y,z
x,-y,z
loop_
_atom_site_type_symbol
_atom_site_label
_atom_site_fract_x
_atom_site_fract_y
_atom_site_fract_z
Si Si1 0.915317 0.673361 0.704473
Si Si2 0.080387 0.598101 0.820242
Si Si3 0.082746 0.095739 0.869829
Si Si4 0.425067 0.263482 0.435718
Si Si5 0.582704 0.869478 0.739726
Si Si6 0.080455 0.903344 0.610103
Si Si7 0.922343 0.726170 0.066691
O O1 0.750000 0.637674 0.702959
O O2 0.973073 0.681869 0.628999
O O3 0.925187 0.765785 0.740000
O O4 0.009391 0.607297 0.747938
O O5 0.250000 0.618955 0.809912
O O6 0.053202 0.500000 0.845591
O O7 0.015707 0.665307 0.874195
O O8 0.250000 0.112308 0.845264
O O9 0.038596 0.172545 0.919972
O O10 0.972757 0.095630 0.808971
O O11 0.069890 0.000000 0.903958
O O12 0.500000 0.307287 0.500000
O O13 0.250000 0.260601 0.442700
O O14 0.482935 0.164437 0.431076
O O15 0.750000 0.900837 0.727705
O O16 0.477737 0.908887 0.684466
O O17 0.250000 0.872377 0.610124
O O18 0.065983 0.000000 0.578927
O O19 0.750000 0.710857 0.057685
O O20 0.000000 0.696349 0.000000
#
# Coordination Sequence:
#
# PCOD8208594 Si02
#       7
#     8   8   8   8   8   8   8
#     4   9  19  35  56  83 113 144 182 227 277 333
#     4  10  21  38  62  90 115 143 183 227 279 342
#     4  10  20  34  53  77 107 148 194 234 279 334
#     4  10  21  36  54  79 109 146 190 233 281 340
#     4  10  19  31  50  77 108 142 185 235 286 335
#     4  10  20  32  47  70 103 145 191 238 288 338
#     4  10  22  39  57  81 115 152 188 233 280 332
#
# _framework density 19.734397999999999
#
# number of rings (size 3 to 8) (size 9 to 14) (size 15 to 20)
#    0.000    2.143    1.429    2.571    0.000    8.286 
#    0.000    0.000    0.000    0.429    0.000    0.000 
#    0.000    0.000    0.000    0.000    0.000    0.000 
#
# Total GULP energy -694274.663316 kJ/mol
# GULP energy per Si atom -12397.761845 kJ/mol
# Density = 1.968948 g / cm^3
# Si number density = 19.734398 Si / 1000 Ang^3
#
#
#
# Elastic Constant Matrix: (Units=GPa)
#
#
# Indices 1 2 3 4 5 6 
#
# 1 71.5127 28.6592 44.1418 0.0000 0.0000 0.0000
# 2 28.6592 78.6783 44.0218 0.0000 0.0000 0.0000
# 3 44.1418 44.0218 129.9046 0.0000 0.0000 0.0000
# 4 0.0000 0.0000 0.0000 9.6743 0.0000 0.0000
# 5 0.0000 0.0000 0.0000 0.0000 35.8613 0.0000
# 6 0.0000 0.0000 0.0000 0.0000 0.0000 20.7363
#
#
#
# Elastic Compliance Matrix: (Units=1/GPa)
#
#
# Indices 1 2 3 4 5 6 
#
# 1 0.018667 -0.004011 -0.004984 0.000000 0.000000 0.000000
# 2 -0.004011 0.016546 -0.004244 0.000000 0.000000 0.000000
# 3 -0.004984 -0.004244 0.010830 0.000000 0.000000 0.000000
# 4 0.000000 0.000000 0.000000 0.103366 0.000000 0.000000
# 5 0.000000 0.000000 0.000000 0.000000 0.027885 0.000000
# 6 0.000000 0.000000 0.000000 0.000000 0.000000 0.048225
#
#
# Mechanical properties :
#
#
# Convention : Reuss Voigt Hill
#
# Bulk Modulus (GPa) = 51.11258 57.08234 54.09746
# Shear Modulus (GPa) = 19.34100 24.13926 21.74013
#
# Velocity S-wave (km/s) = 3.13400 3.50123 3.32269
# Velocity P-wave (km/s) = 6.24919 6.73297 6.49559
#
# Compressibility (1/GPa) = 0.01956466
#
# Stress axis : x y z
#
# Youngs Moduli (GPa) = 53.56938 60.43892 92.33885
#
# Poissons Ratio (x) = 0.24243 0.46021
# Poissons Ratio (y) = 0.21488 0.39188
# Poissons Ratio (z) = 0.26699 0.25650
#
# Static dielectric constant tensor:
#      x y z
#    x 3.562570 0.000000 0.000000 
#    y 0.000000 3.487810 0.000000 
#    z 0.000000 0.000000 3.506750 
# 
# 
# High freq. dielectric constant tensor:
#      x y z
#    x 1.767390 0.000000 0.000000 
#    y 0.000000 1.752460 0.000000 
#    z 0.000000 0.000000 1.759480 
# 
# From -- ./inp_files/31878.got.cif
#   From: 2010.03.12/outbox.cif.g09.slc.cpg/sg51_16_cif.got.tgz:31878.got - 2010.04.16 13:43:02.
