data_PCOD8208950
_publ_section_title
;
Structure prediction by ZEFSAII (Michael W. Deem and Ramdas Pophale) SiO2 
 PCOD8208950
Probable space group: P M M A
;
_chemical_formula_sum "Si O2"
_cell_formula_units_Z 64
_cell_length_a 15.163653
_cell_length_b 9.516293
_cell_length_c 23.949233
_cell_angle_alpha 90.000000
_cell_angle_beta 90.000000
_cell_angle_gamma 90.000000
_cell_volume 3455.916590
_symmetry_space_group_name_H-M "P M M A"
_symmetry_group_IT_number 51
_symmetry_cell_setting 'orthorhombic'
loop_
_space_group_symop_operation_xyz
x,y,z
1/2-x,-y,z
1/2+x,-y,-z
-x,y,-z
-x,-y,-z
1/2+x,y,-z
1/2-x,y,z
x,-y,z
loop_
_atom_site_type_symbol
_atom_site_label
_atom_site_fract_x
_atom_site_fract_y
_atom_site_fract_z
Si Si1 0.348060 0.341478 0.214897
Si Si2 0.152793 0.658246 0.776891
Si Si3 0.147335 0.841396 0.998301
Si Si4 0.095225 0.159873 0.115926
Si Si5 0.995802 0.166567 0.585894
Si Si6 0.004395 0.665779 0.300555
Si Si7 0.148803 0.834393 0.503340
Si Si8 0.394058 0.159861 0.878391
O O1 0.250000 0.335189 0.240390
O O2 0.374760 0.500000 0.198049
O O3 0.348156 0.249347 0.159019
O O4 0.414003 0.285764 0.262160
O O5 0.250000 0.662782 0.749691
O O6 0.126180 0.500000 0.794582
O O7 0.156445 0.751725 0.832230
O O8 0.084804 0.713410 0.730696
O O9 0.250000 0.833131 0.009290
O O10 0.122443 0.768773 0.939377
O O11 0.111651 0.000000 0.992998
O O12 0.101498 0.774119 0.053197
O O13 0.995964 0.164496 0.137181
O O14 0.131875 0.000000 0.114948
O O15 0.989344 0.248571 0.643105
O O16 0.908152 0.210678 0.550981
O O17 0.088039 0.212104 0.556024
O O18 0.995838 0.000000 0.596172
O O19 0.006207 0.500000 0.313631
O O20 0.250000 0.769969 0.504281
O O21 0.158435 0.000000 0.503987
O O22 0.357304 0.000000 0.877561
#
# Coordination Sequence:
#
# PCOD8208950 Si02
#       8
#     8   8   8   8   8   8   8   8
#     4  10  21  37  55  73  98 137 179 216 261 315
#     4  10  21  37  55  73  98 137 179 216 261 315
#     4   9  17  29  46  71 102 131 160 203 263 322
#     4  10  19  32  52  76 101 130 167 212 263 319
#     4   9  18  32  54  82 107 137 179 214 244 297
#     4  10  21  37  53  73 107 142 172 214 265 306
#     4   8  15  31  54  80 112 144 170 206 256 298
#     4  10  19  32  52  76 101 130 167 212 263 319
#
# _framework density 18.518965000000001
#
# number of rings (size 3 to 8) (size 9 to 14) (size 15 to 20)
#    0.000    2.500    1.250    1.875    0.000    5.000 
#    0.000    1.875    0.000    4.500    0.000    0.000 
#    0.000    0.000    0.000    0.000    0.000    0.000 
#
# Total GULP energy -793229.499009 kJ/mol
# GULP energy per Si atom -12394.210922 kJ/mol
# Density = 1.847682 g / cm^3
# Si number density = 18.518965 Si / 1000 Ang^3
#
#
#
# Elastic Constant Matrix: (Units=GPa)
#
#
# Indices 1 2 3 4 5 6 
#
# 1 112.2496 20.2806 41.7267 0.0000 0.0000 0.0000
# 2 20.2806 43.6239 45.6554 0.0000 0.0000 0.0000
# 3 41.7267 45.6554 134.6849 0.0000 0.0000 0.0000
# 4 0.0000 0.0000 0.0000 -27.0938 0.0000 0.0000
# 5 0.0000 0.0000 0.0000 0.0000 14.6468 0.0000
# 6 0.0000 0.0000 0.0000 0.0000 0.0000 16.3621
#
#
#
# Elastic Compliance Matrix: (Units=1/GPa)
#
#
# Indices 1 2 3 4 5 6 
#
# 1 0.010206 -0.002225 -0.002408 0.000000 0.000000 0.000000
# 2 -0.002225 0.036012 -0.011518 0.000000 0.000000 0.000000
# 3 -0.002408 -0.011518 0.012075 0.000000 0.000000 0.000000
# 4 0.000000 0.000000 0.000000 -0.036909 0.000000 0.000000
# 5 0.000000 0.000000 0.000000 0.000000 0.068274 0.000000
# 6 0.000000 0.000000 0.000000 0.000000 0.000000 0.061117
#
#
# Mechanical properties :
#
#
# Convention : Reuss Voigt Hill
#
# Bulk Modulus (GPa) = 38.47392 56.20931 47.34161
# Shear Modulus (GPa) = 26.07698 12.97606 19.52652
#
# Velocity S-wave (km/s) = 3.75657 2.64993 3.25069
# Velocity P-wave (km/s) = 6.29573 6.30722 6.30148
#
# Compressibility (1/GPa) = 0.02599163
#
# Stress axis : x y z
#
# Youngs Moduli (GPa) = 97.98458 27.76864 82.81561
#
# Poissons Ratio (x) = 0.06178 0.19939
# Poissons Ratio (y) = 0.21800 0.95387
# Poissons Ratio (z) = 0.23591 0.31984
#
# Static dielectric constant tensor:
#      x y z
#    x 3.691020 0.000000 0.000000 
#    y 0.000000 3.093390 0.000000 
#    z 0.000000 0.000000 3.311530 
# 
# 
# High freq. dielectric constant tensor:
#      x y z
#    x 1.735670 0.000000 0.000000 
#    y 0.000000 1.677210 0.000000 
#    z 0.000000 0.000000 1.713860 
# 
# From -- ./inp_files/35836.got.cif
#   From: 2010.03.12/outbox.cif.g09.slc.cpg/sg51_18_cif.got.tgz:35836.got - 2010.04.16 13:43:02.
