data_PCOD8208140
_publ_section_title
;
Structure prediction by ZEFSAII (Michael W. Deem and Ramdas Pophale) SiO2 
 PCOD8208140
Probable space group: P M M A
;
_chemical_formula_sum "Si O2"
_cell_formula_units_Z 64
_cell_length_a 24.166656
_cell_length_b 9.109704
_cell_length_c 16.212326
_cell_angle_alpha 90.000000
_cell_angle_beta 90.000000
_cell_angle_gamma 90.000000
_cell_volume 3569.161124
_symmetry_space_group_name_H-M "P M M A"
_symmetry_group_IT_number 51
_symmetry_cell_setting 'orthorhombic'
loop_
_space_group_symop_operation_xyz
x,y,z
1/2-x,-y,z
1/2+x,-y,-z
-x,y,-z
-x,-y,-z
1/2+x,y,-z
1/2-x,y,z
x,-y,z
loop_
_atom_site_type_symbol
_atom_site_label
_atom_site_fract_x
_atom_site_fract_y
_atom_site_fract_z
Si Si1 0.312782 0.672940 0.488384
Si Si2 0.386545 0.831607 0.618156
Si Si3 0.968487 0.669517 0.273118
Si Si4 0.186910 0.165453 0.775935
Si Si5 0.915945 0.671754 0.798955
Si Si6 0.560654 0.827202 0.969740
Si Si7 0.310927 0.674092 0.301099
Si Si8 0.893690 0.328752 0.120747
O O1 0.250000 0.713683 0.517194
O O2 0.322082 0.500000 0.497296
O O3 0.360862 0.753279 0.538824
O O4 0.320869 0.726758 0.394472
O O5 0.444186 0.759608 0.649297
O O6 0.341825 0.811773 0.688969
O O7 0.398710 0.000000 0.596318
O O8 0.954454 0.500000 0.289288
O O9 0.941051 0.719155 0.186162
O O10 0.034046 0.698223 0.265810
O O11 0.250000 0.201459 0.760458
O O12 0.165161 0.282784 0.841796
O O13 0.177041 0.000000 0.808921
O O14 0.911872 0.500000 0.821311
O O15 0.926852 0.761100 0.881163
O O16 0.859514 0.733852 0.758111
O O17 0.569052 0.000000 0.965353
O O18 0.500000 0.782107 0.000000
O O19 0.602135 0.758957 0.035872
O O20 0.250000 0.728503 0.270437
O O21 0.312527 0.500000 0.300118
O O22 0.895730 0.500000 0.101191
#
# Coordination Sequence:
#
# PCOD8208140 Si02
#       8
#     8   8   8   8   8   8   8   8
#     4   9  17  31  52  76 102 133 172 216 257 301
#     4  10  19  30  48  74 104 137 174 212 254 303
#     4   9  18  31  48  73 103 134 168 209 259 306
#     4   9  18  32  48  68 100 138 171 206 252 306
#     4  10  19  34  57  80 103 132 170 217 263 308
#     4  11  22  34  52  77 104 133 169 209 255 311
#     4   8  16  33  57  82 104 130 168 214 262 307
#     4  10  19  32  50  73 101 130 168 215 253 297
#
# _framework density 17.931384000000001
#
# number of rings (size 3 to 8) (size 9 to 14) (size 15 to 20)
#    0.000    2.500    1.250    2.250    0.000    3.000 
#    0.000    1.875    0.000    7.125    0.000    0.000 
#    0.000    0.000    0.000    0.000    0.000    0.000 
#
# Total GULP energy -793475.720014 kJ/mol
# GULP energy per Si atom -12398.058125 kJ/mol
# Density = 1.789057 g / cm^3
# Si number density = 17.931384 Si / 1000 Ang^3
#
#
#
# Elastic Constant Matrix: (Units=GPa)
#
#
# Indices 1 2 3 4 5 6 
#
# 1 112.4453 38.9742 56.2977 0.0000 0.0000 0.0000
# 2 38.9742 59.0031 44.4637 0.0000 0.0000 0.0000
# 3 56.2977 44.4637 93.7060 0.0000 0.0000 0.0000
# 4 0.0000 0.0000 0.0000 16.9182 0.0000 0.0000
# 5 0.0000 0.0000 0.0000 0.0000 27.6119 0.0000
# 6 0.0000 0.0000 0.0000 0.0000 0.0000 18.0831
#
#
#
# Elastic Compliance Matrix: (Units=1/GPa)
#
#
# Indices 1 2 3 4 5 6 
#
# 1 0.013395 -0.004333 -0.005992 0.000000 0.000000 0.000000
# 2 -0.004333 0.027783 -0.010580 0.000000 0.000000 0.000000
# 3 -0.005992 -0.010580 0.019292 0.000000 0.000000 0.000000
# 4 0.000000 0.000000 0.000000 0.059108 0.000000 0.000000
# 5 0.000000 0.000000 0.000000 0.000000 0.036216 0.000000
# 6 0.000000 0.000000 0.000000 0.000000 0.000000 0.055300
#
#
# Mechanical properties :
#
#
# Convention : Reuss Voigt Hill
#
# Bulk Modulus (GPa) = 53.58831 60.51397 57.05114
# Shear Modulus (GPa) = 19.29585 20.88390 20.08987
#
# Velocity S-wave (km/s) = 3.28395 3.41641 3.35083
# Velocity P-wave (km/s) = 6.65801 7.02732 6.84516
#
# Compressibility (1/GPa) = 0.01866079
#
# Stress axis : x y z
#
# Youngs Moduli (GPa) = 74.65634 35.99297 51.83587
#
# Poissons Ratio (x) = 0.15595 0.31058
# Poissons Ratio (y) = 0.32346 0.54843
# Poissons Ratio (z) = 0.44731 0.38081
#
# Static dielectric constant tensor:
#      x y z
#    x 3.499250 0.000000 0.000000 
#    y 0.000000 3.200260 0.000000 
#    z 0.000000 0.000000 3.212830 
# 
# 
# High freq. dielectric constant tensor:
#      x y z
#    x 1.690250 0.000000 0.000000 
#    y 0.000000 1.682650 0.000000 
#    z 0.000000 0.000000 1.682150 
# 
# From -- ./inp_files/26265.got.cif
#   From: 2010.03.12/outbox.cif.g09.slc.cpg/sg51_14_cif.got.tgz:26265.got - 2010.04.16 13:43:02.
