data_PCOD8208890
_publ_section_title
;
Structure prediction by ZEFSAII (Michael W. Deem and Ramdas Pophale) SiO2 
 PCOD8208890
Probable space group: P M M A
;
_chemical_formula_sum "Si O2"
_cell_formula_units_Z 44
_cell_length_a 8.762437
_cell_length_b 28.656171
_cell_length_c 8.998874
_cell_angle_alpha 90.000000
_cell_angle_beta 90.000000
_cell_angle_gamma 90.000000
_cell_volume 2259.598301
_symmetry_space_group_name_H-M "P M M A"
_symmetry_group_IT_number 51
_symmetry_cell_setting 'orthorhombic'
loop_
_space_group_symop_operation_xyz
x,y,z
1/2-x,-y,z
1/2+x,-y,-z
-x,y,-z
-x,-y,-z
1/2+x,y,-z
1/2-x,y,z
x,-y,z
loop_
_atom_site_type_symbol
_atom_site_label
_atom_site_fract_x
_atom_site_fract_y
_atom_site_fract_z
Si Si1 0.430496 0.175915 0.837846
Si Si2 0.570559 0.000000 0.839356
Si Si3 0.569175 0.642679 0.163663
Si Si4 0.429186 0.267330 0.660181
Si Si5 0.931234 0.909196 0.661281
Si Si6 0.428649 0.550544 0.161788
O O1 0.250000 0.169348 0.846927
O O2 0.477621 0.225428 0.768298
O O3 0.501047 0.136564 0.735050
O O4 0.500000 0.172012 0.000000
O O5 0.514656 0.045879 0.753605
O O6 0.750000 0.000000 0.856221
O O7 0.500000 0.000000 0.000000
O O8 0.750000 0.642171 0.150675
O O9 0.510475 0.684862 0.266315
O O10 0.510235 0.594470 0.242034
O O11 0.500000 0.648613 0.000000
O O12 0.500000 0.259467 0.500000
O O13 0.250000 0.269011 0.638731
O O14 0.750000 0.904920 0.652184
O O15 0.000000 0.915049 0.500000
O O16 0.250000 0.561007 0.148800
O O17 0.457096 0.500000 0.241999
O O18 0.500000 0.547533 0.000000
#
# Coordination Sequence:
#
# PCOD8208890 Si02
#       6
#     8   4   8   8   8   8
#     4  11  23  40  61  87 116 148 186 230 279 332
#     4  10  23  40  60  86 118 154 195 240 285 332
#     4  10  19  32  51  77 105 136 175 218 265 318
#     4  10  23  39  56  79 108 142 181 223 271 325
#     4  11  23  40  61  88 119 154 193 235 283 335
#     4   9  16  26  43  70 102 135 171 213 262 314
#
# _framework density 19.472487000000001
#
# number of rings (size 3 to 8) (size 9 to 14) (size 15 to 20)
#    0.000    1.818    0.000    5.182    0.000    8.364 
#    0.000    0.000    0.000    0.545    0.000    0.000 
#    0.000    0.000    0.000    0.000    0.000    0.000 
#
# Total GULP energy -545539.976232 kJ/mol
# GULP energy per Si atom -12398.635823 kJ/mol
# Density = 1.942817 g / cm^3
# Si number density = 19.472487 Si / 1000 Ang^3
#
#
#
# Elastic Constant Matrix: (Units=GPa)
#
#
# Indices 1 2 3 4 5 6 
#
# 1 77.9685 53.4661 38.0251 0.0000 0.0000 0.0000
# 2 53.4661 162.3484 53.3049 0.0000 0.0000 0.0000
# 3 38.0251 53.3049 114.4278 0.0000 0.0000 0.0000
# 4 0.0000 0.0000 0.0000 36.8202 0.0000 0.0000
# 5 0.0000 0.0000 0.0000 0.0000 33.1347 0.0000
# 6 0.0000 0.0000 0.0000 0.0000 0.0000 -201.5500
#
#
#
# Elastic Compliance Matrix: (Units=1/GPa)
#
#
# Indices 1 2 3 4 5 6 
#
# 1 0.017845 -0.004640 -0.003769 0.000000 0.000000 0.000000
# 2 -0.004640 0.008478 -0.002408 0.000000 0.000000 0.000000
# 3 -0.003769 -0.002408 0.011113 0.000000 0.000000 0.000000
# 4 0.000000 0.000000 0.000000 0.027159 0.000000 0.000000
# 5 0.000000 0.000000 0.000000 0.000000 0.030180 0.000000
# 6 0.000000 0.000000 0.000000 0.000000 0.000000 -0.004962
#
#
# Mechanical properties :
#
#
# Convention : Reuss Voigt Hill
#
# Bulk Modulus (GPa) = 63.27350 71.59299 67.43325
# Shear Modulus (GPa) = 42.83983 -12.32245 15.25869
#
# Velocity S-wave (km/s) = 4.69552 -2.51831 2.80233
# Velocity P-wave (km/s) = 7.87157 5.32825 6.72130
#
# Compressibility (1/GPa) = 0.01580440
#
# Stress axis : x y z
#
# Youngs Moduli (GPa) = 56.03738 117.95174 89.98370
#
# Poissons Ratio (x) = 0.54724 0.33913
# Poissons Ratio (y) = 0.25999 0.21665
# Poissons Ratio (z) = 0.21119 0.28399
#
# Static dielectric constant tensor:
#      x y z
#    x 3.624630 0.000000 0.000000 
#    y 0.000000 4.525100 0.000000 
#    z 0.000000 0.000000 3.347500 
# 
# 
# High freq. dielectric constant tensor:
#      x y z
#    x 1.766920 0.000000 0.000000 
#    y 0.000000 1.788490 0.000000 
#    z 0.000000 0.000000 1.737000 
# 
# From -- ./inp_files/5698.got.cif
#   From: 2010.03.12/outbox.cif.g09.slc.cpg/sg51_3_cif.got.tgz:5698.got - 2010.04.16 13:43:02.
