data_PCOD8208456
_publ_section_title
;
Structure prediction by ZEFSAII (Michael W. Deem and Ramdas Pophale) SiO2 
 PCOD8208456
Probable space group: P M M A
;
_chemical_formula_sum "Si O2"
_cell_formula_units_Z 48
_cell_length_a 18.404529
_cell_length_b 8.596879
_cell_length_c 16.405576
_cell_angle_alpha 90.000000
_cell_angle_beta 90.000000
_cell_angle_gamma 90.000000
_cell_volume 2595.714989
_symmetry_space_group_name_H-M "P M M A"
_symmetry_group_IT_number 51
_symmetry_cell_setting 'orthorhombic'
loop_
_space_group_symop_operation_xyz
x,y,z
1/2-x,-y,z
1/2+x,-y,-z
-x,y,-z
-x,-y,-z
1/2+x,y,-z
1/2-x,y,z
x,-y,z
loop_
_atom_site_type_symbol
_atom_site_label
_atom_site_fract_x
_atom_site_fract_y
_atom_site_fract_z
Si Si1 0.460481 0.818268 0.236279
Si Si2 0.831346 0.316185 0.484387
Si Si3 0.093280 0.316253 0.678551
Si Si4 0.965888 0.317402 0.084403
Si Si5 0.832347 0.818692 0.169867
Si Si6 0.168174 0.817207 0.347507
O O1 0.519448 0.776325 0.304804
O O2 0.476099 0.721642 0.154740
O O3 0.381699 0.769451 0.270871
O O4 0.464604 0.000000 0.215588
O O5 0.750000 0.248399 0.474679
O O6 0.829871 0.500000 0.483595
O O7 0.879143 0.256026 0.408980
O O8 0.864069 0.258635 0.570130
O O9 0.078590 0.500000 0.679710
O O10 0.152740 0.276506 0.747486
O O11 0.951125 0.500000 0.082503
O O12 0.888670 0.233298 0.099602
O O13 0.000000 0.257406 0.000000
O O14 0.750000 0.784355 0.140648
O O15 0.844187 0.000000 0.188035
O O16 0.250000 0.757227 0.329703
O O17 0.166300 0.000000 0.360639
#
# Coordination Sequence:
#
# PCOD8208456 Si02
#       6
#     8   8   8   8   8   8
#     4  10  20  34  53  75  99 128 164 206 252 302
#     4   9  18  31  47  69  97 132 172 209 246 288
#     4  10  19  31  49  73 103 136 169 206 248 296
#     4  10  21  37  57  79 103 132 165 202 248 302
#     4  10  20  33  52  79 107 135 168 204 246 297
#     4   9  19  35  52  70  95 130 170 210 251 293
#
# _framework density 18.492016
#
# number of rings (size 3 to 8) (size 9 to 14) (size 15 to 20)
#    0.000    2.333    0.000    4.500    0.000    6.667 
#    0.000    5.833    0.000    3.000    0.000    0.000 
#    0.000    0.000    0.000    0.000    0.000    0.000 
#
# Total GULP energy -595184.063208 kJ/mol
# GULP energy per Si atom -12399.667984 kJ/mol
# Density = 1.844993 g / cm^3
# Si number density = 18.492016 Si / 1000 Ang^3
#
#
#
# Elastic Constant Matrix: (Units=GPa)
#
#
# Indices 1 2 3 4 5 6 
#
# 1 107.9916 13.4228 64.5970 0.0000 0.0000 0.0000
# 2 13.4228 25.6937 8.3540 0.0000 0.0000 0.0000
# 3 64.5970 8.3540 102.9224 0.0000 0.0000 0.0000
# 4 0.0000 0.0000 0.0000 16.3628 0.0000 0.0000
# 5 0.0000 0.0000 0.0000 0.0000 25.7509 0.0000
# 6 0.0000 0.0000 0.0000 0.0000 0.0000 22.9568
#
#
#
# Elastic Compliance Matrix: (Units=1/GPa)
#
#
# Indices 1 2 3 4 5 6 
#
# 1 0.015438 -0.005048 -0.009280 0.000000 0.000000 0.000000
# 2 -0.005048 0.041626 -0.000210 0.000000 0.000000 0.000000
# 3 -0.009280 -0.000210 0.015557 0.000000 0.000000 0.000000
# 4 0.000000 0.000000 0.000000 0.061114 0.000000 0.000000
# 5 0.000000 0.000000 0.000000 0.000000 0.038834 0.000000
# 6 0.000000 0.000000 0.000000 0.000000 0.000000 0.043560
#
#
# Mechanical properties :
#
#
# Convention : Reuss Voigt Hill
#
# Bulk Modulus (GPa) = 22.96479 45.48392 34.22435
# Shear Modulus (GPa) = 19.25148 23.02970 21.14059
#
# Velocity S-wave (km/s) = 3.23006 3.53283 3.38483
# Velocity P-wave (km/s) = 5.13389 6.42582 5.81584
#
# Compressibility (1/GPa) = 0.04354493
#
# Stress axis : x y z
#
# Youngs Moduli (GPa) = 64.77417 24.02369 64.27822
#
# Poissons Ratio (x) = 0.12127 0.59649
# Poissons Ratio (y) = 0.32698 0.01352
# Poissons Ratio (z) = 0.60109 0.00505
#
# Static dielectric constant tensor:
#      x y z
#    x 3.567670 0.000000 0.000000 
#    y 0.000000 3.360790 0.000000 
#    z 0.000000 0.000000 3.383400 
# 
# 
# High freq. dielectric constant tensor:
#      x y z
#    x 1.714930 0.000000 0.000000 
#    y 0.000000 1.720900 0.000000 
#    z 0.000000 0.000000 1.705480 
# 
# From -- ./inp_files/30064.got.cif
#   From: 2010.03.12/outbox.cif.g09.slc.cpg/sg51_16_cif.got.tgz:30064.got - 2010.04.16 13:43:02.
