data_PCOD8208615
_publ_section_title
;
Structure prediction by ZEFSAII (Michael W. Deem and Ramdas Pophale) SiO2 
 PCOD8208615
Probable space group: P M M A
;
_chemical_formula_sum "Si O2"
_cell_formula_units_Z 48
_cell_length_a 17.485224
_cell_length_b 26.343521
_cell_length_c 5.138344
_cell_angle_alpha 90.000000
_cell_angle_beta 90.000000
_cell_angle_gamma 90.000000
_cell_volume 2366.836169
_symmetry_space_group_name_H-M "P M M A"
_symmetry_group_IT_number 51
_symmetry_cell_setting 'orthorhombic'
loop_
_space_group_symop_operation_xyz
x,y,z
1/2-x,-y,z
1/2+x,-y,-z
-x,y,-z
-x,-y,-z
1/2+x,y,-z
1/2-x,y,z
x,-y,z
loop_
_atom_site_type_symbol
_atom_site_label
_atom_site_fract_x
_atom_site_fract_y
_atom_site_fract_z
Si Si1 0.658663 0.057362 0.476969
Si Si2 0.588570 0.712097 0.513422
Si Si3 0.840349 0.884463 0.977074
Si Si4 0.911808 0.776415 0.013524
Si Si5 0.912246 0.559114 0.018231
Si Si6 0.660508 0.394906 0.516946
O O1 0.750000 0.057007 0.476355
O O2 0.625871 0.086490 0.727664
O O3 0.627142 0.000000 0.474377
O O4 0.625725 0.087482 0.229311
O O5 0.500000 0.695516 0.500000
O O6 0.608703 0.735590 0.792680
O O7 0.641088 0.663562 0.465959
O O8 0.608603 0.753009 0.292728
O O9 0.750000 0.888697 0.977308
O O10 0.861754 0.825856 0.970160
O O11 0.000000 0.792338 0.000000
O O12 0.903305 0.500000 0.956298
O O13 0.882560 0.570231 0.307521
O O14 0.864199 0.590277 0.807486
O O15 0.000000 0.576640 0.000000
O O16 0.750000 0.403868 0.484604
#
# Coordination Sequence:
#
# PCOD8208615 Si02
#       6
#     8   8   8   8   8   8
#     4   9  17  30  49  74 102 133 172 215 262 322
#     4  10  21  38  58  79 108 150 192 226 274 345
#     4  10  19  31  51  76 101 133 172 219 271 320
#     4  10  21  36  55  78 106 143 184 227 274 330
#     4  11  24  43  66  90 121 165 208 241 285 356
#     4  12  25  40  63  95 126 155 194 253 310 345
#
# _framework density 20.280237
#
# number of rings (size 3 to 8) (size 9 to 14) (size 15 to 20)
#    0.000    1.667    0.000    5.000    0.000    8.000 
#    0.000    0.000    0.000    3.000    0.000    0.000 
#    0.000    0.000    0.000    0.000    0.000    0.000 
#
# Total GULP energy -595479.677752 kJ/mol
# GULP energy per Si atom -12405.826620 kJ/mol
# Density = 2.023408 g / cm^3
# Si number density = 20.280237 Si / 1000 Ang^3
#
#
#
# Elastic Constant Matrix: (Units=GPa)
#
#
# Indices 1 2 3 4 5 6 
#
# 1 62.5193 28.1532 24.7041 0.0000 0.0000 0.0000
# 2 28.1532 89.8474 23.3152 0.0000 0.0000 0.0000
# 3 24.7041 23.3152 123.1468 0.0000 0.0000 0.0000
# 4 0.0000 0.0000 0.0000 31.4307 0.0000 0.0000
# 5 0.0000 0.0000 0.0000 0.0000 21.0598 0.0000
# 6 0.0000 0.0000 0.0000 0.0000 0.0000 -54.2327
#
#
#
# Elastic Compliance Matrix: (Units=1/GPa)
#
#
# Indices 1 2 3 4 5 6 
#
# 1 0.019565 -0.005376 -0.002907 0.000000 0.000000 0.000000
# 2 -0.005376 0.013182 -0.001417 0.000000 0.000000 0.000000
# 3 -0.002907 -0.001417 0.008972 0.000000 0.000000 0.000000
# 4 0.000000 0.000000 0.000000 0.031816 0.000000 0.000000
# 5 0.000000 0.000000 0.000000 0.000000 0.047484 0.000000
# 6 0.000000 0.000000 0.000000 0.000000 0.000000 -0.018439
#
#
# Mechanical properties :
#
#
# Convention : Reuss Voigt Hill
#
# Bulk Modulus (GPa) = 44.80667 47.53985 46.17326
# Shear Modulus (GPa) = 38.63391 12.94094 25.78742
#
# Velocity S-wave (km/s) = 4.36937 2.52882 3.56975
# Velocity P-wave (km/s) = 6.89905 5.65853 6.30935
#
# Compressibility (1/GPa) = 0.02231811
#
# Stress axis : x y z
#
# Youngs Moduli (GPa) = 51.11252 75.85897 111.45938
#
# Poissons Ratio (x) = 0.40783 0.32401
# Poissons Ratio (y) = 0.27479 0.15797
# Poissons Ratio (z) = 0.14858 0.10752
#
# Static dielectric constant tensor:
#      x y z
#    x 3.416320 0.000000 0.000000 
#    y 0.000000 3.620640 0.000000 
#    z 0.000000 0.000000 4.004410 
# 
# 
# High freq. dielectric constant tensor:
#      x y z
#    x 1.763940 0.000000 0.000000 
#    y 0.000000 1.803300 0.000000 
#    z 0.000000 0.000000 1.813530 
# 
# From -- ./inp_files/1449.got.cif
#   From: 2010.03.12/outbox.cif.g09.slc.cpg/sg51_1_cif.got.tgz:1449.got - 2010.04.16 13:43:02.
