data_PCOD8208085
_publ_section_title
;
Structure prediction by ZEFSAII (Michael W. Deem and Ramdas Pophale) SiO2 
 PCOD8208085
Probable space group: P M M A
;
_chemical_formula_sum "Si O2"
_cell_formula_units_Z 64
_cell_length_a 8.808112
_cell_length_b 18.762999
_cell_length_c 23.527800
_cell_angle_alpha 90.000000
_cell_angle_beta 90.000000
_cell_angle_gamma 90.000000
_cell_volume 3888.359433
_symmetry_space_group_name_H-M "P M M A"
_symmetry_group_IT_number 51
_symmetry_cell_setting 'orthorhombic'
loop_
_space_group_symop_operation_xyz
x,y,z
1/2-x,-y,z
1/2+x,-y,-z
-x,y,-z
-x,-y,-z
1/2+x,y,-z
1/2-x,y,z
x,-y,z
loop_
_atom_site_type_symbol
_atom_site_label
_atom_site_fract_x
_atom_site_fract_y
_atom_site_fract_z
Si Si1 0.574545 0.705539 0.839459
Si Si2 0.425826 0.080717 0.111841
Si Si3 0.928941 0.581282 0.559176
Si Si4 0.073527 0.212866 0.276797
Si Si5 0.925708 0.919538 0.233874
Si Si6 0.427236 0.581744 0.778303
Si Si7 0.929144 0.212625 0.058485
Si Si8 0.071884 0.660155 0.663542
O O1 0.750000 0.704464 0.856656
O O2 0.543547 0.755882 0.785724
O O3 0.520776 0.625673 0.825084
O O4 0.477688 0.734443 0.891627
O O5 0.250000 0.102841 0.113834
O O6 0.490448 0.090188 0.174473
O O7 0.512668 0.132328 0.068934
O O8 0.448218 0.000000 0.090073
O O9 0.750000 0.588878 0.555113
O O10 0.978266 0.500000 0.572292
O O11 0.000000 0.607028 0.500000
O O12 0.990375 0.632132 0.607843
O O13 0.250000 0.209402 0.291979
O O14 0.001127 0.133923 0.279306
O O15 0.989657 0.260930 0.323481
O O16 0.750000 0.900281 0.224998
O O17 0.946031 0.000000 0.256906
O O18 0.250000 0.593525 0.789832
O O19 0.475764 0.500000 0.784296
O O20 0.470265 0.607490 0.715168
O O21 0.750000 0.211679 0.053296
O O22 0.000000 0.241376 0.000000
O O23 0.250000 0.663493 0.652605
#
# Coordination Sequence:
#
# PCOD8208085 Si02
#       8
#     8   8   8   8   8   8   8   8
#     4  10  20  34  51  72  97 123 156 195 240 292
#     4  10  20  34  51  71  96 125 158 196 237 284
#     4  10  20  33  49  70 100 139 180 216 251 293
#     4  10  19  31  49  71  99 131 164 204 247 292
#     4  10  19  30  47  71  98 130 165 199 241 294
#     4   9  18  32  51  75 101 129 160 196 241 291
#     4  12  24  37  54  71  93 122 157 198 240 290
#     4  10  19  31  49  73 103 135 170 210 249 289
#
# _framework density 16.459382999999999
#
# number of rings (size 3 to 8) (size 9 to 14) (size 15 to 20)
#    0.000    1.875    1.250    3.750    0.000    4.750 
#    0.000    0.000    0.000    0.375    0.000    0.000 
#    0.000    0.500    0.000    1.875    0.000    2.875 
#
# Total GULP energy -793846.705953 kJ/mol
# GULP energy per Si atom -12403.854781 kJ/mol
# Density = 1.642192 g / cm^3
# Si number density = 16.459383 Si / 1000 Ang^3
#
#
#
# Elastic Constant Matrix: (Units=GPa)
#
#
# Indices 1 2 3 4 5 6 
#
# 1 98.7904 41.8147 40.3969 0.0000 0.0000 0.0000
# 2 41.8147 96.3968 42.7001 0.0000 0.0000 0.0000
# 3 40.3969 42.7001 78.2280 0.0000 0.0000 0.0000
# 4 0.0000 0.0000 0.0000 23.0769 0.0000 0.0000
# 5 0.0000 0.0000 0.0000 0.0000 27.9308 0.0000
# 6 0.0000 0.0000 0.0000 0.0000 0.0000 29.8333
#
#
#
# Elastic Compliance Matrix: (Units=1/GPa)
#
#
# Indices 1 2 3 4 5 6 
#
# 1 0.013777 -0.003726 -0.005081 0.000000 0.000000 0.000000
# 2 -0.003726 0.014689 -0.006094 0.000000 0.000000 0.000000
# 3 -0.005081 -0.006094 0.018733 0.000000 0.000000 0.000000
# 4 0.000000 0.000000 0.000000 0.043333 0.000000 0.000000
# 5 0.000000 0.000000 0.000000 0.000000 0.035803 0.000000
# 6 0.000000 0.000000 0.000000 0.000000 0.000000 0.033520
#
#
# Mechanical properties :
#
#
# Convention : Reuss Voigt Hill
#
# Bulk Modulus (GPa) = 57.47619 58.13762 57.80690
# Shear Modulus (GPa) = 25.58120 26.06843 25.82482
#
# Velocity S-wave (km/s) = 3.94661 3.98402 3.96536
# Velocity P-wave (km/s) = 7.46750 7.52076 7.49417
#
# Compressibility (1/GPa) = 0.01739851
#
# Stress axis : x y z
#
# Youngs Moduli (GPa) = 72.58489 68.07669 53.38066
#
# Poissons Ratio (x) = 0.25362 0.27122
# Poissons Ratio (y) = 0.27042 0.32531
# Poissons Ratio (z) = 0.36880 0.41487
#
# Static dielectric constant tensor:
#      x y z
#    x 3.219930 0.000000 0.000000 
#    y 0.000000 3.213600 0.000000 
#    z 0.000000 0.000000 2.837340 
# 
# 
# High freq. dielectric constant tensor:
#      x y z
#    x 1.653280 0.000000 0.000000 
#    y 0.000000 1.630890 0.000000 
#    z 0.000000 0.000000 1.600360 
# 
# From -- ./inp_files/32317.got.cif
#   From: 2010.03.12/outbox.cif.g09.slc.cpg/sg51_17_cif.got.tgz:32317.got - 2010.04.16 13:43:02.
