data_PCOD8208390
_publ_section_title
;
Structure prediction by ZEFSAII (Michael W. Deem and Ramdas Pophale) SiO2 
 PCOD8208390
Probable space group: P M M A
;
_chemical_formula_sum "Si O2"
_cell_formula_units_Z 40
_cell_length_a 8.833961
_cell_length_b 25.072165
_cell_length_c 10.093998
_cell_angle_alpha 90.000000
_cell_angle_beta 90.000000
_cell_angle_gamma 90.000000
_cell_volume 2235.684569
_symmetry_space_group_name_H-M "P M M A"
_symmetry_group_IT_number 51
_symmetry_cell_setting 'orthorhombic'
loop_
_space_group_symop_operation_xyz
x,y,z
1/2-x,-y,z
1/2+x,-y,-z
-x,y,-z
-x,-y,-z
1/2+x,y,-z
1/2-x,y,z
x,-y,z
loop_
_atom_site_type_symbol
_atom_site_label
_atom_site_fract_x
_atom_site_fract_y
_atom_site_fract_z
Si Si1 0.571452 0.867685 0.137058
Si Si2 0.072733 0.442234 0.356650
Si Si3 0.429425 0.337081 0.644969
Si Si4 0.572404 0.253887 0.136379
Si Si5 0.574423 0.061940 0.638297
O O1 0.750000 0.874214 0.128555
O O2 0.522793 0.806762 0.166035
O O3 0.508077 0.904490 0.250971
O O4 0.500000 0.887545 0.000000
O O5 0.250000 0.429910 0.369333
O O6 0.046472 0.500000 0.284469
O O7 0.000000 0.446038 0.500000
O O8 0.990375 0.392134 0.286603
O O9 0.500000 0.327754 0.500000
O O10 0.250000 0.339520 0.631607
O O11 0.483529 0.289401 0.740353
O O12 0.750000 0.258837 0.118111
O O13 0.500000 0.274785 0.000000
O O14 0.500000 0.077905 0.500000
O O15 0.750000 0.076983 0.633227
O O16 0.548956 0.000000 0.670263
#
# Coordination Sequence:
#
# PCOD8208390 Si02
#       5
#     8   8   8   8   8
#     4  10  20  36  56  78 104 134 172 213 253 300
#     4   9  16  26  42  66  95 126 160 199 244 291
#     4  10  19  31  48  73 101 128 163 203 245 294
#     4   9  20  36  53  74 100 132 168 206 249 297
#     4  10  21  37  56  79 107 138 171 208 253 302
#
# _framework density 17.891613
#
# number of rings (size 3 to 8) (size 9 to 14) (size 15 to 20)
#    0.000    2.400    0.000    3.600    0.000    6.000 
#    0.000    2.000    0.000    0.600    0.000    0.000 
#    0.000    0.000    0.000    0.000    0.000    0.000 
#
# Total GULP energy -495849.613622 kJ/mol
# GULP energy per Si atom -12396.240341 kJ/mol
# Density = 1.785089 g / cm^3
# Si number density = 17.891613 Si / 1000 Ang^3
#
#
#
# Elastic Constant Matrix: (Units=GPa)
#
#
# Indices 1 2 3 4 5 6 
#
# 1 90.4723 50.1946 53.2526 0.0000 0.0000 0.0000
# 2 50.1946 100.4382 79.0797 0.0000 0.0000 0.0000
# 3 53.2526 79.0797 115.8034 0.0000 0.0000 0.0000
# 4 0.0000 0.0000 0.0000 -30.2888 0.0000 0.0000
# 5 0.0000 0.0000 0.0000 0.0000 31.0393 0.0000
# 6 0.0000 0.0000 0.0000 0.0000 0.0000 25.6737
#
#
#
# Elastic Compliance Matrix: (Units=1/GPa)
#
#
# Indices 1 2 3 4 5 6 
#
# 1 0.016164 -0.004814 -0.004146 0.000000 0.000000 0.000000
# 2 -0.004814 0.022969 -0.013471 0.000000 0.000000 0.000000
# 3 -0.004146 -0.013471 0.019741 0.000000 0.000000 0.000000
# 4 0.000000 0.000000 0.000000 -0.033015 0.000000 0.000000
# 5 0.000000 0.000000 0.000000 0.000000 0.032217 0.000000
# 6 0.000000 0.000000 0.000000 0.000000 0.000000 0.038950
#
#
# Mechanical properties :
#
#
# Convention : Reuss Voigt Hill
#
# Bulk Modulus (GPa) = 71.36730 74.64085 73.00407
# Shear Modulus (GPa) = 34.11621 13.56397 23.84009
#
# Velocity S-wave (km/s) = 4.37146 2.75638 3.65427
# Velocity P-wave (km/s) = 8.09042 7.20688 7.66139
#
# Compressibility (1/GPa) = 0.01401202
#
# Stress axis : x y z
#
# Youngs Moduli (GPa) = 61.86519 43.53783 50.65641
#
# Poissons Ratio (x) = 0.20959 0.21001
# Poissons Ratio (y) = 0.29782 0.68239
# Poissons Ratio (z) = 0.25648 0.58650
#
# Static dielectric constant tensor:
#      x y z
#    x 3.424950 0.000000 0.000000 
#    y 0.000000 3.883930 0.000000 
#    z 0.000000 0.000000 3.159700 
# 
# 
# High freq. dielectric constant tensor:
#      x y z
#    x 1.707490 0.000000 0.000000 
#    y 0.000000 1.704450 0.000000 
#    z 0.000000 0.000000 1.665220 
# 
# From -- ./inp_files/5259.got.cif
#   From: 2010.03.12/outbox.cif.g09.slc.cpg/sg51_3_cif.got.tgz:5259.got - 2010.04.16 13:43:02.
