data_PCOD8208403
_publ_section_title
;
Structure prediction by ZEFSAII (Michael W. Deem and Ramdas Pophale) SiO2 
 PCOD8208403
Probable space group: P M M A
;
_chemical_formula_sum "Si O2"
_cell_formula_units_Z 56
_cell_length_a 9.519448
_cell_length_b 22.979417
_cell_length_c 14.775011
_cell_angle_alpha 90.000000
_cell_angle_beta 90.000000
_cell_angle_gamma 90.000000
_cell_volume 3232.053827
_symmetry_space_group_name_H-M "P M M A"
_symmetry_group_IT_number 51
_symmetry_cell_setting 'orthorhombic'
loop_
_space_group_symop_operation_xyz
x,y,z
1/2-x,-y,z
1/2+x,-y,-z
-x,y,-z
-x,-y,-z
1/2+x,y,-z
1/2-x,y,z
x,-y,z
loop_
_atom_site_type_symbol
_atom_site_label
_atom_site_fract_x
_atom_site_fract_y
_atom_site_fract_z
Si Si1 0.412362 0.384804 0.278227
Si Si2 0.092090 0.931015 0.918451
Si Si3 0.088045 0.432974 0.086748
Si Si4 0.904318 0.433546 0.422365
Si Si5 0.088594 0.067052 0.252134
Si Si6 0.912029 0.150775 0.586055
Si Si7 0.588280 0.717266 0.588062
O O1 0.250000 0.402424 0.294829
O O2 0.446511 0.389978 0.171249
O O3 0.514580 0.430278 0.327405
O O4 0.446011 0.321709 0.322764
O O5 0.250000 0.904912 0.919898
O O6 0.014016 0.912867 0.827236
O O7 0.099739 0.000000 0.928215
O O8 0.000000 0.904453 0.000000
O O9 0.250000 0.427549 0.059558
O O10 0.051126 0.500000 0.112417
O O11 0.000000 0.411828 0.000000
O O12 0.750000 0.403301 0.418149
O O13 0.881490 0.500000 0.448603
O O14 0.000000 0.402839 0.500000
O O15 0.250000 0.077091 0.221983
O O16 0.045288 0.107052 0.335227
O O17 0.064099 0.000000 0.279060
O O18 0.750000 0.144549 0.560158
O O19 0.948615 0.216645 0.615977
O O20 0.000000 0.131202 0.500000
O O21 0.500000 0.698079 0.500000
O O22 0.750000 0.710684 0.560464
#
# Coordination Sequence:
#
# PCOD8208403 Si02
#       7
#     8   8   8   8   8   8   8
#     4  10  19  31  49  70  91 118 153 191 229 270
#     4   9  16  26  42  65  92 120 149 183 224 271
#     4   9  18  32  49  69  93 120 150 186 227 270
#     4  10  20  31  43  63  93 125 152 181 221 268
#     4   9  17  29  45  66  92 122 156 193 235 284
#     4   9  18  32  48  66  91 123 156 192 233 276
#     4   9  18  32  49  69  92 120 154 190 230 276
#
# _framework density 17.326443999999999
#
# number of rings (size 3 to 8) (size 9 to 14) (size 15 to 20)
#    0.000    2.714    0.000    1.714    0.000    6.286 
#    0.000    1.429    0.000    0.857    0.000    2.000 
#    0.000    0.000    0.000    0.000    0.000    0.000 
#
# Total GULP energy -694160.684038 kJ/mol
# GULP energy per Si atom -12395.726501 kJ/mol
# Density = 1.728701 g / cm^3
# Si number density = 17.326444 Si / 1000 Ang^3
#
#
#
# Elastic Constant Matrix: (Units=GPa)
#
#
# Indices 1 2 3 4 5 6 
#
# 1 110.9635 36.4860 85.1802 0.0000 0.0000 0.0000
# 2 36.4860 63.8584 57.5340 0.0000 0.0000 0.0000
# 3 85.1802 57.5340 156.2089 0.0000 0.0000 0.0000
# 4 0.0000 0.0000 0.0000 14.3660 0.0000 0.0000
# 5 0.0000 0.0000 0.0000 0.0000 35.3101 0.0000
# 6 0.0000 0.0000 0.0000 0.0000 0.0000 13.7376
#
#
#
# Elastic Compliance Matrix: (Units=1/GPa)
#
#
# Indices 1 2 3 4 5 6 
#
# 1 0.015649 -0.001875 -0.007843 0.000000 0.000000 0.000000
# 2 -0.001875 0.023662 -0.007692 0.000000 0.000000 0.000000
# 3 -0.007843 -0.007692 0.013511 0.000000 0.000000 0.000000
# 4 0.000000 0.000000 0.000000 0.069609 0.000000 0.000000
# 5 0.000000 0.000000 0.000000 0.000000 0.028321 0.000000
# 6 0.000000 0.000000 0.000000 0.000000 0.000000 0.072793
#
#
# Mechanical properties :
#
#
# Convention : Reuss Voigt Hill
#
# Bulk Modulus (GPa) = 55.55081 76.60346 66.07714
# Shear Modulus (GPa) = 18.91325 22.80478 20.85902
#
# Velocity S-wave (km/s) = 3.30750 3.63186 3.47347
# Velocity P-wave (km/s) = 6.83498 7.86734 7.36926
#
# Compressibility (1/GPa) = 0.01800154
#
# Stress axis : x y z
#
# Youngs Moduli (GPa) = 63.90231 42.26265 74.01129
#
# Poissons Ratio (x) = 0.07925 0.58044
# Poissons Ratio (y) = 0.11983 0.56932
# Poissons Ratio (z) = 0.50116 0.32510
#
# Static dielectric constant tensor:
#      x y z
#    x 3.444580 0.000000 0.000000 
#    y 0.000000 3.035330 0.000000 
#    z 0.000000 0.000000 3.181700 
# 
# 
# High freq. dielectric constant tensor:
#      x y z
#    x 1.678700 0.000000 0.000000 
#    y 0.000000 1.638030 0.000000 
#    z 0.000000 0.000000 1.660710 
# 
# From -- ./inp_files/21841.got.cif
#   From: 2010.03.12/outbox.cif.g09.slc.cpg/sg51_11_cif.got.tgz:21841.got - 2010.04.16 13:43:02.
