data_PCOD8208094
_publ_section_title
;
Structure prediction by ZEFSAII (Michael W. Deem and Ramdas Pophale) SiO2 
 PCOD8208094
Probable space group: P M M A
;
_chemical_formula_sum "Si O2"
_cell_formula_units_Z 56
_cell_length_a 8.980346
_cell_length_b 18.890624
_cell_length_c 18.594309
_cell_angle_alpha 90.000000
_cell_angle_beta 90.000000
_cell_angle_gamma 90.000000
_cell_volume 3154.419272
_symmetry_space_group_name_H-M "P M M A"
_symmetry_group_IT_number 51
_symmetry_cell_setting 'orthorhombic'
loop_
_space_group_symop_operation_xyz
x,y,z
1/2-x,-y,z
1/2+x,-y,-z
-x,y,-z
-x,-y,-z
1/2+x,y,-z
1/2-x,y,z
x,-y,z
loop_
_atom_site_type_symbol
_atom_site_label
_atom_site_fract_x
_atom_site_fract_y
_atom_site_fract_z
Si Si1 0.920879 0.784207 0.784810
Si Si2 0.575938 0.709431 0.342406
Si Si3 0.575980 0.293996 0.927523
Si Si4 0.077339 0.580532 0.850309
Si Si5 0.922817 0.420853 0.697718
Si Si6 0.575143 0.152729 0.425115
Si Si7 0.921219 0.079222 0.703509
O O1 0.750000 0.765442 0.765564
O O2 0.955258 0.766005 0.867452
O O3 0.953900 0.867223 0.769664
O O4 0.027306 0.736641 0.735929
O O5 0.750000 0.694568 0.342149
O O6 0.490151 0.635731 0.359026
O O7 0.531330 0.767245 0.402272
O O8 0.750000 0.305756 0.940338
O O9 0.504972 0.369214 0.906680
O O10 0.500000 0.265642 0.000000
O O11 0.250000 0.601418 0.845164
O O12 0.056711 0.500000 0.877146
O O13 0.005768 0.590462 0.772530
O O14 0.750000 0.405748 0.710528
O O15 0.949479 0.500000 0.667405
O O16 0.500000 0.133660 0.500000
O O17 0.750000 0.143944 0.433177
O O18 0.520218 0.097836 0.365368
O O19 0.750000 0.084971 0.679234
O O20 0.960936 0.000000 0.729712
#
# Coordination Sequence:
#
# PCOD8208094 Si02
#       7
#     8   8   8   8   8   8   8
#     4   9  18  33  52  74  99 129 168 209 251 301
#     4  10  19  31  51  75  99 130 170 213 255 296
#     4  11  22  34  50  71  98 134 173 214 260 309
#     4  10  20  33  49  70  98 131 168 212 259 306
#     4  10  19  30  47  72 100 131 168 210 256 304
#     4  10  21  35  52  78 109 141 172 204 245 296
#     4   9  18  34  57  82 106 134 167 205 249 297
#
# _framework density 17.752872
#
# number of rings (size 3 to 8) (size 9 to 14) (size 15 to 20)
#    0.000    2.143    1.429    2.143    0.000    4.857 
#    0.000    0.000    0.000    0.857    0.000    0.000 
#    0.000    0.000    0.000    0.000    0.000    0.143 
#
# Total GULP energy -694407.458273 kJ/mol
# GULP energy per Si atom -12400.133183 kJ/mol
# Density = 1.771247 g / cm^3
# Si number density = 17.752872 Si / 1000 Ang^3
#
#
#
# Elastic Constant Matrix: (Units=GPa)
#
#
# Indices 1 2 3 4 5 6 
#
# 1 87.6618 45.7344 31.7407 0.0000 0.0000 0.0000
# 2 45.7344 126.7227 38.7869 0.0000 0.0000 0.0000
# 3 31.7407 38.7869 64.9777 0.0000 0.0000 0.0000
# 4 0.0000 0.0000 0.0000 17.4815 0.0000 0.0000
# 5 0.0000 0.0000 0.0000 0.0000 25.0128 0.0000
# 6 0.0000 0.0000 0.0000 0.0000 0.0000 25.0867
#
#
#
# Elastic Compliance Matrix: (Units=1/GPa)
#
#
# Indices 1 2 3 4 5 6 
#
# 1 0.015331 -0.003965 -0.005122 0.000000 0.000000 0.000000
# 2 -0.003965 0.010681 -0.004439 0.000000 0.000000 0.000000
# 3 -0.005122 -0.004439 0.020542 0.000000 0.000000 0.000000
# 4 0.000000 0.000000 0.000000 0.057203 0.000000 0.000000
# 5 0.000000 0.000000 0.000000 0.000000 0.039979 0.000000
# 6 0.000000 0.000000 0.000000 0.000000 0.000000 0.039862
#
#
# Mechanical properties :
#
#
# Convention : Reuss Voigt Hill
#
# Bulk Modulus (GPa) = 51.27845 56.87624 54.07734
# Shear Modulus (GPa) = 23.02557 24.38955 23.70756
#
# Velocity S-wave (km/s) = 3.60530 3.71055 3.65831
# Velocity P-wave (km/s) = 6.80281 7.10387 6.95497
#
# Compressibility (1/GPa) = 0.01950137
#
# Stress axis : x y z
#
# Youngs Moduli (GPa) = 65.22857 93.62520 48.68189
#
# Poissons Ratio (x) = 0.37124 0.24935
# Poissons Ratio (y) = 0.25864 0.21609
# Poissons Ratio (z) = 0.33410 0.41558
#
# Static dielectric constant tensor:
#      x y z
#    x 3.403410 0.000000 0.000000 
#    y 0.000000 3.533820 0.000000 
#    z 0.000000 0.000000 3.038500 
# 
# 
# High freq. dielectric constant tensor:
#      x y z
#    x 1.700160 0.000000 0.000000 
#    y 0.000000 1.689010 0.000000 
#    z 0.000000 0.000000 1.652170 
# 
# From -- ./inp_files/28205.got.cif
#   From: 2010.03.12/outbox.cif.g09.slc.cpg/sg51_15_cif.got.tgz:28205.got - 2010.04.16 13:43:02.
