data_PCOD8208060
_publ_section_title
;
Structure prediction by ZEFSAII (Michael W. Deem and Ramdas Pophale) SiO2 
 PCOD8208060
Probable space group: P M M A
;
_chemical_formula_sum "Si O2"
_cell_formula_units_Z 64
_cell_length_a 22.506503
_cell_length_b 9.442697
_cell_length_c 17.726016
_cell_angle_alpha 90.000000
_cell_angle_beta 90.000000
_cell_angle_gamma 90.000000
_cell_volume 3767.169939
_symmetry_space_group_name_H-M "P M M A"
_symmetry_group_IT_number 51
_symmetry_cell_setting 'orthorhombic'
loop_
_space_group_symop_operation_xyz
x,y,z
1/2-x,-y,z
1/2+x,-y,-z
-x,y,-z
-x,-y,-z
1/2+x,y,-z
1/2-x,y,z
x,-y,z
loop_
_atom_site_type_symbol
_atom_site_label
_atom_site_fract_x
_atom_site_fract_y
_atom_site_fract_z
Si Si1 0.081994 0.166817 0.329663
Si Si2 0.045973 0.167977 0.169059
Si Si3 0.569726 0.154471 0.988531
Si Si4 0.816927 0.336611 0.247073
Si Si5 0.412266 0.830352 0.849140
Si Si6 0.683036 0.835680 0.558158
Si Si7 0.149943 0.338947 0.587667
Si Si8 0.512464 0.338201 0.415850
O O1 0.086099 0.209671 0.241318
O O2 0.139810 0.220719 0.375336
O O3 0.023070 0.239283 0.359877
O O4 0.073688 0.000000 0.338465
O O5 0.077133 0.234340 0.092957
O O6 0.977578 0.219056 0.179684
O O7 0.043888 0.000000 0.157083
O O8 0.599945 0.000000 0.983025
O O9 0.500000 0.136173 0.000000
O O10 0.596622 0.227234 0.064070
O O11 0.750000 0.312249 0.216873
O O12 0.836512 0.500000 0.237614
O O13 0.861781 0.238667 0.201578
O O14 0.817180 0.295366 0.335519
O O15 0.406058 0.000000 0.845350
O O16 0.750000 0.808158 0.586122
O O17 0.671987 0.757747 0.479974
O O18 0.671052 0.000000 0.542734
O O19 0.164536 0.500000 0.564585
O O20 0.080766 0.318516 0.603599
O O21 0.500000 0.284755 0.500000
O O22 0.491078 0.500000 0.406240
#
# Coordination Sequence:
#
# PCOD8208060 Si02
#       8
#     8   8   8   8   8   8   8   8
#     4  10  19  30  47  69  93 123 155 187 227 278
#     4   8  14  26  46  73  98 119 147 183 230 281
#     4   7  11  22  43  70  96 118 140 172 216 267
#     4  10  21  34  46  63  90 125 160 190 225 272
#     4   9  16  28  49  73  94 118 150 188 227 269
#     4  10  21  34  46  63  88 118 154 195 232 262
#     4  10  20  35  52  67  87 119 157 192 229 279
#     4  10  19  31  47  69  95 118 145 189 241 282
#
# _framework density 16.988880999999999
#
# number of rings (size 3 to 8) (size 9 to 14) (size 15 to 20)
#    0.000    2.750    1.250    2.625    0.000    2.250 
#    0.000    0.000    0.000    4.875    0.000    3.500 
#    0.000    0.000    0.000    0.000    0.000    0.000 
#
# Total GULP energy -793014.891097 kJ/mol
# GULP energy per Si atom -12390.857673 kJ/mol
# Density = 1.695021 g / cm^3
# Si number density = 16.988881 Si / 1000 Ang^3
#
#
#
# Elastic Constant Matrix: (Units=GPa)
#
#
# Indices 1 2 3 4 5 6 
#
# 1 71.4114 24.1862 51.3676 0.0000 0.0000 0.0000
# 2 24.1862 29.2923 35.8600 0.0000 0.0000 0.0000
# 3 51.3676 35.8600 130.3817 0.0000 0.0000 0.0000
# 4 0.0000 0.0000 0.0000 6.2182 0.0000 0.0000
# 5 0.0000 0.0000 0.0000 0.0000 14.6872 0.0000
# 6 0.0000 0.0000 0.0000 0.0000 0.0000 16.5872
#
#
#
# Elastic Compliance Matrix: (Units=1/GPa)
#
#
# Indices 1 2 3 4 5 6 
#
# 1 0.021755 -0.011262 -0.005473 0.000000 0.000000 0.000000
# 2 -0.011262 0.057298 -0.011322 0.000000 0.000000 0.000000
# 3 -0.005473 -0.011322 0.012940 0.000000 0.000000 0.000000
# 4 0.000000 0.000000 0.000000 0.160819 0.000000 0.000000
# 5 0.000000 0.000000 0.000000 0.000000 0.068087 0.000000
# 6 0.000000 0.000000 0.000000 0.000000 0.000000 0.060288
#
#
# Mechanical properties :
#
#
# Convention : Reuss Voigt Hill
#
# Bulk Modulus (GPa) = 27.87216 50.43476 39.15346
# Shear Modulus (GPa) = 11.12939 15.47662 13.30301
#
# Velocity S-wave (km/s) = 2.56227 3.02153 2.80132
# Velocity P-wave (km/s) = 5.01950 6.47489 5.79308
#
# Compressibility (1/GPa) = 0.03587809
#
# Stress axis : x y z
#
# Youngs Moduli (GPa) = 45.96685 17.45251 77.27809
#
# Poissons Ratio (x) = 0.19655 0.42298
# Poissons Ratio (y) = 0.51767 0.87497
# Poissons Ratio (z) = 0.25160 0.19760
#
# Static dielectric constant tensor:
#      x y z
#    x 3.084130 0.000000 0.000000 
#    y 0.000000 2.901590 0.000000 
#    z 0.000000 0.000000 3.595900 
# 
# 
# High freq. dielectric constant tensor:
#      x y z
#    x 1.635810 0.000000 0.000000 
#    y 0.000000 1.621900 0.000000 
#    z 0.000000 0.000000 1.667680 
# 
# From -- ./inp_files/30930.got.cif
#   From: 2010.03.12/outbox.cif.g09.slc.cpg/sg51_16_cif.got.tgz:30930.got - 2010.04.16 13:43:02.
