data_PCOD8208288
_publ_section_title
;
Structure prediction by ZEFSAII (Michael W. Deem and Ramdas Pophale) SiO2 
 PCOD8208288
Probable space group: P M M A
;
_chemical_formula_sum "Si O2"
_cell_formula_units_Z 64
_cell_length_a 30.180834
_cell_length_b 9.067768
_cell_length_c 14.277368
_cell_angle_alpha 90.000000
_cell_angle_beta 90.000000
_cell_angle_gamma 90.000000
_cell_volume 3907.327288
_symmetry_space_group_name_H-M "P M M A"
_symmetry_group_IT_number 51
_symmetry_cell_setting 'orthorhombic'
loop_
_space_group_symop_operation_xyz
x,y,z
1/2-x,-y,z
1/2+x,-y,-z
-x,y,-z
-x,-y,-z
1/2+x,y,-z
1/2-x,y,z
x,-y,z
loop_
_atom_site_type_symbol
_atom_site_label
_atom_site_fract_x
_atom_site_fract_y
_atom_site_fract_z
Si Si1 0.298368 0.324829 0.850019
Si Si2 0.956608 0.825989 0.943099
Si Si3 0.889209 0.673579 0.069224
Si Si4 0.120780 0.832198 0.568371
Si Si5 0.973754 0.169502 0.731478
Si Si6 0.545762 0.674535 0.547778
Si Si7 0.926210 0.164287 0.239841
Si Si8 0.800510 0.330364 0.361872
O O1 0.250000 0.268867 0.886976
O O2 0.298258 0.500000 0.846273
O O3 0.338181 0.270380 0.917837
O O4 0.305913 0.267970 0.744095
O O5 0.960260 0.778144 0.835229
O O6 0.952503 0.000000 0.954334
O O7 0.911627 0.752433 0.980953
O O8 0.000000 0.769836 0.000000
O O9 0.891369 0.500000 0.053566
O O10 0.916347 0.713960 0.162230
O O11 0.087349 0.739196 0.506495
O O12 0.108159 0.821975 0.676863
O O13 0.169826 0.762295 0.564886
O O14 0.121459 0.000000 0.531919
O O15 0.949990 0.270106 0.654478
O O16 0.025791 0.193343 0.717330
O O17 0.960145 0.000000 0.714910
O O18 0.500000 0.729885 0.500000
O O19 0.548769 0.500000 0.545750
O O20 0.924753 0.000000 0.193867
O O21 0.750000 0.313143 0.395170
O O22 0.815794 0.500000 0.365742
#
# Coordination Sequence:
#
# PCOD8208288 Si02
#       8
#     8   8   8   8   8   8   8   8
#     4   8  15  28  45  67  97 131 162 194 240 294
#     4  10  20  35  51  68  96 134 168 197 241 298
#     4  11  20  29  48  74  98 128 167 209 243 284
#     4  11  21  32  50  73 100 134 170 207 243 293
#     4  10  20  36  53  67  93 134 173 205 240 290
#     4  11  23  35  50  73 101 130 164 208 253 297
#     4  10  19  31  47  68  98 134 168 201 240 291
#     4   9  17  31  50  71 100 134 165 202 248 297
#
# _framework density 16.379481999999999
#
# number of rings (size 3 to 8) (size 9 to 14) (size 15 to 20)
#    0.000    2.000    3.750    1.875    0.000    2.500 
#    0.000    0.000    0.000    1.500    0.000    0.875 
#    0.000    3.000    0.000    0.000    0.000    0.000 
#
# Total GULP energy -793472.194168 kJ/mol
# GULP energy per Si atom -12398.003034 kJ/mol
# Density = 1.634220 g / cm^3
# Si number density = 16.379482 Si / 1000 Ang^3
#
#
#
# Elastic Constant Matrix: (Units=GPa)
#
#
# Indices 1 2 3 4 5 6 
#
# 1 110.5248 38.4902 44.7485 0.0000 0.0000 0.0000
# 2 38.4902 52.4183 35.1832 0.0000 0.0000 0.0000
# 3 44.7485 35.1832 76.8792 0.0000 0.0000 0.0000
# 4 0.0000 0.0000 0.0000 24.6024 0.0000 0.0000
# 5 0.0000 0.0000 0.0000 0.0000 24.9481 0.0000
# 6 0.0000 0.0000 0.0000 0.0000 0.0000 22.1255
#
#
#
# Elastic Compliance Matrix: (Units=1/GPa)
#
#
# Indices 1 2 3 4 5 6 
#
# 1 0.013237 -0.006565 -0.004700 0.000000 0.000000 0.000000
# 2 -0.006565 0.030791 -0.010270 0.000000 0.000000 0.000000
# 3 -0.004700 -0.010270 0.020443 0.000000 0.000000 0.000000
# 4 0.000000 0.000000 0.000000 0.040646 0.000000 0.000000
# 5 0.000000 0.000000 0.000000 0.000000 0.040083 0.000000
# 6 0.000000 0.000000 0.000000 0.000000 0.000000 0.045197
#
#
# Mechanical properties :
#
#
# Convention : Reuss Voigt Hill
#
# Bulk Modulus (GPa) = 46.72747 52.96289 49.84518
# Shear Modulus (GPa) = 20.78117 22.42857 21.60487
#
# Velocity S-wave (km/s) = 3.56579 3.70443 3.63577
# Velocity P-wave (km/s) = 6.74856 7.12055 6.93705
#
# Compressibility (1/GPa) = 0.02140069
#
# Stress axis : x y z
#
# Youngs Moduli (GPa) = 75.54566 32.47680 48.91546
#
# Poissons Ratio (x) = 0.21321 0.22992
# Poissons Ratio (y) = 0.49595 0.50237
# Poissons Ratio (z) = 0.35510 0.33354
#
# Static dielectric constant tensor:
#      x y z
#    x 3.254990 0.000000 0.000000 
#    y 0.000000 3.004800 0.000000 
#    z 0.000000 0.000000 2.894780 
# 
# 
# High freq. dielectric constant tensor:
#      x y z
#    x 1.627120 0.000000 0.000000 
#    y 0.000000 1.623880 0.000000 
#    z 0.000000 0.000000 1.601390 
# 
# From -- ./inp_files/26599.got.cif
#   From: 2010.03.12/outbox.cif.g09.slc.cpg/sg51_14_cif.got.tgz:26599.got - 2010.04.16 13:43:02.
