data_PCOD8208731
_publ_section_title
;
Structure prediction by ZEFSAII (Michael W. Deem and Ramdas Pophale) SiO2 
 PCOD8208731
Probable space group: P M M A
;
_chemical_formula_sum "Si O2"
_cell_formula_units_Z 64
_cell_length_a 8.647581
_cell_length_b 19.752486
_cell_length_c 19.876392
_cell_angle_alpha 90.000000
_cell_angle_beta 90.000000
_cell_angle_gamma 90.000000
_cell_volume 3395.110819
_symmetry_space_group_name_H-M "P M M A"
_symmetry_group_IT_number 51
_symmetry_cell_setting 'orthorhombic'
loop_
_space_group_symop_operation_xyz
x,y,z
1/2-x,-y,z
1/2+x,-y,-z
-x,y,-z
-x,-y,-z
1/2+x,y,-z
1/2-x,y,z
x,-y,z
loop_
_atom_site_type_symbol
_atom_site_label
_atom_site_fract_x
_atom_site_fract_y
_atom_site_fract_z
Si Si1 0.070863 0.574546 0.190778
Si Si2 0.921398 0.424685 0.332503
Si Si3 0.071050 0.197962 0.568150
Si Si4 0.427903 0.659139 0.437414
Si Si5 0.432720 0.286679 0.832850
Si Si6 0.571511 0.076863 0.811773
Si Si7 0.432045 0.815603 0.718016
Si Si8 0.570275 0.178027 0.927959
O O1 0.250000 0.582732 0.209950
O O2 0.046734 0.500000 0.154676
O O3 0.962797 0.574944 0.255188
O O4 0.015288 0.641175 0.150762
O O5 0.750000 0.392491 0.341119
O O6 0.922468 0.500000 0.362177
O O7 0.053081 0.382306 0.369490
O O8 0.250000 0.179598 0.566972
O O9 0.998225 0.178804 0.641800
O O10 0.000000 0.162654 0.500000
O O11 0.041783 0.277229 0.563608
O O12 0.500000 0.615829 0.500000
O O13 0.250000 0.679955 0.446737
O O14 0.250000 0.297549 0.831456
O O15 0.490140 0.249735 0.762721
O O16 0.477849 0.240032 0.895385
O O17 0.750000 0.080845 0.790700
O O18 0.474905 0.115149 0.754849
O O19 0.544736 0.110510 0.884259
O O20 0.512031 0.000000 0.815735
O O21 0.250000 0.808844 0.712235
O O22 0.750000 0.197510 0.933060
O O23 0.500000 0.161729 0.000000
#
# Coordination Sequence:
#
# PCOD8208731 Si02
#       8
#     8   8   8   8   8   8   8   8
#     4  10  20  33  50  74 102 131 167 213 264 315
#     4  10  20  33  47  63  86 118 157 202 253 309
#     4  10  19  32  49  71  99 128 165 212 262 314
#     4  11  21  32  46  63  86 117 155 200 254 313
#     4  10  19  33  54  78 105 139 179 220 265 314
#     4   9  19  35  55  81 112 144 177 213 253 300
#     4   9  19  33  51  76 104 136 174 218 263 310
#     4  10  20  35  55  81 114 147 180 215 253 301
#
# _framework density 18.850636999999999
#
# number of rings (size 3 to 8) (size 9 to 14) (size 15 to 20)
#    0.000    2.125    0.000    4.500    0.000    5.250 
#    0.000    0.000    0.000    0.750    0.000    0.000 
#    0.000    0.000    0.000    0.000    0.000    0.000 
#
# Total GULP energy -792962.629217 kJ/mol
# GULP energy per Si atom -12390.041082 kJ/mol
# Density = 1.880773 g / cm^3
# Si number density = 18.850637 Si / 1000 Ang^3
#
#
#
# Elastic Constant Matrix: (Units=GPa)
#
#
# Indices 1 2 3 4 5 6 
#
# 1 60.4837 23.3719 22.7139 0.0000 0.0000 0.0000
# 2 23.3719 105.4653 29.4819 0.0000 0.0000 0.0000
# 3 22.7139 29.4819 101.1428 0.0000 0.0000 0.0000
# 4 0.0000 0.0000 0.0000 16.6141 0.0000 0.0000
# 5 0.0000 0.0000 0.0000 0.0000 29.9458 0.0000
# 6 0.0000 0.0000 0.0000 0.0000 0.0000 25.3957
#
#
#
# Elastic Compliance Matrix: (Units=1/GPa)
#
#
# Indices 1 2 3 4 5 6 
#
# 1 0.019053 -0.003295 -0.003318 0.000000 0.000000 0.000000
# 2 -0.003295 0.010893 -0.002435 0.000000 0.000000 0.000000
# 3 -0.003318 -0.002435 0.011342 0.000000 0.000000 0.000000
# 4 0.000000 0.000000 0.000000 0.060190 0.000000 0.000000
# 5 0.000000 0.000000 0.000000 0.000000 0.033394 0.000000
# 6 0.000000 0.000000 0.000000 0.000000 0.000000 0.039377
#
#
# Mechanical properties :
#
#
# Convention : Reuss Voigt Hill
#
# Bulk Modulus (GPa) = 43.12013 46.46968 44.79490
# Shear Modulus (GPa) = 24.99073 27.15939 26.07506
#
# Velocity S-wave (km/s) = 3.64500 3.79986 3.72324
# Velocity P-wave (km/s) = 6.37487 6.63001 6.50369
#
# Compressibility (1/GPa) = 0.02319103
#
# Stress axis : x y z
#
# Youngs Moduli (GPa) = 52.48618 91.80518 88.16747
#
# Poissons Ratio (x) = 0.30246 0.29257
# Poissons Ratio (y) = 0.17292 0.21470
# Poissons Ratio (z) = 0.17417 0.22356
#
# Static dielectric constant tensor:
#      x y z
#    x 3.429950 0.000000 0.000000 
#    y 0.000000 3.476860 0.000000 
#    z 0.000000 0.000000 3.639650 
# 
# 
# High freq. dielectric constant tensor:
#      x y z
#    x 1.737420 0.000000 0.000000 
#    y 0.000000 1.711940 0.000000 
#    z 0.000000 0.000000 1.720570 
# 
# From -- ./inp_files/32338.got.cif
#   From: 2010.03.12/outbox.cif.g09.slc.cpg/sg51_17_cif.got.tgz:32338.got - 2010.04.16 13:43:02.
