data_PCOD8208703
_publ_section_title
;
Structure prediction by ZEFSAII (Michael W. Deem and Ramdas Pophale) SiO2 
 PCOD8208703
Probable space group: P M M A
;
_chemical_formula_sum "Si O2"
_cell_formula_units_Z 52
_cell_length_a 8.985139
_cell_length_b 13.938356
_cell_length_c 23.554898
_cell_angle_alpha 90.000000
_cell_angle_beta 90.000000
_cell_angle_gamma 90.000000
_cell_volume 2949.969873
_symmetry_space_group_name_H-M "P M M A"
_symmetry_group_IT_number 51
_symmetry_cell_setting 'orthorhombic'
loop_
_space_group_symop_operation_xyz
x,y,z
1/2-x,-y,z
1/2+x,-y,-z
-x,y,-z
-x,-y,-z
1/2+x,y,-z
1/2-x,y,z
x,-y,z
loop_
_atom_site_type_symbol
_atom_site_label
_atom_site_fract_x
_atom_site_fract_y
_atom_site_fract_z
Si Si1 0.081898 0.000000 0.442383
Si Si2 0.574751 0.608605 0.060576
Si Si3 0.076442 0.793067 0.438996
Si Si4 0.078062 0.750741 0.670591
Si Si5 0.081459 0.260885 0.150681
Si Si6 0.925982 0.888241 0.229243
Si Si7 0.915317 0.391018 0.742647
O O1 0.044722 0.100086 0.411891
O O2 0.000000 0.000000 0.500000
O O3 0.250000 0.000000 0.461648
O O4 0.750000 0.624695 0.054929
O O5 0.541313 0.500000 0.083720
O O6 0.510347 0.694486 0.098891
O O7 0.500000 0.621082 0.000000
O O8 0.250000 0.770480 0.446684
O O9 0.000000 0.775820 0.500000
O O10 0.006657 0.731745 0.388815
O O11 0.250000 0.760905 0.656124
O O12 0.024805 0.840086 0.710461
O O13 0.043577 0.653849 0.704052
O O14 0.250000 0.234651 0.131825
O O15 0.083256 0.344445 0.196224
O O16 0.005665 0.164717 0.176474
O O17 0.750000 0.875970 0.221108
O O18 0.973449 0.000000 0.230303
O O19 0.750000 0.378361 0.715323
O O20 0.959659 0.500000 0.750919
#
# Coordination Sequence:
#
# PCOD8208703 Si02
#       7
#     4   8   8   8   8   8   8
#     4   8  16  28  42  62  86 116 152 188 227 274
#     4  10  20  33  51  77 109 143 176 211 253 301
#     4  10  19  32  48  68  95 127 162 201 245 297
#     4  10  20  32  49  74 100 129 164 204 250 298
#     4  10  19  32  52  78 106 136 171 211 254 302
#     4   9  19  35  52  72 101 137 174 212 252 296
#     4   9  18  33  52  73  99 131 165 204 249 296
#
# _framework density 17.627298
#
# number of rings (size 3 to 8) (size 9 to 14) (size 15 to 20)
#    0.000    2.462    0.000    2.308    1.077    4.000 
#    0.000    0.000    0.000    0.923    0.000    0.000 
#    0.000    0.000    0.000    0.000    0.000    0.000 
#
# Total GULP energy -644248.819373 kJ/mol
# GULP energy per Si atom -12389.400373 kJ/mol
# Density = 1.758718 g / cm^3
# Si number density = 17.627298 Si / 1000 Ang^3
#
#
#
# Elastic Constant Matrix: (Units=GPa)
#
#
# Indices 1 2 3 4 5 6 
#
# 1 82.7994 31.7763 46.4069 0.0000 0.0000 0.0000
# 2 31.7763 97.6984 35.5428 0.0000 0.0000 0.0000
# 3 46.4069 35.5428 85.7474 0.0000 0.0000 0.0000
# 4 0.0000 0.0000 0.0000 13.4198 0.0000 0.0000
# 5 0.0000 0.0000 0.0000 0.0000 31.7147 0.0000
# 6 0.0000 0.0000 0.0000 0.0000 0.0000 26.2998
#
#
#
# Elastic Compliance Matrix: (Units=1/GPa)
#
#
# Indices 1 2 3 4 5 6 
#
# 1 0.017925 -0.002709 -0.008578 0.000000 0.000000 0.000000
# 2 -0.002709 0.012463 -0.003700 0.000000 0.000000 0.000000
# 3 -0.008578 -0.003700 0.017838 0.000000 0.000000 0.000000
# 4 0.000000 0.000000 0.000000 0.074517 0.000000 0.000000
# 5 0.000000 0.000000 0.000000 0.000000 0.031531 0.000000
# 6 0.000000 0.000000 0.000000 0.000000 0.000000 0.038023
#
#
# Mechanical properties :
#
#
# Convention : Reuss Voigt Hill
#
# Bulk Modulus (GPa) = 54.78885 54.85526 54.82205
# Shear Modulus (GPa) = 21.89578 24.45481 23.17530
#
# Velocity S-wave (km/s) = 3.52824 3.72872 3.62987
# Velocity P-wave (km/s) = 6.90994 7.05159 6.98112
#
# Compressibility (1/GPa) = 0.01825189
#
# Stress axis : x y z
#
# Youngs Moduli (GPa) = 55.78824 80.23939 56.05979
#
# Poissons Ratio (x) = 0.21740 0.48088
# Poissons Ratio (y) = 0.15115 0.20740
# Poissons Ratio (z) = 0.47855 0.29685
#
# Static dielectric constant tensor:
#      x y z
#    x 3.396830 0.000000 0.000000 
#    y 0.000000 3.250150 0.000000 
#    z 0.000000 0.000000 3.101740 
# 
# 
# High freq. dielectric constant tensor:
#      x y z
#    x 1.692930 0.000000 0.000000 
#    y 0.000000 1.665810 0.000000 
#    z 0.000000 0.000000 1.667570 
# 
# From -- ./inp_files/31677.got.cif
#   From: 2010.03.12/outbox.cif.g09.slc.cpg/sg51_16_cif.got.tgz:31677.got - 2010.04.16 13:43:02.
