data_PCOD8208838
_publ_section_title
;
Structure prediction by ZEFSAII (Michael W. Deem and Ramdas Pophale) SiO2 
 PCOD8208838
Probable space group: P M M A
;
_chemical_formula_sum "Si O2"
_cell_formula_units_Z 64
_cell_length_a 17.746546
_cell_length_b 8.934299
_cell_length_c 23.098163
_cell_angle_alpha 90.000000
_cell_angle_beta 90.000000
_cell_angle_gamma 90.000000
_cell_volume 3662.281841
_symmetry_space_group_name_H-M "P M M A"
_symmetry_group_IT_number 51
_symmetry_cell_setting 'orthorhombic'
loop_
_space_group_symop_operation_xyz
x,y,z
1/2-x,-y,z
1/2+x,-y,-z
-x,y,-z
-x,-y,-z
1/2+x,y,-z
1/2-x,y,z
x,-y,z
loop_
_atom_site_type_symbol
_atom_site_label
_atom_site_fract_x
_atom_site_fract_y
_atom_site_fract_z
Si Si1 0.960591 0.326498 0.868387
Si Si2 0.928248 0.332893 0.540590
Si Si3 0.336423 0.824654 0.552739
Si Si4 0.975852 0.176380 0.368487
Si Si5 0.035292 0.322286 0.753557
Si Si6 0.165409 0.168723 0.814335
Si Si7 0.665747 0.678641 0.949442
Si Si8 0.616777 0.674044 0.075013
O O1 0.945835 0.500000 0.859341
O O2 0.886499 0.253966 0.897965
O O3 0.979456 0.261145 0.804578
O O4 0.028744 0.299873 0.912942
O O5 0.905015 0.500000 0.560843
O O6 0.858064 0.259418 0.506696
O O7 0.000000 0.341406 0.500000
O O8 0.952270 0.231738 0.594878
O O9 0.250000 0.783457 0.570107
O O10 0.394892 0.776201 0.603532
O O11 0.344737 0.000000 0.540644
O O12 0.987370 0.250063 0.306512
O O13 0.980343 0.000000 0.362270
O O14 0.032980 0.500000 0.748172
O O15 0.119184 0.273007 0.770669
O O16 0.250000 0.169169 0.790611
O O17 0.165202 0.232390 0.879304
O O18 0.132603 0.000000 0.813937
O O19 0.750000 0.737506 0.938633
O O20 0.661860 0.500000 0.949104
O O21 0.636038 0.735703 0.011421
O O22 0.638680 0.500000 0.081649
#
# Coordination Sequence:
#
# PCOD8208838 Si02
#       8
#     8   8   8   8   8   8   8   8
#     4   8  15  27  42  62  90 121 151 189 236 281
#     4   9  17  30  49  73 100 129 162 198 232 269
#     4   9  18  32  50  74 104 133 157 186 232 288
#     4  10  19  32  51  73  98 130 166 201 238 283
#     4  10  20  33  49  67  89 122 163 203 238 275
#     4  10  20  32  45  63  91 124 154 188 233 285
#     4   9  15  23  41  69  93 113 144 188 237 288
#     4   9  16  27  45  67  90 116 148 186 230 284
#
# _framework density 17.475444
#
# number of rings (size 3 to 8) (size 9 to 14) (size 15 to 20)
#    0.000    2.750    0.000    3.000    0.000    5.750 
#    0.000    1.250    0.000    7.500    0.000    1.750 
#    0.000    0.000    0.000    0.000    0.000    0.000 
#
# Total GULP energy -793289.310002 kJ/mol
# GULP energy per Si atom -12395.145469 kJ/mol
# Density = 1.743567 g / cm^3
# Si number density = 17.475444 Si / 1000 Ang^3
#
#
#
# Elastic Constant Matrix: (Units=GPa)
#
#
# Indices 1 2 3 4 5 6 
#
# 1 61.2220 21.2256 42.9521 0.0000 0.0000 0.0000
# 2 21.2256 56.4582 37.6232 0.0000 0.0000 0.0000
# 3 42.9521 37.6232 118.6565 0.0000 0.0000 0.0000
# 4 0.0000 0.0000 0.0000 17.3564 0.0000 0.0000
# 5 0.0000 0.0000 0.0000 0.0000 15.4025 0.0000
# 6 0.0000 0.0000 0.0000 0.0000 0.0000 16.0222
#
#
#
# Elastic Compliance Matrix: (Units=1/GPa)
#
#
# Indices 1 2 3 4 5 6 
#
# 1 0.022535 -0.003850 -0.006937 0.000000 0.000000 0.000000
# 2 -0.003850 0.023115 -0.005936 0.000000 0.000000 0.000000
# 3 -0.006937 -0.005936 0.012821 0.000000 0.000000 0.000000
# 4 0.000000 0.000000 0.000000 0.057616 0.000000 0.000000
# 5 0.000000 0.000000 0.000000 0.000000 0.064924 0.000000
# 6 0.000000 0.000000 0.000000 0.000000 0.000000 0.062413
#
#
# Mechanical properties :
#
#
# Convention : Reuss Voigt Hill
#
# Bulk Modulus (GPa) = 39.95708 48.88206 44.41957
# Shear Modulus (GPa) = 17.53085 18.72528 18.12807
#
# Velocity S-wave (km/s) = 3.17072 3.27696 3.22428
# Velocity P-wave (km/s) = 6.02652 6.50773 6.27174
#
# Compressibility (1/GPa) = 0.02502685
#
# Stress axis : x y z
#
# Youngs Moduli (GPa) = 44.37454 43.26196 77.99794
#
# Poissons Ratio (x) = 0.16654 0.54107
# Poissons Ratio (y) = 0.17082 0.46298
# Poissons Ratio (z) = 0.30782 0.25679
#
# Static dielectric constant tensor:
#      x y z
#    x 3.290880 0.000000 0.000000 
#    y 0.000000 3.139930 0.000000 
#    z 0.000000 0.000000 3.350500 
# 
# 
# High freq. dielectric constant tensor:
#      x y z
#    x 1.659470 0.000000 0.000000 
#    y 0.000000 1.657220 0.000000 
#    z 0.000000 0.000000 1.667600 
# 
# From -- ./inp_files/35909.got.cif
#   From: 2010.03.12/outbox.cif.g09.slc.cpg/sg51_18_cif.got.tgz:35909.got - 2010.04.16 13:43:02.
