data_PCOD8208263
_publ_section_title
;
Structure prediction by ZEFSAII (Michael W. Deem and Ramdas Pophale) SiO2 
 PCOD8208263
Probable space group: P M M A
;
_chemical_formula_sum "Si O2"
_cell_formula_units_Z 64
_cell_length_a 20.210132
_cell_length_b 9.978248
_cell_length_c 19.881803
_cell_angle_alpha 90.000000
_cell_angle_beta 90.000000
_cell_angle_gamma 90.000000
_cell_volume 4009.398375
_symmetry_space_group_name_H-M "P M M A"
_symmetry_group_IT_number 51
_symmetry_cell_setting 'orthorhombic'
loop_
_space_group_symop_operation_xyz
x,y,z
1/2-x,-y,z
1/2+x,-y,-z
-x,y,-z
-x,-y,-z
1/2+x,y,-z
1/2-x,y,z
x,-y,z
loop_
_atom_site_type_symbol
_atom_site_label
_atom_site_fract_x
_atom_site_fract_y
_atom_site_fract_z
Si Si1 0.674553 0.347874 0.929405
Si Si2 0.567091 0.344830 0.038856
Si Si3 0.430442 0.350115 0.583784
Si Si4 0.115025 0.844655 0.175604
Si Si5 0.086787 0.649877 0.435236
Si Si6 0.462057 0.155447 0.843288
Si Si7 0.057038 0.851675 0.693125
Si Si8 0.099348 0.851628 0.325960
O O1 0.750000 0.333899 0.953354
O O2 0.658441 0.500000 0.906286
O O3 0.662798 0.249272 0.867204
O O4 0.628826 0.307963 0.991958
O O5 0.567842 0.500000 0.061364
O O6 0.574124 0.251313 0.103906
O O7 0.500000 0.309321 0.000000
O O8 0.406567 0.500000 0.601787
O O9 0.399304 0.304809 0.512208
O O10 0.509075 0.347614 0.578205
O O11 0.406189 0.251272 0.642987
O O12 0.129603 0.811601 0.253771
O O13 0.039649 0.810810 0.157086
O O14 0.130520 0.000000 0.160308
O O15 0.114164 0.500000 0.423402
O O16 0.123800 0.749004 0.383476
O O17 0.430042 0.187772 0.770609
O O18 0.450727 0.000000 0.862371
O O19 0.979245 0.851495 0.680239
O O20 0.085400 0.000000 0.678614
O O21 0.123630 0.000000 0.346660
#
# Coordination Sequence:
#
# PCOD8208263 Si02
#       8
#     8   8   8   8   8   8   8   8
#     4  10  21  35  48  64  88 114 140 176 221 263
#     4  10  19  31  47  67  86 108 143 180 213 260
#     4   8  13  20  29  43  67  99 134 169 204 241
#     4   9  17  29  44  62  84 109 140 178 215 255
#     4   8  13  20  29  44  67  97 134 171 203 240
#     4   9  17  28  43  63  85 109 139 178 220 256
#     4   8  14  23  33  49  73 100 132 167 205 248
#     4   8  14  23  34  50  72  98 131 170 206 240
#
# _framework density 15.962495000000001
#
# number of rings (size 3 to 8) (size 9 to 14) (size 15 to 20)
#    0.000    3.250    1.250    2.250    0.000    2.500 
#    0.000    5.000    0.000    0.000    0.000    0.000 
#    0.000    0.000    0.000    1.125    0.000   19.250 
#
# Total GULP energy -793257.294205 kJ/mol
# GULP energy per Si atom -12394.645222 kJ/mol
# Density = 1.592616 g / cm^3
# Si number density = 15.962495 Si / 1000 Ang^3
#
#
#
# Elastic Constant Matrix: (Units=GPa)
#
#
# Indices 1 2 3 4 5 6 
#
# 1 36.4695 24.7320 29.7556 0.0000 0.0000 0.0000
# 2 24.7320 102.3120 92.2111 0.0000 0.0000 0.0000
# 3 29.7556 92.2111 136.7307 0.0000 0.0000 0.0000
# 4 0.0000 0.0000 0.0000 39.5411 0.0000 0.0000
# 5 0.0000 0.0000 0.0000 0.0000 9.3013 0.0000
# 6 0.0000 0.0000 0.0000 0.0000 0.0000 10.9263
#
#
#
# Elastic Compliance Matrix: (Units=1/GPa)
#
#
# Indices 1 2 3 4 5 6 
#
# 1 0.033954 -0.003947 -0.004727 0.000000 0.000000 0.000000
# 2 -0.003947 0.025381 -0.016258 0.000000 0.000000 0.000000
# 3 -0.004727 -0.016258 0.019307 0.000000 0.000000 0.000000
# 4 0.000000 0.000000 0.000000 0.025290 0.000000 0.000000
# 5 0.000000 0.000000 0.000000 0.000000 0.107512 0.000000
# 6 0.000000 0.000000 0.000000 0.000000 0.000000 0.091522
#
#
# Mechanical properties :
#
#
# Convention : Reuss Voigt Hill
#
# Bulk Modulus (GPa) = 34.75000 63.21217 48.98108
# Shear Modulus (GPa) = 13.79605 20.54131 17.16868
#
# Velocity S-wave (km/s) = 2.94305 3.59116 3.28314
# Velocity P-wave (km/s) = 5.77631 7.54199 6.71742
#
# Compressibility (1/GPa) = 0.02877698
#
# Stress axis : x y z
#
# Youngs Moduli (GPa) = 29.45174 39.39942 51.79548
#
# Poissons Ratio (x) = 0.15552 0.24484
# Poissons Ratio (y) = 0.11626 0.84209
# Poissons Ratio (z) = 0.13922 0.64055
#
# Static dielectric constant tensor:
#      x y z
#    x 2.433310 0.000000 0.000000 
#    y 0.000000 3.264430 0.000000 
#    z 0.000000 0.000000 3.202230 
# 
# 
# High freq. dielectric constant tensor:
#      x y z
#    x 1.539940 0.000000 0.000000 
#    y 0.000000 1.621040 0.000000 
#    z 0.000000 0.000000 1.619080 
# 
# From -- ./inp_files/34140.got.cif
#   From: 2010.03.12/outbox.cif.g09.slc.cpg/sg51_18_cif.got.tgz:34140.got - 2010.04.16 13:43:02.
