data_PCOD8208186
_publ_section_title
;
Structure prediction by ZEFSAII (Michael W. Deem and Ramdas Pophale) SiO2 
 PCOD8208186
Probable space group: P M M A
;
_chemical_formula_sum "Si O2"
_cell_formula_units_Z 64
_cell_length_a 19.530162
_cell_length_b 18.590491
_cell_length_c 9.527554
_cell_angle_alpha 90.000000
_cell_angle_beta 90.000000
_cell_angle_gamma 90.000000
_cell_volume 3459.219535
_symmetry_space_group_name_H-M "P M M A"
_symmetry_group_IT_number 51
_symmetry_cell_setting 'orthorhombic'
loop_
_space_group_symop_operation_xyz
x,y,z
1/2-x,-y,z
1/2+x,-y,-z
-x,y,-z
-x,-y,-z
1/2+x,y,-z
1/2-x,y,z
x,-y,z
loop_
_atom_site_type_symbol
_atom_site_label
_atom_site_fract_x
_atom_site_fract_y
_atom_site_fract_z
Si Si1 0.919709 0.419982 0.147793
Si Si2 0.911294 0.292363 0.642527
Si Si3 0.173636 0.080338 0.609703
Si Si4 0.417620 0.420593 0.166667
Si Si5 0.928671 0.862873 0.179487
Si Si6 0.573584 0.083733 0.872371
Si Si7 0.330272 0.845185 0.325476
Si Si8 0.072831 0.713227 0.677378
O O1 0.894061 0.500000 0.194441
O O2 0.893519 0.356593 0.248688
O O3 0.001039 0.418358 0.158381
O O4 0.892114 0.403056 0.991115
O O5 0.886726 0.365692 0.718667
O O6 0.868964 0.228305 0.714185
O O7 0.894681 0.290146 0.477359
O O8 0.991306 0.285446 0.670107
O O9 0.250000 0.098942 0.664690
O O10 0.120720 0.083506 0.737141
O O11 0.152781 0.134465 0.485680
O O12 0.171959 0.000000 0.547097
O O13 0.392902 0.500000 0.212705
O O14 0.907798 0.783371 0.232481
O O15 0.007479 0.884488 0.210231
O O16 0.915004 0.871053 0.014371
O O17 0.640097 0.092990 0.775819
O O18 0.562085 0.000000 0.908173
O O19 0.250000 0.837575 0.298167
#
# Coordination Sequence:
#
# PCOD8208186 Si02
#       8
#     8   8   8   8   8   8   8   8
#     4   8  15  27  45  76 111 145 175 207 261 323
#     4  10  19  33  49  78 110 138 180 219 269 320
#     4  10  21  38  59  79 105 144 184 223 271 326
#     4   8  15  27  48  74 108 144 175 212 262 322
#     4  11  21  37  57  83 113 140 180 224 273 331
#     4  11  24  38  56  82 109 142 180 230 283 330
#     4  11  23  39  56  77 107 143 184 231 276 327
#     4  10  19  30  52  79 110 144 173 221 268 319
#
# _framework density 18.501283000000001
#
# number of rings (size 3 to 8) (size 9 to 14) (size 15 to 20)
#    0.000    2.125    2.500    2.625    1.750    3.250 
#    0.000    3.750    0.000    0.375    0.000    0.000 
#    0.000    0.500    0.000    0.000    0.000    0.000 
#
# Total GULP energy -793303.674693 kJ/mol
# GULP energy per Si atom -12395.369917 kJ/mol
# Density = 1.845917 g / cm^3
# Si number density = 18.501283 Si / 1000 Ang^3
#
#
#
# Elastic Constant Matrix: (Units=GPa)
#
#
# Indices 1 2 3 4 5 6 
#
# 1 54.8098 21.1039 38.5337 0.0000 0.0000 0.0000
# 2 21.1039 129.7019 59.0012 0.0000 0.0000 0.0000
# 3 38.5337 59.0012 98.9806 0.0000 0.0000 0.0000
# 4 0.0000 0.0000 0.0000 36.2366 0.0000 0.0000
# 5 0.0000 0.0000 0.0000 0.0000 20.3509 0.0000
# 6 0.0000 0.0000 0.0000 0.0000 0.0000 15.4559
#
#
#
# Elastic Compliance Matrix: (Units=1/GPa)
#
#
# Indices 1 2 3 4 5 6 
#
# 1 0.025144 0.000496 -0.010084 0.000000 0.000000 0.000000
# 2 0.000496 0.010588 -0.006505 0.000000 0.000000 0.000000
# 3 -0.010084 -0.006505 0.017906 0.000000 0.000000 0.000000
# 4 0.000000 0.000000 0.000000 0.027596 0.000000 0.000000
# 5 0.000000 0.000000 0.000000 0.000000 0.049138 0.000000
# 6 0.000000 0.000000 0.000000 0.000000 0.000000 0.064700
#
#
# Mechanical properties :
#
#
# Convention : Reuss Voigt Hill
#
# Bulk Modulus (GPa) = 46.61476 57.86332 52.23904
# Shear Modulus (GPa) = 21.33023 25.39890 23.36457
#
# Velocity S-wave (km/s) = 3.39913 3.70918 3.55753
# Velocity P-wave (km/s) = 6.37617 7.04891 6.72097
#
# Compressibility (1/GPa) = 0.02145243
#
# Stress axis : x y z
#
# Youngs Moduli (GPa) = 39.77163 94.44449 55.84637
#
# Poissons Ratio (x) = -0.04687 0.56317
# Poissons Ratio (y) = -0.01974 0.36326
# Poissons Ratio (z) = 0.40107 0.61433
#
# Static dielectric constant tensor:
#      x y z
#    x 2.978970 0.000000 0.000000 
#    y 0.000000 3.614140 0.000000 
#    z 0.000000 0.000000 3.415920 
# 
# 
# High freq. dielectric constant tensor:
#      x y z
#    x 1.669530 0.000000 0.000000 
#    y 0.000000 1.730350 0.000000 
#    z 0.000000 0.000000 1.717400 
# 
# From -- ./inp_files/11225.got.cif
#   From: 2010.03.12/outbox.cif.g09.slc.cpg/sg51_6_cif.got.tgz:11225.got - 2010.04.16 13:43:02.
