data_PCOD8208093
_publ_section_title
;
Structure prediction by ZEFSAII (Michael W. Deem and Ramdas Pophale) SiO2 
 PCOD8208093
Probable space group: P M M A
;
_chemical_formula_sum "Si O2"
_cell_formula_units_Z 48
_cell_length_a 15.143250
_cell_length_b 8.891082
_cell_length_c 18.926918
_cell_angle_alpha 90.000000
_cell_angle_beta 90.000000
_cell_angle_gamma 90.000000
_cell_volume 2548.317921
_symmetry_space_group_name_H-M "P M M A"
_symmetry_group_IT_number 51
_symmetry_cell_setting 'orthorhombic'
loop_
_space_group_symop_operation_xyz
x,y,z
1/2-x,-y,z
1/2+x,-y,-z
-x,y,-z
-x,-y,-z
1/2+x,y,-z
1/2-x,y,z
x,-y,z
loop_
_atom_site_type_symbol
_atom_site_label
_atom_site_fract_x
_atom_site_fract_y
_atom_site_fract_z
Si Si1 0.494503 0.322593 0.171910
Si Si2 0.649190 0.325575 0.942719
Si Si3 0.347683 0.178775 0.591109
Si Si4 0.648520 0.176327 0.089353
Si Si5 0.988379 0.820792 0.678763
Si Si6 0.348589 0.821585 0.434054
O O1 0.502967 0.500000 0.177682
O O2 0.415626 0.274430 0.119572
O O3 0.587915 0.257271 0.146810
O O4 0.469030 0.254769 0.246936
O O5 0.750000 0.292255 0.919346
O O6 0.636022 0.500000 0.961784
O O7 0.622619 0.231072 0.011362
O O8 0.250000 0.236987 0.612445
O O9 0.417055 0.235586 0.649248
O O10 0.373194 0.238162 0.512621
O O11 0.348539 0.000000 0.588667
O O12 0.750000 0.217956 0.106298
O O13 0.631889 0.000000 0.094189
O O14 0.915569 0.757972 0.624096
O O15 0.984707 0.000000 0.687062
O O16 0.250000 0.768452 0.413850
O O17 0.354675 0.000000 0.434434
#
# Coordination Sequence:
#
# PCOD8208093 Si02
#       6
#     8   8   8   8   8   8
#     4  11  23  36  51  74 106 143 175 204 247 303
#     4   9  19  37  58  77 100 134 174 211 249 299
#     4   8  14  26  46  71  96 123 160 207 255 301
#     4  10  21  37  58  82 104 128 164 212 260 302
#     4  10  19  30  47  72 100 130 165 207 253 298
#     4   8  14  26  46  72  98 124 160 208 258 304
#
# _framework density 18.835954000000001
#
# number of rings (size 3 to 8) (size 9 to 14) (size 15 to 20)
#    0.000    2.667    0.000    3.000    0.000    7.667 
#    0.000    1.667    0.000    2.000    0.000    2.333 
#    0.000    0.000    0.000    0.000    0.000    0.000 
#
# Total GULP energy -595136.061790 kJ/mol
# GULP energy per Si atom -12398.667954 kJ/mol
# Density = 1.879308 g / cm^3
# Si number density = 18.835954 Si / 1000 Ang^3
#
#
#
# Elastic Constant Matrix: (Units=GPa)
#
#
# Indices 1 2 3 4 5 6 
#
# 1 75.6723 16.8523 26.7806 0.0000 0.0000 0.0000
# 2 16.8523 35.0570 16.7545 0.0000 0.0000 0.0000
# 3 26.7806 16.7545 71.6453 0.0000 0.0000 0.0000
# 4 0.0000 0.0000 0.0000 -27.0057 0.0000 0.0000
# 5 0.0000 0.0000 0.0000 0.0000 23.8354 0.0000
# 6 0.0000 0.0000 0.0000 0.0000 0.0000 17.6240
#
#
#
# Elastic Compliance Matrix: (Units=1/GPa)
#
#
# Indices 1 2 3 4 5 6 
#
# 1 0.016113 -0.005480 -0.004742 0.000000 0.000000 0.000000
# 2 -0.005480 0.033978 -0.005897 0.000000 0.000000 0.000000
# 3 -0.004742 -0.005897 0.017109 0.000000 0.000000 0.000000
# 4 0.000000 0.000000 0.000000 -0.037029 0.000000 0.000000
# 5 0.000000 0.000000 0.000000 0.000000 0.041954 0.000000
# 6 0.000000 0.000000 0.000000 0.000000 0.000000 0.056741
#
#
# Mechanical properties :
#
#
# Convention : Reuss Voigt Hill
#
# Bulk Modulus (GPa) = 28.60209 33.68325 31.14267
# Shear Modulus (GPa) = 28.94225 11.02323 19.98274
#
# Velocity S-wave (km/s) = 3.92413 2.42176 3.26065
# Velocity P-wave (km/s) = 5.97909 5.07357 5.54485
#
# Compressibility (1/GPa) = 0.03496248
#
# Stress axis : x y z
#
# Youngs Moduli (GPa) = 62.06066 29.43114 58.44819
#
# Poissons Ratio (x) = 0.16127 0.27714
# Poissons Ratio (y) = 0.34007 0.34470
# Poissons Ratio (z) = 0.29427 0.17357
#
# Static dielectric constant tensor:
#      x y z
#    x 3.808670 0.000000 0.000000 
#    y 0.000000 3.071090 0.000000 
#    z 0.000000 0.000000 3.492050 
# 
# 
# High freq. dielectric constant tensor:
#      x y z
#    x 1.746440 0.000000 0.000000 
#    y 0.000000 1.691670 0.000000 
#    z 0.000000 0.000000 1.730660 
# 
# From -- ./inp_files/29395.got.cif
#   From: 2010.03.12/outbox.cif.g09.slc.cpg/sg51_15_cif.got.tgz:29395.got - 2010.04.16 13:43:02.
