data_PCOD8208931
_publ_section_title
;
Structure prediction by ZEFSAII (Michael W. Deem and Ramdas Pophale) SiO2 
 PCOD8208931
Probable space group: P M M A
;
_chemical_formula_sum "Si O2"
_cell_formula_units_Z 48
_cell_length_a 17.863054
_cell_length_b 9.208230
_cell_length_c 16.397062
_cell_angle_alpha 90.000000
_cell_angle_beta 90.000000
_cell_angle_gamma 90.000000
_cell_volume 2697.105337
_symmetry_space_group_name_H-M "P M M A"
_symmetry_group_IT_number 51
_symmetry_cell_setting 'orthorhombic'
loop_
_space_group_symop_operation_xyz
x,y,z
1/2-x,-y,z
1/2+x,-y,-z
-x,y,-z
-x,-y,-z
1/2+x,y,-z
1/2-x,y,z
x,-y,z
loop_
_atom_site_type_symbol
_atom_site_label
_atom_site_fract_x
_atom_site_fract_y
_atom_site_fract_z
Si Si1 0.085405 0.669818 0.486519
Si Si2 0.949120 0.830527 0.237653
Si Si3 0.337624 0.332482 0.653488
Si Si4 0.666806 0.666092 0.821506
Si Si5 0.897250 0.169154 0.675302
Si Si6 0.482025 0.330289 0.090816
O O1 0.092096 0.500000 0.467248
O O2 0.132964 0.715884 0.565110
O O3 0.119617 0.756467 0.410767
O O4 0.000000 0.716942 0.500000
O O5 0.874699 0.763607 0.276288
O O6 0.017556 0.798161 0.298638
O O7 0.963591 0.756424 0.150825
O O8 0.937216 0.000000 0.222906
O O9 0.250000 0.304302 0.657256
O O10 0.358532 0.500000 0.669234
O O11 0.750000 0.690834 0.858482
O O12 0.655664 0.500000 0.793412
O O13 0.658478 0.765913 0.742294
O O14 0.605062 0.705922 0.889839
O O15 0.880678 0.000000 0.667526
O O16 0.499444 0.500000 0.101075
O O17 0.500000 0.276512 0.000000
#
# Coordination Sequence:
#
# PCOD8208931 Si02
#       6
#     8   8   8   8   8   8
#     4  10  19  32  52  75 101 137 179 221 262 306
#     4  10  20  34  53  76 104 137 171 210 258 316
#     4  10  21  36  53  74 101 136 180 225 265 307
#     4   9  18  33  53  76 104 137 172 213 261 311
#     4  10  20  32  50  76 104 136 174 213 257 311
#     4   9  18  34  57  82 106 135 174 216 258 310
#
# _framework density 17.796858
#
# number of rings (size 3 to 8) (size 9 to 14) (size 15 to 20)
#    0.000    2.333    1.667    1.000    0.000    4.000 
#    0.000    2.500    0.000    3.000    0.000    0.000 
#    0.000    0.000    0.000    0.000    0.000    0.000 
#
# Total GULP energy -595350.783836 kJ/mol
# GULP energy per Si atom -12403.141330 kJ/mol
# Density = 1.775635 g / cm^3
# Si number density = 17.796858 Si / 1000 Ang^3
#
#
#
# Elastic Constant Matrix: (Units=GPa)
#
#
# Indices 1 2 3 4 5 6 
#
# 1 98.0828 42.7500 64.6500 0.0000 0.0000 0.0000
# 2 42.7500 72.7733 65.2592 0.0000 0.0000 0.0000
# 3 64.6500 65.2592 149.0773 0.0000 0.0000 0.0000
# 4 0.0000 0.0000 0.0000 11.4423 0.0000 0.0000
# 5 0.0000 0.0000 0.0000 0.0000 22.1589 0.0000
# 6 0.0000 0.0000 0.0000 0.0000 0.0000 12.9419
#
#
#
# Elastic Compliance Matrix: (Units=1/GPa)
#
#
# Indices 1 2 3 4 5 6 
#
# 1 0.015308 -0.005004 -0.004448 0.000000 0.000000 0.000000
# 2 -0.005004 0.024257 -0.008449 0.000000 0.000000 0.000000
# 3 -0.004448 -0.008449 0.012335 0.000000 0.000000 0.000000
# 4 0.000000 0.000000 0.000000 0.087395 0.000000 0.000000
# 5 0.000000 0.000000 0.000000 0.000000 0.045129 0.000000
# 6 0.000000 0.000000 0.000000 0.000000 0.000000 0.077268
#
#
# Mechanical properties :
#
#
# Convention : Reuss Voigt Hill
#
# Bulk Modulus (GPa) = 62.11408 73.91687 68.01547
# Shear Modulus (GPa) = 16.50924 19.12690 17.81807
#
# Velocity S-wave (km/s) = 3.04904 3.28187 3.16759
# Velocity P-wave (km/s) = 6.88280 7.48229 7.18880
#
# Compressibility (1/GPa) = 0.01609941
#
# Stress axis : x y z
#
# Youngs Moduli (GPa) = 65.32325 41.22522 81.06705
#
# Poissons Ratio (x) = 0.20628 0.36062
# Poissons Ratio (y) = 0.32686 0.68491
# Poissons Ratio (z) = 0.29058 0.34830
#
# Static dielectric constant tensor:
#      x y z
#    x 3.246300 0.000000 0.000000 
#    y 0.000000 3.239850 0.000000 
#    z 0.000000 0.000000 3.191050 
# 
# 
# High freq. dielectric constant tensor:
#      x y z
#    x 1.682130 0.000000 0.000000 
#    y 0.000000 1.687200 0.000000 
#    z 0.000000 0.000000 1.679180 
# 
# From -- ./inp_files/24727.got.cif
#   From: 2010.03.12/outbox.cif.g09.slc.cpg/sg51_13_cif.got.tgz:24727.got - 2010.04.16 13:43:02.
