data_PCOD8208057
_publ_section_title
;
Structure prediction by ZEFSAII (Michael W. Deem and Ramdas Pophale) SiO2 
 PCOD8208057
Probable space group: P M M A
;
_chemical_formula_sum "Si O2"
_cell_formula_units_Z 64
_cell_length_a 8.961775
_cell_length_b 22.446277
_cell_length_c 18.454151
_cell_angle_alpha 90.000000
_cell_angle_beta 90.000000
_cell_angle_gamma 90.000000
_cell_volume 3712.209040
_symmetry_space_group_name_H-M "P M M A"
_symmetry_group_IT_number 51
_symmetry_cell_setting 'orthorhombic'
loop_
_space_group_symop_operation_xyz
x,y,z
1/2-x,-y,z
1/2+x,-y,-z
-x,y,-z
-x,-y,-z
1/2+x,y,-z
1/2-x,y,z
x,-y,z
loop_
_atom_site_type_symbol
_atom_site_label
_atom_site_fract_x
_atom_site_fract_y
_atom_site_fract_z
Si Si1 0.424389 0.673070 0.665266
Si Si2 0.418189 0.433306 0.285052
Si Si3 0.571687 0.750658 0.787995
Si Si4 0.586605 0.148372 0.685744
Si Si5 0.412927 0.753422 0.434427
Si Si6 0.577712 0.069553 0.425568
Si Si7 0.425514 0.307213 0.925183
Si Si8 0.920082 0.434069 0.136230
O O1 0.250000 0.684462 0.673206
O O2 0.466713 0.603713 0.665879
O O3 0.508918 0.701823 0.733160
O O4 0.484223 0.698323 0.589562
O O5 0.250000 0.407949 0.290908
O O6 0.425863 0.500000 0.314982
O O7 0.465789 0.430388 0.201764
O O8 0.750000 0.745097 0.792676
O O9 0.528617 0.818366 0.759462
O O10 0.497924 0.736109 0.864990
O O11 0.750000 0.118908 0.699128
O O12 0.605577 0.201392 0.629979
O O13 0.478294 0.099921 0.649233
O O14 0.500000 0.785469 0.500000
O O15 0.250000 0.730812 0.459163
O O16 0.500000 0.092021 0.500000
O O17 0.750000 0.085226 0.434807
O O18 0.547550 0.000000 0.415035
O O19 0.250000 0.294405 0.926912
O O20 0.458109 0.378084 0.915243
O O21 0.500000 0.287487 0.000000
O O22 0.750000 0.427228 0.164884
O O23 0.938566 0.500000 0.098292
#
# Coordination Sequence:
#
# PCOD8208057 Si02
#       8
#     8   8   8   8   8   8   8   8
#     4  11  20  31  49  70  92 121 153 191 240 291
#     4  10  19  30  47  69  90 115 149 191 238 287
#     4  10  20  35  52  71  96 124 163 209 248 293
#     4   9  19  33  51  73  98 132 168 207 248 282
#     4  10  20  33  48  70  97 124 158 199 241 287
#     4  10  20  32  48  73 107 146 182 213 244 283
#     4  11  22  34  50  71  97 132 165 202 252 304
#     4   9  18  32  48  67  92 122 158 198 240 295
#
# _framework density 17.240407000000001
#
# number of rings (size 3 to 8) (size 9 to 14) (size 15 to 20)
#    0.000    2.000    1.250    4.125    0.000    6.250 
#    0.000    0.000    0.000    0.375    0.000    0.000 
#    0.000    0.500    0.000    1.625    0.000    2.375 
#
# Total GULP energy -793083.618716 kJ/mol
# GULP energy per Si atom -12391.931542 kJ/mol
# Density = 1.720117 g / cm^3
# Si number density = 17.240407 Si / 1000 Ang^3
#
#
#
# Elastic Constant Matrix: (Units=GPa)
#
#
# Indices 1 2 3 4 5 6 
#
# 1 113.1891 43.3557 40.0726 0.0000 0.0000 0.0000
# 2 43.3557 65.8768 34.1900 0.0000 0.0000 0.0000
# 3 40.0726 34.1900 65.5429 0.0000 0.0000 0.0000
# 4 0.0000 0.0000 0.0000 17.4679 0.0000 0.0000
# 5 0.0000 0.0000 0.0000 0.0000 27.2643 0.0000
# 6 0.0000 0.0000 0.0000 0.0000 0.0000 28.5130
#
#
#
# Elastic Compliance Matrix: (Units=1/GPa)
#
#
# Indices 1 2 3 4 5 6 
#
# 1 0.012788 -0.005977 -0.004701 0.000000 0.000000 0.000000
# 2 -0.005977 0.023608 -0.008661 0.000000 0.000000 0.000000
# 3 -0.004701 -0.008661 0.022649 0.000000 0.000000 0.000000
# 4 0.000000 0.000000 0.000000 0.057248 0.000000 0.000000
# 5 0.000000 0.000000 0.000000 0.000000 0.036678 0.000000
# 6 0.000000 0.000000 0.000000 0.000000 0.000000 0.035072
#
#
# Mechanical properties :
#
#
# Convention : Reuss Voigt Hill
#
# Bulk Modulus (GPa) = 49.09522 53.31617 51.20569
# Shear Modulus (GPa) = 21.41229 23.11506 22.26368
#
# Velocity S-wave (km/s) = 3.52800 3.66560 3.59746
# Velocity P-wave (km/s) = 6.71821 6.99341 6.85719
#
# Compressibility (1/GPa) = 0.02036858
#
# Stress axis : x y z
#
# Youngs Moduli (GPa) = 78.19600 42.35799 44.15132
#
# Poissons Ratio (x) = 0.25316 0.20756
# Poissons Ratio (y) = 0.46734 0.38240
# Poissons Ratio (z) = 0.36761 0.36686
#
# Static dielectric constant tensor:
#      x y z
#    x 3.380610 0.000000 0.000000 
#    y 0.000000 3.270370 0.000000 
#    z 0.000000 0.000000 3.160460 
# 
# 
# High freq. dielectric constant tensor:
#      x y z
#    x 1.683080 0.000000 0.000000 
#    y 0.000000 1.644980 0.000000 
#    z 0.000000 0.000000 1.633080 
# 
# From -- ./inp_files/28452.got.cif
#   From: 2010.03.12/outbox.cif.g09.slc.cpg/sg51_15_cif.got.tgz:28452.got - 2010.04.16 13:43:02.
