data_PCOD8208446
_publ_section_title
;
Structure prediction by ZEFSAII (Michael W. Deem and Ramdas Pophale) SiO2 
 PCOD8208446
Probable space group: P M M A
;
_chemical_formula_sum "Si O2"
_cell_formula_units_Z 64
_cell_length_a 8.738359
_cell_length_b 23.272623
_cell_length_c 19.239303
_cell_angle_alpha 90.000000
_cell_angle_beta 90.000000
_cell_angle_gamma 90.000000
_cell_volume 3912.591902
_symmetry_space_group_name_H-M "P M M A"
_symmetry_group_IT_number 51
_symmetry_cell_setting 'orthorhombic'
loop_
_space_group_symop_operation_xyz
x,y,z
1/2-x,-y,z
1/2+x,-y,-z
-x,y,-z
-x,-y,-z
1/2+x,y,-z
1/2-x,y,z
x,-y,z
loop_
_atom_site_type_symbol
_atom_site_label
_atom_site_fract_x
_atom_site_fract_y
_atom_site_fract_z
Si Si1 0.929855 0.111873 0.428491
Si Si2 0.568121 0.224226 0.925153
Si Si3 0.071547 0.245407 0.569861
Si Si4 0.431189 0.667180 0.850084
Si Si5 0.569732 0.268980 0.282706
Si Si6 0.074527 0.933376 0.289836
Si Si7 0.568386 0.159775 0.197971
Si Si8 0.070698 0.434086 0.073463
O O1 0.750000 0.101273 0.428332
O O2 0.971641 0.178797 0.421552
O O3 0.000000 0.087233 0.500000
O O4 0.001814 0.077865 0.364765
O O5 0.750000 0.226155 0.928096
O O6 0.507031 0.285957 0.899968
O O7 0.511914 0.172680 0.875493
O O8 0.500000 0.210518 0.000000
O O9 0.250000 0.254718 0.562653
O O10 0.004550 0.277583 0.638920
O O11 0.000000 0.272082 0.500000
O O12 0.250000 0.670283 0.860956
O O13 0.476570 0.679589 0.769498
O O14 0.494143 0.604129 0.866815
O O15 0.750000 0.264292 0.289581
O O16 0.511727 0.208697 0.251609
O O17 0.250000 0.913109 0.290977
O O18 0.984802 0.900853 0.228473
O O19 0.059455 0.000000 0.271848
O O20 0.750000 0.160585 0.187242
O O21 0.250000 0.422532 0.070438
O O22 0.032155 0.500000 0.091083
O O23 0.000000 0.415899 0.000000
#
# Coordination Sequence:
#
# PCOD8208446 Si02
#       8
#     8   8   8   8   8   8   8   8
#     4  10  19  32  50  69  92 123 158 198 239 285
#     4  11  21  34  52  76 102 128 157 194 239 287
#     4   9  16  28  44  66  92 122 154 189 231 282
#     4  10  19  31  49  72  99 132 167 205 241 281
#     4   8  15  29  47  67  93 122 153 191 237 282
#     4  11  23  36  50  70  95 123 158 198 238 288
#     4  10  19  35  54  72  94 122 156 194 240 290
#     4  10  20  33  48  67  96 134 172 208 243 283
#
# _framework density 16.357443
#
# number of rings (size 3 to 8) (size 9 to 14) (size 15 to 20)
#    0.000    2.125    1.250    4.125    0.000    2.500 
#    0.000    1.250    0.000    0.375    0.000    0.000 
#    0.000    0.500    0.000    1.125    0.000    2.000 
#
# Total GULP energy -793512.769841 kJ/mol
# GULP energy per Si atom -12398.637029 kJ/mol
# Density = 1.632021 g / cm^3
# Si number density = 16.357443 Si / 1000 Ang^3
#
#
#
# Elastic Constant Matrix: (Units=GPa)
#
#
# Indices 1 2 3 4 5 6 
#
# 1 82.3348 39.1726 45.6349 0.0000 0.0000 0.0000
# 2 39.1726 69.7708 55.4927 0.0000 0.0000 0.0000
# 3 45.6349 55.4927 149.1139 0.0000 0.0000 0.0000
# 4 0.0000 0.0000 0.0000 38.5649 0.0000 0.0000
# 5 0.0000 0.0000 0.0000 0.0000 28.4751 0.0000
# 6 0.0000 0.0000 0.0000 0.0000 0.0000 22.8121
#
#
#
# Elastic Compliance Matrix: (Units=1/GPa)
#
#
# Indices 1 2 3 4 5 6 
#
# 1 0.017140 -0.007743 -0.002364 0.000000 0.000000 0.000000
# 2 -0.007743 0.023856 -0.006509 0.000000 0.000000 0.000000
# 3 -0.002364 -0.006509 0.009852 0.000000 0.000000 0.000000
# 4 0.000000 0.000000 0.000000 0.025930 0.000000 0.000000
# 5 0.000000 0.000000 0.000000 0.000000 0.035118 0.000000
# 6 0.000000 0.000000 0.000000 0.000000 0.000000 0.043836
#
#
# Mechanical properties :
#
#
# Convention : Reuss Voigt Hill
#
# Bulk Modulus (GPa) = 56.76223 64.64666 60.70445
# Shear Modulus (GPa) = 25.66262 28.69839 27.18051
#
# Velocity S-wave (km/s) = 3.96519 4.19316 4.08077
# Velocity P-wave (km/s) = 7.46593 7.94044 7.70684
#
# Compressibility (1/GPa) = 0.01761735
#
# Stress axis : x y z
#
# Youngs Moduli (GPa) = 58.34454 41.91740 101.50321
#
# Poissons Ratio (x) = 0.32456 0.23995
# Poissons Ratio (y) = 0.45175 0.66064
# Poissons Ratio (z) = 0.13792 0.27282
#
# Static dielectric constant tensor:
#      x y z
#    x 3.127310 0.000000 0.000000 
#    y 0.000000 2.874360 0.000000 
#    z 0.000000 0.000000 3.453840 
# 
# 
# High freq. dielectric constant tensor:
#      x y z
#    x 1.637080 0.000000 0.000000 
#    y 0.000000 1.592180 0.000000 
#    z 0.000000 0.000000 1.634020 
# 
# From -- ./inp_files/28570.got.cif
#   From: 2010.03.12/outbox.cif.g09.slc.cpg/sg51_15_cif.got.tgz:28570.got - 2010.04.16 13:43:02.
