data_PCOD8208076
_publ_section_title
;
Structure prediction by ZEFSAII (Michael W. Deem and Ramdas Pophale) SiO2 
 PCOD8208076
Probable space group: P M M A
;
_chemical_formula_sum "Si O2"
_cell_formula_units_Z 64
_cell_length_a 9.458037
_cell_length_b 16.048539
_cell_length_c 22.962723
_cell_angle_alpha 90.000000
_cell_angle_beta 90.000000
_cell_angle_gamma 90.000000
_cell_volume 3485.458351
_symmetry_space_group_name_H-M "P M M A"
_symmetry_group_IT_number 51
_symmetry_cell_setting 'orthorhombic'
loop_
_space_group_symop_operation_xyz
x,y,z
1/2-x,-y,z
1/2+x,-y,-z
-x,y,-z
-x,-y,-z
1/2+x,y,-z
1/2-x,y,z
x,-y,z
loop_
_atom_site_type_symbol
_atom_site_label
_atom_site_fract_x
_atom_site_fract_y
_atom_site_fract_z
Si Si1 0.090361 0.315337 0.150650
Si Si2 0.915351 0.248887 0.638243
Si Si3 0.090157 0.907063 0.843276
Si Si4 0.086894 0.906299 0.442218
Si Si5 0.414478 0.166958 0.060117
Si Si6 0.098338 0.594815 0.047028
Si Si7 0.414015 0.405286 0.441674
Si Si8 0.916151 0.236741 0.243412
O O1 0.250000 0.311994 0.176336
O O2 0.068529 0.250075 0.098039
O O3 0.053416 0.400052 0.115260
O O4 0.979062 0.309655 0.202733
O O5 0.750000 0.249416 0.654391
O O6 0.955895 0.165742 0.602729
O O7 0.956938 0.334885 0.605331
O O8 0.008842 0.242450 0.695214
O O9 0.250000 0.882746 0.862451
O O10 0.042829 0.848977 0.789208
O O11 0.987411 0.902889 0.899042
O O12 0.083754 0.000000 0.818133
O O13 0.250000 0.897648 0.459216
O O14 0.000000 0.889730 0.500000
O O15 0.055557 0.000000 0.417286
O O16 0.250000 0.144098 0.048471
O O17 0.500000 0.173355 0.000000
O O18 0.250000 0.640460 0.041215
O O19 0.112246 0.500000 0.028348
O O20 0.000000 0.641260 0.000000
O O21 0.500000 0.387143 0.500000
O O22 0.250000 0.395755 0.457617
O O23 0.445464 0.500000 0.418496
O O24 0.750000 0.249195 0.252013
#
# Coordination Sequence:
#
# PCOD8208076 Si02
#       8
#     8   8   8   8   8   8   8   8
#     4   9  18  33  50  67  92 126 160 195 238 288
#     4  10  20  34  52  74 103 137 169 204 247 293
#     4   9  19  36  53  68  91 122 156 199 247 291
#     4   9  18  32  50  75 106 137 168 202 243 292
#     4  10  19  30  47  71  95 121 155 194 240 294
#     4   9  17  29  47  72  98 123 153 190 235 288
#     4   9  18  33  54  80 107 135 168 205 246 291
#     4  10  21  35  52  73  94 122 164 206 242 284
#
# _framework density 18.362003999999999
#
# number of rings (size 3 to 8) (size 9 to 14) (size 15 to 20)
#    0.000    2.625    0.000    1.500    0.000    3.500 
#    0.000    0.625    0.000    3.750    0.000    0.000 
#    0.000    0.000    0.000    0.000    0.000    0.000 
#
# Total GULP energy -792983.171996 kJ/mol
# GULP energy per Si atom -12390.362062 kJ/mol
# Density = 1.832021 g / cm^3
# Si number density = 18.362004 Si / 1000 Ang^3
#
#
#
# Elastic Constant Matrix: (Units=GPa)
#
#
# Indices 1 2 3 4 5 6 
#
# 1 97.0536 42.5059 82.0279 0.0000 0.0000 0.0000
# 2 42.5059 78.7421 56.6457 0.0000 0.0000 0.0000
# 3 82.0279 56.6457 142.9361 0.0000 0.0000 0.0000
# 4 0.0000 0.0000 0.0000 21.1234 0.0000 0.0000
# 5 0.0000 0.0000 0.0000 0.0000 40.6738 0.0000
# 6 0.0000 0.0000 0.0000 0.0000 0.0000 16.9092
#
#
#
# Elastic Compliance Matrix: (Units=1/GPa)
#
#
# Indices 1 2 3 4 5 6 
#
# 1 0.020745 -0.003685 -0.010445 0.000000 0.000000 0.000000
# 2 -0.003685 0.018418 -0.005185 0.000000 0.000000 0.000000
# 3 -0.010445 -0.005185 0.015045 0.000000 0.000000 0.000000
# 4 0.000000 0.000000 0.000000 0.047341 0.000000 0.000000
# 5 0.000000 0.000000 0.000000 0.000000 0.024586 0.000000
# 6 0.000000 0.000000 0.000000 0.000000 0.000000 0.059139
#
#
# Mechanical properties :
#
#
# Convention : Reuss Voigt Hill
#
# Bulk Modulus (GPa) = 64.18472 75.67677 69.93074
# Shear Modulus (GPa) = 21.82483 24.91145 23.36814
#
# Velocity S-wave (km/s) = 3.45133 3.68732 3.57127
# Velocity P-wave (km/s) = 7.13535 7.70919 7.42782
#
# Compressibility (1/GPa) = 0.01558003
#
# Stress axis : x y z
#
# Youngs Moduli (GPa) = 48.20377 54.29328 66.46699
#
# Poissons Ratio (x) = 0.20005 0.69425
# Poissons Ratio (y) = 0.17761 0.34462
# Poissons Ratio (z) = 0.50349 0.28150
#
# Static dielectric constant tensor:
#      x y z
#    x 3.611910 0.000000 0.000000 
#    y 0.000000 3.595210 0.000000 
#    z 0.000000 0.000000 3.280270 
# 
# 
# High freq. dielectric constant tensor:
#      x y z
#    x 1.716710 0.000000 0.000000 
#    y 0.000000 1.711340 0.000000 
#    z 0.000000 0.000000 1.697900 
# 
# From -- ./inp_files/32421.got.cif
#   From: 2010.03.12/outbox.cif.g09.slc.cpg/sg51_17_cif.got.tgz:32421.got - 2010.04.16 13:43:02.
