data_PCOD8208738
_publ_section_title
;
Structure prediction by ZEFSAII (Michael W. Deem and Ramdas Pophale) SiO2 
 PCOD8208738
Probable space group: P M M A
;
_chemical_formula_sum "Si O2"
_cell_formula_units_Z 64
_cell_length_a 17.956643
_cell_length_b 13.638327
_cell_length_c 15.504899
_cell_angle_alpha 90.000000
_cell_angle_beta 90.000000
_cell_angle_gamma 90.000000
_cell_volume 3797.127578
_symmetry_space_group_name_H-M "P M M A"
_symmetry_group_IT_number 51
_symmetry_cell_setting 'orthorhombic'
loop_
_space_group_symop_operation_xyz
x,y,z
1/2-x,-y,z
1/2+x,-y,-z
-x,y,-z
-x,-y,-z
1/2+x,y,-z
1/2-x,y,z
x,-y,z
loop_
_atom_site_type_symbol
_atom_site_label
_atom_site_fract_x
_atom_site_fract_y
_atom_site_fract_z
Si Si1 0.835919 0.764261 0.990241
Si Si2 0.459182 0.236836 0.586669
Si Si3 0.084657 0.113088 0.332478
Si Si4 0.052367 0.107947 0.918236
Si Si5 0.666937 0.612071 0.134209
Si Si6 0.536885 0.616109 0.262590
Si Si7 0.664056 0.111886 0.493784
Si Si8 0.937356 0.764218 0.824136
O O1 0.750000 0.787331 0.968482
O O2 0.882031 0.748025 0.903116
O O3 0.868041 0.851530 0.049688
O O4 0.846740 0.665597 0.044029
O O5 0.500000 0.271650 0.500000
O O6 0.505515 0.152093 0.634050
O O7 0.450640 0.333441 0.644839
O O8 0.379649 0.188522 0.565869
O O9 0.147013 0.129771 0.405271
O O10 0.107877 0.173580 0.247310
O O11 0.076589 0.000000 0.307006
O O12 0.013089 0.177619 0.848465
O O13 0.065028 0.000000 0.877714
O O14 0.000000 0.100357 0.000000
O O15 0.750000 0.634069 0.169705
O O16 0.655368 0.500000 0.109995
O O17 0.609508 0.643724 0.207465
O O18 0.525879 0.500000 0.274927
O O19 0.463657 0.659761 0.214904
O O20 0.750000 0.131909 0.476866
O O21 0.641690 0.000000 0.469988
#
# Coordination Sequence:
#
# PCOD8208738 Si02
#       8
#     8   8   8   8   8   8   8   8
#     4  10  20  33  49  70  99 132 166 207 252 300
#     4   9  18  32  50  74 100 130 160 195 245 303
#     4   9  17  30  49  72  99 130 165 200 237 287
#     4   9  17  30  47  67  94 128 164 200 238 284
#     4   9  18  33  51  71  96 125 160 205 254 296
#     4  10  20  33  52  76  97 125 165 211 252 292
#     4   9  17  30  50  76 103 129 160 201 245 290
#     4  10  19  32  49  73  98 131 170 204 249 296
#
# _framework density 16.854845999999998
#
# number of rings (size 3 to 8) (size 9 to 14) (size 15 to 20)
#    0.000    2.625    1.250    0.750    0.000    4.000 
#    0.000    1.250    0.000    0.000    0.000    0.000 
#    0.000    0.000    0.000    0.000    0.000    0.000 
#
# Total GULP energy -793465.801388 kJ/mol
# GULP energy per Si atom -12397.903147 kJ/mol
# Density = 1.681648 g / cm^3
# Si number density = 16.854846 Si / 1000 Ang^3
#
#
#
# Elastic Constant Matrix: (Units=GPa)
#
#
# Indices 1 2 3 4 5 6 
#
# 1 90.6116 45.7687 40.9886 0.0000 0.0000 0.0000
# 2 45.7687 95.2725 41.0896 0.0000 0.0000 0.0000
# 3 40.9886 41.0896 82.7316 0.0000 0.0000 0.0000
# 4 0.0000 0.0000 0.0000 26.9495 0.0000 0.0000
# 5 0.0000 0.0000 0.0000 0.0000 20.7000 0.0000
# 6 0.0000 0.0000 0.0000 0.0000 0.0000 18.4345
#
#
#
# Elastic Compliance Matrix: (Units=1/GPa)
#
#
# Indices 1 2 3 4 5 6 
#
# 1 0.016213 -0.005503 -0.005299 0.000000 0.000000 0.000000
# 2 -0.005503 0.015225 -0.004835 0.000000 0.000000 0.000000
# 3 -0.005299 -0.004835 0.017114 0.000000 0.000000 0.000000
# 4 0.000000 0.000000 0.000000 0.037106 0.000000 0.000000
# 5 0.000000 0.000000 0.000000 0.000000 0.048309 0.000000
# 6 0.000000 0.000000 0.000000 0.000000 0.000000 0.054246
#
#
# Mechanical properties :
#
#
# Convention : Reuss Voigt Hill
#
# Bulk Modulus (GPa) = 57.88068 58.25658 58.06863
# Shear Modulus (GPa) = 22.19764 22.60139 22.39952
#
# Velocity S-wave (km/s) = 3.63297 3.66586 3.64945
# Velocity P-wave (km/s) = 7.21202 7.24961 7.23084
#
# Compressibility (1/GPa) = 0.01727692
#
# Stress axis : x y z
#
# Youngs Moduli (GPa) = 61.67895 65.68013 58.43053
#
# Poissons Ratio (x) = 0.36145 0.30965
# Poissons Ratio (y) = 0.33943 0.28253
# Poissons Ratio (z) = 0.32686 0.31759
#
# Static dielectric constant tensor:
#      x y z
#    x 3.093890 0.000000 0.000000 
#    y 0.000000 3.177870 0.000000 
#    z 0.000000 0.000000 3.211090 
# 
# 
# High freq. dielectric constant tensor:
#      x y z
#    x 1.639790 0.000000 0.000000 
#    y 0.000000 1.646990 0.000000 
#    z 0.000000 0.000000 1.649260 
# 
# From -- ./inp_files/25308.got.cif
#   From: 2010.03.12/outbox.cif.g09.slc.cpg/sg51_13_cif.got.tgz:25308.got - 2010.04.16 13:43:02.
