data_PCOD8208016
_publ_section_title
;
Structure prediction by ZEFSAII (Michael W. Deem and Ramdas Pophale) SiO2 
 PCOD8208016
Probable space group: P M M A
;
_chemical_formula_sum "Si O2"
_cell_formula_units_Z 64
_cell_length_a 8.851109
_cell_length_b 22.841214
_cell_length_c 16.112017
_cell_angle_alpha 90.000000
_cell_angle_beta 90.000000
_cell_angle_gamma 90.000000
_cell_volume 3257.367682
_symmetry_space_group_name_H-M "P M M A"
_symmetry_group_IT_number 51
_symmetry_cell_setting 'orthorhombic'
loop_
_space_group_symop_operation_xyz
x,y,z
1/2-x,-y,z
1/2+x,-y,-z
-x,y,-z
-x,-y,-z
1/2+x,y,-z
1/2-x,y,z
x,-y,z
loop_
_atom_site_type_symbol
_atom_site_label
_atom_site_fract_x
_atom_site_fract_y
_atom_site_fract_z
Si Si1 0.582287 0.678008 0.694422
Si Si2 0.918036 0.280696 0.880798
Si Si3 0.073373 0.565898 0.742443
Si Si4 0.573404 0.763777 0.418711
Si Si5 0.571403 0.065757 0.763653
Si Si6 0.424713 0.605062 0.921004
Si Si7 0.429474 0.148443 0.087432
Si Si8 0.570366 0.888608 0.586473
O O1 0.750000 0.681310 0.653582
O O2 0.590687 0.704594 0.784828
O O3 0.526162 0.610821 0.689222
O O4 0.454416 0.716663 0.651797
O O5 0.750000 0.287104 0.919476
O O6 0.980304 0.215165 0.895043
O O7 0.031399 0.326260 0.922796
O O8 0.250000 0.581434 0.733251
O O9 0.039503 0.500000 0.712124
O O10 0.021600 0.572472 0.837976
O O11 0.500000 0.734875 0.500000
O O12 0.750000 0.777776 0.428589
O O13 0.481145 0.822384 0.400077
O O14 0.750000 0.072917 0.761248
O O15 0.507609 0.109037 0.835518
O O16 0.511821 0.078585 0.669783
O O17 0.522006 0.000000 0.787465
O O18 0.250000 0.598593 0.932623
O O19 0.500000 0.573379 0.000000
O O20 0.250000 0.142435 0.081588
O O21 0.500000 0.126883 0.000000
O O22 0.500000 0.914245 0.500000
O O23 0.750000 0.892401 0.577779
#
# Coordination Sequence:
#
# PCOD8208016 Si02
#       8
#     8   8   8   8   8   8   8   8
#     4  10  19  33  54  79 105 134 172 215 259 309
#     4   9  18  32  50  72  99 131 166 209 262 321
#     4   9  19  35  51  69  97 135 177 216 256 304
#     4  11  21  34  54  81 112 141 168 202 251 308
#     4   9  19  36  56  76 103 143 184 218 261 322
#     4  10  19  30  46  69  97 129 165 209 259 310
#     4  10  20  34  52  74 100 134 178 224 270 317
#     4  10  19  34  57  84 112 141 174 214 263 320
#
# _framework density 19.647766000000001
#
# number of rings (size 3 to 8) (size 9 to 14) (size 15 to 20)
#    0.000    2.250    0.000    4.125    0.000    5.500 
#    0.000    2.500    0.000    3.000    0.000    0.000 
#    0.000    0.000    0.000    0.000    0.000    0.000 
#
# Total GULP energy -793250.725316 kJ/mol
# GULP energy per Si atom -12394.542583 kJ/mol
# Density = 1.960305 g / cm^3
# Si number density = 19.647766 Si / 1000 Ang^3
#
#
#
# Elastic Constant Matrix: (Units=GPa)
#
#
# Indices 1 2 3 4 5 6 
#
# 1 49.9219 10.9983 17.5396 0.0000 0.0000 0.0000
# 2 10.9983 72.7228 28.5681 0.0000 0.0000 0.0000
# 3 17.5396 28.5681 74.0342 0.0000 0.0000 0.0000
# 4 0.0000 0.0000 0.0000 0.4571 0.0000 0.0000
# 5 0.0000 0.0000 0.0000 0.0000 31.9702 0.0000
# 6 0.0000 0.0000 0.0000 0.0000 0.0000 11.1622
#
#
#
# Elastic Compliance Matrix: (Units=1/GPa)
#
#
# Indices 1 2 3 4 5 6 
#
# 1 0.021989 -0.001508 -0.004628 0.000000 0.000000 0.000000
# 2 -0.001508 0.016311 -0.005937 0.000000 0.000000 0.000000
# 3 -0.004628 -0.005937 0.016895 0.000000 0.000000 0.000000
# 4 0.000000 0.000000 0.000000 2.187756 0.000000 0.000000
# 5 0.000000 0.000000 0.000000 0.000000 0.031279 0.000000
# 6 0.000000 0.000000 0.000000 0.000000 0.000000 0.089588
#
#
# Mechanical properties :
#
#
# Convention : Reuss Voigt Hill
#
# Bulk Modulus (GPa) = 32.20572 34.54344 33.37458
# Shear Modulus (GPa) = 2.08480 18.02275 10.05378
#
# Velocity S-wave (km/s) = 1.03121 3.03197 2.26453
# Velocity P-wave (km/s) = 4.22433 5.46595 4.88475
#
# Compressibility (1/GPa) = 0.03105038
#
# Stress axis : x y z
#
# Youngs Moduli (GPa) = 45.47649 61.30801 59.19064
#
# Poissons Ratio (x) = 0.09243 0.27392
# Poissons Ratio (y) = 0.06856 0.35141
# Poissons Ratio (z) = 0.21046 0.36398
#
# Static dielectric constant tensor:
#      x y z
#    x 3.533740 0.000000 0.000000 
#    y 0.000000 3.523820 0.000000 
#    z 0.000000 0.000000 3.911300 
# 
# 
# High freq. dielectric constant tensor:
#      x y z
#    x 1.752930 0.000000 0.000000 
#    y 0.000000 1.757020 0.000000 
#    z 0.000000 0.000000 1.762400 
# 
# From -- ./inp_files/28456.got.cif
#   From: 2010.03.12/outbox.cif.g09.slc.cpg/sg51_15_cif.got.tgz:28456.got - 2010.04.16 13:43:02.
