data_PCOD8208673
_publ_section_title
;
Structure prediction by ZEFSAII (Michael W. Deem and Ramdas Pophale) SiO2 
 PCOD8208673
Probable space group: P M M A
;
_chemical_formula_sum "Si O2"
_cell_formula_units_Z 64
_cell_length_a 18.767274
_cell_length_b 18.239888
_cell_length_c 9.970078
_cell_angle_alpha 90.000000
_cell_angle_beta 90.000000
_cell_angle_gamma 90.000000
_cell_volume 3412.887069
_symmetry_space_group_name_H-M "P M M A"
_symmetry_group_IT_number 51
_symmetry_cell_setting 'orthorhombic'
loop_
_space_group_symop_operation_xyz
x,y,z
1/2-x,-y,z
1/2+x,-y,-z
-x,y,-z
-x,-y,-z
1/2+x,y,-z
1/2-x,y,z
x,-y,z
loop_
_atom_site_type_symbol
_atom_site_label
_atom_site_fract_x
_atom_site_fract_y
_atom_site_fract_z
Si Si1 0.829739 0.206983 0.958944
Si Si2 0.959173 0.809224 0.133206
Si Si3 0.669195 0.341140 0.773389
Si Si4 0.534781 0.646109 0.140051
Si Si5 0.829750 0.582496 0.042670
Si Si6 0.953055 0.584408 0.625449
Si Si7 0.478519 0.914346 0.351759
Si Si8 0.827824 0.083792 0.753305
O O1 0.750000 0.229373 0.003108
O O2 0.857509 0.267232 0.850350
O O3 0.832773 0.128172 0.890278
O O4 0.876343 0.200541 0.093483
O O5 0.985789 0.729213 0.181453
O O6 0.973072 0.868450 0.248528
O O7 0.000000 0.835564 0.000000
O O8 0.750000 0.330561 0.717602
O O9 0.616673 0.363778 0.650719
O O10 0.665943 0.405768 0.882611
O O11 0.619958 0.637252 0.125890
O O12 0.504744 0.589629 0.247478
O O13 0.500000 0.623885 0.000000
O O14 0.750000 0.597745 0.094039
O O15 0.853798 0.500000 0.072334
O O16 0.929323 0.500000 0.603210
O O17 0.000000 0.613125 0.500000
O O18 0.500000 0.890523 0.500000
O O19 0.394208 0.895538 0.341758
O O20 0.493898 0.000000 0.324954
O O21 0.750000 0.099047 0.683192
O O22 0.833815 0.000000 0.797536
#
# Coordination Sequence:
#
# PCOD8208673 Si02
#       8
#     8   8   8   8   8   8   8   8
#     4  10  19  34  57  86 119 144 183 243 294 340
#     4  11  20  34  56  84 111 146 187 229 294 341
#     4  10  19  35  58  82 111 148 190 240 289 343
#     4  11  21  35  56  80 111 144 185 232 288 353
#     4  10  19  31  53  82 106 138 188 238 285 339
#     4  11  24  39  54  80 115 149 190 241 292 343
#     4  10  22  38  56  84 120 155 195 238 284 343
#     4   9  18  34  57  81 109 149 193 234 281 341
#
# _framework density 18.752452999999999
#
# number of rings (size 3 to 8) (size 9 to 14) (size 15 to 20)
#    0.000    1.750    3.750    1.500    0.000    2.500 
#    0.000    1.250    0.000    1.500    0.000    0.000 
#    0.000    0.000    0.000    0.000    0.000    0.000 
#
# Total GULP energy -793277.078686 kJ/mol
# GULP energy per Si atom -12394.954354 kJ/mol
# Density = 1.870977 g / cm^3
# Si number density = 18.752453 Si / 1000 Ang^3
#
#
#
# Elastic Constant Matrix: (Units=GPa)
#
#
# Indices 1 2 3 4 5 6 
#
# 1 132.2905 43.9352 49.2609 0.0000 0.0000 0.0000
# 2 43.9352 77.9171 44.5677 0.0000 0.0000 0.0000
# 3 49.2609 44.5677 86.2161 0.0000 0.0000 0.0000
# 4 0.0000 0.0000 0.0000 26.1639 0.0000 0.0000
# 5 0.0000 0.0000 0.0000 0.0000 30.1584 0.0000
# 6 0.0000 0.0000 0.0000 0.0000 0.0000 25.3185
#
#
#
# Elastic Compliance Matrix: (Units=1/GPa)
#
#
# Indices 1 2 3 4 5 6 
#
# 1 0.010212 -0.003437 -0.004058 0.000000 0.000000 0.000000
# 2 -0.003437 0.019379 -0.008054 0.000000 0.000000 0.000000
# 3 -0.004058 -0.008054 0.018080 0.000000 0.000000 0.000000
# 4 0.000000 0.000000 0.000000 0.038221 0.000000 0.000000
# 5 0.000000 0.000000 0.000000 0.000000 0.033158 0.000000
# 6 0.000000 0.000000 0.000000 0.000000 0.000000 0.039497
#
#
# Mechanical properties :
#
#
# Convention : Reuss Voigt Hill
#
# Bulk Modulus (GPa) = 60.33633 63.55015 61.94324
# Shear Modulus (GPa) = 25.61891 26.90549 26.26220
#
# Velocity S-wave (km/s) = 3.70017 3.79195 3.74634
# Velocity P-wave (km/s) = 7.10634 7.28933 7.19842
#
# Compressibility (1/GPa) = 0.01657376
#
# Stress axis : x y z
#
# Youngs Moduli (GPa) = 97.92775 51.60281 55.30821
#
# Poissons Ratio (x) = 0.17736 0.22443
# Poissons Ratio (y) = 0.33657 0.44544
# Poissons Ratio (z) = 0.39738 0.41559
#
# Static dielectric constant tensor:
#      x y z
#    x 3.835930 0.000000 0.000000 
#    y 0.000000 3.482600 0.000000 
#    z 0.000000 0.000000 3.083980 
# 
# 
# High freq. dielectric constant tensor:
#      x y z
#    x 1.746210 0.000000 0.000000 
#    y 0.000000 1.737580 0.000000 
#    z 0.000000 0.000000 1.675090 
# 
# From -- ./inp_files/11212.got.cif
#   From: 2010.03.12/outbox.cif.g09.slc.cpg/sg51_6_cif.got.tgz:11212.got - 2010.04.16 13:43:02.
