data_PCOD8208857
_publ_section_title
;
Structure prediction by ZEFSAII (Michael W. Deem and Ramdas Pophale) SiO2 
 PCOD8208857
Probable space group: P M M A
;
_chemical_formula_sum "Si O2"
_cell_formula_units_Z 56
_cell_length_a 9.113667
_cell_length_b 14.191015
_cell_length_c 25.523321
_cell_angle_alpha 90.000000
_cell_angle_beta 90.000000
_cell_angle_gamma 90.000000
_cell_volume 3300.986876
_symmetry_space_group_name_H-M "P M M A"
_symmetry_group_IT_number 51
_symmetry_cell_setting 'orthorhombic'
loop_
_space_group_symop_operation_xyz
x,y,z
1/2-x,-y,z
1/2+x,-y,-z
-x,y,-z
-x,-y,-z
1/2+x,y,-z
1/2-x,y,z
x,-y,z
loop_
_atom_site_type_symbol
_atom_site_label
_atom_site_fract_x
_atom_site_fract_y
_atom_site_fract_z
Si Si1 0.578850 0.891084 0.946347
Si Si2 0.421318 0.795270 0.851166
Si Si3 0.080768 0.395604 0.801748
Si Si4 0.081616 0.110628 0.244321
Si Si5 0.921760 0.108475 0.447377
Si Si6 0.420021 0.604107 0.304114
Si Si7 0.919500 0.793365 0.646187
O O1 0.750000 0.869188 0.952246
O O2 0.512377 0.827820 0.900945
O O3 0.550690 0.000000 0.932142
O O4 0.500000 0.863177 0.000000
O O5 0.250000 0.817651 0.859477
O O6 0.450828 0.682996 0.845767
O O7 0.474591 0.849008 0.799580
O O8 0.250000 0.395600 0.786362
O O9 0.032217 0.500000 0.821887
O O10 0.997520 0.366408 0.749345
O O11 0.250000 0.134374 0.229424
O O12 0.039356 0.155367 0.299863
O O13 0.056018 0.000000 0.248619
O O14 0.750000 0.123664 0.454505
O O15 0.000000 0.144366 0.500000
O O16 0.976932 0.169514 0.399116
O O17 0.962252 0.000000 0.436401
O O18 0.250000 0.604942 0.290197
O O19 0.470581 0.500000 0.323635
O O20 0.453528 0.681665 0.348461
O O21 0.750000 0.812395 0.631572
#
# Coordination Sequence:
#
# PCOD8208857 Si02
#       7
#     8   8   8   8   8   8   8
#     4  10  21  37  56  76 100 132 170 210 251 298
#     4  11  21  32  50  75 103 134 169 209 251 297
#     4   9  18  32  49  71 101 135 169 207 251 297
#     4  10  20  32  46  69 103 139 169 200 246 301
#     4  10  21  36  54  75  99 130 170 212 252 298
#     4   9  17  30  50  75 101 131 168 208 249 296
#     4  10  19  32  51  74 103 135 167 206 252 301
#
# _framework density 16.964624000000001
#
# number of rings (size 3 to 8) (size 9 to 14) (size 15 to 20)
#    0.000    2.143    1.429    2.143    0.000    6.000 
#    0.000    0.000    0.000    0.857    0.000    0.000 
#    0.000    0.000    0.000    0.000    0.000    0.000 
#
# Total GULP energy -694426.694146 kJ/mol
# GULP energy per Si atom -12400.476681 kJ/mol
# Density = 1.692601 g / cm^3
# Si number density = 16.964624 Si / 1000 Ang^3
#
#
#
# Elastic Constant Matrix: (Units=GPa)
#
#
# Indices 1 2 3 4 5 6 
#
# 1 78.3583 45.7009 58.3932 0.0000 0.0000 0.0000
# 2 45.7009 96.2454 59.8505 0.0000 0.0000 0.0000
# 3 58.3932 59.8505 111.2063 0.0000 0.0000 0.0000
# 4 0.0000 0.0000 0.0000 7.5860 0.0000 0.0000
# 5 0.0000 0.0000 0.0000 0.0000 35.3222 0.0000
# 6 0.0000 0.0000 0.0000 0.0000 0.0000 23.1191
#
#
#
# Elastic Compliance Matrix: (Units=1/GPa)
#
#
# Indices 1 2 3 4 5 6 
#
# 1 0.022464 -0.005008 -0.009101 0.000000 0.000000 0.000000
# 2 -0.005008 0.016733 -0.006376 0.000000 0.000000 0.000000
# 3 -0.009101 -0.006376 0.017203 0.000000 0.000000 0.000000
# 4 0.000000 0.000000 0.000000 0.131823 0.000000 0.000000
# 5 0.000000 0.000000 0.000000 0.000000 0.028311 0.000000
# 6 0.000000 0.000000 0.000000 0.000000 0.000000 0.043254
#
#
# Mechanical properties :
#
#
# Convention : Reuss Voigt Hill
#
# Bulk Modulus (GPa) = 64.80475 68.18882 66.49679
# Shear Modulus (GPa) = 16.34520 21.32982 18.83751
#
# Velocity S-wave (km/s) = 3.10738 3.54971 3.33588
# Velocity P-wave (km/s) = 7.15243 7.55530 7.35662
#
# Compressibility (1/GPa) = 0.01543097
#
# Stress axis : x y z
#
# Youngs Moduli (GPa) = 44.51480 59.76250 58.13079
#
# Poissons Ratio (x) = 0.29927 0.52904
# Poissons Ratio (y) = 0.22291 0.37065
# Poissons Ratio (z) = 0.40512 0.38105
#
# Static dielectric constant tensor:
#      x y z
#    x 3.233450 0.000000 0.000000 
#    y 0.000000 3.536220 0.000000 
#    z 0.000000 0.000000 3.048050 
# 
# 
# High freq. dielectric constant tensor:
#      x y z
#    x 1.661900 0.000000 0.000000 
#    y 0.000000 1.659920 0.000000 
#    z 0.000000 0.000000 1.634380 
# 
# From -- ./inp_files/31985.got.cif
#   From: 2010.03.12/outbox.cif.g09.slc.cpg/sg51_16_cif.got.tgz:31985.got - 2010.04.16 13:43:02.
