data_PCOD8208846
_publ_section_title
;
Structure prediction by ZEFSAII (Michael W. Deem and Ramdas Pophale) SiO2 
 PCOD8208846
Probable space group: P M M A
;
_chemical_formula_sum "Si O2"
_cell_formula_units_Z 64
_cell_length_a 17.773426
_cell_length_b 9.037255
_cell_length_c 22.578179
_cell_angle_alpha 90.000000
_cell_angle_beta 90.000000
_cell_angle_gamma 90.000000
_cell_volume 3626.574461
_symmetry_space_group_name_H-M "P M M A"
_symmetry_group_IT_number 51
_symmetry_cell_setting 'orthorhombic'
loop_
_space_group_symop_operation_xyz
x,y,z
1/2-x,-y,z
1/2+x,-y,-z
-x,y,-z
-x,-y,-z
1/2+x,y,-z
1/2-x,y,z
x,-y,z
loop_
_atom_site_type_symbol
_atom_site_label
_atom_site_fract_x
_atom_site_fract_y
_atom_site_fract_z
Si Si1 0.452284 0.326958 0.374126
Si Si2 0.833894 0.332322 0.327523
Si Si3 0.335876 0.826656 0.446287
Si Si4 0.470468 0.174076 0.868707
Si Si5 0.591690 0.173878 0.429905
Si Si6 0.663671 0.675248 0.063183
Si Si7 0.068714 0.661677 0.043931
Si Si8 0.026469 0.669917 0.748150
O O1 0.453138 0.500000 0.386164
O O2 0.371577 0.258881 0.390463
O O3 0.513436 0.254054 0.417346
O O4 0.469423 0.292452 0.305366
O O5 0.750000 0.312193 0.302930
O O6 0.849373 0.500000 0.349904
O O7 0.846037 0.222597 0.382247
O O8 0.888875 0.296614 0.273356
O O9 0.250000 0.776079 0.452179
O O10 0.379114 0.779843 0.505750
O O11 0.342497 0.000000 0.434471
O O12 0.392202 0.247071 0.890189
O O13 0.544261 0.221763 0.906167
O O14 0.489625 0.221243 0.802070
O O15 0.460970 0.000000 0.873436
O O16 0.578509 0.000000 0.425235
O O17 0.750000 0.726676 0.073608
O O18 0.655237 0.500000 0.072544
O O19 0.639716 0.717570 0.995522
O O20 0.086583 0.500000 0.072536
O O21 0.000000 0.641750 0.000000
O O22 0.017535 0.500000 0.768768
#
# Coordination Sequence:
#
# PCOD8208846 Si02
#       8
#     8   8   8   8   8   8   8   8
#     4  10  21  36  54  75  97 126 168 214 255 292
#     4   9  18  32  49  70  97 129 165 206 250 292
#     4  10  21  35  51  74 103 132 160 195 248 311
#     4  11  21  31  48  75 102 130 166 204 242 286
#     4  10  19  32  51  74 101 133 165 196 240 303
#     4   9  18  33  53  76 103 135 166 196 236 285
#     4   8  15  30  51  72  96 129 165 196 230 276
#     4   9  19  35  51  68  94 130 170 208 245 288
#
# _framework density 17.647507999999998
#
# number of rings (size 3 to 8) (size 9 to 14) (size 15 to 20)
#    0.000    2.500    0.000    4.125    0.000    9.000 
#    0.000    1.250    0.000    0.750    0.000    1.750 
#    0.000    0.000    0.000    0.000    0.000    0.000 
#
# Total GULP energy -793464.311525 kJ/mol
# GULP energy per Si atom -12397.879868 kJ/mol
# Density = 1.760734 g / cm^3
# Si number density = 17.647508 Si / 1000 Ang^3
#
#
#
# Elastic Constant Matrix: (Units=GPa)
#
#
# Indices 1 2 3 4 5 6 
#
# 1 65.9896 41.4121 49.2056 0.0000 0.0000 0.0000
# 2 41.4121 78.8668 54.3112 0.0000 0.0000 0.0000
# 3 49.2056 54.3112 103.1058 0.0000 0.0000 0.0000
# 4 0.0000 0.0000 0.0000 18.9416 0.0000 0.0000
# 5 0.0000 0.0000 0.0000 0.0000 14.3002 0.0000
# 6 0.0000 0.0000 0.0000 0.0000 0.0000 24.3551
#
#
#
# Elastic Compliance Matrix: (Units=1/GPa)
#
#
# Indices 1 2 3 4 5 6 
#
# 1 0.026503 -0.008170 -0.008345 0.000000 0.000000 0.000000
# 2 -0.008170 0.022416 -0.007909 0.000000 0.000000 0.000000
# 3 -0.008345 -0.007909 0.017847 0.000000 0.000000 0.000000
# 4 0.000000 0.000000 0.000000 0.052794 0.000000 0.000000
# 5 0.000000 0.000000 0.000000 0.000000 0.069929 0.000000
# 6 0.000000 0.000000 0.000000 0.000000 0.000000 0.041059
#
#
# Mechanical properties :
#
#
# Convention : Reuss Voigt Hill
#
# Bulk Modulus (GPa) = 55.80509 59.75779 57.78144
# Shear Modulus (GPa) = 17.52124 18.38827 17.95476
#
# Velocity S-wave (km/s) = 3.15436 3.23147 3.19315
# Velocity P-wave (km/s) = 6.70503 6.91799 6.81234
#
# Compressibility (1/GPa) = 0.01791951
#
# Stress axis : x y z
#
# Youngs Moduli (GPa) = 37.73108 44.61137 56.03191
#
# Poissons Ratio (x) = 0.36448 0.46757
# Poissons Ratio (y) = 0.30827 0.44313
# Poissons Ratio (z) = 0.31485 0.35281
#
# Static dielectric constant tensor:
#      x y z
#    x 3.434290 0.000000 0.000000 
#    y 0.000000 3.232050 0.000000 
#    z 0.000000 0.000000 3.201660 
# 
# 
# High freq. dielectric constant tensor:
#      x y z
#    x 1.670650 0.000000 0.000000 
#    y 0.000000 1.679430 0.000000 
#    z 0.000000 0.000000 1.669190 
# 
# From -- ./inp_files/34167.got.cif
#   From: 2010.03.12/outbox.cif.g09.slc.cpg/sg51_18_cif.got.tgz:34167.got - 2010.04.16 13:43:02.
