data_PCOD8208326
_publ_section_title
;
Structure prediction by ZEFSAII (Michael W. Deem and Ramdas Pophale) SiO2 
 PCOD8208326
Probable space group: P M M A
;
_chemical_formula_sum "Si O2"
_cell_formula_units_Z 52
_cell_length_a 8.726955
_cell_length_b 15.424272
_cell_length_c 23.059276
_cell_angle_alpha 90.000000
_cell_angle_beta 90.000000
_cell_angle_gamma 90.000000
_cell_volume 3103.938296
_symmetry_space_group_name_H-M "P M M A"
_symmetry_group_IT_number 51
_symmetry_cell_setting 'orthorhombic'
loop_
_space_group_symop_operation_xyz
x,y,z
1/2-x,-y,z
1/2+x,-y,-z
-x,y,-z
-x,-y,-z
1/2+x,y,-z
1/2-x,y,z
x,-y,z
loop_
_atom_site_type_symbol
_atom_site_label
_atom_site_fract_x
_atom_site_fract_y
_atom_site_fract_z
Si Si1 0.569669 0.341682 0.440306
Si Si2 0.920619 0.898178 0.057023
Si Si3 0.929050 0.000000 0.561669
Si Si4 0.570165 0.820635 0.609812
Si Si5 0.930867 0.774190 0.271051
Si Si6 0.569226 0.405782 0.316488
Si Si7 0.569836 0.900019 0.822271
O O1 0.500000 0.380851 0.500000
O O2 0.750000 0.350835 0.445138
O O3 0.521486 0.241611 0.433833
O O4 0.505429 0.388490 0.381921
O O5 0.750000 0.858350 0.065340
O O6 0.026610 0.877353 0.111949
O O7 0.905147 0.000000 0.047981
O O8 0.000000 0.856755 0.000000
O O9 0.984987 0.916791 0.596275
O O10 0.000000 0.000000 0.500000
O O11 0.750000 0.000000 0.554243
O O12 0.750000 0.804467 0.601111
O O13 0.525232 0.811754 0.676160
O O14 0.750000 0.785869 0.280585
O O15 0.973966 0.670527 0.270446
O O16 0.981557 0.827833 0.214979
O O17 0.750000 0.408995 0.322320
O O18 0.506236 0.500000 0.295095
O O19 0.750000 0.888792 0.813308
O O20 0.521058 0.000000 0.807038
#
# Coordination Sequence:
#
# PCOD8208326 Si02
#       7
#     8   8   4   8   8   8   8
#     4  10  19  31  48  69  90 113 143 180 229 284
#     4   9  16  27  44  67  97 132 170 207 240 275
#     4  10  22  34  46  62  80 108 147 186 225 272
#     4  10  20  34  48  63  86 116 149 187 232 280
#     4  10  20  33  50  72  94 120 155 195 237 281
#     4   8  16  32  51  69  91 118 148 186 236 291
#     4  10  20  32  47  68  98 136 171 202 235 273
#
# _framework density 16.752911000000001
#
# number of rings (size 3 to 8) (size 9 to 14) (size 15 to 20)
#    0.000    2.462    0.000    3.692    1.077    5.538 
#    0.000    0.000    0.000   16.154    0.000    0.000 
#    0.000    0.615    0.000    1.692    0.000    2.462 
#
# Total GULP energy -644362.146873 kJ/mol
# GULP energy per Si atom -12391.579748 kJ/mol
# Density = 1.671478 g / cm^3
# Si number density = 16.752911 Si / 1000 Ang^3
#
#
#
# Elastic Constant Matrix: (Units=GPa)
#
#
# Indices 1 2 3 4 5 6 
#
# 1 34.3126 18.0066 4.6248 0.0000 0.0000 0.0000
# 2 18.0066 114.2463 39.0245 0.0000 0.0000 0.0000
# 3 4.6248 39.0245 72.8831 0.0000 0.0000 0.0000
# 4 0.0000 0.0000 0.0000 9.1311 0.0000 0.0000
# 5 0.0000 0.0000 0.0000 0.0000 30.6354 0.0000
# 6 0.0000 0.0000 0.0000 0.0000 0.0000 14.1842
#
#
#
# Elastic Compliance Matrix: (Units=1/GPa)
#
#
# Indices 1 2 3 4 5 6 
#
# 1 0.031811 -0.005292 0.000815 0.000000 0.000000 0.000000
# 2 -0.005292 0.011593 -0.005871 0.000000 0.000000 0.000000
# 3 0.000815 -0.005871 0.016813 0.000000 0.000000 0.000000
# 4 0.000000 0.000000 0.000000 0.109516 0.000000 0.000000
# 5 0.000000 0.000000 0.000000 0.000000 0.032642 0.000000
# 6 0.000000 0.000000 0.000000 0.000000 0.000000 0.070501
#
#
# Mechanical properties :
#
#
# Convention : Reuss Voigt Hill
#
# Bulk Modulus (GPa) = 25.30393 38.30595 31.80494
# Shear Modulus (GPa) = 16.30017 21.44256 18.87136
#
# Velocity S-wave (km/s) = 3.12264 3.58149 3.35991
# Velocity P-wave (km/s) = 5.30454 6.32595 5.83763
#
# Compressibility (1/GPa) = 0.03951955
#
# Stress axis : x y z
#
# Youngs Moduli (GPa) = 31.43542 86.26125 59.47911
#
# Poissons Ratio (x) = 0.45652 -0.04848
# Poissons Ratio (y) = 0.16636 0.34922
# Poissons Ratio (z) = -0.02562 0.50647
#
# Static dielectric constant tensor:
#      x y z
#    x 3.159340 0.000000 0.000000 
#    y 0.000000 3.418920 0.000000 
#    z 0.000000 0.000000 3.076760 
# 
# 
# High freq. dielectric constant tensor:
#      x y z
#    x 1.647940 0.000000 0.000000 
#    y 0.000000 1.624520 0.000000 
#    z 0.000000 0.000000 1.629280 
# 
# From -- ./inp_files/34733.got.cif
#   From: 2010.03.12/outbox.cif.g09.slc.cpg/sg51_18_cif.got.tgz:34733.got - 2010.04.16 13:43:02.
