data_PCOD8208959
_publ_section_title
;
Structure prediction by ZEFSAII (Michael W. Deem and Ramdas Pophale) SiO2 
 PCOD8208959
Probable space group: P M M A
;
_chemical_formula_sum "Si O2"
_cell_formula_units_Z 64
_cell_length_a 9.160838
_cell_length_b 15.554502
_cell_length_c 23.277369
_cell_angle_alpha 90.000000
_cell_angle_beta 90.000000
_cell_angle_gamma 90.000000
_cell_volume 3316.845218
_symmetry_space_group_name_H-M "P M M A"
_symmetry_group_IT_number 51
_symmetry_cell_setting 'orthorhombic'
loop_
_space_group_symop_operation_xyz
x,y,z
1/2-x,-y,z
1/2+x,-y,-z
-x,y,-z
-x,-y,-z
1/2+x,y,-z
1/2-x,y,z
x,-y,z
loop_
_atom_site_type_symbol
_atom_site_label
_atom_site_fract_x
_atom_site_fract_y
_atom_site_fract_z
Si Si1 0.084277 0.906866 0.385888
Si Si2 0.909849 0.598064 0.764761
Si Si3 0.423727 0.266353 0.441378
Si Si4 0.418566 0.673071 0.668123
Si Si5 0.419530 0.401516 0.874727
Si Si6 0.421219 0.766183 0.941143
Si Si7 0.923203 0.097447 0.152718
Si Si8 0.916995 0.142498 0.278408
O O1 0.250000 0.885725 0.369352
O O2 0.029435 0.832714 0.429015
O O3 0.997899 0.912521 0.326506
O O4 0.068550 0.000000 0.416627
O O5 0.750000 0.643135 0.757431
O O6 0.883872 0.500000 0.779311
O O7 0.005921 0.601218 0.706994
O O8 0.995673 0.635608 0.819432
O O9 0.500000 0.295432 0.500000
O O10 0.250000 0.279870 0.445511
O O11 0.491664 0.324010 0.391037
O O12 0.250000 0.651347 0.654794
O O13 0.435696 0.758039 0.706305
O O14 0.250000 0.397825 0.858257
O O15 0.462549 0.500000 0.892768
O O16 0.455934 0.333349 0.924876
O O17 0.250000 0.779551 0.949798
O O18 0.482155 0.833991 0.893864
O O19 0.500000 0.788580 0.000000
O O20 0.750000 0.103678 0.154781
O O21 0.984833 0.123394 0.215702
O O22 0.973515 0.000000 0.137159
O O23 0.750000 0.113087 0.280085
#
# Coordination Sequence:
#
# PCOD8208959 Si02
#       8
#     8   8   8   8   8   8   8   8
#     4   9  18  31  46  68 100 132 160 200 256 309
#     4  10  20  33  52  81 112 136 160 195 242 297
#     4  10  20  34  50  69  96 132 175 218 257 299
#     4  10  19  32  52  76 102 134 170 207 249 299
#     4   9  18  34  55  77 103 135 167 202 249 305
#     4  10  21  36  52  72  98 130 171 214 254 302
#     4   9  17  30  49  71  96 128 165 208 256 302
#     4   9  17  30  50  74  96 123 164 208 250 302
#
# _framework density 19.295444
#
# number of rings (size 3 to 8) (size 9 to 14) (size 15 to 20)
#    0.000    2.500    0.000    2.250    0.000    5.750 
#    0.000    0.625    0.000    1.125    0.000    0.000 
#    0.000    0.000    0.000    0.000    0.000    0.000 
#
# Total GULP energy -793299.161828 kJ/mol
# GULP energy per Si atom -12395.299404 kJ/mol
# Density = 1.925153 g / cm^3
# Si number density = 19.295444 Si / 1000 Ang^3
#
#
#
# Elastic Constant Matrix: (Units=GPa)
#
#
# Indices 1 2 3 4 5 6 
#
# 1 69.8977 14.0369 38.6630 0.0000 0.0000 0.0000
# 2 14.0369 52.9798 27.1729 0.0000 0.0000 0.0000
# 3 38.6630 27.1729 116.5636 0.0000 0.0000 0.0000
# 4 0.0000 0.0000 0.0000 19.8506 0.0000 0.0000
# 5 0.0000 0.0000 0.0000 0.0000 34.9079 0.0000
# 6 0.0000 0.0000 0.0000 0.0000 0.0000 17.4523
#
#
#
# Elastic Compliance Matrix: (Units=1/GPa)
#
#
# Indices 1 2 3 4 5 6 
#
# 1 0.017689 -0.001905 -0.005423 0.000000 0.000000 0.000000
# 2 -0.001905 0.021644 -0.004414 0.000000 0.000000 0.000000
# 3 -0.005423 -0.004414 0.011407 0.000000 0.000000 0.000000
# 4 0.000000 0.000000 0.000000 0.050376 0.000000 0.000000
# 5 0.000000 0.000000 0.000000 0.000000 0.028647 0.000000
# 6 0.000000 0.000000 0.000000 0.000000 0.000000 0.057299
#
#
# Mechanical properties :
#
#
# Convention : Reuss Voigt Hill
#
# Bulk Modulus (GPa) = 36.68984 44.35407 40.52195
# Shear Modulus (GPa) = 22.76555 25.08006 23.92281
#
# Velocity S-wave (km/s) = 3.43861 3.60917 3.52492
# Velocity P-wave (km/s) = 5.90097 6.35648 6.13296
#
# Compressibility (1/GPa) = 0.02725550
#
# Stress axis : x y z
#
# Youngs Moduli (GPa) = 56.53248 46.20316 87.66803
#
# Poissons Ratio (x) = 0.08802 0.47543
# Poissons Ratio (y) = 0.10770 0.38693
# Poissons Ratio (z) = 0.30658 0.20392
#
# Static dielectric constant tensor:
#      x y z
#    x 3.560640 0.000000 0.000000 
#    y 0.000000 3.497900 0.000000 
#    z 0.000000 0.000000 3.398680 
# 
# 
# High freq. dielectric constant tensor:
#      x y z
#    x 1.738670 0.000000 0.000000 
#    y 0.000000 1.741800 0.000000 
#    z 0.000000 0.000000 1.741850 
# 
# From -- ./inp_files/32438.got.cif
#   From: 2010.03.12/outbox.cif.g09.slc.cpg/sg51_17_cif.got.tgz:32438.got - 2010.04.16 13:43:02.
