data_PCOD8208816
_publ_section_title
;
Structure prediction by ZEFSAII (Michael W. Deem and Ramdas Pophale) SiO2 
 PCOD8208816
Probable space group: P M M A
;
_chemical_formula_sum "Si O2"
_cell_formula_units_Z 64
_cell_length_a 18.268047
_cell_length_b 9.258382
_cell_length_c 20.744354
_cell_angle_alpha 90.000000
_cell_angle_beta 90.000000
_cell_angle_gamma 90.000000
_cell_volume 3508.545646
_symmetry_space_group_name_H-M "P M M A"
_symmetry_group_IT_number 51
_symmetry_cell_setting 'orthorhombic'
loop_
_space_group_symop_operation_xyz
x,y,z
1/2-x,-y,z
1/2+x,-y,-z
-x,y,-z
-x,-y,-z
1/2+x,y,-z
1/2-x,y,z
x,-y,z
loop_
_atom_site_type_symbol
_atom_site_label
_atom_site_fract_x
_atom_site_fract_y
_atom_site_fract_z
Si Si1 0.586962 0.836795 0.497685
Si Si2 0.662976 0.836788 0.738731
Si Si3 0.408648 0.668382 0.376725
Si Si4 0.837273 0.162173 0.122457
Si Si5 0.334600 0.668026 0.753028
Si Si6 0.662977 0.662132 0.859928
Si Si7 0.337061 0.662217 0.997743
Si Si8 0.580074 0.666966 0.373396
O O1 0.500000 0.836478 0.500000
O O2 0.617859 0.746637 0.557966
O O3 0.612968 0.760431 0.431958
O O4 0.617860 0.000000 0.500201
O O5 0.750000 0.835264 0.738083
O O6 0.635364 0.737287 0.681462
O O7 0.632418 0.771401 0.805979
O O8 0.633044 0.000000 0.731443
O O9 0.389232 0.500000 0.382244
O O10 0.494205 0.693413 0.364501
O O11 0.750000 0.166402 0.120531
O O12 0.865438 0.246985 0.185233
O O13 0.869889 0.234761 0.057643
O O14 0.867342 0.000000 0.125893
O O15 0.250000 0.704196 0.739847
O O16 0.346446 0.500000 0.767232
O O17 0.380184 0.719591 0.691252
O O18 0.750000 0.660281 0.858132
O O19 0.633818 0.500000 0.845819
O O20 0.636666 0.713747 0.931104
O O21 0.250000 0.665259 0.994776
O O22 0.365098 0.500000 0.984676
O O23 0.597053 0.500000 0.388394
#
# Coordination Sequence:
#
# PCOD8208816 Si02
#       8
#     8   8   8   8   8   8   8   8
#     4   9  17  30  49  71  93 118 150 189 232 273
#     4  10  20  32  46  67  96 125 152 186 229 276
#     4  10  19  32  51  71  92 119 153 192 228 269
#     4   9  16  24  36  58  88 119 151 187 225 265
#     4   9  17  30  47  66  92 124 153 184 225 271
#     4   8  14  25  41  61  86 117 152 187 224 268
#     4   8  13  22  37  57  82 114 151 187 222 263
#     4   9  18  32  50  72  93 117 154 194 229 268
#
# _framework density 18.241177
#
# number of rings (size 3 to 8) (size 9 to 14) (size 15 to 20)
#    0.000    3.000    0.000    2.250    0.000    5.250 
#    0.000    3.125    0.000    2.250    0.000    0.875 
#    0.000    7.000    0.000    0.000    0.000    0.000 
#
# Total GULP energy -793422.394814 kJ/mol
# GULP energy per Si atom -12397.224919 kJ/mol
# Density = 1.819966 g / cm^3
# Si number density = 18.241177 Si / 1000 Ang^3
#
#
#
# Elastic Constant Matrix: (Units=GPa)
#
#
# Indices 1 2 3 4 5 6 
#
# 1 11.1838 17.5346 20.8185 0.0000 0.0000 0.0000
# 2 17.5346 129.5523 94.7542 0.0000 0.0000 0.0000
# 3 20.8185 94.7542 180.6850 0.0000 0.0000 0.0000
# 4 0.0000 0.0000 0.0000 24.9229 0.0000 0.0000
# 5 0.0000 0.0000 0.0000 0.0000 -11.6289 0.0000
# 6 0.0000 0.0000 0.0000 0.0000 0.0000 14.0771
#
#
#
# Elastic Compliance Matrix: (Units=1/GPa)
#
#
# Indices 1 2 3 4 5 6 
#
# 1 0.121406 -0.010059 -0.008713 0.000000 0.000000 0.000000
# 2 -0.010059 0.013355 -0.005845 0.000000 0.000000 0.000000
# 3 -0.008713 -0.005845 0.009603 0.000000 0.000000 0.000000
# 4 0.000000 0.000000 0.000000 0.040124 0.000000 0.000000
# 5 0.000000 0.000000 0.000000 0.000000 -0.085993 0.000000
# 6 0.000000 0.000000 0.000000 0.000000 0.000000 0.071037
#
#
# Mechanical properties :
#
#
# Convention : Reuss Voigt Hill
#
# Bulk Modulus (GPa) = 10.51183 65.29284 37.90234
# Shear Modulus (GPa) = 19.96186 18.02847 18.99517
#
# Velocity S-wave (km/s) = 3.31165 3.14720 3.23047
# Velocity P-wave (km/s) = 4.51641 7.00560 5.89391
#
# Compressibility (1/GPa) = 0.09513090
#
# Stress axis : x y z
#
# Youngs Moduli (GPa) = 8.23679 74.87765 104.12917
#
# Poissons Ratio (x) = 0.75321 0.90731
# Poissons Ratio (y) = 0.08286 0.60860
# Poissons Ratio (z) = 0.07177 0.43763
#
# Static dielectric constant tensor:
#      x y z
#    x 2.774310 0.000000 0.000000 
#    y 0.000000 3.563510 0.000000 
#    z 0.000000 0.000000 3.690030 
# 
# 
# High freq. dielectric constant tensor:
#      x y z
#    x 1.639660 0.000000 0.000000 
#    y 0.000000 1.712360 0.000000 
#    z 0.000000 0.000000 1.725810 
# 
# From -- ./inp_files/30894.got.cif
#   From: 2010.03.12/outbox.cif.g09.slc.cpg/sg51_16_cif.got.tgz:30894.got - 2010.04.16 13:43:02.
