data_PCOD8208701
_publ_section_title
;
Structure prediction by ZEFSAII (Michael W. Deem and Ramdas Pophale) SiO2 
 PCOD8208701
Probable space group: P M M A
;
_chemical_formula_sum "Si O2"
_cell_formula_units_Z 64
_cell_length_a 19.997674
_cell_length_b 8.948483
_cell_length_c 20.442790
_cell_angle_alpha 90.000000
_cell_angle_beta 90.000000
_cell_angle_gamma 90.000000
_cell_volume 3658.213676
_symmetry_space_group_name_H-M "P M M A"
_symmetry_group_IT_number 51
_symmetry_cell_setting 'orthorhombic'
loop_
_space_group_symop_operation_xyz
x,y,z
1/2-x,-y,z
1/2+x,-y,-z
-x,y,-z
-x,-y,-z
1/2+x,y,-z
1/2-x,y,z
x,-y,z
loop_
_atom_site_type_symbol
_atom_site_label
_atom_site_fract_x
_atom_site_fract_y
_atom_site_fract_z
Si Si1 0.673584 0.328463 0.944876
Si Si2 0.568715 0.175263 0.037111
Si Si3 0.430707 0.331012 0.581614
Si Si4 0.116024 0.820589 0.174882
Si Si5 0.088023 0.666527 0.440450
Si Si6 0.472857 0.322464 0.835733
Si Si7 0.051515 0.833143 0.706404
Si Si8 0.105723 0.835610 0.317616
O O1 0.750000 0.320833 0.968153
O O2 0.648162 0.500000 0.943448
O O3 0.669272 0.256274 0.872623
O O4 0.630148 0.229266 0.993504
O O5 0.572605 0.270160 0.103812
O O6 0.576284 0.000000 0.052211
O O7 0.500000 0.210379 0.000000
O O8 0.405174 0.500000 0.592306
O O9 0.400738 0.263762 0.513336
O O10 0.510303 0.331908 0.576411
O O11 0.408355 0.231870 0.643652
O O12 0.135004 0.771177 0.249268
O O13 0.043078 0.761237 0.155659
O O14 0.115566 0.000000 0.167666
O O15 0.116013 0.500000 0.442176
O O16 0.128620 0.747247 0.382361
O O17 0.482886 0.500000 0.835430
O O18 0.436019 0.272224 0.768980
O O19 0.973728 0.837863 0.689669
O O20 0.078046 0.000000 0.721108
O O21 0.134412 0.000000 0.328322
#
# Coordination Sequence:
#
# PCOD8208701 Si02
#       8
#     8   8   8   8   8   8   8   8
#     4  11  24  39  55  77 102 129 163 202 247 300
#     4  11  22  36  56  78 100 128 163 204 246 298
#     4   8  13  21  31  46  71 105 145 185 227 275
#     4  10  19  32  48  68  93 123 159 198 241 289
#     4   8  13  20  31  47  70 103 144 186 226 273
#     4  11  20  30  48  70  94 122 156 201 247 288
#     4   9  16  25  36  54  81 112 149 190 233 282
#     4   8  15  24  35  53  78 107 145 190 229 271
#
# _framework density 17.494876999999999
#
# number of rings (size 3 to 8) (size 9 to 14) (size 15 to 20)
#    0.000    2.500    1.250    4.125    0.000    5.500 
#    0.000    2.500    0.000    0.000    0.000    0.000 
#    0.000    0.000    0.000    1.125    0.000   19.250 
#
# Total GULP energy -793154.345903 kJ/mol
# GULP energy per Si atom -12393.036655 kJ/mol
# Density = 1.745506 g / cm^3
# Si number density = 17.494877 Si / 1000 Ang^3
#
#
#
# Elastic Constant Matrix: (Units=GPa)
#
#
# Indices 1 2 3 4 5 6 
#
# 1 29.3114 13.9900 20.6418 0.0000 0.0000 0.0000
# 2 13.9900 89.4678 45.5474 0.0000 0.0000 0.0000
# 3 20.6418 45.5474 129.3984 0.0000 0.0000 0.0000
# 4 0.0000 0.0000 0.0000 38.0332 0.0000 0.0000
# 5 0.0000 0.0000 0.0000 0.0000 10.7009 0.0000
# 6 0.0000 0.0000 0.0000 0.0000 0.0000 11.6828
#
#
#
# Elastic Compliance Matrix: (Units=1/GPa)
#
#
# Indices 1 2 3 4 5 6 
#
# 1 0.039366 -0.003605 -0.005011 0.000000 0.000000 0.000000
# 2 -0.003605 0.013947 -0.004334 0.000000 0.000000 0.000000
# 3 -0.005011 -0.004334 0.010053 0.000000 0.000000 0.000000
# 4 0.000000 0.000000 0.000000 0.026293 0.000000 0.000000
# 5 0.000000 0.000000 0.000000 0.000000 0.093450 0.000000
# 6 0.000000 0.000000 0.000000 0.000000 0.000000 0.085596
#
#
# Mechanical properties :
#
#
# Convention : Reuss Voigt Hill
#
# Bulk Modulus (GPa) = 26.69051 45.39289 36.04170
# Shear Modulus (GPa) = 16.28169 23.28328 19.78248
#
# Velocity S-wave (km/s) = 3.05397 3.65206 3.36632
# Velocity P-wave (km/s) = 5.26545 6.61710 5.97959
#
# Compressibility (1/GPa) = 0.03746649
#
# Stress axis : x y z
#
# Youngs Moduli (GPa) = 25.40288 71.69764 99.47176
#
# Poissons Ratio (x) = 0.25844 0.49844
# Poissons Ratio (y) = 0.09157 0.43115
# Poissons Ratio (z) = 0.12729 0.31077
#
# Static dielectric constant tensor:
#      x y z
#    x 2.574350 0.000000 0.000000 
#    y 0.000000 3.423360 0.000000 
#    z 0.000000 0.000000 3.728560 
# 
# 
# High freq. dielectric constant tensor:
#      x y z
#    x 1.587990 0.000000 0.000000 
#    y 0.000000 1.684070 0.000000 
#    z 0.000000 0.000000 1.698710 
# 
# From -- ./inp_files/34139.got.cif
#   From: 2010.03.12/outbox.cif.g09.slc.cpg/sg51_18_cif.got.tgz:34139.got - 2010.04.16 13:43:02.
