data_PCOD8208424
_publ_section_title
;
Structure prediction by ZEFSAII (Michael W. Deem and Ramdas Pophale) SiO2 
 PCOD8208424
Probable space group: P M M A
;
_chemical_formula_sum "Si O2"
_cell_formula_units_Z 48
_cell_length_a 18.313008
_cell_length_b 8.917067
_cell_length_c 16.496854
_cell_angle_alpha 90.000000
_cell_angle_beta 90.000000
_cell_angle_gamma 90.000000
_cell_volume 2693.908532
_symmetry_space_group_name_H-M "P M M A"
_symmetry_group_IT_number 51
_symmetry_cell_setting 'orthorhombic'
loop_
_space_group_symop_operation_xyz
x,y,z
1/2-x,-y,z
1/2+x,-y,-z
-x,y,-z
-x,-y,-z
1/2+x,y,-z
1/2-x,y,z
x,-y,z
loop_
_atom_site_type_symbol
_atom_site_label
_atom_site_fract_x
_atom_site_fract_y
_atom_site_fract_z
Si Si1 0.335099 0.672709 0.522478
Si Si2 0.667033 0.177178 0.645835
Si Si3 0.166667 0.325351 0.836204
Si Si4 0.542733 0.170889 0.758105
Si Si5 0.466166 0.821218 0.915175
Si Si6 0.609309 0.827773 0.320974
O O1 0.250000 0.693926 0.540319
O O2 0.358150 0.500000 0.521684
O O3 0.356643 0.743985 0.436916
O O4 0.379206 0.757009 0.591638
O O5 0.750000 0.217406 0.669501
O O6 0.615013 0.242743 0.717345
O O7 0.656086 0.000000 0.633913
O O8 0.250000 0.298051 0.863886
O O9 0.147774 0.500000 0.831721
O O10 0.155931 0.257281 0.747007
O O11 0.114275 0.247705 0.902678
O O12 0.519858 0.242928 0.844569
O O13 0.476450 0.187268 0.695644
O O14 0.561732 0.000000 0.776470
O O15 0.457909 0.000000 0.909334
O O16 0.500000 0.768662 0.000000
O O17 0.634735 0.000000 0.320796
#
# Coordination Sequence:
#
# PCOD8208424 Si02
#       6
#     8   8   8   8   8   8
#     4  10  20  32  45  65  96 128 159 200 244 283
#     4   9  17  31  50  67  87 122 165 201 235 281
#     4  10  20  33  50  74 104 134 164 201 245 293
#     4   8  16  31  49  71  96 121 154 198 243 283
#     4   9  18  34  55  77 102 131 163 201 246 298
#     4  10  19  31  49  71  97 129 163 200 242 290
#
# _framework density 17.817976999999999
#
# number of rings (size 3 to 8) (size 9 to 14) (size 15 to 20)
#    0.000    2.667    0.000    3.000    0.000    5.333 
#    0.000    8.333    0.000    3.000    0.000    2.333 
#    0.000    0.000    0.000    0.000    0.000    0.000 
#
# Total GULP energy -595099.377161 kJ/mol
# GULP energy per Si atom -12397.903691 kJ/mol
# Density = 1.777742 g / cm^3
# Si number density = 17.817977 Si / 1000 Ang^3
#
#
#
# Elastic Constant Matrix: (Units=GPa)
#
#
# Indices 1 2 3 4 5 6 
#
# 1 100.4878 43.2374 82.6483 0.0000 0.0000 0.0000
# 2 43.2374 68.3527 47.1042 0.0000 0.0000 0.0000
# 3 82.6483 47.1042 137.6873 0.0000 0.0000 0.0000
# 4 0.0000 0.0000 0.0000 12.3281 0.0000 0.0000
# 5 0.0000 0.0000 0.0000 0.0000 26.8404 0.0000
# 6 0.0000 0.0000 0.0000 0.0000 0.0000 20.4689
#
#
#
# Elastic Compliance Matrix: (Units=1/GPa)
#
#
# Indices 1 2 3 4 5 6 
#
# 1 0.021463 -0.006148 -0.010780 0.000000 0.000000 0.000000
# 2 -0.006148 0.020904 -0.003461 0.000000 0.000000 0.000000
# 3 -0.010780 -0.003461 0.014918 0.000000 0.000000 0.000000
# 4 0.000000 0.000000 0.000000 0.081115 0.000000 0.000000
# 5 0.000000 0.000000 0.000000 0.000000 0.037257 0.000000
# 6 0.000000 0.000000 0.000000 0.000000 0.000000 0.048855
#
#
# Mechanical properties :
#
#
# Convention : Reuss Voigt Hill
#
# Bulk Modulus (GPa) = 60.58168 72.50084 66.54126
# Shear Modulus (GPa) = 18.46427 20.83000 19.64713
#
# Velocity S-wave (km/s) = 3.22261 3.42284 3.32423
# Velocity P-wave (km/s) = 6.92251 7.50994 7.22220
#
# Compressibility (1/GPa) = 0.01650664
#
# Stress axis : x y z
#
# Youngs Moduli (GPa) = 46.59151 47.83753 67.03341
#
# Poissons Ratio (x) = 0.29409 0.72264
# Poissons Ratio (y) = 0.28643 0.23202
# Poissons Ratio (z) = 0.50227 0.16558
#
# Static dielectric constant tensor:
#      x y z
#    x 3.373400 0.000000 0.000000 
#    y 0.000000 3.220280 0.000000 
#    z 0.000000 0.000000 3.335310 
# 
# 
# High freq. dielectric constant tensor:
#      x y z
#    x 1.687390 0.000000 0.000000 
#    y 0.000000 1.678270 0.000000 
#    z 0.000000 0.000000 1.681600 
# 
# From -- ./inp_files/29394.got.cif
#   From: 2010.03.12/outbox.cif.g09.slc.cpg/sg51_15_cif.got.tgz:29394.got - 2010.04.16 13:43:02.
