data_PCOD8208058
_publ_section_title
;
Structure prediction by ZEFSAII (Michael W. Deem and Ramdas Pophale) SiO2 
 PCOD8208058
Probable space group: P M M A
;
_chemical_formula_sum "Si O2"
_cell_formula_units_Z 64
_cell_length_a 22.937256
_cell_length_b 9.646524
_cell_length_c 18.226518
_cell_angle_alpha 90.000000
_cell_angle_beta 90.000000
_cell_angle_gamma 90.000000
_cell_volume 4032.886687
_symmetry_space_group_name_H-M "P M M A"
_symmetry_group_IT_number 51
_symmetry_cell_setting 'orthorhombic'
loop_
_space_group_symop_operation_xyz
x,y,z
1/2-x,-y,z
1/2+x,-y,-z
-x,y,-z
-x,-y,-z
1/2+x,y,-z
1/2-x,y,z
x,-y,z
loop_
_atom_site_type_symbol
_atom_site_label
_atom_site_fract_x
_atom_site_fract_y
_atom_site_fract_z
Si Si1 0.680732 0.657694 0.091640
Si Si2 0.007656 0.158689 0.416611
Si Si3 0.315539 0.333998 0.223424
Si Si4 0.878222 0.841465 0.373809
Si Si5 0.681941 0.839503 0.225056
Si Si6 0.888240 0.660918 0.638841
Si Si7 0.319183 0.653749 0.066310
Si Si8 0.316809 0.659573 0.505465
O O1 0.750000 0.658578 0.095855
O O2 0.657893 0.500000 0.101462
O O3 0.655956 0.753562 0.156516
O O4 0.661265 0.722307 0.011689
O O5 0.947711 0.173623 0.372205
O O6 0.000000 0.211901 0.500000
O O7 0.053790 0.252653 0.374846
O O8 0.029820 0.000000 0.417599
O O9 0.250000 0.279666 0.240128
O O10 0.314289 0.500000 0.220633
O O11 0.359257 0.282409 0.286300
O O12 0.338500 0.275025 0.143648
O O13 0.852811 0.789081 0.296640
O O14 0.853035 0.750461 0.438635
O O15 0.859360 0.000000 0.388141
O O16 0.750000 0.809385 0.238633
O O17 0.670544 0.000000 0.208114
O O18 0.905687 0.500000 0.644944
O O19 0.841124 0.684869 0.575498
O O20 0.250000 0.645100 0.069089
O O21 0.345693 0.500000 0.063907
O O22 0.250000 0.707289 0.506272
O O23 0.323283 0.500000 0.528880
#
# Coordination Sequence:
#
# PCOD8208058 Si02
#       8
#     8   8   8   8   8   8   8   8
#     4   8  13  22  38  61  88 116 143 170 204 250
#     4  10  20  35  51  64  81 111 152 194 229 261
#     4   8  13  23  41  66  95 122 146 174 211 260
#     4  10  20  34  49  63  82 114 154 188 219 260
#     4   9  17  28  42  62  87 112 139 174 216 261
#     4  10  19  30  47  69  91 115 145 182 222 260
#     4   7  10  18  35  60  88 117 146 171 199 246
#     4  10  20  31  44  66  94 118 140 172 218 266
#
# _framework density 15.869524999999999
#
# number of rings (size 3 to 8) (size 9 to 14) (size 15 to 20)
#    0.000    3.000    1.250    2.250    0.000    3.500 
#    0.000    1.250    0.000    1.875    0.000    2.625 
#    0.000    7.000    0.000    0.000    0.000    0.000 
#
# Total GULP energy -793048.944138 kJ/mol
# GULP energy per Si atom -12391.389752 kJ/mol
# Density = 1.583341 g / cm^3
# Si number density = 15.869525 Si / 1000 Ang^3
#
#
#
# Elastic Constant Matrix: (Units=GPa)
#
#
# Indices 1 2 3 4 5 6 
#
# 1 42.0218 14.7927 18.5949 0.0000 0.0000 0.0000
# 2 14.7927 34.5357 29.5298 0.0000 0.0000 0.0000
# 3 18.5949 29.5298 118.3883 0.0000 0.0000 0.0000
# 4 0.0000 0.0000 0.0000 10.8234 0.0000 0.0000
# 5 0.0000 0.0000 0.0000 0.0000 4.8801 0.0000
# 6 0.0000 0.0000 0.0000 0.0000 0.0000 16.4680
#
#
#
# Elastic Compliance Matrix: (Units=1/GPa)
#
#
# Indices 1 2 3 4 5 6 
#
# 1 0.028324 -0.010586 -0.001808 0.000000 0.000000 0.000000
# 2 -0.010586 0.040762 -0.008505 0.000000 0.000000 0.000000
# 3 -0.001808 -0.008505 0.010852 0.000000 0.000000 0.000000
# 4 0.000000 0.000000 0.000000 0.092392 0.000000 0.000000
# 5 0.000000 0.000000 0.000000 0.000000 0.204913 0.000000
# 6 0.000000 0.000000 0.000000 0.000000 0.000000 0.060724
#
#
# Mechanical properties :
#
#
# Convention : Reuss Voigt Hill
#
# Bulk Modulus (GPa) = 26.21901 35.64229 30.93065
# Shear Modulus (GPa) = 10.15275 15.23621 12.69448
#
# Velocity S-wave (km/s) = 2.53210 3.10190 2.83137
# Velocity P-wave (km/s) = 5.01061 5.94452 5.49743
#
# Compressibility (1/GPa) = 0.03814026
#
# Stress axis : x y z
#
# Youngs Moduli (GPa) = 35.30601 24.53294 92.14795
#
# Poissons Ratio (x) = 0.25970 0.16663
# Poissons Ratio (y) = 0.37374 0.78368
# Poissons Ratio (z) = 0.06384 0.20864
#
# Static dielectric constant tensor:
#      x y z
#    x 2.749410 0.000000 0.000000 
#    y 0.000000 2.852050 0.000000 
#    z 0.000000 0.000000 3.475800 
# 
# 
# High freq. dielectric constant tensor:
#      x y z
#    x 1.572920 0.000000 0.000000 
#    y 0.000000 1.581320 0.000000 
#    z 0.000000 0.000000 1.625750 
# 
# From -- ./inp_files/30938.got.cif
#   From: 2010.03.12/outbox.cif.g09.slc.cpg/sg51_16_cif.got.tgz:30938.got - 2010.04.16 13:43:02.
