data_PCOD8208955
_publ_section_title
;
Structure prediction by ZEFSAII (Michael W. Deem and Ramdas Pophale) SiO2 
 PCOD8208955
Probable space group: P M M A
;
_chemical_formula_sum "Si O2"
_cell_formula_units_Z 64
_cell_length_a 33.606778
_cell_length_b 9.240863
_cell_length_c 11.369773
_cell_angle_alpha 90.000000
_cell_angle_beta 90.000000
_cell_angle_gamma 90.000000
_cell_volume 3530.947033
_symmetry_space_group_name_H-M "P M M A"
_symmetry_group_IT_number 51
_symmetry_cell_setting 'orthorhombic'
loop_
_space_group_symop_operation_xyz
x,y,z
1/2-x,-y,z
1/2+x,-y,-z
-x,y,-z
-x,-y,-z
1/2+x,y,-z
1/2-x,y,z
x,-y,z
loop_
_atom_site_type_symbol
_atom_site_label
_atom_site_fract_x
_atom_site_fract_y
_atom_site_fract_z
Si Si1 0.937224 0.169240 0.536401
Si Si2 0.204980 0.170780 0.761931
Si Si3 0.634576 0.335232 0.631490
Si Si4 0.054064 0.168060 0.736704
Si Si5 0.205599 0.334885 0.528464
Si Si6 0.897971 0.664506 0.877271
Si Si7 0.522531 0.670618 0.741384
Si Si8 0.627644 0.170181 0.105984
O O1 0.893061 0.221823 0.565015
O O2 0.944601 0.202855 0.400754
O O3 0.968871 0.255709 0.615313
O O4 0.941624 0.000000 0.564680
O O5 0.250000 0.219753 0.799028
O O6 0.192367 0.236882 0.637288
O O7 0.171969 0.223433 0.856331
O O8 0.202974 0.000000 0.746834
O O9 0.620246 0.500000 0.603886
O O10 0.678878 0.305640 0.585903
O O11 0.633274 0.310811 0.771339
O O12 0.095450 0.217374 0.795923
O O13 0.018194 0.262086 0.792859
O O14 0.045627 0.000000 0.761464
O O15 0.250000 0.295678 0.488115
O O16 0.202072 0.500000 0.571237
O O17 0.897450 0.500000 0.921795
O O18 0.942094 0.706777 0.832491
O O19 0.884235 0.764768 0.981994
O O20 0.518081 0.500000 0.722784
O O21 0.627654 0.000000 0.090175
#
# Coordination Sequence:
#
# PCOD8208955 Si02
#       8
#     8   8   8   8   8   8   8   8
#     4  10  19  32  52  76 102 131 165 206 252 304
#     4   9  18  34  55  78 106 136 164 201 250 298
#     4   9  18  33  51  72 101 134 167 206 253 301
#     4  10  21  34  49  74 105 132 163 206 252 299
#     4   9  17  30  51  79 107 133 163 201 248 304
#     4   9  20  37  52  69  96 131 171 212 250 290
#     4  10  21  36  53  74 101 132 167 207 253 302
#     4  10  21  36  53  74 100 133 173 211 248 293
#
# _framework density 18.125449
#
# number of rings (size 3 to 8) (size 9 to 14) (size 15 to 20)
#    0.000    2.500    0.000    2.625    0.000    8.000 
#    0.000    3.125    0.000    0.750    0.000    0.000 
#    0.000    0.000    0.000    0.000    0.000    0.000 
#
# Total GULP energy -793525.080210 kJ/mol
# GULP energy per Si atom -12398.829378 kJ/mol
# Density = 1.808419 g / cm^3
# Si number density = 18.125449 Si / 1000 Ang^3
#
#
#
# Elastic Constant Matrix: (Units=GPa)
#
#
# Indices 1 2 3 4 5 6 
#
# 1 131.3878 46.7481 76.6694 0.0000 0.0000 0.0000
# 2 46.7481 45.0001 43.7668 0.0000 0.0000 0.0000
# 3 76.6694 43.7668 91.7498 0.0000 0.0000 0.0000
# 4 0.0000 0.0000 0.0000 30.5454 0.0000 0.0000
# 5 0.0000 0.0000 0.0000 0.0000 20.3811 0.0000
# 6 0.0000 0.0000 0.0000 0.0000 0.0000 24.8255
#
#
#
# Elastic Compliance Matrix: (Units=1/GPa)
#
#
# Indices 1 2 3 4 5 6 
#
# 1 0.015866 -0.006692 -0.010066 0.000000 0.000000 0.000000
# 2 -0.006692 0.044278 -0.015529 0.000000 0.000000 0.000000
# 3 -0.010066 -0.015529 0.026718 0.000000 0.000000 0.000000
# 4 0.000000 0.000000 0.000000 0.032738 0.000000 0.000000
# 5 0.000000 0.000000 0.000000 0.000000 0.049065 0.000000
# 6 0.000000 0.000000 0.000000 0.000000 0.000000 0.040281
#
#
# Mechanical properties :
#
#
# Convention : Reuss Voigt Hill
#
# Bulk Modulus (GPa) = 44.86793 66.94513 55.90653
# Shear Modulus (GPa) = 17.79667 21.88061 19.83864
#
# Velocity S-wave (km/s) = 3.13686 3.47821 3.31194
# Velocity P-wave (km/s) = 6.15855 7.29007 6.74807
#
# Compressibility (1/GPa) = 0.02228763
#
# Stress axis : x y z
#
# Youngs Moduli (GPa) = 63.02818 22.58437 37.42740
#
# Poissons Ratio (x) = 0.15114 0.37673
# Poissons Ratio (y) = 0.42181 0.58123
# Poissons Ratio (z) = 0.63442 0.35072
#
# Static dielectric constant tensor:
#      x y z
#    x 3.636700 0.000000 0.000000 
#    y 0.000000 3.338890 0.000000 
#    z 0.000000 0.000000 3.177990 
# 
# 
# High freq. dielectric constant tensor:
#      x y z
#    x 1.709890 0.000000 0.000000 
#    y 0.000000 1.701480 0.000000 
#    z 0.000000 0.000000 1.685850 
# 
# From -- ./inp_files/19601.got.cif
#   From: 2010.03.12/outbox.cif.g09.slc.cpg/sg51_10_cif.got.tgz:19601.got - 2010.04.16 13:43:02.
