data_PCOD8208980
_publ_section_title
;
Structure prediction by ZEFSAII (Michael W. Deem and Ramdas Pophale) SiO2 
 PCOD8208980
Probable space group: P M M A
;
_chemical_formula_sum "Si O2"
_cell_formula_units_Z 64
_cell_length_a 18.809612
_cell_length_b 9.076257
_cell_length_c 18.965005
_cell_angle_alpha 90.000000
_cell_angle_beta 90.000000
_cell_angle_gamma 90.000000
_cell_volume 3237.722202
_symmetry_space_group_name_H-M "P M M A"
_symmetry_group_IT_number 51
_symmetry_cell_setting 'orthorhombic'
loop_
_space_group_symop_operation_xyz
x,y,z
1/2-x,-y,z
1/2+x,-y,-z
-x,y,-z
-x,-y,-z
1/2+x,y,-z
1/2-x,y,z
x,-y,z
loop_
_atom_site_type_symbol
_atom_site_label
_atom_site_fract_x
_atom_site_fract_y
_atom_site_fract_z
Si Si1 0.531773 0.662751 0.723170
Si Si2 0.669519 0.172798 0.503110
Si Si3 0.427567 0.827062 0.144449
Si Si4 0.954485 0.325741 0.565617
Si Si5 0.830995 0.841672 0.350339
Si Si6 0.375138 0.661228 0.777285
Si Si7 0.666822 0.674935 0.965632
Si Si8 0.413762 0.827632 0.907748
O O1 0.568392 0.500000 0.720785
O O2 0.574563 0.774112 0.773867
O O3 0.520233 0.725936 0.643827
O O4 0.456286 0.645045 0.758439
O O5 0.750000 0.226955 0.512193
O O6 0.625125 0.264752 0.559639
O O7 0.636886 0.211781 0.425135
O O8 0.661979 0.000000 0.517973
O O9 0.363247 0.741125 0.107003
O O10 0.502825 0.792869 0.105323
O O11 0.412139 0.000000 0.142807
O O12 0.955440 0.500000 0.560922
O O13 0.000000 0.259254 0.500000
O O14 0.750000 0.872421 0.369659
O O15 0.834105 0.720464 0.290322
O O16 0.865204 0.000000 0.326442
O O17 0.343932 0.500000 0.797371
O O18 0.366094 0.773655 0.841874
O O19 0.750000 0.719058 0.975255
O O20 0.658098 0.500000 0.965161
O O21 0.616081 0.741209 0.025580
O O22 0.401245 0.000000 0.919455
#
# Coordination Sequence:
#
# PCOD8208980 Si02
#       8
#     8   8   8   8   8   8   8   8
#     4   9  19  35  54  78 109 142 176 219 271 323
#     4   9  19  35  52  72 101 138 181 225 269 323
#     4  10  21  38  61  86 110 141 184 227 268 320
#     4  10  20  34  54  82 113 142 177 224 275 326
#     4   9  18  32  48  67  97 138 178 217 266 323
#     4  10  19  32  52  77 105 138 176 219 265 315
#     4  11  24  40  59  85 115 146 182 224 270 321
#     4  10  21  37  58  84 113 145 181 221 267 322
#
# _framework density 19.766983
#
# number of rings (size 3 to 8) (size 9 to 14) (size 15 to 20)
#    0.000    2.250    0.000    3.375    0.000    7.750 
#    0.000    1.875    0.000    0.750    0.000    0.000 
#    0.000    0.000    0.000    0.000    0.000    0.000 
#
# Total GULP energy -793165.486181 kJ/mol
# GULP energy per Si atom -12393.210722 kJ/mol
# Density = 1.972199 g / cm^3
# Si number density = 19.766983 Si / 1000 Ang^3
#
#
#
# Elastic Constant Matrix: (Units=GPa)
#
#
# Indices 1 2 3 4 5 6 
#
# 1 48.9577 33.4009 29.0922 0.0000 0.0000 0.0000
# 2 33.4009 80.5660 50.8789 0.0000 0.0000 0.0000
# 3 29.0922 50.8789 117.4215 0.0000 0.0000 0.0000
# 4 0.0000 0.0000 0.0000 34.2086 0.0000 0.0000
# 5 0.0000 0.0000 0.0000 0.0000 20.2442 0.0000
# 6 0.0000 0.0000 0.0000 0.0000 0.0000 28.5839
#
#
#
# Elastic Compliance Matrix: (Units=1/GPa)
#
#
# Indices 1 2 3 4 5 6 
#
# 1 0.029103 -0.010342 -0.002729 0.000000 0.000000 0.000000
# 2 -0.010342 0.020763 -0.006434 0.000000 0.000000 0.000000
# 3 -0.002729 -0.006434 0.011981 0.000000 0.000000 0.000000
# 4 0.000000 0.000000 0.000000 0.029232 0.000000 0.000000
# 5 0.000000 0.000000 0.000000 0.000000 0.049397 0.000000
# 6 0.000000 0.000000 0.000000 0.000000 0.000000 0.034985
#
#
# Mechanical properties :
#
#
# Convention : Reuss Voigt Hill
#
# Bulk Modulus (GPa) = 43.79126 52.63214 48.21170
# Shear Modulus (GPa) = 22.51391 25.51220 24.01305
#
# Velocity S-wave (km/s) = 3.37852 3.59646 3.48919
# Velocity P-wave (km/s) = 6.11727 6.62798 6.37774
#
# Compressibility (1/GPa) = 0.02283561
#
# Stress axis : x y z
#
# Youngs Moduli (GPa) = 34.36017 48.16213 83.46818
#
# Poissons Ratio (x) = 0.49809 0.22782
# Poissons Ratio (y) = 0.35535 0.53707
# Poissons Ratio (z) = 0.09378 0.30989
#
# Static dielectric constant tensor:
#      x y z
#    x 3.445940 0.000000 0.000000 
#    y 0.000000 3.715530 0.000000 
#    z 0.000000 0.000000 3.751350 
# 
# 
# High freq. dielectric constant tensor:
#      x y z
#    x 1.746060 0.000000 0.000000 
#    y 0.000000 1.773320 0.000000 
#    z 0.000000 0.000000 1.774800 
# 
# From -- ./inp_files/30504.got.cif
#   From: 2010.03.12/outbox.cif.g09.slc.cpg/sg51_16_cif.got.tgz:30504.got - 2010.04.16 13:43:02.
