data_PCOD8208346
_publ_section_title
;
Structure prediction by ZEFSAII (Michael W. Deem and Ramdas Pophale) SiO2 
 PCOD8208346
Probable space group: P M M A
;
_chemical_formula_sum "Si O2"
_cell_formula_units_Z 64
_cell_length_a 18.265876
_cell_length_b 9.409577
_cell_length_c 21.137574
_cell_angle_alpha 90.000000
_cell_angle_beta 90.000000
_cell_angle_gamma 90.000000
_cell_volume 3633.002917
_symmetry_space_group_name_H-M "P M M A"
_symmetry_group_IT_number 51
_symmetry_cell_setting 'orthorhombic'
loop_
_space_group_symop_operation_xyz
x,y,z
1/2-x,-y,z
1/2+x,-y,-z
-x,y,-z
-x,-y,-z
1/2+x,y,-z
1/2-x,y,z
x,-y,z
loop_
_atom_site_type_symbol
_atom_site_label
_atom_site_fract_x
_atom_site_fract_y
_atom_site_fract_z
Si Si1 0.336669 0.843860 0.612726
Si Si2 0.165253 0.833908 0.754175
Si Si3 0.088213 0.833139 0.250426
Si Si4 0.333512 0.834959 0.120719
Si Si5 0.335886 0.664193 0.359190
Si Si6 0.040699 0.664078 0.062398
Si Si7 0.039801 0.334258 0.808143
Si Si8 0.836958 0.343360 0.499508
O O1 0.250000 0.852235 0.604719
O O2 0.354551 0.784239 0.682586
O O3 0.371902 0.750746 0.556526
O O4 0.370942 0.000000 0.605681
O O5 0.250000 0.806541 0.769082
O O6 0.119881 0.735321 0.802083
O O7 0.146311 0.000000 0.763480
O O8 0.143501 0.803049 0.192738
O O9 0.122963 0.772009 0.313734
O O10 0.012796 0.750528 0.239338
O O11 0.072213 0.000000 0.258514
O O12 0.250000 0.784611 0.111888
O O13 0.384063 0.749345 0.071920
O O14 0.342718 0.000000 0.104866
O O15 0.250000 0.682855 0.348420
O O16 0.358066 0.500000 0.346380
O O17 0.358041 0.711038 0.430451
O O18 0.062487 0.500000 0.054959
O O19 0.985592 0.688752 0.120186
O O20 0.000000 0.721275 0.000000
O O21 0.041205 0.500000 0.789799
O O22 0.750000 0.347266 0.493500
O O23 0.869345 0.500000 0.489719
#
# Coordination Sequence:
#
# PCOD8208346 Si02
#       8
#     8   8   8   8   8   8   8   8
#     4   8  14  25  42  64  89 118 153 193 236 283
#     4   9  18  33  52  74 100 127 156 195 243 291
#     4  10  19  31  48  69  96 130 164 200 243 288
#     4   9  18  32  50  75 104 130 163 206 243 280
#     4   9  17  28  42  64  96 130 163 201 243 286
#     4   9  19  36  55  75 101 133 167 200 236 283
#     4  10  20  34  53  75  97 124 159 196 237 287
#     4   8  14  24  38  59  89 123 157 195 239 284
#
# _framework density 17.616281000000001
#
# number of rings (size 3 to 8) (size 9 to 14) (size 15 to 20)
#    0.000    3.000    0.000    2.625    0.000    3.500 
#    0.000    3.125    0.000    4.500    0.000    5.250 
#    0.000    0.000    0.000    0.000    0.000    0.000 
#
# Total GULP energy -793403.487402 kJ/mol
# GULP energy per Si atom -12396.929491 kJ/mol
# Density = 1.757619 g / cm^3
# Si number density = 17.616281 Si / 1000 Ang^3
#
#
#
# Elastic Constant Matrix: (Units=GPa)
#
#
# Indices 1 2 3 4 5 6 
#
# 1 87.4494 55.6524 48.0476 0.0000 0.0000 0.0000
# 2 55.6524 89.8886 49.9233 0.0000 0.0000 0.0000
# 3 48.0476 49.9233 81.4766 0.0000 0.0000 0.0000
# 4 0.0000 0.0000 0.0000 30.1625 0.0000 0.0000
# 5 0.0000 0.0000 0.0000 0.0000 21.2698 0.0000
# 6 0.0000 0.0000 0.0000 0.0000 0.0000 28.6259
#
#
#
# Elastic Compliance Matrix: (Units=1/GPa)
#
#
# Indices 1 2 3 4 5 6 
#
# 1 0.021040 -0.009300 -0.006709 0.000000 0.000000 0.000000
# 2 -0.009300 0.020975 -0.007367 0.000000 0.000000 0.000000
# 3 -0.006709 -0.007367 0.020744 0.000000 0.000000 0.000000
# 4 0.000000 0.000000 0.000000 0.033154 0.000000 0.000000
# 5 0.000000 0.000000 0.000000 0.000000 0.047015 0.000000
# 6 0.000000 0.000000 0.000000 0.000000 0.000000 0.034933
#
#
# Mechanical properties :
#
#
# Convention : Reuss Voigt Hill
#
# Bulk Modulus (GPa) = 62.47854 62.89569 62.68711
# Shear Modulus (GPa) = 21.74394 23.02440 22.38417
#
# Velocity S-wave (km/s) = 3.51709 3.61916 3.56849
# Velocity P-wave (km/s) = 7.21364 7.29692 7.25540
#
# Compressibility (1/GPa) = 0.01600550
#
# Stress axis : x y z
#
# Youngs Moduli (GPa) = 47.52865 47.67635 48.20679
#
# Poissons Ratio (x) = 0.44341 0.32341
# Poissons Ratio (y) = 0.44203 0.35516
# Poissons Ratio (z) = 0.31886 0.35125
#
# Static dielectric constant tensor:
#      x y z
#    x 3.030410 0.000000 0.000000 
#    y 0.000000 3.402600 0.000000 
#    z 0.000000 0.000000 3.280840 
# 
# 
# High freq. dielectric constant tensor:
#      x y z
#    x 1.654500 0.000000 0.000000 
#    y 0.000000 1.682210 0.000000 
#    z 0.000000 0.000000 1.676230 
# 
# From -- ./inp_files/33746.got.cif
#   From: 2010.03.12/outbox.cif.g09.slc.cpg/sg51_17_cif.got.tgz:33746.got - 2010.04.16 13:43:02.
