data_PCOD8208782
_publ_section_title
;
Structure prediction by ZEFSAII (Michael W. Deem and Ramdas Pophale) SiO2 
 PCOD8208782
Probable space group: P M M A
;
_chemical_formula_sum "Si O2"
_cell_formula_units_Z 56
_cell_length_a 9.028907
_cell_length_b 18.507518
_cell_length_c 18.816929
_cell_angle_alpha 90.000000
_cell_angle_beta 90.000000
_cell_angle_gamma 90.000000
_cell_volume 3144.358867
_symmetry_space_group_name_H-M "P M M A"
_symmetry_group_IT_number 51
_symmetry_cell_setting 'orthorhombic'
loop_
_space_group_symop_operation_xyz
x,y,z
1/2-x,-y,z
1/2+x,-y,-z
-x,y,-z
-x,-y,-z
1/2+x,y,-z
1/2-x,y,z
x,-y,z
loop_
_atom_site_type_symbol
_atom_site_label
_atom_site_fract_x
_atom_site_fract_y
_atom_site_fract_z
Si Si1 0.924584 0.707706 0.784970
Si Si2 0.576314 0.583619 0.288023
Si Si3 0.923752 0.082212 0.428650
Si Si4 0.583535 0.414234 0.568634
Si Si5 0.925256 0.840434 0.285004
Si Si6 0.579327 0.214440 0.928257
Si Si7 0.078505 0.081870 0.161622
O O1 0.750000 0.703600 0.771522
O O2 0.962270 0.730207 0.865481
O O3 0.999142 0.629713 0.773894
O O4 0.993988 0.764774 0.729809
O O5 0.750000 0.598849 0.290300
O O6 0.541357 0.500000 0.272672
O O7 0.507506 0.609670 0.362407
O O8 0.750000 0.085135 0.440714
O O9 0.971143 0.132976 0.363266
O O10 0.000000 0.112151 0.500000
O O11 0.975655 0.000000 0.412905
O O12 0.500000 0.381840 0.500000
O O13 0.750000 0.382637 0.572458
O O14 0.589490 0.500000 0.562931
O O15 0.750000 0.830305 0.277285
O O16 0.978806 0.901419 0.229879
O O17 0.750000 0.217674 0.946319
O O18 0.532283 0.133757 0.903625
O O19 0.500000 0.237963 0.000000
O O20 0.250000 0.096850 0.182024
O O21 0.051717 0.000000 0.136972
#
# Coordination Sequence:
#
# PCOD8208782 Si02
#       7
#     8   8   8   8   8   8   8
#     4  10  21  37  55  76 102 132 167 204 248 305
#     4  10  20  34  54  80 106 132 167 211 256 303
#     4   9  18  31  47  69  97 130 170 215 259 300
#     4   9  16  27  45  70 101 135 167 200 241 289
#     4  10  19  32  50  72  99 130 169 215 257 300
#     4   9  19  34  52  75 102 133 167 203 245 296
#     4   9  18  32  49  72 103 136 169 205 247 297
#
# _framework density 17.809671000000002
#
# number of rings (size 3 to 8) (size 9 to 14) (size 15 to 20)
#    0.000    2.571    0.000    3.000    0.000    7.714 
#    0.000    2.143    0.000    2.143    0.000    0.000 
#    0.000    0.000    0.000    0.000    0.000    0.000 
#
# Total GULP energy -694421.240267 kJ/mol
# GULP energy per Si atom -12400.379290 kJ/mol
# Density = 1.776914 g / cm^3
# Si number density = 17.809671 Si / 1000 Ang^3
#
#
#
# Elastic Constant Matrix: (Units=GPa)
#
#
# Indices 1 2 3 4 5 6 
#
# 1 96.3088 51.1427 67.1250 0.0000 0.0000 0.0000
# 2 51.1427 83.2780 59.7319 0.0000 0.0000 0.0000
# 3 67.1250 59.7319 140.1363 0.0000 0.0000 0.0000
# 4 0.0000 0.0000 0.0000 17.5204 0.0000 0.0000
# 5 0.0000 0.0000 0.0000 0.0000 35.0728 0.0000
# 6 0.0000 0.0000 0.0000 0.0000 0.0000 27.8308
#
#
#
# Elastic Compliance Matrix: (Units=1/GPa)
#
#
# Indices 1 2 3 4 5 6 
#
# 1 0.018058 -0.007037 -0.005650 0.000000 0.000000 0.000000
# 2 -0.007037 0.020038 -0.005170 0.000000 0.000000 0.000000
# 3 -0.005650 -0.005170 0.012046 0.000000 0.000000 0.000000
# 4 0.000000 0.000000 0.000000 0.057076 0.000000 0.000000
# 5 0.000000 0.000000 0.000000 0.000000 0.028512 0.000000
# 6 0.000000 0.000000 0.000000 0.000000 0.000000 0.035931
#
#
# Mechanical properties :
#
#
# Convention : Reuss Voigt Hill
#
# Bulk Modulus (GPa) = 69.31458 75.08025 72.19741
# Shear Modulus (GPa) = 23.56410 25.53305 24.54857
#
# Velocity S-wave (km/s) = 3.64140 3.79048 3.71669
# Velocity P-wave (km/s) = 7.52887 7.83617 7.68405
#
# Compressibility (1/GPa) = 0.01442698
#
# Stress axis : x y z
#
# Youngs Moduli (GPa) = 55.37579 49.90504 83.01379
#
# Poissons Ratio (x) = 0.35119 0.46906
# Poissons Ratio (y) = 0.38969 0.42920
# Poissons Ratio (z) = 0.31289 0.25802
#
# Static dielectric constant tensor:
#      x y z
#    x 3.359470 0.000000 0.000000 
#    y 0.000000 3.161780 0.000000 
#    z 0.000000 0.000000 3.222880 
# 
# 
# High freq. dielectric constant tensor:
#      x y z
#    x 1.698430 0.000000 0.000000 
#    y 0.000000 1.668990 0.000000 
#    z 0.000000 0.000000 1.680340 
# 
# From -- ./inp_files/28230.got.cif
#   From: 2010.03.12/outbox.cif.g09.slc.cpg/sg51_15_cif.got.tgz:28230.got - 2010.04.16 13:43:02.
