data_PCOD8208853
_publ_section_title
;
Structure prediction by ZEFSAII (Michael W. Deem and Ramdas Pophale) SiO2 
 PCOD8208853
Probable space group: P M M A
;
_chemical_formula_sum "Si O2"
_cell_formula_units_Z 52
_cell_length_a 9.196761
_cell_length_b 13.732424
_cell_length_c 23.871879
_cell_angle_alpha 90.000000
_cell_angle_beta 90.000000
_cell_angle_gamma 90.000000
_cell_volume 3014.870825
_symmetry_space_group_name_H-M "P M M A"
_symmetry_group_IT_number 51
_symmetry_cell_setting 'orthorhombic'
loop_
_space_group_symop_operation_xyz
x,y,z
1/2-x,-y,z
1/2+x,-y,-z
-x,y,-z
-x,-y,-z
1/2+x,y,-z
1/2-x,y,z
x,-y,z
loop_
_atom_site_type_symbol
_atom_site_label
_atom_site_fract_x
_atom_site_fract_y
_atom_site_fract_z
Si Si1 0.081164 0.713035 0.442090
Si Si2 0.920618 0.388848 0.941516
Si Si3 0.918247 0.726839 0.152917
Si Si4 0.580263 0.230113 0.674337
Si Si5 0.084197 0.500000 0.443882
Si Si6 0.084037 0.391086 0.736950
Si Si7 0.579507 0.888018 0.779870
O O1 0.250000 0.723861 0.456731
O O2 0.035821 0.787026 0.391279
O O3 0.045986 0.604478 0.415631
O O4 0.000000 0.737624 0.500000
O O5 0.750000 0.365996 0.947980
O O6 0.944755 0.500000 0.920589
O O7 0.991697 0.311450 0.899717
O O8 0.000000 0.373014 0.000000
O O9 0.750000 0.745415 0.136607
O O10 0.932683 0.644849 0.199769
O O11 0.987573 0.827531 0.175032
O O12 0.750000 0.249472 0.677054
O O13 0.508211 0.328673 0.694591
O O14 0.536434 0.141634 0.715757
O O15 0.250000 0.500000 0.460703
O O16 0.000000 0.500000 0.500000
O O17 0.250000 0.385570 0.717355
O O18 0.022741 0.500000 0.734377
O O19 0.750000 0.868973 0.790276
O O20 0.537724 0.000000 0.787779
#
# Coordination Sequence:
#
# PCOD8208853 Si02
#       7
#     8   8   8   8   4   8   8
#     4   9  17  28  42  60  85 116 153 191 232 282
#     4  10  20  33  51  77 110 147 183 212 240 278
#     4  10  19  32  51  74 102 133 168 208 249 295
#     4   9  18  30  46  68  90 117 155 197 241 289
#     4   8  14  24  36  52  76 108 144 180 215 258
#     4   9  18  30  43  64  95 128 157 190 236 286
#     4   9  18  34  54  74  96 123 159 205 256 307
#
# _framework density 17.247837000000001
#
# number of rings (size 3 to 8) (size 9 to 14) (size 15 to 20)
#    0.000    2.769    0.000    1.385    1.077    3.385 
#    0.000    0.000    0.000    0.923    0.000    0.000 
#    0.000    0.000    0.000    0.000    0.000    0.000 
#
# Total GULP energy -644251.747181 kJ/mol
# GULP energy per Si atom -12389.456677 kJ/mol
# Density = 1.720858 g / cm^3
# Si number density = 17.247837 Si / 1000 Ang^3
#
#
#
# Elastic Constant Matrix: (Units=GPa)
#
#
# Indices 1 2 3 4 5 6 
#
# 1 71.0668 45.2394 56.6746 0.0000 0.0000 0.0000
# 2 45.2394 95.4161 52.5734 0.0000 0.0000 0.0000
# 3 56.6746 52.5734 110.8710 0.0000 0.0000 0.0000
# 4 0.0000 0.0000 0.0000 14.7889 0.0000 0.0000
# 5 0.0000 0.0000 0.0000 0.0000 27.9985 0.0000
# 6 0.0000 0.0000 0.0000 0.0000 0.0000 21.0016
#
#
#
# Elastic Compliance Matrix: (Units=1/GPa)
#
#
# Indices 1 2 3 4 5 6 
#
# 1 0.026802 -0.006983 -0.010389 0.000000 0.000000 0.000000
# 2 -0.006983 0.016007 -0.004020 0.000000 0.000000 0.000000
# 3 -0.010389 -0.004020 0.016237 0.000000 0.000000 0.000000
# 4 0.000000 0.000000 0.000000 0.067618 0.000000 0.000000
# 5 0.000000 0.000000 0.000000 0.000000 0.035716 0.000000
# 6 0.000000 0.000000 0.000000 0.000000 0.000000 0.047615
#
#
# Mechanical properties :
#
#
# Convention : Reuss Voigt Hill
#
# Bulk Modulus (GPa) = 61.50263 65.14763 63.32513
# Shear Modulus (GPa) = 19.36484 20.94890 20.15687
#
# Velocity S-wave (km/s) = 3.35437 3.48887 3.42228
# Velocity P-wave (km/s) = 7.12306 7.35412 7.23951
#
# Compressibility (1/GPa) = 0.01625947
#
# Stress axis : x y z
#
# Youngs Moduli (GPa) = 37.31111 62.47442 61.58933
#
# Poissons Ratio (x) = 0.43627 0.63986
# Poissons Ratio (y) = 0.26055 0.24762
# Poissons Ratio (z) = 0.38763 0.25118
#
# Static dielectric constant tensor:
#      x y z
#    x 3.262390 0.000000 0.000000 
#    y 0.000000 3.019730 0.000000 
#    z 0.000000 0.000000 3.205290 
# 
# 
# High freq. dielectric constant tensor:
#      x y z
#    x 1.669970 0.000000 0.000000 
#    y 0.000000 1.639840 0.000000 
#    z 0.000000 0.000000 1.662320 
# 
# From -- ./inp_files/31771.got.cif
#   From: 2010.03.12/outbox.cif.g09.slc.cpg/sg51_16_cif.got.tgz:31771.got - 2010.04.16 13:43:02.
