data_PCOD8208180
_publ_section_title
;
Structure prediction by ZEFSAII (Michael W. Deem and Ramdas Pophale) SiO2 
 PCOD8208180
Probable space group: P M M A
;
_chemical_formula_sum "Si O2"
_cell_formula_units_Z 64
_cell_length_a 8.760330
_cell_length_b 14.398609
_cell_length_c 26.215359
_cell_angle_alpha 90.000000
_cell_angle_beta 90.000000
_cell_angle_gamma 90.000000
_cell_volume 3306.715371
_symmetry_space_group_name_H-M "P M M A"
_symmetry_group_IT_number 51
_symmetry_cell_setting 'orthorhombic'
loop_
_space_group_symop_operation_xyz
x,y,z
1/2-x,-y,z
1/2+x,-y,-z
-x,y,-z
-x,-y,-z
1/2+x,y,-z
1/2-x,y,z
x,-y,z
loop_
_atom_site_type_symbol
_atom_site_label
_atom_site_fract_x
_atom_site_fract_y
_atom_site_fract_z
Si Si1 0.069884 0.216711 0.051488
Si Si2 0.567288 0.394404 0.090759
Si Si3 0.928704 0.892491 0.749416
Si Si4 0.914798 0.609064 0.200713
Si Si5 0.069993 0.793479 0.652642
Si Si6 0.431034 0.601589 0.690227
Si Si7 0.429935 0.894040 0.551975
Si Si8 0.928208 0.108549 0.145327
O O1 0.250000 0.212192 0.048451
O O2 0.013695 0.323817 0.052481
O O3 0.013612 0.159952 0.100036
O O4 0.000000 0.171744 0.000000
O O5 0.750000 0.384164 0.088681
O O6 0.518796 0.500000 0.077055
O O7 0.503946 0.363718 0.147436
O O8 0.750000 0.876501 0.756260
O O9 0.986517 0.839228 0.699980
O O10 0.011976 0.853397 0.800066
O O11 0.970175 0.000000 0.741460
O O12 0.750000 0.659952 0.202033
O O13 0.887102 0.500000 0.197691
O O14 0.003239 0.630218 0.254082
O O15 0.250000 0.811337 0.658475
O O16 0.029348 0.683186 0.650508
O O17 0.007331 0.836013 0.599980
O O18 0.250000 0.594092 0.697984
O O19 0.493166 0.500000 0.671788
O O20 0.500000 0.852601 0.500000
O O21 0.250000 0.885946 0.547900
O O22 0.483700 0.000000 0.559606
O O23 0.750000 0.129265 0.140999
O O24 0.966538 0.000000 0.140891
#
# Coordination Sequence:
#
# PCOD8208180 Si02
#       8
#     8   8   8   8   8   8   8   8
#     4  12  26  42  60  83 111 143 182 229 277 334
#     4   9  18  34  57  83 111 144 182 225 272 324
#     4  10  21  36  54  81 117 149 175 210 264 331
#     4   7  11  22  42  69  99 130 166 207 251 304
#     4  10  19  30  51  82 110 142 183 230 274 318
#     4   8  14  25  43  72 107 140 176 217 262 313
#     4   9  18  32  49  71 102 139 183 233 281 329
#     4  10  22  42  66  87 109 141 180 224 275 329
#
# _framework density 19.354554
#
# number of rings (size 3 to 8) (size 9 to 14) (size 15 to 20)
#    0.000    2.625    0.000    3.750    1.750    3.250 
#    0.000    1.250    0.000    0.750    0.000    0.000 
#    0.000    0.000    0.000    0.000    0.000    0.000 
#
# Total GULP energy -793095.500019 kJ/mol
# GULP energy per Si atom -12392.117188 kJ/mol
# Density = 1.931050 g / cm^3
# Si number density = 19.354554 Si / 1000 Ang^3
#
#
#
# Elastic Constant Matrix: (Units=GPa)
#
#
# Indices 1 2 3 4 5 6 
#
# 1 66.5237 34.0765 41.2320 0.0000 0.0000 0.0000
# 2 34.0765 76.1084 66.1136 0.0000 0.0000 0.0000
# 3 41.2320 66.1136 147.6821 0.0000 0.0000 0.0000
# 4 0.0000 0.0000 0.0000 28.6407 0.0000 0.0000
# 5 0.0000 0.0000 0.0000 0.0000 28.0943 0.0000
# 6 0.0000 0.0000 0.0000 0.0000 0.0000 17.6807
#
#
#
# Elastic Compliance Matrix: (Units=1/GPa)
#
#
# Indices 1 2 3 4 5 6 
#
# 1 0.020093 -0.006747 -0.002589 0.000000 0.000000 0.000000
# 2 -0.006747 0.023766 -0.008756 0.000000 0.000000 0.000000
# 3 -0.002589 -0.008756 0.011414 0.000000 0.000000 0.000000
# 4 0.000000 0.000000 0.000000 0.034915 0.000000 0.000000
# 5 0.000000 0.000000 0.000000 0.000000 0.035594 0.000000
# 6 0.000000 0.000000 0.000000 0.000000 0.000000 0.056559
#
#
# Mechanical properties :
#
#
# Convention : Reuss Voigt Hill
#
# Bulk Modulus (GPa) = 52.38674 63.68424 58.03549
# Shear Modulus (GPa) = 22.23318 24.80930 23.52124
#
# Velocity S-wave (km/s) = 3.39297 3.58415 3.48987
# Velocity P-wave (km/s) = 6.51731 7.07839 6.80364
#
# Compressibility (1/GPa) = 0.01908880
#
# Stress axis : x y z
#
# Youngs Moduli (GPa) = 49.76761 42.07705 87.61221
#
# Poissons Ratio (x) = 0.28390 0.22687
# Poissons Ratio (y) = 0.33579 0.76710
# Poissons Ratio (z) = 0.12887 0.36841
#
# Static dielectric constant tensor:
#      x y z
#    x 3.196470 0.000000 0.000000 
#    y 0.000000 3.669540 0.000000 
#    z 0.000000 0.000000 3.735420 
# 
# 
# High freq. dielectric constant tensor:
#      x y z
#    x 1.718670 0.000000 0.000000 
#    y 0.000000 1.752630 0.000000 
#    z 0.000000 0.000000 1.749840 
# 
# From -- ./inp_files/34990.got.cif
#   From: 2010.03.12/outbox.cif.g09.slc.cpg/sg51_18_cif.got.tgz:34990.got - 2010.04.16 13:43:02.
