data_PCOD8208004
_publ_section_title
;
Structure prediction by ZEFSAII (Michael W. Deem and Ramdas Pophale) SiO2 
 PCOD8208004
Probable space group: P M M A
;
_chemical_formula_sum "Si O2"
_cell_formula_units_Z 56
_cell_length_a 9.455369
_cell_length_b 13.672483
_cell_length_c 28.668576
_cell_angle_alpha 90.000000
_cell_angle_beta 90.000000
_cell_angle_gamma 90.000000
_cell_volume 3706.226830
_symmetry_space_group_name_H-M "P M M A"
_symmetry_group_IT_number 51
_symmetry_cell_setting 'orthorhombic'
loop_
_space_group_symop_operation_xyz
x,y,z
1/2-x,-y,z
1/2+x,-y,-z
-x,y,-z
-x,-y,-z
1/2+x,y,-z
1/2-x,y,z
x,-y,z
loop_
_atom_site_type_symbol
_atom_site_label
_atom_site_fract_x
_atom_site_fract_y
_atom_site_fract_z
Si Si1 0.910828 0.707404 0.723946
Si Si2 0.906127 0.616166 0.458576
Si Si3 0.416881 0.216317 0.860391
Si Si4 0.913447 0.111596 0.044346
Si Si5 0.914096 0.612097 0.821041
Si Si6 0.082265 0.610953 0.644784
Si Si7 0.088115 0.110704 0.216846
O O1 0.750000 0.691090 0.707749
O O2 0.947390 0.636910 0.767305
O O3 0.938767 0.819646 0.738759
O O4 0.011982 0.684229 0.681074
O O5 0.750000 0.660786 0.464510
O O6 0.898944 0.500000 0.463033
O O7 0.966642 0.642648 0.407310
O O8 0.000000 0.662008 0.500000
O O9 0.250000 0.223355 0.850733
O O10 0.450627 0.180132 0.912229
O O11 0.488319 0.322441 0.854516
O O12 0.483833 0.138424 0.824946
O O13 0.750000 0.118795 0.031157
O O14 0.955690 0.000000 0.056699
O O15 0.000000 0.150429 0.000000
O O16 0.750000 0.634505 0.831843
O O17 0.952742 0.500000 0.830731
O O18 0.250000 0.618899 0.648928
O O19 0.032980 0.500000 0.655290
O O20 0.250000 0.124540 0.199443
O O21 0.057814 0.000000 0.232636
#
# Coordination Sequence:
#
# PCOD8208004 Si02
#       7
#     8   8   8   8   8   8   8
#     4   9  17  28  42  61  82 106 140 176 206 240
#     4   8  14  24  36  51  73 102 136 170 202 239
#     4  10  19  30  46  69  93 113 138 175 214 252
#     4   9  18  31  46  66  91 115 138 168 208 253
#     4   9  18  32  47  63  86 116 149 181 209 243
#     4   9  17  27  38  55  82 113 140 168 205 247
#     4   9  18  32  47  62  84 115 146 174 207 250
#
# _framework density 15.109705999999999
#
# number of rings (size 3 to 8) (size 9 to 14) (size 15 to 20)
#    0.000    3.000    0.000    3.000    0.000    6.000 
#    0.000    2.857    0.000    0.429    0.000    0.000 
#    0.000    0.571    0.000    1.286    0.000    2.000 
#
# Total GULP energy -694266.635580 kJ/mol
# GULP energy per Si atom -12397.618492 kJ/mol
# Density = 1.507532 g / cm^3
# Si number density = 15.109706 Si / 1000 Ang^3
#
#
#
# Elastic Constant Matrix: (Units=GPa)
#
#
# Indices 1 2 3 4 5 6 
#
# 1 69.2612 43.0415 63.4126 0.0000 0.0000 0.0000
# 2 43.0415 95.0636 54.2384 0.0000 0.0000 0.0000
# 3 63.4126 54.2384 116.9275 0.0000 0.0000 0.0000
# 4 0.0000 0.0000 0.0000 16.8597 0.0000 0.0000
# 5 0.0000 0.0000 0.0000 0.0000 30.7285 0.0000
# 6 0.0000 0.0000 0.0000 0.0000 0.0000 21.0419
#
#
#
# Elastic Compliance Matrix: (Units=1/GPa)
#
#
# Indices 1 2 3 4 5 6 
#
# 1 0.031042 -0.006051 -0.014028 0.000000 0.000000 0.000000
# 2 -0.006051 0.015485 -0.003901 0.000000 0.000000 0.000000
# 3 -0.014028 -0.003901 0.017970 0.000000 0.000000 0.000000
# 4 0.000000 0.000000 0.000000 0.059313 0.000000 0.000000
# 5 0.000000 0.000000 0.000000 0.000000 0.032543 0.000000
# 6 0.000000 0.000000 0.000000 0.000000 0.000000 0.047524
#
#
# Mechanical properties :
#
#
# Convention : Reuss Voigt Hill
#
# Bulk Modulus (GPa) = 60.47436 66.95970 63.71703
# Shear Modulus (GPa) = 19.42891 21.76335 20.59613
#
# Velocity S-wave (km/s) = 3.58977 3.79932 3.69603
# Velocity P-wave (km/s) = 7.56917 7.97862 7.77659
#
# Compressibility (1/GPa) = 0.01653593
#
# Stress axis : x y z
#
# Youngs Moduli (GPa) = 32.21468 64.57944 55.64964
#
# Poissons Ratio (x) = 0.39077 0.78064
# Poissons Ratio (y) = 0.19493 0.21710
# Poissons Ratio (z) = 0.45190 0.25194
#
# Static dielectric constant tensor:
#      x y z
#    x 2.976810 0.000000 0.000000 
#    y 0.000000 2.807080 0.000000 
#    z 0.000000 0.000000 2.858010 
# 
# 
# High freq. dielectric constant tensor:
#      x y z
#    x 1.583120 0.000000 0.000000 
#    y 0.000000 1.552670 0.000000 
#    z 0.000000 0.000000 1.568830 
# 
# From -- ./inp_files/37501.got.cif
#   From: 2010.03.12/outbox.cif.g09.slc.cpg/sg51_19_cif.got.tgz:37501.got - 2010.04.16 13:43:02.
