data_PCOD8208573
_publ_section_title
;
Structure prediction by ZEFSAII (Michael W. Deem and Ramdas Pophale) SiO2 
 PCOD8208573
Probable space group: P M M A
;
_chemical_formula_sum "Si O2"
_cell_formula_units_Z 48
_cell_length_a 8.847306
_cell_length_b 30.798260
_cell_length_c 9.156171
_cell_angle_alpha 90.000000
_cell_angle_beta 90.000000
_cell_angle_gamma 90.000000
_cell_volume 2494.888403
_symmetry_space_group_name_H-M "P M M A"
_symmetry_group_IT_number 51
_symmetry_cell_setting 'orthorhombic'
loop_
_space_group_symop_operation_xyz
x,y,z
1/2-x,-y,z
1/2+x,-y,-z
-x,y,-z
-x,-y,-z
1/2+x,y,-z
1/2-x,y,z
x,-y,z
loop_
_atom_site_type_symbol
_atom_site_label
_atom_site_fract_x
_atom_site_fract_y
_atom_site_fract_z
Si Si1 0.574228 0.050597 0.151640
Si Si2 0.572980 0.547069 0.158242
Si Si3 0.571553 0.879762 0.655069
Si Si4 0.071577 0.715238 0.342183
Si Si5 0.572282 0.796887 0.842518
Si Si6 0.071159 0.368002 0.159467
O O1 0.750000 0.062304 0.144768
O O2 0.495960 0.075443 0.284557
O O3 0.546058 0.000000 0.180128
O O4 0.500000 0.065628 0.000000
O O5 0.750000 0.556770 0.143948
O O6 0.545807 0.500000 0.236985
O O7 0.492108 0.587834 0.237780
O O8 0.500000 0.544512 0.000000
O O9 0.500000 0.868922 0.500000
O O10 0.750000 0.884443 0.638010
O O11 0.524738 0.841193 0.763382
O O12 0.250000 0.717282 0.359873
O O13 0.010917 0.756473 0.251623
O O14 0.019332 0.671883 0.259253
O O15 0.000000 0.716034 0.500000
O O16 0.750000 0.793433 0.862000
O O17 0.500000 0.795658 0.000000
O O18 0.250000 0.370746 0.144364
O O19 0.000000 0.361743 0.000000
#
# Coordination Sequence:
#
# PCOD8208573 Si02
#       6
#     8   8   8   8   8   8
#     4  10  21  38  60  85 114 149 189 233 279 327
#     4   9  16  26  43  69 100 133 169 211 259 308
#     4  11  23  38  58  84 115 150 187 228 275 327
#     4  10  22  38  55  78 107 139 176 216 262 315
#     4  10  22  39  59  84 111 141 179 221 267 320
#     4  10  19  31  50  76 104 135 173 215 259 310
#
# _framework density 19.239339000000001
#
# number of rings (size 3 to 8) (size 9 to 14) (size 15 to 20)
#    0.000    2.000    0.000    4.500    0.000    7.000 
#    0.000    0.000    0.000    0.500    0.000    0.000 
#    0.000    0.000    0.000    0.000    0.000    0.000 
#
# Total GULP energy -595185.323703 kJ/mol
# GULP energy per Si atom -12399.694244 kJ/mol
# Density = 1.919555 g / cm^3
# Si number density = 19.239339 Si / 1000 Ang^3
#
#
#
# Elastic Constant Matrix: (Units=GPa)
#
#
# Indices 1 2 3 4 5 6 
#
# 1 82.0030 58.1614 48.9909 0.0000 0.0000 0.0000
# 2 58.1614 140.1733 70.2886 0.0000 0.0000 0.0000
# 3 48.9909 70.2886 127.8205 0.0000 0.0000 0.0000
# 4 0.0000 0.0000 0.0000 -66.8043 0.0000 0.0000
# 5 0.0000 0.0000 0.0000 0.0000 34.5712 0.0000
# 6 0.0000 0.0000 0.0000 0.0000 0.0000 25.0357
#
#
#
# Elastic Compliance Matrix: (Units=1/GPa)
#
#
# Indices 1 2 3 4 5 6 
#
# 1 0.018648 -0.005735 -0.003994 0.000000 0.000000 0.000000
# 2 -0.005735 0.011614 -0.004188 0.000000 0.000000 0.000000
# 3 -0.003994 -0.004188 0.011657 0.000000 0.000000 0.000000
# 4 0.000000 0.000000 0.000000 -0.014969 0.000000 0.000000
# 5 0.000000 0.000000 0.000000 0.000000 0.028926 0.000000
# 6 0.000000 0.000000 0.000000 0.000000 0.000000 0.039943
#
#
# Mechanical properties :
#
#
# Convention : Reuss Voigt Hill
#
# Bulk Modulus (GPa) = 70.99652 78.31985 74.65819
# Shear Modulus (GPa) = 38.95643 10.06426 24.51035
#
# Velocity S-wave (km/s) = 4.50470 2.28964 3.57314
# Velocity P-wave (km/s) = 8.00239 6.91278 7.47746
#
# Compressibility (1/GPa) = 0.01408520
#
# Stress axis : x y z
#
# Youngs Moduli (GPa) = 53.62417 86.10434 85.78246
#
# Poissons Ratio (x) = 0.49381 0.34260
# Poissons Ratio (y) = 0.30753 0.35929
# Poissons Ratio (z) = 0.21417 0.36063
#
# Static dielectric constant tensor:
#      x y z
#    x 3.551160 0.000000 0.000000 
#    y 0.000000 4.179240 0.000000 
#    z 0.000000 0.000000 3.273550 
# 
# 
# High freq. dielectric constant tensor:
#      x y z
#    x 1.755790 0.000000 0.000000 
#    y 0.000000 1.773360 0.000000 
#    z 0.000000 0.000000 1.724270 
# 
# From -- ./inp_files/5997.got.cif
#   From: 2010.03.12/outbox.cif.g09.slc.cpg/sg51_3_cif.got.tgz:5997.got - 2010.04.16 13:43:02.
