data_PCOD8208433
_publ_section_title
;
Structure prediction by ZEFSAII (Michael W. Deem and Ramdas Pophale) SiO2 
 PCOD8208433
Probable space group: P M M A
;
_chemical_formula_sum "Si O2"
_cell_formula_units_Z 64
_cell_length_a 19.066350
_cell_length_b 9.119600
_cell_length_c 21.451594
_cell_angle_alpha 90.000000
_cell_angle_beta 90.000000
_cell_angle_gamma 90.000000
_cell_volume 3729.949224
_symmetry_space_group_name_H-M "P M M A"
_symmetry_group_IT_number 51
_symmetry_cell_setting 'orthorhombic'
loop_
_space_group_symop_operation_xyz
x,y,z
1/2-x,-y,z
1/2+x,-y,-z
-x,y,-z
-x,-y,-z
1/2+x,y,-z
1/2-x,y,z
x,-y,z
loop_
_atom_site_type_symbol
_atom_site_label
_atom_site_fract_x
_atom_site_fract_y
_atom_site_fract_z
Si Si1 0.615049 0.169358 0.771580
Si Si2 0.077160 0.327219 0.482807
Si Si3 0.173176 0.670032 0.122562
Si Si4 0.469807 0.328256 0.063255
Si Si5 0.668390 0.329857 0.401459
Si Si6 0.927996 0.833956 0.640170
Si Si7 0.524113 0.671042 0.192692
Si Si8 0.421866 0.172648 0.696399
O O1 0.677815 0.233522 0.813576
O O2 0.627899 0.180575 0.697066
O O3 0.551611 0.276754 0.786461
O O4 0.598105 0.000000 0.788899
O O5 0.078087 0.500000 0.476120
O O6 0.130578 0.273367 0.535866
O O7 0.100264 0.263121 0.416401
O O8 0.000000 0.268490 0.500000
O O9 0.250000 0.688077 0.089993
O O10 0.159423 0.500000 0.139619
O O11 0.109171 0.730596 0.079342
O O12 0.461742 0.500000 0.052372
O O13 0.526495 0.296064 0.118277
O O14 0.500000 0.253867 0.000000
O O15 0.750000 0.301006 0.410414
O O16 0.651066 0.500000 0.389456
O O17 0.642276 0.237825 0.342531
O O18 0.005162 0.782776 0.663103
O O19 0.932691 0.000000 0.616385
O O20 0.534014 0.500000 0.206653
O O21 0.581376 0.759699 0.233453
O O22 0.413395 0.000000 0.702605
#
# Coordination Sequence:
#
# PCOD8208433 Si02
#       8
#     8   8   8   8   8   8   8   8
#     4   9  17  29  44  67  96 124 156 195 240 286
#     4  10  19  31  49  72  93 120 161 202 242 293
#     4   9  17  29  46  69  95 126 165 204 243 291
#     4   8  14  26  46  72 100 129 162 201 241 282
#     4  10  21  36  51  69  95 124 157 202 254 304
#     4   9  18  30  46  69  93 119 153 196 237 280
#     4   9  16  27  47  72  97 125 157 196 239 281
#     4  10  19  31  49  72  96 122 157 200 243 289
#
# _framework density 17.158411000000001
#
# number of rings (size 3 to 8) (size 9 to 14) (size 15 to 20)
#    0.000    2.750    1.250    2.625    0.000    3.750 
#    0.000    0.625    0.000   12.375    0.000    3.500 
#    0.000    0.000    0.000    0.000    0.000    0.000 
#
# Total GULP energy -793048.296936 kJ/mol
# GULP energy per Si atom -12391.379640 kJ/mol
# Density = 1.711936 g / cm^3
# Si number density = 17.158411 Si / 1000 Ang^3
#
#
#
# Elastic Constant Matrix: (Units=GPa)
#
#
# Indices 1 2 3 4 5 6 
#
# 1 81.6922 29.9975 55.0893 0.0000 0.0000 0.0000
# 2 29.9975 54.7245 50.0006 0.0000 0.0000 0.0000
# 3 55.0893 50.0006 133.7850 0.0000 0.0000 0.0000
# 4 0.0000 0.0000 0.0000 13.3828 0.0000 0.0000
# 5 0.0000 0.0000 0.0000 0.0000 21.3283 0.0000
# 6 0.0000 0.0000 0.0000 0.0000 0.0000 14.3706
#
#
#
# Elastic Compliance Matrix: (Units=1/GPa)
#
#
# Indices 1 2 3 4 5 6 
#
# 1 0.017683 -0.004617 -0.005556 0.000000 0.000000 0.000000
# 2 -0.004617 0.028954 -0.008920 0.000000 0.000000 0.000000
# 3 -0.005556 -0.008920 0.013096 0.000000 0.000000 0.000000
# 4 0.000000 0.000000 0.000000 0.074723 0.000000 0.000000
# 5 0.000000 0.000000 0.000000 0.000000 0.046886 0.000000
# 6 0.000000 0.000000 0.000000 0.000000 0.000000 0.069586
#
#
# Mechanical properties :
#
#
# Convention : Reuss Voigt Hill
#
# Bulk Modulus (GPa) = 46.40855 60.04184 53.22520
# Shear Modulus (GPa) = 16.87495 18.82397 17.84946
#
# Velocity S-wave (km/s) = 3.13945 3.31580 3.22883
# Velocity P-wave (km/s) = 6.34408 7.05181 6.70728
#
# Compressibility (1/GPa) = 0.02154775
#
# Stress axis : x y z
#
# Youngs Moduli (GPa) = 56.55146 34.53723 76.35698
#
# Poissons Ratio (x) = 0.15944 0.42424
# Poissons Ratio (y) = 0.26108 0.68113
# Poissons Ratio (z) = 0.31420 0.30808
#
# Static dielectric constant tensor:
#      x y z
#    x 3.064000 0.000000 0.000000 
#    y 0.000000 3.139270 0.000000 
#    z 0.000000 0.000000 3.557510 
# 
# 
# High freq. dielectric constant tensor:
#      x y z
#    x 1.627630 0.000000 0.000000 
#    y 0.000000 1.655060 0.000000 
#    z 0.000000 0.000000 1.659310 
# 
# From -- ./inp_files/34129.got.cif
#   From: 2010.03.12/outbox.cif.g09.slc.cpg/sg51_18_cif.got.tgz:34129.got - 2010.04.16 13:43:02.
