data_PCOD8208529
_publ_section_title
;
Structure prediction by ZEFSAII (Michael W. Deem and Ramdas Pophale) SiO2 
 PCOD8208529
Probable space group: P M M A
;
_chemical_formula_sum "Si O2"
_cell_formula_units_Z 56
_cell_length_a 14.559902
_cell_length_b 9.371425
_cell_length_c 21.235946
_cell_angle_alpha 90.000000
_cell_angle_beta 90.000000
_cell_angle_gamma 90.000000
_cell_volume 2897.581752
_symmetry_space_group_name_H-M "P M M A"
_symmetry_group_IT_number 51
_symmetry_cell_setting 'orthorhombic'
loop_
_space_group_symop_operation_xyz
x,y,z
1/2-x,-y,z
1/2+x,-y,-z
-x,y,-z
-x,-y,-z
1/2+x,y,-z
1/2-x,y,z
x,-y,z
loop_
_atom_site_type_symbol
_atom_site_label
_atom_site_fract_x
_atom_site_fract_y
_atom_site_fract_z
Si Si1 0.101126 0.839960 0.972949
Si Si2 0.525171 0.331014 0.401441
Si Si3 0.853875 0.830712 0.164729
Si Si4 0.648152 0.651248 0.917668
Si Si5 0.353015 0.668121 0.480863
Si Si6 0.644295 0.331537 0.782355
Si Si7 0.485308 0.829270 0.723331
O O1 0.108298 0.773436 0.903007
O O2 0.139799 0.000000 0.971918
O O3 0.159512 0.753552 0.023081
O O4 0.000000 0.831242 0.000000
O O5 0.527192 0.500000 0.386465
O O6 0.602635 0.289349 0.452344
O O7 0.423472 0.283898 0.425820
O O8 0.552203 0.237555 0.341086
O O9 0.750000 0.774581 0.174408
O O10 0.917022 0.775286 0.221374
O O11 0.856610 0.000000 0.163694
O O12 0.750000 0.614827 0.894485
O O13 0.600064 0.500000 0.937045
O O14 0.605818 0.713232 0.852649
O O15 0.250000 0.735714 0.473054
O O16 0.344289 0.500000 0.477741
O O17 0.750000 0.289894 0.770317
O O18 0.627740 0.500000 0.770786
O O19 0.585897 0.236607 0.734314
O O20 0.490190 0.000000 0.719095
#
# Coordination Sequence:
#
# PCOD8208529 Si02
#       7
#     8   8   8   8   8   8   8
#     4  10  19  31  50  74  96 124 169 220 268 318
#     4   9  18  33  54  80 107 136 173 213 255 307
#     4   9  19  35  51  69 101 146 187 219 259 317
#     4   9  18  32  49  70  95 122 157 206 264 319
#     4   8  15  31  56  82 106 135 172 211 250 301
#     4   9  19  36  55  74 101 139 177 214 267 334
#     4  11  22  35  53  77 107 142 181 224 262 302
#
# _framework density 19.326461999999999
#
# number of rings (size 3 to 8) (size 9 to 14) (size 15 to 20)
#    0.000    2.714    0.000    3.429    0.000    4.286 
#    0.000    5.714    0.000    3.857    0.000    0.000 
#    0.000    0.000    0.000    0.000    0.000    0.000 
#
# Total GULP energy -693793.513759 kJ/mol
# GULP energy per Si atom -12389.169889 kJ/mol
# Density = 1.928247 g / cm^3
# Si number density = 19.326462 Si / 1000 Ang^3
#
#
#
# Elastic Constant Matrix: (Units=GPa)
#
#
# Indices 1 2 3 4 5 6 
#
# 1 88.6755 14.0373 24.8254 0.0000 0.0000 0.0000
# 2 14.0373 48.4431 31.3632 0.0000 0.0000 0.0000
# 3 24.8254 31.3632 106.3494 0.0000 0.0000 0.0000
# 4 0.0000 0.0000 0.0000 26.6869 0.0000 0.0000
# 5 0.0000 0.0000 0.0000 0.0000 23.1150 0.0000
# 6 0.0000 0.0000 0.0000 0.0000 0.0000 15.6080
#
#
#
# Elastic Compliance Matrix: (Units=1/GPa)
#
#
# Indices 1 2 3 4 5 6 
#
# 1 0.012235 -0.002097 -0.002238 0.000000 0.000000 0.000000
# 2 -0.002097 0.025873 -0.007141 0.000000 0.000000 0.000000
# 3 -0.002238 -0.007141 0.012031 0.000000 0.000000 0.000000
# 4 0.000000 0.000000 0.000000 0.037472 0.000000 0.000000
# 5 0.000000 0.000000 0.000000 0.000000 0.043262 0.000000
# 6 0.000000 0.000000 0.000000 0.000000 0.000000 0.064070
#
#
# Mechanical properties :
#
#
# Convention : Reuss Voigt Hill
#
# Bulk Modulus (GPa) = 36.77886 42.65778 39.71832
# Shear Modulus (GPa) = 22.03059 24.63146 23.33103
#
# Velocity S-wave (km/s) = 3.37993 3.57388 3.47826
# Velocity P-wave (km/s) = 5.85692 6.25702 6.06027
#
# Compressibility (1/GPa) = 0.02718953
#
# Stress axis : x y z
#
# Youngs Moduli (GPa) = 81.72958 38.64962 83.11696
#
# Poissons Ratio (x) = 0.08103 0.18600
# Poissons Ratio (y) = 0.17136 0.59353
# Poissons Ratio (z) = 0.18290 0.27599
#
# Static dielectric constant tensor:
#      x y z
#    x 3.650680 0.000000 0.000000 
#    y 0.000000 3.169190 0.000000 
#    z 0.000000 0.000000 3.595040 
# 
# 
# High freq. dielectric constant tensor:
#      x y z
#    x 1.752410 0.000000 0.000000 
#    y 0.000000 1.713810 0.000000 
#    z 0.000000 0.000000 1.757190 
# 
# From -- ./inp_files/33380.got.cif
#   From: 2010.03.12/outbox.cif.g09.slc.cpg/sg51_17_cif.got.tgz:33380.got - 2010.04.16 13:43:02.
