data_PCOD8208399
_publ_section_title
;
Structure prediction by ZEFSAII (Michael W. Deem and Ramdas Pophale) SiO2 
 PCOD8208399
Probable space group: P M M A
;
_chemical_formula_sum "Si O2"
_cell_formula_units_Z 48
_cell_length_a 15.510746
_cell_length_b 9.769421
_cell_length_c 17.171195
_cell_angle_alpha 90.000000
_cell_angle_beta 90.000000
_cell_angle_gamma 90.000000
_cell_volume 2601.968482
_symmetry_space_group_name_H-M "P M M A"
_symmetry_group_IT_number 51
_symmetry_cell_setting 'orthorhombic'
loop_
_space_group_symop_operation_xyz
x,y,z
1/2-x,-y,z
1/2+x,-y,-z
-x,y,-z
-x,-y,-z
1/2+x,y,-z
1/2-x,y,z
x,-y,z
loop_
_atom_site_type_symbol
_atom_site_label
_atom_site_fract_x
_atom_site_fract_y
_atom_site_fract_z
Si Si1 0.750000 0.662294 0.594306
Si Si2 0.352566 0.848453 0.989505
Si Si3 0.400685 0.659114 0.687853
Si Si4 0.852506 0.654238 0.144872
Si Si5 0.250000 0.663703 0.579838
Si Si6 0.592983 0.340448 0.699450
Si Si7 0.350339 0.158752 0.163917
O O1 0.750000 0.500000 0.589903
O O2 0.750000 0.724850 0.507477
O O3 0.835331 0.713864 0.639115
O O4 0.250000 0.850196 0.987320
O O5 0.381872 0.806281 0.076431
O O6 0.387765 0.000000 0.969520
O O7 0.390624 0.743500 0.926231
O O8 0.378163 0.500000 0.695165
O O9 0.384830 0.721198 0.773940
O O10 0.335054 0.721216 0.624065
O O11 0.499078 0.683664 0.660769
O O12 0.750000 0.656133 0.144314
O O13 0.887687 0.500000 0.134301
O O14 0.250000 0.500000 0.575660
O O15 0.607347 0.500000 0.719640
O O16 0.596030 0.255275 0.778867
O O17 0.250000 0.193704 0.174079
O O18 0.367629 0.000000 0.183528
#
# Coordination Sequence:
#
# PCOD8208399 Si02
#       7
#     4   8   8   8   4   8   8
#     4   9  18  30  47  74 103 126 156 201 247 291
#     4   8  15  27  44  68  95 124 162 204 242 281
#     4   9  17  29  47  71 101 134 162 195 242 294
#     4   9  15  26  45  68  92 123 166 204 237 282
#     4   9  16  30  50  72 101 132 160 195 243 295
#     4  10  19  31  48  75 105 127 157 204 249 284
#     4   9  17  31  50  70  95 132 171 199 236 294
#
# _framework density 18.447572999999998
#
# number of rings (size 3 to 8) (size 9 to 14) (size 15 to 20)
#    0.000    3.000    1.667    1.000    0.000    1.333 
#    0.000    6.667    0.000    5.000    0.000    5.833 
#    0.000    0.000    0.000    0.000    0.000    0.000 
#
# Total GULP energy -594994.601218 kJ/mol
# GULP energy per Si atom -12395.720859 kJ/mol
# Density = 1.840559 g / cm^3
# Si number density = 18.447573 Si / 1000 Ang^3
#
#
#
# Elastic Constant Matrix: (Units=GPa)
#
#
# Indices 1 2 3 4 5 6 
#
# 1 85.8330 22.1957 56.4280 0.0000 0.0000 0.0000
# 2 22.1957 44.9014 47.6023 0.0000 0.0000 0.0000
# 3 56.4280 47.6023 158.6331 0.0000 0.0000 0.0000
# 4 0.0000 0.0000 0.0000 3.3828 0.0000 0.0000
# 5 0.0000 0.0000 0.0000 0.0000 10.0303 0.0000
# 6 0.0000 0.0000 0.0000 0.0000 0.0000 9.5561
#
#
#
# Elastic Compliance Matrix: (Units=1/GPa)
#
#
# Indices 1 2 3 4 5 6 
#
# 1 0.015419 -0.002650 -0.004689 0.000000 0.000000 0.000000
# 2 -0.002650 0.033117 -0.008995 0.000000 0.000000 0.000000
# 3 -0.004689 -0.008995 0.010671 0.000000 0.000000 0.000000
# 4 0.000000 0.000000 0.000000 0.295611 0.000000 0.000000
# 5 0.000000 0.000000 0.000000 0.000000 0.099698 0.000000
# 6 0.000000 0.000000 0.000000 0.000000 0.000000 0.104645
#
#
# Mechanical properties :
#
#
# Convention : Reuss Voigt Hill
#
# Bulk Modulus (GPa) = 37.68229 60.20217 48.94223
# Shear Modulus (GPa) = 8.32394 15.46992 11.89693
#
# Velocity S-wave (km/s) = 2.12650 2.89898 2.54225
# Velocity P-wave (km/s) = 5.14785 6.62650 5.93342
#
# Compressibility (1/GPa) = 0.02653767
#
# Stress axis : x y z
#
# Youngs Moduli (GPa) = 64.85604 30.19577 93.71088
#
# Poissons Ratio (x) = 0.08003 0.43944
# Poissons Ratio (y) = 0.17189 0.84293
# Poissons Ratio (z) = 0.30413 0.27161
#
# Static dielectric constant tensor:
#      x y z
#    x 3.245510 0.000000 0.000000 
#    y 0.000000 3.119150 0.000000 
#    z 0.000000 0.000000 3.589040 
# 
# 
# High freq. dielectric constant tensor:
#      x y z
#    x 1.708190 0.000000 0.000000 
#    y 0.000000 1.667430 0.000000 
#    z 0.000000 0.000000 1.715790 
# 
# From -- ./inp_files/29536.got.cif
#   From: 2010.03.12/outbox.cif.g09.slc.cpg/sg51_15_cif.got.tgz:29536.got - 2010.04.16 13:43:02.
