data_PCOD8208750
_publ_section_title
;
Structure prediction by ZEFSAII (Michael W. Deem and Ramdas Pophale) SiO2 
 PCOD8208750
Probable space group: P M M A
;
_chemical_formula_sum "Si O2"
_cell_formula_units_Z 48
_cell_length_a 30.795833
_cell_length_b 9.251582
_cell_length_c 9.724773
_cell_angle_alpha 90.000000
_cell_angle_beta 90.000000
_cell_angle_gamma 90.000000
_cell_volume 2770.686770
_symmetry_space_group_name_H-M "P M M A"
_symmetry_group_IT_number 51
_symmetry_cell_setting 'orthorhombic'
loop_
_space_group_symop_operation_xyz
x,y,z
1/2-x,-y,z
1/2+x,-y,-z
-x,y,-z
-x,-y,-z
1/2+x,y,-z
1/2-x,y,z
x,-y,z
loop_
_atom_site_type_symbol
_atom_site_label
_atom_site_fract_x
_atom_site_fract_y
_atom_site_fract_z
Si Si1 0.016232 0.665712 0.854032
Si Si2 0.602185 0.167087 0.212622
Si Si3 0.702248 0.830294 0.707408
Si Si4 0.366947 0.832148 0.078644
Si Si5 0.627027 0.170227 0.511417
Si Si6 0.573006 0.333437 0.722218
O O1 0.030013 0.500000 0.876249
O O2 0.057406 0.749082 0.797233
O O3 0.978645 0.680964 0.739969
O O4 0.000000 0.730152 0.000000
O O5 0.627846 0.211938 0.350811
O O6 0.589486 0.000000 0.217282
O O7 0.634116 0.200334 0.084286
O O8 0.750000 0.756065 0.700912
O O9 0.679227 0.790386 0.852583
O O10 0.672051 0.776018 0.581198
O O11 0.708348 0.000000 0.695069
O O12 0.404796 0.736466 0.144102
O O13 0.377520 0.000000 0.108986
O O14 0.586831 0.250936 0.583735
O O15 0.620722 0.000000 0.535513
O O16 0.587319 0.500000 0.712178
#
# Coordination Sequence:
#
# PCOD8208750 Si02
#       6
#     8   8   8   8   8   8
#     4  10  20  33  48  69  97 128 166 208 240 277
#     4  10  20  32  48  71  99 131 162 197 242 286
#     4   8  14  28  51  73  94 124 158 193 236 286
#     4   9  17  30  49  72  97 123 157 198 238 282
#     4   9  19  34  49  70 101 130 160 197 240 290
#     4  10  19  32  50  70  93 127 167 201 238 279
#
# _framework density 17.324225999999999
#
# number of rings (size 3 to 8) (size 9 to 14) (size 15 to 20)
#    0.000    2.667    1.667    1.500    0.000    3.000 
#    0.000    4.167    0.000   13.000    0.000    0.000 
#    0.000   12.000    0.000    0.000    0.000    0.000 
#
# Total GULP energy -595027.891024 kJ/mol
# GULP energy per Si atom -12396.414396 kJ/mol
# Density = 1.728480 g / cm^3
# Si number density = 17.324226 Si / 1000 Ang^3
#
#
#
# Elastic Constant Matrix: (Units=GPa)
#
#
# Indices 1 2 3 4 5 6 
#
# 1 122.4867 32.7568 69.3715 0.0000 0.0000 0.0000
# 2 32.7568 45.1328 37.7179 0.0000 0.0000 0.0000
# 3 69.3715 37.7179 158.0663 0.0000 0.0000 0.0000
# 4 0.0000 0.0000 0.0000 18.7810 0.0000 0.0000
# 5 0.0000 0.0000 0.0000 0.0000 18.4904 0.0000
# 6 0.0000 0.0000 0.0000 0.0000 0.0000 -2.9897
#
#
#
# Elastic Compliance Matrix: (Units=1/GPa)
#
#
# Indices 1 2 3 4 5 6 
#
# 1 0.011796 -0.005290 -0.003915 0.000000 0.000000 0.000000
# 2 -0.005290 0.030048 -0.004849 0.000000 0.000000 0.000000
# 3 -0.003915 -0.004849 0.009201 0.000000 0.000000 0.000000
# 4 0.000000 0.000000 0.000000 0.053245 0.000000 0.000000
# 5 0.000000 0.000000 0.000000 0.000000 0.054082 0.000000
# 6 0.000000 0.000000 0.000000 0.000000 0.000000 -0.334485
#
#
# Mechanical properties :
#
#
# Convention : Reuss Voigt Hill
#
# Bulk Modulus (GPa) = 43.59304 67.26424 55.42864
# Shear Modulus (GPa) = -35.62272 19.24565 -8.18854
#
# Velocity S-wave (km/s) = -4.53949 3.33665 -2.17644
# Velocity P-wave (km/s) = 1.50278 7.33180 5.07429
#
# Compressibility (1/GPa) = 0.02293944
#
# Stress axis : x y z
#
# Youngs Moduli (GPa) = 84.77503 33.28005 108.67812
#
# Poissons Ratio (x) = 0.17604 0.42544
# Poissons Ratio (y) = 0.44844 0.52693
# Poissons Ratio (z) = 0.33187 0.16136
#
# Static dielectric constant tensor:
#      x y z
#    x 3.270690 0.000000 0.000000 
#    y 0.000000 3.071780 0.000000 
#    z 0.000000 0.000000 3.418380 
# 
# 
# High freq. dielectric constant tensor:
#      x y z
#    x 1.652740 0.000000 0.000000 
#    y 0.000000 1.650120 0.000000 
#    z 0.000000 0.000000 1.672330 
# 
# From -- ./inp_files/12854.got.cif
#   From: 2010.03.12/outbox.cif.g09.slc.cpg/sg51_7_cif.got.tgz:12854.got - 2010.04.16 13:43:02.
