data_PCOD8208518
_publ_section_title
;
Structure prediction by ZEFSAII (Michael W. Deem and Ramdas Pophale) SiO2 
 PCOD8208518
Probable space group: P M M A
;
_chemical_formula_sum "Si O2"
_cell_formula_units_Z 64
_cell_length_a 9.249817
_cell_length_b 28.477306
_cell_length_c 13.663170
_cell_angle_alpha 90.000000
_cell_angle_beta 90.000000
_cell_angle_gamma 90.000000
_cell_volume 3599.013822
_symmetry_space_group_name_H-M "P M M A"
_symmetry_group_IT_number 51
_symmetry_cell_setting 'orthorhombic'
loop_
_space_group_symop_operation_xyz
x,y,z
1/2-x,-y,z
1/2+x,-y,-z
-x,y,-z
-x,-y,-z
1/2+x,y,-z
1/2-x,y,z
x,-y,z
loop_
_atom_site_type_symbol
_atom_site_label
_atom_site_fract_x
_atom_site_fract_y
_atom_site_fract_z
Si Si1 0.417189 0.946861 0.281859
Si Si2 0.411670 0.055752 0.908833
Si Si3 0.083180 0.225862 0.269503
Si Si4 0.081948 0.446870 0.902879
Si Si5 0.416700 0.141099 0.402718
Si Si6 0.918704 0.272924 0.102152
Si Si7 0.081532 0.315784 0.398049
Si Si8 0.416853 0.362722 0.768970
O O1 0.250000 0.943547 0.250496
O O2 0.510389 0.929248 0.190587
O O3 0.451858 0.912468 0.371938
O O4 0.457859 0.000000 0.313490
O O5 0.250000 0.076640 0.909657
O O6 0.407189 0.000000 0.917663
O O7 0.500000 0.077251 0.000000
O O8 0.250000 0.227084 0.235864
O O9 0.038807 0.175765 0.314837
O O10 0.053957 0.264669 0.352513
O O11 0.983044 0.233813 0.175290
O O12 0.250000 0.442129 0.927224
O O13 0.039426 0.500000 0.873240
O O14 0.039661 0.413207 0.813074
O O15 0.000000 0.430534 0.000000
O O16 0.500000 0.154555 0.500000
O O17 0.250000 0.148014 0.427698
O O18 0.750000 0.262722 0.086136
O O19 0.946657 0.324084 0.147672
O O20 0.000000 0.269610 0.000000
O O21 0.250000 0.326133 0.414373
O O22 0.000000 0.318967 0.500000
O O23 0.017105 0.354885 0.325095
O O24 0.250000 0.360994 0.735595
#
# Coordination Sequence:
#
# PCOD8208518 Si02
#       8
#     8   8   8   8   8   8   8   8
#     4   9  18  33  51  72  99 128 158 193 232 275
#     4   9  16  27  46  71  96 122 152 187 227 270
#     4   9  19  35  52  72  98 127 160 196 236 284
#     4   9  17  29  46  69  98 132 167 203 243 287
#     4  10  21  36  54  74  97 126 158 195 238 283
#     4  10  19  31  50  75 103 134 164 197 238 285
#     4  10  19  31  50  73  96 123 157 201 248 292
#     4   9  18  31  47  70 100 132 166 203 243 287
#
# _framework density 17.782648999999999
#
# number of rings (size 3 to 8) (size 9 to 14) (size 15 to 20)
#    0.000    2.625    0.000    1.875    0.000    4.250 
#    0.000    0.625    0.000    0.375    0.000    0.000 
#    0.000    0.000    0.000    0.000    0.000    0.000 
#
# Total GULP energy -793681.403177 kJ/mol
# GULP energy per Si atom -12401.271925 kJ/mol
# Density = 1.774218 g / cm^3
# Si number density = 17.782649 Si / 1000 Ang^3
#
#
#
# Elastic Constant Matrix: (Units=GPa)
#
#
# Indices 1 2 3 4 5 6 
#
# 1 100.3419 38.9534 74.8667 0.0000 0.0000 0.0000
# 2 38.9534 81.0469 47.2472 0.0000 0.0000 0.0000
# 3 74.8667 47.2472 125.0976 0.0000 0.0000 0.0000
# 4 0.0000 0.0000 0.0000 17.5429 0.0000 0.0000
# 5 0.0000 0.0000 0.0000 0.0000 38.7739 0.0000
# 6 0.0000 0.0000 0.0000 0.0000 0.0000 20.0374
#
#
#
# Elastic Compliance Matrix: (Units=1/GPa)
#
#
# Indices 1 2 3 4 5 6 
#
# 1 0.018611 -0.003144 -0.009950 0.000000 0.000000 0.000000
# 2 -0.003144 0.016353 -0.004295 0.000000 0.000000 0.000000
# 3 -0.009950 -0.004295 0.015571 0.000000 0.000000 0.000000
# 4 0.000000 0.000000 0.000000 0.057003 0.000000 0.000000
# 5 0.000000 0.000000 0.000000 0.000000 0.025791 0.000000
# 6 0.000000 0.000000 0.000000 0.000000 0.000000 0.049907
#
#
# Mechanical properties :
#
#
# Convention : Reuss Voigt Hill
#
# Bulk Modulus (GPa) = 63.46656 69.84677 66.65666
# Shear Modulus (GPa) = 22.39485 24.96543 23.68014
#
# Velocity S-wave (km/s) = 3.55260 3.75096 3.65313
# Velocity P-wave (km/s) = 7.25228 7.62384 7.44038
#
# Compressibility (1/GPa) = 0.01575633
#
# Stress axis : x y z
#
# Youngs Moduli (GPa) = 53.73287 61.14955 64.22304
#
# Poissons Ratio (x) = 0.19226 0.63904
# Poissons Ratio (y) = 0.16894 0.27582
# Poissons Ratio (z) = 0.53466 0.26262
#
# Static dielectric constant tensor:
#      x y z
#    x 3.406770 0.000000 0.000000 
#    y 0.000000 3.256970 0.000000 
#    z 0.000000 0.000000 3.146390 
# 
# 
# High freq. dielectric constant tensor:
#      x y z
#    x 1.693690 0.000000 0.000000 
#    y 0.000000 1.670610 0.000000 
#    z 0.000000 0.000000 1.681420 
# 
# From -- ./inp_files/14843.got.cif
#   From: 2010.03.12/outbox.cif.g09.slc.cpg/sg51_8_cif.got.tgz:14843.got - 2010.04.16 13:43:02.
