data_PCOD8208500
_publ_section_title
;
Structure prediction by ZEFSAII (Michael W. Deem and Ramdas Pophale) SiO2 
 PCOD8208500
Probable space group: P M M A
;
_chemical_formula_sum "Si O2"
_cell_formula_units_Z 48
_cell_length_a 19.258300
_cell_length_b 9.477309
_cell_length_c 14.923400
_cell_angle_alpha 90.000000
_cell_angle_beta 90.000000
_cell_angle_gamma 90.000000
_cell_volume 2723.772107
_symmetry_space_group_name_H-M "P M M A"
_symmetry_group_IT_number 51
_symmetry_cell_setting 'orthorhombic'
loop_
_space_group_symop_operation_xyz
x,y,z
1/2-x,-y,z
1/2+x,-y,-z
-x,y,-z
-x,-y,-z
1/2+x,y,-z
1/2-x,y,z
x,-y,z
loop_
_atom_site_type_symbol
_atom_site_label
_atom_site_fract_x
_atom_site_fract_y
_atom_site_fract_z
Si Si1 0.827717 0.332070 0.110490
Si Si2 0.571194 0.332026 0.958802
Si Si3 0.829794 0.838377 0.634341
Si Si4 0.568081 0.666245 0.757147
Si Si5 0.829221 0.836932 0.426836
Si Si6 0.089352 0.333787 0.716172
O O1 0.750000 0.269603 0.112273
O O2 0.826549 0.500000 0.111167
O O3 0.869230 0.277391 0.197107
O O4 0.865256 0.277948 0.020171
O O5 0.566970 0.500000 0.958432
O O6 0.581132 0.276826 0.857817
O O7 0.500000 0.270953 0.000000
O O8 0.750000 0.806494 0.658063
O O9 0.877343 0.737752 0.692354
O O10 0.844005 0.806300 0.530556
O O11 0.847986 0.000000 0.656249
O O12 0.579825 0.500000 0.752079
O O13 0.490793 0.707017 0.726979
O O14 0.750000 0.796527 0.402793
O O15 0.881819 0.741375 0.371596
O O16 0.842898 0.000000 0.404248
O O17 0.099549 0.500000 0.704404
#
# Coordination Sequence:
#
# PCOD8208500 Si02
#       6
#     8   8   8   8   8   8
#     4   9  16  26  44  71 100 133 172 207 244 297
#     4   9  15  28  47  68 102 140 166 199 250 299
#     4   9  20  39  57  72  97 135 175 214 258 307
#     4  10  20  32  52  80 107 135 168 210 258 305
#     4   9  19  36  55  73  97 134 176 214 255 304
#     4  10  19  31  49  77 109 136 163 205 261 310
#
# _framework density 17.622620999999999
#
# number of rings (size 3 to 8) (size 9 to 14) (size 15 to 20)
#    0.000    2.667    1.667    1.500    0.000    4.000 
#    0.000    6.667    0.000    1.500    0.000    2.333 
#    0.000    0.000    0.000    0.000    0.000    0.000 
#
# Total GULP energy -595170.877167 kJ/mol
# GULP energy per Si atom -12399.393274 kJ/mol
# Density = 1.758251 g / cm^3
# Si number density = 17.622621 Si / 1000 Ang^3
#
#
#
# Elastic Constant Matrix: (Units=GPa)
#
#
# Indices 1 2 3 4 5 6 
#
# 1 135.6019 42.1388 83.3994 0.0000 0.0000 0.0000
# 2 42.1388 30.2977 41.3113 0.0000 0.0000 0.0000
# 3 83.3994 41.3113 123.7237 0.0000 0.0000 0.0000
# 4 0.0000 0.0000 0.0000 -5.3816 0.0000 0.0000
# 5 0.0000 0.0000 0.0000 0.0000 40.3974 0.0000
# 6 0.0000 0.0000 0.0000 0.0000 0.0000 24.9401
#
#
#
# Elastic Compliance Matrix: (Units=1/GPa)
#
#
# Indices 1 2 3 4 5 6 
#
# 1 0.014924 -0.012923 -0.005745 0.000000 0.000000 0.000000
# 2 -0.012923 0.071783 -0.015257 0.000000 0.000000 0.000000
# 3 -0.005745 -0.015257 0.017049 0.000000 0.000000 0.000000
# 4 0.000000 0.000000 0.000000 -0.185819 0.000000 0.000000
# 5 0.000000 0.000000 0.000000 0.000000 0.024754 0.000000
# 6 0.000000 0.000000 0.000000 0.000000 0.000000 0.040096
#
#
# Mechanical properties :
#
#
# Convention : Reuss Voigt Hill
#
# Bulk Modulus (GPa) = 27.85049 69.25803 48.55426
# Shear Modulus (GPa) = 79.86514 20.17608 50.02061
#
# Velocity S-wave (km/s) = 6.73929 3.38730 5.33347
# Velocity P-wave (km/s) = 8.74045 7.39489 8.09568
#
# Compressibility (1/GPa) = 0.03590601
#
# Stress axis : x y z
#
# Youngs Moduli (GPa) = 67.00799 13.93084 58.65390
#
# Poissons Ratio (x) = 0.18003 0.33694
# Poissons Ratio (y) = 0.86596 0.89489
# Poissons Ratio (z) = 0.38493 0.21254
#
# Static dielectric constant tensor:
#      x y z
#    x 3.370080 0.000000 0.000000 
#    y 0.000000 2.828690 0.000000 
#    z 0.000000 0.000000 3.365150 
# 
# 
# High freq. dielectric constant tensor:
#      x y z
#    x 1.690370 0.000000 0.000000 
#    y 0.000000 1.637150 0.000000 
#    z 0.000000 0.000000 1.692370 
# 
# From -- ./inp_files/24689.got.cif
#   From: 2010.03.12/outbox.cif.g09.slc.cpg/sg51_13_cif.got.tgz:24689.got - 2010.04.16 13:43:02.
