data_PCOD8208066
_publ_section_title
;
Structure prediction by ZEFSAII (Michael W. Deem and Ramdas Pophale) SiO2 
 PCOD8208066
Probable space group: P M M A
;
_chemical_formula_sum "Si O2"
_cell_formula_units_Z 64
_cell_length_a 9.230364
_cell_length_b 14.400671
_cell_length_c 27.986838
_cell_angle_alpha 90.000000
_cell_angle_beta 90.000000
_cell_angle_gamma 90.000000
_cell_volume 3720.106647
_symmetry_space_group_name_H-M "P M M A"
_symmetry_group_IT_number 51
_symmetry_cell_setting 'orthorhombic'
loop_
_space_group_symop_operation_xyz
x,y,z
1/2-x,-y,z
1/2+x,-y,-z
-x,y,-z
-x,-y,-z
1/2+x,y,-z
1/2-x,y,z
x,-y,z
loop_
_atom_site_type_symbol
_atom_site_label
_atom_site_fract_x
_atom_site_fract_y
_atom_site_fract_z
Si Si1 0.580883 0.393998 0.952726
Si Si2 0.915099 0.603312 0.684711
Si Si3 0.919291 0.107190 0.547596
Si Si4 0.917787 0.893783 0.169982
Si Si5 0.583265 0.894382 0.280176
Si Si6 0.583113 0.211374 0.639931
Si Si7 0.082896 0.607532 0.780419
Si Si8 0.421629 0.721812 0.139348
O O1 0.750000 0.385520 0.962733
O O2 0.537318 0.500000 0.940263
O O3 0.532081 0.328725 0.909367
O O4 0.500000 0.358984 0.000000
O O5 0.750000 0.610636 0.703906
O O6 0.945945 0.500000 0.664338
O O7 0.939654 0.677055 0.641799
O O8 0.023328 0.626656 0.727628
O O9 0.750000 0.123990 0.539412
O O10 0.982311 0.169172 0.591146
O O11 0.000000 0.140139 0.500000
O O12 0.953790 0.000000 0.559317
O O13 0.750000 0.879190 0.156837
O O14 0.944783 0.868038 0.225238
O O15 0.016544 0.826571 0.137736
O O16 0.963624 0.000000 0.159786
O O17 0.750000 0.879736 0.293477
O O18 0.488440 0.829049 0.312908
O O19 0.536602 0.000000 0.289519
O O20 0.750000 0.182498 0.641879
O O21 0.250000 0.639199 0.781888
O O22 0.065314 0.500000 0.794167
O O23 0.991546 0.667022 0.817145
O O24 0.250000 0.723559 0.146063
#
# Coordination Sequence:
#
# PCOD8208066 Si02
#       8
#     8   8   8   8   8   8   8   8
#     4   9  19  35  53  74 100 127 155 192 240 291
#     4   9  18  32  48  67  94 127 160 195 236 279
#     4   9  18  32  48  67  91 116 145 185 232 282
#     4   9  19  35  51  69  98 134 169 204 239 278
#     4   9  18  31  46  67  96 127 157 190 230 276
#     4  10  19  30  47  70  93 120 155 193 233 277
#     4  10  20  32  47  70 100 133 167 200 235 280
#     4  11  21  32  50  75 101 129 162 201 244 290
#
# _framework density 17.203807000000001
#
# number of rings (size 3 to 8) (size 9 to 14) (size 15 to 20)
#    0.000    2.500    0.000    3.000    0.000    6.750 
#    0.000    3.750    0.000    0.750    0.000    0.000 
#    0.000    0.000    0.000    0.000    0.000    0.000 
#
# Total GULP energy -793611.504681 kJ/mol
# GULP energy per Si atom -12400.179761 kJ/mol
# Density = 1.716465 g / cm^3
# Si number density = 17.203807 Si / 1000 Ang^3
#
#
#
# Elastic Constant Matrix: (Units=GPa)
#
#
# Indices 1 2 3 4 5 6 
#
# 1 58.9709 47.4089 40.7370 0.0000 0.0000 0.0000
# 2 47.4089 106.6164 74.8842 0.0000 0.0000 0.0000
# 3 40.7370 74.8842 91.4429 0.0000 0.0000 0.0000
# 4 0.0000 0.0000 0.0000 28.6527 0.0000 0.0000
# 5 0.0000 0.0000 0.0000 0.0000 27.5598 0.0000
# 6 0.0000 0.0000 0.0000 0.0000 0.0000 27.0715
#
#
#
# Elastic Compliance Matrix: (Units=1/GPa)
#
#
# Indices 1 2 3 4 5 6 
#
# 1 0.027423 -0.008506 -0.005251 0.000000 0.000000 0.000000
# 2 -0.008506 0.024717 -0.016452 0.000000 0.000000 0.000000
# 3 -0.005251 -0.016452 0.026748 0.000000 0.000000 0.000000
# 4 0.000000 0.000000 0.000000 0.034901 0.000000 0.000000
# 5 0.000000 0.000000 0.000000 0.000000 0.036285 0.000000
# 6 0.000000 0.000000 0.000000 0.000000 0.000000 0.036939
#
#
# Mechanical properties :
#
#
# Convention : Reuss Voigt Hill
#
# Bulk Modulus (GPa) = 54.14130 64.78782 59.46456
# Shear Modulus (GPa) = 19.71703 22.92347 21.32025
#
# Velocity S-wave (km/s) = 3.38906 3.65425 3.52415
# Velocity P-wave (km/s) = 6.84494 7.45289 7.15537
#
# Compressibility (1/GPa) = 0.01847019
#
# Stress axis : x y z
#
# Youngs Moduli (GPa) = 36.46531 40.45772 37.38621
#
# Poissons Ratio (x) = 0.34414 0.19632
# Poissons Ratio (y) = 0.31018 0.61507
# Poissons Ratio (z) = 0.19148 0.66561
#
# Static dielectric constant tensor:
#      x y z
#    x 3.194210 0.000000 0.000000 
#    y 0.000000 3.407740 0.000000 
#    z 0.000000 0.000000 3.088220 
# 
# 
# High freq. dielectric constant tensor:
#      x y z
#    x 1.664390 0.000000 0.000000 
#    y 0.000000 1.669910 0.000000 
#    z 0.000000 0.000000 1.639660 
# 
# From -- ./inp_files/34944.got.cif
#   From: 2010.03.12/outbox.cif.g09.slc.cpg/sg51_18_cif.got.tgz:34944.got - 2010.04.16 13:43:02.
