data_PCOD8208476
_publ_section_title
;
Structure prediction by ZEFSAII (Michael W. Deem and Ramdas Pophale) SiO2 
 PCOD8208476
Probable space group: P M M A
;
_chemical_formula_sum "Si O2"
_cell_formula_units_Z 64
_cell_length_a 23.774177
_cell_length_b 9.079443
_cell_length_c 16.431421
_cell_angle_alpha 90.000000
_cell_angle_beta 90.000000
_cell_angle_gamma 90.000000
_cell_volume 3546.825493
_symmetry_space_group_name_H-M "P M M A"
_symmetry_group_IT_number 51
_symmetry_cell_setting 'orthorhombic'
loop_
_space_group_symop_operation_xyz
x,y,z
1/2-x,-y,z
1/2+x,-y,-z
-x,y,-z
-x,-y,-z
1/2+x,y,-z
1/2-x,y,z
x,-y,z
loop_
_atom_site_type_symbol
_atom_site_label
_atom_site_fract_x
_atom_site_fract_y
_atom_site_fract_z
Si Si1 0.686963 0.827559 0.263069
Si Si2 0.185475 0.169105 0.376264
Si Si3 0.314770 0.325977 0.075295
Si Si4 0.081775 0.174024 0.633483
Si Si5 0.381731 0.828648 0.214956
Si Si6 0.093712 0.329568 0.467341
Si Si7 0.816614 0.661692 0.105495
Si Si8 0.977012 0.328202 0.693649
O O1 0.750000 0.766263 0.283122
O O2 0.644453 0.784402 0.335454
O O3 0.662590 0.766628 0.177826
O O4 0.689659 0.000000 0.251932
O O5 0.250000 0.214366 0.377801
O O6 0.163322 0.198095 0.285928
O O7 0.154976 0.272490 0.441407
O O8 0.175822 0.000000 0.402250
O O9 0.250000 0.279570 0.090877
O O10 0.321761 0.500000 0.089616
O O11 0.355753 0.236255 0.133357
O O12 0.334441 0.281530 0.983982
O O13 0.072124 0.238816 0.544193
O O14 0.037089 0.247785 0.694582
O O15 0.071871 0.000000 0.631802
O O16 0.439173 0.743793 0.235961
O O17 0.395413 0.000000 0.203018
O O18 0.097322 0.500000 0.491464
O O19 0.050495 0.301477 0.394466
O O20 0.750000 0.651156 0.105853
O O21 0.842505 0.500000 0.121200
O O22 0.984366 0.500000 0.712671
#
# Coordination Sequence:
#
# PCOD8208476 Si02
#       8
#     8   8   8   8   8   8   8   8
#     4   9  19  35  53  75 103 131 159 196 245 297
#     4   9  18  32  48  68  99 136 168 201 245 294
#     4   9  17  29  47  74 107 139 169 202 243 291
#     4  11  22  35  54  77  99 127 164 205 250 300
#     4  10  19  31  49  74 102 133 171 210 247 292
#     4  10  21  35  51  73  98 127 167 211 251 293
#     4   8  15  29  49  73 101 133 167 201 239 287
#     4  10  21  37  54  72  98 131 167 209 254 296
#
# _framework density 18.044305000000001
#
# number of rings (size 3 to 8) (size 9 to 14) (size 15 to 20)
#    0.000    2.500    0.000    3.000    0.000    6.500 
#    0.000    2.500    0.000    0.750    0.000    5.250 
#    0.000    0.000    0.000    0.000    0.000    0.000 
#
# Total GULP energy -793569.534423 kJ/mol
# GULP energy per Si atom -12399.523975 kJ/mol
# Density = 1.800323 g / cm^3
# Si number density = 18.044305 Si / 1000 Ang^3
#
#
#
# Elastic Constant Matrix: (Units=GPa)
#
#
# Indices 1 2 3 4 5 6 
#
# 1 77.8426 39.6667 16.6995 0.0000 0.0000 0.0000
# 2 39.6667 76.7013 32.7696 0.0000 0.0000 0.0000
# 3 16.6995 32.7696 61.4829 0.0000 0.0000 0.0000
# 4 0.0000 0.0000 0.0000 31.8382 0.0000 0.0000
# 5 0.0000 0.0000 0.0000 0.0000 16.5852 0.0000
# 6 0.0000 0.0000 0.0000 0.0000 0.0000 27.9654
#
#
#
# Elastic Compliance Matrix: (Units=1/GPa)
#
#
# Indices 1 2 3 4 5 6 
#
# 1 0.017444 -0.009060 0.000091 0.000000 0.000000 0.000000
# 2 -0.009060 0.021587 -0.009045 0.000000 0.000000 0.000000
# 3 0.000091 -0.009045 0.021061 0.000000 0.000000 0.000000
# 4 0.000000 0.000000 0.000000 0.031409 0.000000 0.000000
# 5 0.000000 0.000000 0.000000 0.000000 0.060295 0.000000
# 6 0.000000 0.000000 0.000000 0.000000 0.000000 0.035759
#
#
# Mechanical properties :
#
#
# Convention : Reuss Voigt Hill
#
# Bulk Modulus (GPa) = 41.55614 43.81094 42.68354
# Shear Modulus (GPa) = 21.58864 23.73716 22.66290
#
# Velocity S-wave (km/s) = 3.46269 3.63091 3.54780
# Velocity P-wave (km/s) = 6.25036 6.47382 6.36307
#
# Compressibility (1/GPa) = 0.02406383
#
# Stress axis : x y z
#
# Youngs Moduli (GPa) = 57.32736 46.32331 47.48138
#
# Poissons Ratio (x) = 0.41969 -0.00432
# Poissons Ratio (y) = 0.51939 0.42947
# Poissons Ratio (z) = -0.00521 0.41900
#
# Static dielectric constant tensor:
#      x y z
#    x 3.331310 0.000000 0.000000 
#    y 0.000000 3.405090 0.000000 
#    z 0.000000 0.000000 3.337810 
# 
# 
# High freq. dielectric constant tensor:
#      x y z
#    x 1.683960 0.000000 0.000000 
#    y 0.000000 1.703020 0.000000 
#    z 0.000000 0.000000 1.689670 
# 
# From -- ./inp_files/26169.got.cif
#   From: 2010.03.12/outbox.cif.g09.slc.cpg/sg51_14_cif.got.tgz:26169.got - 2010.04.16 13:43:02.
