data_PCOD8208916
_publ_section_title
;
Structure prediction by ZEFSAII (Michael W. Deem and Ramdas Pophale) SiO2 
 PCOD8208916
Probable space group: P M M A
;
_chemical_formula_sum "Si O2"
_cell_formula_units_Z 64
_cell_length_a 18.784161
_cell_length_b 9.104508
_cell_length_c 21.196447
_cell_angle_alpha 90.000000
_cell_angle_beta 90.000000
_cell_angle_gamma 90.000000
_cell_volume 3625.027899
_symmetry_space_group_name_H-M "P M M A"
_symmetry_group_IT_number 51
_symmetry_cell_setting 'orthorhombic'
loop_
_space_group_symop_operation_xyz
x,y,z
1/2-x,-y,z
1/2+x,-y,-z
-x,y,-z
-x,-y,-z
1/2+x,y,-z
1/2-x,y,z
x,-y,z
loop_
_atom_site_type_symbol
_atom_site_label
_atom_site_fract_x
_atom_site_fract_y
_atom_site_fract_z
Si Si1 0.032966 0.669664 0.068194
Si Si2 0.667613 0.329604 0.525287
Si Si3 0.635055 0.839352 0.765119
Si Si4 0.091924 0.671408 0.349099
Si Si5 0.328148 0.171561 0.100456
Si Si6 0.523044 0.164121 0.184853
Si Si7 0.166450 0.169370 0.602049
Si Si8 0.564091 0.326088 0.303727
O O1 0.037109 0.500000 0.088403
O O2 0.112890 0.734001 0.064382
O O3 0.982544 0.753921 0.117743
O O4 0.000000 0.691031 0.000000
O O5 0.750000 0.303857 0.542928
O O6 0.653112 0.500000 0.509552
O O7 0.618469 0.273395 0.582799
O O8 0.644229 0.234046 0.465540
O O9 0.643928 0.736586 0.704512
O O10 0.677024 0.778779 0.826078
O O11 0.553486 0.847913 0.784557
O O12 0.663799 0.000000 0.746238
O O13 0.102522 0.500000 0.343964
O O14 0.010008 0.717190 0.338177
O O15 0.250000 0.198017 0.069898
O O16 0.350246 0.000000 0.097258
O O17 0.570898 0.257333 0.233617
O O18 0.555120 0.000000 0.174887
O O19 0.250000 0.188544 0.613266
O O20 0.128110 0.260692 0.656186
O O21 0.142949 0.000000 0.604992
O O22 0.572203 0.500000 0.297871
#
# Coordination Sequence:
#
# PCOD8208916 Si02
#       8
#     8   8   8   8   8   8   8   8
#     4  10  20  33  51  77 107 138 172 208 248 296
#     4   9  18  33  49  64  89 126 164 201 243 293
#     4   8  15  27  43  65  94 126 157 192 235 281
#     4   9  18  30  45  69  98 127 161 199 239 287
#     4   9  18  32  49  71 100 134 173 213 250 293
#     4   9  17  31  51  74 100 128 160 198 238 283
#     4  10  21  36  52  70  92 120 160 208 255 305
#     4  10  19  32  52  75 100 128 158 199 249 297
#
# _framework density 17.655037
#
# number of rings (size 3 to 8) (size 9 to 14) (size 15 to 20)
#    0.000    2.750    0.000    2.250    0.000    7.000 
#    0.000    2.500    0.000    0.750    0.000    3.500 
#    0.000    0.000    0.000    0.000    0.000    0.000 
#
# Total GULP energy -793404.826841 kJ/mol
# GULP energy per Si atom -12396.950419 kJ/mol
# Density = 1.761485 g / cm^3
# Si number density = 17.655037 Si / 1000 Ang^3
#
#
#
# Elastic Constant Matrix: (Units=GPa)
#
#
# Indices 1 2 3 4 5 6 
#
# 1 53.1372 38.6194 43.4289 0.0000 0.0000 0.0000
# 2 38.6194 99.7475 63.8630 0.0000 0.0000 0.0000
# 3 43.4289 63.8630 108.3090 0.0000 0.0000 0.0000
# 4 0.0000 0.0000 0.0000 27.7820 0.0000 0.0000
# 5 0.0000 0.0000 0.0000 0.0000 16.3462 0.0000
# 6 0.0000 0.0000 0.0000 0.0000 0.0000 19.3842
#
#
#
# Elastic Compliance Matrix: (Units=1/GPa)
#
#
# Indices 1 2 3 4 5 6 
#
# 1 0.030306 -0.006351 -0.008407 0.000000 0.000000 0.000000
# 2 -0.006351 0.017436 -0.007734 0.000000 0.000000 0.000000
# 3 -0.008407 -0.007734 0.017164 0.000000 0.000000 0.000000
# 4 0.000000 0.000000 0.000000 0.035995 0.000000 0.000000
# 5 0.000000 0.000000 0.000000 0.000000 0.061176 0.000000
# 6 0.000000 0.000000 0.000000 0.000000 0.000000 0.051588
#
#
# Mechanical properties :
#
#
# Convention : Reuss Voigt Hill
#
# Bulk Modulus (GPa) = 50.19695 61.44628 55.82161
# Shear Modulus (GPa) = 18.84717 20.38797 19.61757
#
# Velocity S-wave (km/s) = 3.27084 3.40192 3.33702
# Velocity P-wave (km/s) = 6.53899 7.09296 6.82160
#
# Compressibility (1/GPa) = 0.01992153
#
# Stress axis : x y z
#
# Youngs Moduli (GPa) = 32.99658 57.35187 58.26024
#
# Poissons Ratio (x) = 0.36425 0.48980
# Poissons Ratio (y) = 0.20956 0.45061
# Poissons Ratio (z) = 0.27741 0.44358
#
# Static dielectric constant tensor:
#      x y z
#    x 3.253540 0.000000 0.000000 
#    y 0.000000 3.432680 0.000000 
#    z 0.000000 0.000000 3.281390 
# 
# 
# High freq. dielectric constant tensor:
#      x y z
#    x 1.658420 0.000000 0.000000 
#    y 0.000000 1.688650 0.000000 
#    z 0.000000 0.000000 1.674940 
# 
# From -- ./inp_files/33951.got.cif
#   From: 2010.03.12/outbox.cif.g09.slc.cpg/sg51_17_cif.got.tgz:33951.got - 2010.04.16 13:43:02.
