data_PCOD8208357
_publ_section_title
;
Structure prediction by ZEFSAII (Michael W. Deem and Ramdas Pophale) SiO2 
 PCOD8208357
Probable space group: P M M A
;
_chemical_formula_sum "Si O2"
_cell_formula_units_Z 56
_cell_length_a 18.884338
_cell_length_b 9.082914
_cell_length_c 18.077406
_cell_angle_alpha 90.000000
_cell_angle_beta 90.000000
_cell_angle_gamma 90.000000
_cell_volume 3100.723774
_symmetry_space_group_name_H-M "P M M A"
_symmetry_group_IT_number 51
_symmetry_cell_setting 'orthorhombic'
loop_
_space_group_symop_operation_xyz
x,y,z
1/2-x,-y,z
1/2+x,-y,-z
-x,y,-z
-x,-y,-z
1/2+x,y,-z
1/2-x,y,z
x,-y,z
loop_
_atom_site_type_symbol
_atom_site_label
_atom_site_fract_x
_atom_site_fract_y
_atom_site_fract_z
Si Si1 0.083541 0.165736 0.144219
Si Si2 0.831908 0.669870 0.568808
Si Si3 0.915481 0.333663 0.999530
Si Si4 0.585033 0.833680 0.143567
Si Si5 0.584767 0.672232 0.290732
Si Si6 0.333069 0.830299 0.580088
Si Si7 0.079765 0.328991 0.289931
O O1 0.113857 0.254488 0.074023
O O2 0.109987 0.241036 0.219642
O O3 0.999234 0.167445 0.141717
O O4 0.112954 0.000000 0.140980
O O5 0.750000 0.693512 0.588592
O O6 0.848014 0.500000 0.549548
O O7 0.855369 0.768720 0.499780
O O8 0.877430 0.723979 0.638436
O O9 0.886650 0.500000 0.001104
O O10 0.885357 0.248150 0.070933
O O11 0.000000 0.332446 0.000000
O O12 0.612573 0.749107 0.216015
O O13 0.614405 0.000000 0.144813
O O14 0.600000 0.500000 0.283747
O O15 0.626978 0.736681 0.359034
O O16 0.502337 0.705673 0.303867
O O17 0.250000 0.809428 0.592982
O O18 0.355951 0.000000 0.585273
O O19 0.092286 0.500000 0.273416
#
# Coordination Sequence:
#
# PCOD8208357 Si02
#       7
#     8   8   8   8   8   8   8
#     4   9  16  25  39  61  90 124 158 192 232 277
#     4   9  18  34  54  72  92 122 159 195 232 278
#     4   9  15  23  37  58  87 123 159 193 231 275
#     4   9  16  26  40  61  91 123 156 193 232 276
#     4  10  19  31  48  70  97 126 156 192 235 282
#     4  10  21  36  52  70  93 121 155 195 236 279
#     4   9  18  31  47  70  98 125 155 194 237 279
#
# _framework density 18.060299000000001
#
# number of rings (size 3 to 8) (size 9 to 14) (size 15 to 20)
#    0.000    2.714    0.000    2.143    0.000    7.714 
#    0.000    2.857    0.000    0.000    0.000    1.000 
#    0.000    5.714    0.000    0.000    0.000    0.000 
#
# Total GULP energy -694461.704145 kJ/mol
# GULP energy per Si atom -12401.101860 kJ/mol
# Density = 1.801919 g / cm^3
# Si number density = 18.060299 Si / 1000 Ang^3
#
#
#
# Elastic Constant Matrix: (Units=GPa)
#
#
# Indices 1 2 3 4 5 6 
#
# 1 23.5352 29.3683 42.4689 0.0000 0.0000 0.0000
# 2 29.3683 141.0990 94.2960 0.0000 0.0000 0.0000
# 3 42.4689 94.2960 179.5108 0.0000 0.0000 0.0000
# 4 0.0000 0.0000 0.0000 33.6049 0.0000 0.0000
# 5 0.0000 0.0000 0.0000 0.0000 -4.1809 0.0000
# 6 0.0000 0.0000 0.0000 0.0000 0.0000 15.5344
#
#
#
# Elastic Compliance Matrix: (Units=1/GPa)
#
#
# Indices 1 2 3 4 5 6 
#
# 1 0.077258 -0.005957 -0.015149 0.000000 0.000000 0.000000
# 2 -0.005957 0.011380 -0.004569 0.000000 0.000000 0.000000
# 3 -0.015149 -0.004569 0.011555 0.000000 0.000000 0.000000
# 4 0.000000 0.000000 0.000000 0.029758 0.000000 0.000000
# 5 0.000000 0.000000 0.000000 0.000000 -0.239183 0.000000
# 6 0.000000 0.000000 0.000000 0.000000 0.000000 0.064373
#
#
# Mechanical properties :
#
#
# Convention : Reuss Voigt Hill
#
# Bulk Modulus (GPa) = 20.47302 75.15681 47.81491
# Shear Modulus (GPa) = 219.56974 20.85912 120.21443
#
# Velocity S-wave (km/s) = 11.03811 3.40217 8.16745
# Velocity P-wave (km/s) = 13.18384 7.55895 10.74596
#
# Compressibility (1/GPa) = 0.04884476
#
# Stress axis : x y z
#
# Youngs Moduli (GPa) = 12.94356 87.87076 86.54540
#
# Poissons Ratio (x) = 0.52341 1.31107
# Poissons Ratio (y) = 0.07710 0.39541
# Poissons Ratio (z) = 0.19608 0.40147
#
# Static dielectric constant tensor:
#      x y z
#    x 2.828480 0.000000 0.000000 
#    y 0.000000 3.509570 0.000000 
#    z 0.000000 0.000000 3.530100 
# 
# 
# High freq. dielectric constant tensor:
#      x y z
#    x 1.638940 0.000000 0.000000 
#    y 0.000000 1.712910 0.000000 
#    z 0.000000 0.000000 1.716240 
# 
# From -- ./inp_files/30437.got.cif
#   From: 2010.03.12/outbox.cif.g09.slc.cpg/sg51_16_cif.got.tgz:30437.got - 2010.04.16 13:43:02.
