data_PCOD8208445
_publ_section_title
;
Structure prediction by ZEFSAII (Michael W. Deem and Ramdas Pophale) SiO2 
 PCOD8208445
Probable space group: P M M A
;
_chemical_formula_sum "Si O2"
_cell_formula_units_Z 64
_cell_length_a 19.518992
_cell_length_b 9.366734
_cell_length_c 20.027058
_cell_angle_alpha 90.000000
_cell_angle_beta 90.000000
_cell_angle_gamma 90.000000
_cell_volume 3661.531113
_symmetry_space_group_name_H-M "P M M A"
_symmetry_group_IT_number 51
_symmetry_cell_setting 'orthorhombic'
loop_
_space_group_symop_operation_xyz
x,y,z
1/2-x,-y,z
1/2+x,-y,-z
-x,y,-z
-x,-y,-z
1/2+x,y,-z
1/2-x,y,z
x,-y,z
loop_
_atom_site_type_symbol
_atom_site_label
_atom_site_fract_x
_atom_site_fract_y
_atom_site_fract_z
Si Si1 0.065430 0.834562 0.732445
Si Si2 0.829322 0.833751 0.897846
Si Si3 0.412678 0.834499 0.232051
Si Si4 0.670758 0.834311 0.154163
Si Si5 0.168709 0.660888 0.973685
Si Si6 0.051027 0.668874 0.599143
Si Si7 0.173756 0.667499 0.337102
Si Si8 0.590980 0.333713 0.541089
O O1 0.126354 0.790038 0.781944
O O2 0.077051 0.746100 0.665300
O O3 0.993422 0.800340 0.769123
O O4 0.069531 0.000000 0.713309
O O5 0.750000 0.798841 0.880384
O O6 0.877385 0.786195 0.836760
O O7 0.837970 0.000000 0.915098
O O8 0.856614 0.743911 0.960674
O O9 0.380144 0.747082 0.291833
O O10 0.397643 0.000000 0.245198
O O11 0.750000 0.800098 0.170112
O O12 0.642629 0.743024 0.091898
O O13 0.660605 0.000000 0.135882
O O14 0.250000 0.659854 0.973422
O O15 0.139170 0.500000 0.974139
O O16 0.054277 0.500000 0.612827
O O17 0.098242 0.718826 0.535669
O O18 0.975147 0.726206 0.580706
O O19 0.250000 0.722176 0.321539
O O20 0.166444 0.500000 0.323275
O O21 0.157967 0.702110 0.415100
O O22 0.576376 0.500000 0.535549
#
# Coordination Sequence:
#
# PCOD8208445 Si02
#       8
#     8   8   8   8   8   8   8   8
#     4  10  20  33  50  75 101 126 162 206 247 290
#     4   9  17  30  48  68  93 129 165 192 230 287
#     4  10  20  33  48  70 101 133 165 203 243 288
#     4   9  18  34  54  72  94 127 162 197 245 304
#     4   9  17  30  50  75  98 120 156 205 245 281
#     4   9  16  30  52  70  92 127 163 199 241 291
#     4  10  19  31  49  72  99 131 167 206 245 288
#     4   8  15  29  48  70  93 123 164 200 236 286
#
# _framework density 17.479026999999999
#
# number of rings (size 3 to 8) (size 9 to 14) (size 15 to 20)
#    0.000    2.750    1.250    1.500    0.000    3.250 
#    0.000    4.375    0.000    4.500    0.000    0.000 
#    0.000    0.000    0.000    0.000    0.000    0.000 
#
# Total GULP energy -793348.329033 kJ/mol
# GULP energy per Si atom -12396.067641 kJ/mol
# Density = 1.743924 g / cm^3
# Si number density = 17.479027 Si / 1000 Ang^3
#
#
#
# Elastic Constant Matrix: (Units=GPa)
#
#
# Indices 1 2 3 4 5 6 
#
# 1 72.1871 30.7298 55.3968 0.0000 0.0000 0.0000
# 2 30.7298 59.3749 62.5087 0.0000 0.0000 0.0000
# 3 55.3968 62.5087 157.3367 0.0000 0.0000 0.0000
# 4 0.0000 0.0000 0.0000 32.2123 0.0000 0.0000
# 5 0.0000 0.0000 0.0000 0.0000 28.7106 0.0000
# 6 0.0000 0.0000 0.0000 0.0000 0.0000 15.6886
#
#
#
# Elastic Compliance Matrix: (Units=1/GPa)
#
#
# Indices 1 2 3 4 5 6 
#
# 1 0.019810 -0.005002 -0.004988 0.000000 0.000000 0.000000
# 2 -0.005002 0.030214 -0.010243 0.000000 0.000000 0.000000
# 3 -0.004988 -0.010243 0.012181 0.000000 0.000000 0.000000
# 4 0.000000 0.000000 0.000000 0.031044 0.000000 0.000000
# 5 0.000000 0.000000 0.000000 0.000000 0.034830 0.000000
# 6 0.000000 0.000000 0.000000 0.000000 0.000000 0.063741
#
#
# Mechanical properties :
#
#
# Convention : Reuss Voigt Hill
#
# Bulk Modulus (GPa) = 45.99643 65.12994 55.56318
# Shear Modulus (GPa) = 20.87407 24.67318 22.77363
#
# Velocity S-wave (km/s) = 3.45952 3.76119 3.61350
# Velocity P-wave (km/s) = 6.50615 7.49698 7.01907
#
# Compressibility (1/GPa) = 0.02174082
#
# Stress axis : x y z
#
# Youngs Moduli (GPa) = 50.48041 33.09693 82.09289
#
# Poissons Ratio (x) = 0.16554 0.40945
# Poissons Ratio (y) = 0.25249 0.84087
# Poissons Ratio (z) = 0.25178 0.33901
#
# Static dielectric constant tensor:
#      x y z
#    x 3.116690 0.000000 0.000000 
#    y 0.000000 3.139450 0.000000 
#    z 0.000000 0.000000 3.393000 
# 
# 
# High freq. dielectric constant tensor:
#      x y z
#    x 1.651680 0.000000 0.000000 
#    y 0.000000 1.659790 0.000000 
#    z 0.000000 0.000000 1.684720 
# 
# From -- ./inp_files/30647.got.cif
#   From: 2010.03.12/outbox.cif.g09.slc.cpg/sg51_16_cif.got.tgz:30647.got - 2010.04.16 13:43:02.
