data_PCOD8208090
_publ_section_title
;
Structure prediction by ZEFSAII (Michael W. Deem and Ramdas Pophale) SiO2 
 PCOD8208090
Probable space group: P M M A
;
_chemical_formula_sum "Si O2"
_cell_formula_units_Z 64
_cell_length_a 17.494275
_cell_length_b 9.194590
_cell_length_c 22.803141
_cell_angle_alpha 90.000000
_cell_angle_beta 90.000000
_cell_angle_gamma 90.000000
_cell_volume 3667.946478
_symmetry_space_group_name_H-M "P M M A"
_symmetry_group_IT_number 51
_symmetry_cell_setting 'orthorhombic'
loop_
_space_group_symop_operation_xyz
x,y,z
1/2-x,-y,z
1/2+x,-y,-z
-x,y,-z
-x,-y,-z
1/2+x,y,-z
1/2-x,y,z
x,-y,z
loop_
_atom_site_type_symbol
_atom_site_label
_atom_site_fract_x
_atom_site_fract_y
_atom_site_fract_z
Si Si1 0.667393 0.165993 0.195023
Si Si2 0.413306 0.164290 0.022123
Si Si3 0.626754 0.337492 0.085114
Si Si4 0.967480 0.170728 0.628766
Si Si5 0.544726 0.663327 0.870419
Si Si6 0.493993 0.169577 0.760425
Si Si7 0.662822 0.328425 0.559510
Si Si8 0.567850 0.340329 0.453986
O O1 0.750000 0.184172 0.227831
O O2 0.673166 0.261331 0.136707
O O3 0.596384 0.212742 0.236252
O O4 0.654819 0.000000 0.175101
O O5 0.403306 0.244754 0.084671
O O6 0.383161 0.000000 0.029103
O O7 0.500000 0.164062 0.000000
O O8 0.361286 0.248472 0.974889
O O9 0.658623 0.500000 0.075817
O O10 0.538708 0.342361 0.102339
O O11 0.890313 0.244467 0.605534
O O12 0.975019 0.210798 0.696748
O O13 0.044396 0.227945 0.596675
O O14 0.962360 0.000000 0.617609
O O15 0.577617 0.500000 0.863182
O O16 0.543481 0.740666 0.807173
O O17 0.505341 0.000000 0.774030
O O18 0.750000 0.281651 0.570859
O O19 0.650218 0.500000 0.569059
O O20 0.641220 0.287317 0.491936
O O21 0.500000 0.352247 0.500000
O O22 0.582947 0.500000 0.425964
#
# Coordination Sequence:
#
# PCOD8208090 Si02
#       8
#     8   8   8   8   8   8   8   8
#     4   9  17  30  46  60  79 115 160 198 233 279
#     4   9  15  23  37  57  82 110 137 169 215 271
#     4   9  16  25  38  58  83 107 136 181 232 275
#     4  10  19  30  47  72 100 128 159 196 236 278
#     4   9  16  25  39  60  84 111 145 185 226 266
#     4   9  18  31  44  62  91 125 159 194 233 278
#     4   9  18  33  52  73  97 125 157 193 234 281
#     4   8  15  29  48  68  92 124 157 188 227 275
#
# _framework density 17.448454000000002
#
# number of rings (size 3 to 8) (size 9 to 14) (size 15 to 20)
#    0.000    3.000    0.000    2.250    0.000    8.250 
#    0.000    0.625    0.000    0.750    0.000    0.875 
#    0.000    3.000    0.000    0.000    0.000    0.000 
#
# Total GULP energy -793206.610775 kJ/mol
# GULP energy per Si atom -12393.853293 kJ/mol
# Density = 1.740874 g / cm^3
# Si number density = 17.448454 Si / 1000 Ang^3
#
#
#
# Elastic Constant Matrix: (Units=GPa)
#
#
# Indices 1 2 3 4 5 6 
#
# 1 64.2061 33.2900 41.4366 0.0000 0.0000 0.0000
# 2 33.2900 109.0097 69.0499 0.0000 0.0000 0.0000
# 3 41.4366 69.0499 120.0375 0.0000 0.0000 0.0000
# 4 0.0000 0.0000 0.0000 24.7921 0.0000 0.0000
# 5 0.0000 0.0000 0.0000 0.0000 14.2190 0.0000
# 6 0.0000 0.0000 0.0000 0.0000 0.0000 14.0640
#
#
#
# Elastic Compliance Matrix: (Units=1/GPa)
#
#
# Indices 1 2 3 4 5 6 
#
# 1 0.020571 -0.002807 -0.005486 0.000000 0.000000 0.000000
# 2 -0.002807 0.014815 -0.007553 0.000000 0.000000 0.000000
# 3 -0.005486 -0.007553 0.014570 0.000000 0.000000 0.000000
# 4 0.000000 0.000000 0.000000 0.040336 0.000000 0.000000
# 5 0.000000 0.000000 0.000000 0.000000 0.070328 0.000000
# 6 0.000000 0.000000 0.000000 0.000000 0.000000 0.071103
#
#
# Mechanical properties :
#
#
# Convention : Reuss Voigt Hill
#
# Bulk Modulus (GPa) = 54.75693 64.53404 59.64549
# Shear Modulus (GPa) = 18.55264 20.58014 19.56639
#
# Velocity S-wave (km/s) = 3.26434 3.43808 3.35234
# Velocity P-wave (km/s) = 6.75708 7.26818 7.01728
#
# Compressibility (1/GPa) = 0.01826253
#
# Stress axis : x y z
#
# Youngs Moduli (GPa) = 48.61232 67.49852 68.63612
#
# Poissons Ratio (x) = 0.18945 0.37657
# Poissons Ratio (y) = 0.13644 0.51843
# Poissons Ratio (z) = 0.26671 0.50984
#
# Static dielectric constant tensor:
#      x y z
#    x 3.080000 0.000000 0.000000 
#    y 0.000000 3.390330 0.000000 
#    z 0.000000 0.000000 3.189980 
# 
# 
# High freq. dielectric constant tensor:
#      x y z
#    x 1.635880 0.000000 0.000000 
#    y 0.000000 1.682800 0.000000 
#    z 0.000000 0.000000 1.657970 
# 
# From -- ./inp_files/35901.got.cif
#   From: 2010.03.12/outbox.cif.g09.slc.cpg/sg51_18_cif.got.tgz:35901.got - 2010.04.16 13:43:02.
