data_PCOD8208905
_publ_section_title
;
Structure prediction by ZEFSAII (Michael W. Deem and Ramdas Pophale) SiO2 
 PCOD8208905
Probable space group: P M M A
;
_chemical_formula_sum "Si O2"
_cell_formula_units_Z 64
_cell_length_a 19.939953
_cell_length_b 20.831467
_cell_length_c 8.344613
_cell_angle_alpha 90.000000
_cell_angle_beta 90.000000
_cell_angle_gamma 90.000000
_cell_volume 3466.172605
_symmetry_space_group_name_H-M "P M M A"
_symmetry_group_IT_number 51
_symmetry_cell_setting 'orthorhombic'
loop_
_space_group_symop_operation_xyz
x,y,z
1/2-x,-y,z
1/2+x,-y,-z
-x,y,-z
-x,-y,-z
1/2+x,y,-z
1/2-x,y,z
x,-y,z
loop_
_atom_site_type_symbol
_atom_site_label
_atom_site_fract_x
_atom_site_fract_y
_atom_site_fract_z
Si Si1 0.673415 0.072978 0.630428
Si Si2 0.939530 0.925632 0.385058
Si Si3 0.825900 0.567892 0.605929
Si Si4 0.828105 0.183522 0.871881
Si Si5 0.172084 0.706920 0.371058
Si Si6 0.940904 0.292615 0.372971
Si Si7 0.442768 0.432107 0.632109
Si Si8 0.060180 0.820468 0.876057
O O1 0.750000 0.084007 0.577814
O O2 0.629621 0.090249 0.475704
O O3 0.654431 0.117963 0.778922
O O4 0.659777 0.000000 0.686483
O O5 0.942235 0.886234 0.222180
O O6 0.000000 0.904525 0.500000
O O7 0.945340 0.000000 0.337843
O O8 0.750000 0.570099 0.543666
O O9 0.838099 0.500000 0.704034
O O10 0.840090 0.634470 0.701747
O O11 0.870343 0.566446 0.448360
O O12 0.750000 0.188152 0.915636
O O13 0.851686 0.243379 0.763450
O O14 0.868659 0.184466 0.036029
O O15 0.250000 0.719318 0.414614
O O16 0.129480 0.715800 0.533402
O O17 0.947101 0.362562 0.281381
O O18 0.948113 0.240000 0.238153
O O19 0.000000 0.283894 0.500000
O O20 0.500000 0.432781 0.500000
O O21 0.450092 0.500000 0.733904
O O22 0.000000 0.821018 0.000000
#
# Coordination Sequence:
#
# PCOD8208905 Si02
#       8
#     8   8   8   8   8   8   8   8
#     4   9  18  35  58  79  99 126 161 201 243 287
#     4  10  21  37  57  78  99 126 163 205 244 286
#     4   8  13  22  40  68  95 117 150 198 244 282
#     4  10  21  35  51  73 103 135 163 196 240 289
#     4   9  17  31  51  72  96 128 164 202 243 287
#     4  10  19  32  52  73  95 127 166 206 244 286
#     4   8  14  25  43  68  93 116 150 200 250 286
#     4  12  24  35  50  73 103 135 164 199 242 289
#
# _framework density 18.464171
#
# number of rings (size 3 to 8) (size 9 to 14) (size 15 to 20)
#    0.000    2.500    0.000    2.625    0.000    1.750 
#    0.000    0.000    0.000    1.125    0.000    0.000 
#    0.000    0.000    0.000    0.000    0.000    0.000 
#
# Total GULP energy -792853.373409 kJ/mol
# GULP energy per Si atom -12388.333960 kJ/mol
# Density = 1.842215 g / cm^3
# Si number density = 18.464171 Si / 1000 Ang^3
#
#
#
# Elastic Constant Matrix: (Units=GPa)
#
#
# Indices 1 2 3 4 5 6 
#
# 1 79.8289 35.7073 34.9306 0.0000 0.0000 0.0000
# 2 35.7073 137.4581 55.1858 0.0000 0.0000 0.0000
# 3 34.9306 55.1858 74.2549 0.0000 0.0000 0.0000
# 4 0.0000 0.0000 0.0000 0.8454 0.0000 0.0000
# 5 0.0000 0.0000 0.0000 0.0000 29.1628 0.0000
# 6 0.0000 0.0000 0.0000 0.0000 0.0000 22.5560
#
#
#
# Elastic Compliance Matrix: (Units=1/GPa)
#
#
# Indices 1 2 3 4 5 6 
#
# 1 0.016023 -0.001619 -0.006334 0.000000 0.000000 0.000000
# 2 -0.001619 0.010532 -0.007066 0.000000 0.000000 0.000000
# 3 -0.006334 -0.007066 0.021698 0.000000 0.000000 0.000000
# 4 0.000000 0.000000 0.000000 1.182872 0.000000 0.000000
# 5 0.000000 0.000000 0.000000 0.000000 0.034290 0.000000
# 6 0.000000 0.000000 0.000000 0.000000 0.000000 0.044334
#
#
# Mechanical properties :
#
#
# Convention : Reuss Voigt Hill
#
# Bulk Modulus (GPa) = 54.89989 60.35435 57.62712
# Shear Modulus (GPa) = 3.71510 21.56073 12.63792
#
# Velocity S-wave (km/s) = 1.42001 3.42088 2.61905
# Velocity P-wave (km/s) = 5.69968 6.95424 6.35798
#
# Compressibility (1/GPa) = 0.01821497
#
# Stress axis : x y z
#
# Youngs Moduli (GPa) = 62.41190 94.94583 46.08736
#
# Poissons Ratio (x) = 0.15375 0.29191
# Poissons Ratio (y) = 0.10106 0.32564
# Poissons Ratio (z) = 0.39531 0.67087
#
# Static dielectric constant tensor:
#      x y z
#    x 3.629270 0.000000 0.000000 
#    y 0.000000 4.121820 0.000000 
#    z 0.000000 0.000000 2.861210 
# 
# 
# High freq. dielectric constant tensor:
#      x y z
#    x 1.738150 0.000000 0.000000 
#    y 0.000000 1.752610 0.000000 
#    z 0.000000 0.000000 1.646380 
# 
# From -- ./inp_files/10082.got.cif
#   From: 2010.03.12/outbox.cif.g09.slc.cpg/sg51_6_cif.got.tgz:10082.got - 2010.04.16 13:43:02.
