data_PCOD8208902
_publ_section_title
;
Structure prediction by ZEFSAII (Michael W. Deem and Ramdas Pophale) SiO2 
 PCOD8208902
Probable space group: P M M A
;
_chemical_formula_sum "Si O2"
_cell_formula_units_Z 56
_cell_length_a 14.645750
_cell_length_b 9.523881
_cell_length_c 21.266942
_cell_angle_alpha 90.000000
_cell_angle_beta 90.000000
_cell_angle_gamma 90.000000
_cell_volume 2966.406223
_symmetry_space_group_name_H-M "P M M A"
_symmetry_group_IT_number 51
_symmetry_cell_setting 'orthorhombic'
loop_
_space_group_symop_operation_xyz
x,y,z
1/2-x,-y,z
1/2+x,-y,-z
-x,y,-z
-x,-y,-z
1/2+x,y,-z
1/2-x,y,z
x,-y,z
loop_
_atom_site_type_symbol
_atom_site_label
_atom_site_fract_x
_atom_site_fract_y
_atom_site_fract_z
Si Si1 0.645452 0.840036 0.194690
Si Si2 0.352095 0.652966 0.916774
Si Si3 0.520732 0.837110 0.723200
Si Si4 0.352798 0.665924 0.514414
Si Si5 0.352689 0.166350 0.164218
Si Si6 0.518435 0.333815 0.598413
Si Si7 0.601130 0.157554 0.974168
O O1 0.750000 0.804228 0.212284
O O2 0.602876 0.747161 0.138085
O O3 0.584581 0.815452 0.256434
O O4 0.635896 0.000000 0.170952
O O5 0.250000 0.626535 0.893870
O O6 0.401482 0.500000 0.923384
O O7 0.344783 0.733804 0.982726
O O8 0.585694 0.777443 0.778599
O O9 0.540022 0.746148 0.662180
O O10 0.541319 0.000000 0.708506
O O11 0.250000 0.731471 0.520179
O O12 0.345321 0.500000 0.516420
O O13 0.400626 0.710484 0.449173
O O14 0.419387 0.714613 0.571242
O O15 0.250000 0.225504 0.171522
O O16 0.394105 0.214725 0.097129
O O17 0.353447 0.000000 0.166601
O O18 0.518946 0.500000 0.610376
O O19 0.643364 0.000000 0.978503
O O20 0.500000 0.157535 0.000000
#
# Coordination Sequence:
#
# PCOD8208902 Si02
#       7
#     8   8   8   8   8   8   8
#     4   9  18  33  51  69  93 130 172 209 249 302
#     4  10  20  32  47  70  98 124 154 201 261 313
#     4  10  20  34  51  72 101 133 165 204 247 291
#     4   8  15  31  54  77 103 134 166 200 236 281
#     4   9  18  32  49  69  95 130 169 204 241 294
#     4   9  18  32  52  78 102 129 168 204 238 286
#     4  10  19  32  52  73  91 120 167 214 254 302
#
# _framework density 18.878062
#
# number of rings (size 3 to 8) (size 9 to 14) (size 15 to 20)
#    0.000    2.714    0.000    2.571    0.000    5.714 
#    0.000    2.143    0.000    1.714    0.000    0.000 
#    0.000    0.000    0.000    0.000    0.000    0.000 
#
# Total GULP energy -694007.320588 kJ/mol
# GULP energy per Si atom -12392.987868 kJ/mol
# Density = 1.883509 g / cm^3
# Si number density = 18.878062 Si / 1000 Ang^3
#
#
#
# Elastic Constant Matrix: (Units=GPa)
#
#
# Indices 1 2 3 4 5 6 
#
# 1 102.6161 9.8013 35.6368 0.0000 0.0000 0.0000
# 2 9.8013 58.1802 34.7379 0.0000 0.0000 0.0000
# 3 35.6368 34.7379 121.7319 0.0000 0.0000 0.0000
# 4 0.0000 0.0000 0.0000 14.7080 0.0000 0.0000
# 5 0.0000 0.0000 0.0000 0.0000 22.7947 0.0000
# 6 0.0000 0.0000 0.0000 0.0000 0.0000 11.9266
#
#
#
# Elastic Compliance Matrix: (Units=1/GPa)
#
#
# Indices 1 2 3 4 5 6 
#
# 1 0.010848 0.000083 -0.003199 0.000000 0.000000 0.000000
# 2 0.000083 0.020719 -0.005937 0.000000 0.000000 0.000000
# 3 -0.003199 -0.005937 0.010845 0.000000 0.000000 0.000000
# 4 0.000000 0.000000 0.000000 0.067990 0.000000 0.000000
# 5 0.000000 0.000000 0.000000 0.000000 0.043870 0.000000
# 6 0.000000 0.000000 0.000000 0.000000 0.000000 0.083846
#
#
# Mechanical properties :
#
#
# Convention : Reuss Voigt Hill
#
# Bulk Modulus (GPa) = 41.14234 49.20891 45.17562
# Shear Modulus (GPa) = 18.91593 23.37600 21.14597
#
# Velocity S-wave (km/s) = 3.16888 3.52271 3.35047
# Velocity P-wave (km/s) = 5.93550 6.53218 6.24097
#
# Compressibility (1/GPa) = 0.02430586
#
# Stress axis : x y z
#
# Youngs Moduli (GPa) = 92.18069 48.26583 92.20436
#
# Poissons Ratio (x) = -0.00399 0.29500
# Poissons Ratio (y) = -0.00763 0.54738
# Poissons Ratio (z) = 0.29493 0.28653
#
# Static dielectric constant tensor:
#      x y z
#    x 4.011260 0.000000 0.000000 
#    y 0.000000 3.327830 0.000000 
#    z 0.000000 0.000000 3.353320 
# 
# 
# High freq. dielectric constant tensor:
#      x y z
#    x 1.737110 0.000000 0.000000 
#    y 0.000000 1.697770 0.000000 
#    z 0.000000 0.000000 1.726350 
# 
# From -- ./inp_files/33295.got.cif
#   From: 2010.03.12/outbox.cif.g09.slc.cpg/sg51_17_cif.got.tgz:33295.got - 2010.04.16 13:43:02.
