data_PCOD8208106
_publ_section_title
;
Structure prediction by ZEFSAII (Michael W. Deem and Ramdas Pophale) SiO2 
 PCOD8208106
Probable space group: P M M A
;
_chemical_formula_sum "Si O2"
_cell_formula_units_Z 44
_cell_length_a 8.997408
_cell_length_b 12.644823
_cell_length_c 21.734560
_cell_angle_alpha 90.000000
_cell_angle_beta 90.000000
_cell_angle_gamma 90.000000
_cell_volume 2472.754619
_symmetry_space_group_name_H-M "P M M A"
_symmetry_group_IT_number 51
_symmetry_cell_setting 'orthorhombic'
loop_
_space_group_symop_operation_xyz
x,y,z
1/2-x,-y,z
1/2+x,-y,-z
-x,y,-z
-x,-y,-z
1/2+x,y,-z
1/2-x,y,z
x,-y,z
loop_
_atom_site_type_symbol
_atom_site_label
_atom_site_fract_x
_atom_site_fract_y
_atom_site_fract_z
Si Si1 0.576852 0.177641 0.146127
Si Si2 0.418157 0.118948 0.715232
Si Si3 0.077177 0.314320 0.323809
Si Si4 0.923682 0.619882 0.811913
Si Si5 0.571852 0.000000 0.933544
Si Si6 0.412018 0.621605 0.556771
O O1 0.750000 0.177617 0.127200
O O2 0.550732 0.126215 0.212399
O O3 0.516483 0.298562 0.145980
O O4 0.483567 0.106860 0.099215
O O5 0.250000 0.155493 0.701365
O O6 0.530931 0.191406 0.677186
O O7 0.446006 0.000000 0.693036
O O8 0.250000 0.325038 0.335902
O O9 0.029529 0.368386 0.259563
O O10 0.996622 0.372396 0.379008
O O11 0.750000 0.646152 0.819415
O O12 0.959618 0.500000 0.833110
O O13 0.750000 0.000000 0.936587
O O14 0.500000 0.000000 0.000000
O O15 0.500000 0.676787 0.500000
O O16 0.250000 0.676363 0.562355
O O17 0.390029 0.500000 0.540051
#
# Coordination Sequence:
#
# PCOD8208106 Si02
#       6
#     8   8   8   8   4   8
#     4  10  19  34  54  79 109 139 176 218 261 306
#     4   9  17  31  50  72 102 135 166 205 252 300
#     4  10  19  30  47  73 102 132 168 210 254 303
#     4   9  18  32  50  76 110 145 178 213 258 311
#     4  12  24  38  58  82 110 142 177 216 261 306
#     4  10  20  33  49  68  92 125 164 206 253 304
#
# _framework density 17.793921000000001
#
# number of rings (size 3 to 8) (size 9 to 14) (size 15 to 20)
#    0.000    2.182    0.909    3.000    0.000    4.000 
#    0.000    0.000    0.000    1.091    0.000    0.000 
#    0.000    0.000    0.000    0.000    0.000    0.000 
#
# Total GULP energy -545556.553878 kJ/mol
# GULP energy per Si atom -12399.012588 kJ/mol
# Density = 1.775342 g / cm^3
# Si number density = 17.793921 Si / 1000 Ang^3
#
#
#
# Elastic Constant Matrix: (Units=GPa)
#
#
# Indices 1 2 3 4 5 6 
#
# 1 117.3195 44.7387 48.8791 0.0000 0.0000 0.0000
# 2 44.7387 92.6540 31.8532 0.0000 0.0000 0.0000
# 3 48.8791 31.8532 70.7581 0.0000 0.0000 0.0000
# 4 0.0000 0.0000 0.0000 19.8936 0.0000 0.0000
# 5 0.0000 0.0000 0.0000 0.0000 29.0047 0.0000
# 6 0.0000 0.0000 0.0000 0.0000 0.0000 31.2265
#
#
#
# Elastic Compliance Matrix: (Units=1/GPa)
#
#
# Indices 1 2 3 4 5 6 
#
# 1 0.012995 -0.003772 -0.007278 0.000000 0.000000 0.000000
# 2 -0.003772 0.013864 -0.003635 0.000000 0.000000 0.000000
# 3 -0.007278 -0.003635 0.020797 0.000000 0.000000 0.000000
# 4 0.000000 0.000000 0.000000 0.050267 0.000000 0.000000
# 5 0.000000 0.000000 0.000000 0.000000 0.034477 0.000000
# 6 0.000000 0.000000 0.000000 0.000000 0.000000 0.032024
#
#
# Mechanical properties :
#
#
# Convention : Reuss Voigt Hill
#
# Bulk Modulus (GPa) = 54.69357 59.07483 56.88420
# Shear Modulus (GPa) = 25.01359 26.37566 25.69462
#
# Velocity S-wave (km/s) = 3.75338 3.85422 3.80414
# Velocity P-wave (km/s) = 7.04186 7.28548 7.16471
#
# Compressibility (1/GPa) = 0.01828369
#
# Stress axis : x y z
#
# Youngs Moduli (GPa) = 76.95436 72.12861 48.08380
#
# Poissons Ratio (x) = 0.27210 0.34997
# Poissons Ratio (y) = 0.29030 0.17480
# Poissons Ratio (z) = 0.56011 0.26221
#
# Static dielectric constant tensor:
#      x y z
#    x 3.514360 0.000000 0.000000 
#    y 0.000000 3.307380 0.000000 
#    z 0.000000 0.000000 3.056700 
# 
# 
# High freq. dielectric constant tensor:
#      x y z
#    x 1.701100 0.000000 0.000000 
#    y 0.000000 1.680120 0.000000 
#    z 0.000000 0.000000 1.658950 
# 
# From -- ./inp_files/27330.got.cif
#   From: 2010.03.12/outbox.cif.g09.slc.cpg/sg51_14_cif.got.tgz:27330.got - 2010.04.16 13:43:02.
