data_PCOD8208847
_publ_section_title
;
Structure prediction by ZEFSAII (Michael W. Deem and Ramdas Pophale) SiO2 
 PCOD8208847
Probable space group: P M M A
;
_chemical_formula_sum "Si O2"
_cell_formula_units_Z 64
_cell_length_a 8.938222
_cell_length_b 27.883039
_cell_length_c 14.095561
_cell_angle_alpha 90.000000
_cell_angle_beta 90.000000
_cell_angle_gamma 90.000000
_cell_volume 3512.963267
_symmetry_space_group_name_H-M "P M M A"
_symmetry_group_IT_number 51
_symmetry_cell_setting 'orthorhombic'
loop_
_space_group_symop_operation_xyz
x,y,z
1/2-x,-y,z
1/2+x,-y,-z
-x,y,-z
-x,-y,-z
1/2+x,y,-z
1/2-x,y,z
x,-y,z
loop_
_atom_site_type_symbol
_atom_site_label
_atom_site_fract_x
_atom_site_fract_y
_atom_site_fract_z
Si Si1 0.924715 0.947060 0.899397
Si Si2 0.079042 0.279360 0.900841
Si Si3 0.925971 0.877885 0.241112
Si Si4 0.426710 0.778068 0.256034
Si Si5 0.420086 0.366511 0.759035
Si Si6 0.426189 0.554845 0.902251
Si Si7 0.926494 0.307236 0.603700
Si Si8 0.575941 0.946543 0.409039
O O1 0.750000 0.935652 0.908462
O O2 0.002815 0.901258 0.851582
O O3 0.949188 0.000000 0.850222
O O4 0.000000 0.950406 0.000000
O O5 0.250000 0.263326 0.917059
O O6 0.068835 0.327449 0.840984
O O7 0.992507 0.237908 0.844911
O O8 0.000000 0.288745 0.000000
O O9 0.750000 0.869616 0.226982
O O10 0.968369 0.916143 0.319552
O O11 0.001855 0.829250 0.276931
O O12 0.250000 0.782045 0.247079
O O13 0.471691 0.741601 0.340987
O O14 0.250000 0.372597 0.723299
O O15 0.480325 0.415048 0.809852
O O16 0.517951 0.352447 0.666948
O O17 0.250000 0.561473 0.915229
O O18 0.472588 0.500000 0.882940
O O19 0.500000 0.573481 0.000000
O O20 0.750000 0.311704 0.590956
O O21 0.000000 0.307372 0.500000
O O22 0.500000 0.922268 0.500000
O O23 0.750000 0.947259 0.427444
O O24 0.512111 0.000000 0.393214
#
# Coordination Sequence:
#
# PCOD8208847 Si02
#       8
#     8   8   8   8   8   8   8   8
#     4  10  21  37  57  80 105 135 172 212 252 298
#     4  10  19  32  51  74 101 134 170 209 253 298
#     4  11  22  36  55  78 105 135 166 204 251 300
#     4  10  22  38  53  74 102 131 167 207 251 306
#     4   9  18  32  51  76 106 139 177 219 260 306
#     4   9  17  29  47  75 112 151 185 218 260 309
#     4  10  21  37  58  79 101 132 171 219 269 317
#     4   9  19  35  54  76 101 128 158 193 234 283
#
# _framework density 18.218237999999999
#
# number of rings (size 3 to 8) (size 9 to 14) (size 15 to 20)
#    0.000    2.250    0.000    2.625    0.000    5.750 
#    0.000    6.250    0.000    0.375    0.000    0.000 
#    0.000    0.000    0.000    0.000    0.000    0.000 
#
# Total GULP energy -793425.370588 kJ/mol
# GULP energy per Si atom -12397.271415 kJ/mol
# Density = 1.817677 g / cm^3
# Si number density = 18.218238 Si / 1000 Ang^3
#
#
#
# Elastic Constant Matrix: (Units=GPa)
#
#
# Indices 1 2 3 4 5 6 
#
# 1 78.7176 45.2202 54.3916 0.0000 0.0000 0.0000
# 2 45.2202 89.1694 44.7573 0.0000 0.0000 0.0000
# 3 54.3916 44.7573 111.1041 0.0000 0.0000 0.0000
# 4 0.0000 0.0000 0.0000 -20.2583 0.0000 0.0000
# 5 0.0000 0.0000 0.0000 0.0000 35.1984 0.0000
# 6 0.0000 0.0000 0.0000 0.0000 0.0000 26.6820
#
#
#
# Elastic Compliance Matrix: (Units=1/GPa)
#
#
# Indices 1 2 3 4 5 6 
#
# 1 0.022496 -0.007371 -0.008044 0.000000 0.000000 0.000000
# 2 -0.007371 0.016472 -0.003027 0.000000 0.000000 0.000000
# 3 -0.008044 -0.003027 0.014158 0.000000 0.000000 0.000000
# 4 0.000000 0.000000 0.000000 -0.049363 0.000000 0.000000
# 5 0.000000 0.000000 0.000000 0.000000 0.028410 0.000000
# 6 0.000000 0.000000 0.000000 0.000000 0.000000 0.037478
#
#
# Mechanical properties :
#
#
# Convention : Reuss Voigt Hill
#
# Bulk Modulus (GPa) = 61.56751 63.08105 62.32428
# Shear Modulus (GPa) = 44.66294 17.29922 30.98108
#
# Velocity S-wave (km/s) = 4.95669 3.08483 4.12825
# Velocity P-wave (km/s) = 8.16248 6.88394 7.55032
#
# Compressibility (1/GPa) = 0.01624233
#
# Stress axis : x y z
#
# Youngs Moduli (GPa) = 44.45252 60.70908 70.63206
#
# Poissons Ratio (x) = 0.44748 0.56814
# Poissons Ratio (y) = 0.32765 0.21381
# Poissons Ratio (z) = 0.35756 0.18378
#
# Static dielectric constant tensor:
#      x y z
#    x 3.432220 0.000000 0.000000 
#    y 0.000000 3.637140 0.000000 
#    z 0.000000 0.000000 3.347810 
# 
# 
# High freq. dielectric constant tensor:
#      x y z
#    x 1.713690 0.000000 0.000000 
#    y 0.000000 1.700420 0.000000 
#    z 0.000000 0.000000 1.700720 
# 
# From -- ./inp_files/14823.got.cif
#   From: 2010.03.12/outbox.cif.g09.slc.cpg/sg51_8_cif.got.tgz:14823.got - 2010.04.16 13:43:02.
