data_PCOD8208717
_publ_section_title
;
Structure prediction by ZEFSAII (Michael W. Deem and Ramdas Pophale) SiO2 
 PCOD8208717
Probable space group: P M M A
;
_chemical_formula_sum "Si O2"
_cell_formula_units_Z 36
_cell_length_a 9.221922
_cell_length_b 12.391276
_cell_length_c 19.540854
_cell_angle_alpha 90.000000
_cell_angle_beta 90.000000
_cell_angle_gamma 90.000000
_cell_volume 2232.960368
_symmetry_space_group_name_H-M "P M M A"
_symmetry_group_IT_number 51
_symmetry_cell_setting 'orthorhombic'
loop_
_space_group_symop_operation_xyz
x,y,z
1/2-x,-y,z
1/2+x,-y,-z
-x,y,-z
-x,-y,-z
1/2+x,y,-z
1/2-x,y,z
x,-y,z
loop_
_atom_site_type_symbol
_atom_site_label
_atom_site_fract_x
_atom_site_fract_y
_atom_site_fract_z
Si Si1 0.086299 0.371377 0.934721
Si Si2 0.081720 0.874271 0.568584
Si Si3 0.417043 0.375683 0.197096
Si Si4 0.581028 0.290014 0.655998
Si Si5 0.579977 0.500000 0.571490
O O1 0.250000 0.327775 0.937662
O O2 0.081650 0.500000 0.935977
O O3 0.012403 0.329287 0.865091
O O4 0.000000 0.324776 0.000000
O O5 0.250000 0.845315 0.560004
O O6 0.000000 0.836926 0.500000
O O7 0.014335 0.811069 0.632387
O O8 0.057283 0.000000 0.582929
O O9 0.250000 0.364377 0.175624
O O10 0.454234 0.500000 0.213117
O O11 0.452948 0.306755 0.264199
O O12 0.750000 0.265063 0.644165
O O13 0.532727 0.395450 0.614208
O O14 0.750000 0.500000 0.557651
O O15 0.500000 0.500000 0.500000
#
# Coordination Sequence:
#
# PCOD8208717 Si02
#       5
#     8   8   8   8   4
#     4   9  16  25  38  58  84 117 156 192 222 260
#     4  10  21  36  52  69  89 115 151 196 241 280
#     4   9  16  28  44  62  89 123 152 183 224 269
#     4  10  19  32  49  68  93 122 153 187 229 278
#     4  10  20  32  44  64  91 120 151 184 223 270
#
# _framework density 16.122095999999999
#
# number of rings (size 3 to 8) (size 9 to 14) (size 15 to 20)
#    0.000    2.444    1.111    2.000    0.000    7.556 
#    0.000    0.000    0.000    0.000    0.000    0.000 
#    0.000    0.889    0.000    2.889    0.000    4.222 
#
# Total GULP energy -446470.747471 kJ/mol
# GULP energy per Si atom -12401.965208 kJ/mol
# Density = 1.608540 g / cm^3
# Si number density = 16.122096 Si / 1000 Ang^3
#
#
#
# Elastic Constant Matrix: (Units=GPa)
#
#
# Indices 1 2 3 4 5 6 
#
# 1 105.6270 38.0849 77.6783 0.0000 0.0000 0.0000
# 2 38.0849 44.9780 39.6461 0.0000 0.0000 0.0000
# 3 77.6783 39.6461 134.9301 0.0000 0.0000 0.0000
# 4 0.0000 0.0000 0.0000 13.0478 0.0000 0.0000
# 5 0.0000 0.0000 0.0000 0.0000 35.1598 0.0000
# 6 0.0000 0.0000 0.0000 0.0000 0.0000 21.6338
#
#
#
# Elastic Compliance Matrix: (Units=1/GPa)
#
#
# Indices 1 2 3 4 5 6 
#
# 1 0.018546 -0.008492 -0.008182 0.000000 0.000000 0.000000
# 2 -0.008492 0.033892 -0.005070 0.000000 0.000000 0.000000
# 3 -0.008182 -0.005070 0.013611 0.000000 0.000000 0.000000
# 4 0.000000 0.000000 0.000000 0.076641 0.000000 0.000000
# 5 0.000000 0.000000 0.000000 0.000000 0.028442 0.000000
# 6 0.000000 0.000000 0.000000 0.000000 0.000000 0.046224
#
#
# Mechanical properties :
#
#
# Convention : Reuss Voigt Hill
#
# Bulk Modulus (GPa) = 44.32096 66.26153 55.29125
# Shear Modulus (GPa) = 18.63146 22.64333 20.63740
#
# Velocity S-wave (km/s) = 3.40317 3.75172 3.58169
# Velocity P-wave (km/s) = 6.55687 7.74314 7.17457
#
# Compressibility (1/GPa) = 0.02256269
#
# Stress axis : x y z
#
# Youngs Moduli (GPa) = 53.92029 29.50514 73.47036
#
# Poissons Ratio (x) = 0.25056 0.60110
# Poissons Ratio (y) = 0.45789 0.37247
# Poissons Ratio (z) = 0.44115 0.14958
#
# Static dielectric constant tensor:
#      x y z
#    x 3.118950 0.000000 0.000000 
#    y 0.000000 2.683070 0.000000 
#    z 0.000000 0.000000 3.151170 
# 
# 
# High freq. dielectric constant tensor:
#      x y z
#    x 1.627460 0.000000 0.000000 
#    y 0.000000 1.569790 0.000000 
#    z 0.000000 0.000000 1.626980 
# 
# From -- ./inp_files/27049.got.cif
#   From: 2010.03.12/outbox.cif.g09.slc.cpg/sg51_14_cif.got.tgz:27049.got - 2010.04.16 13:43:02.
