data_PCOD8208296
_publ_section_title
;
Structure prediction by ZEFSAII (Michael W. Deem and Ramdas Pophale) SiO2 
 PCOD8208296
Probable space group: P M M A
;
_chemical_formula_sum "Si O2"
_cell_formula_units_Z 64
_cell_length_a 9.034146
_cell_length_b 20.444094
_cell_length_c 17.830226
_cell_angle_alpha 90.000000
_cell_angle_beta 90.000000
_cell_angle_gamma 90.000000
_cell_volume 3293.152344
_symmetry_space_group_name_H-M "P M M A"
_symmetry_group_IT_number 51
_symmetry_cell_setting 'orthorhombic'
loop_
_space_group_symop_operation_xyz
x,y,z
1/2-x,-y,z
1/2+x,-y,-z
-x,y,-z
-x,-y,-z
1/2+x,y,-z
1/2-x,y,z
x,-y,z
loop_
_atom_site_type_symbol
_atom_site_label
_atom_site_fract_x
_atom_site_fract_y
_atom_site_fract_z
Si Si1 0.924923 0.393337 0.572419
Si Si2 0.923995 0.072943 0.128757
Si Si3 0.574320 0.211375 0.074834
Si Si4 0.088670 0.075827 0.275146
Si Si5 0.574800 0.866117 0.572281
Si Si6 0.423108 0.700639 0.785583
Si Si7 0.078879 0.572206 0.260756
Si Si8 0.424657 0.736916 0.618811
O O1 0.750000 0.384239 0.559180
O O2 0.956030 0.430884 0.650173
O O3 0.000000 0.429625 0.500000
O O4 0.012494 0.325953 0.578092
O O5 0.750000 0.067222 0.129425
O O6 0.975163 0.134280 0.078141
O O7 0.973791 0.095124 0.211172
O O8 0.988750 0.000000 0.105141
O O9 0.750000 0.216519 0.068910
O O10 0.517233 0.254148 0.145916
O O11 0.500000 0.240732 0.000000
O O12 0.250000 0.109900 0.261916
O O13 0.020258 0.095417 0.354588
O O14 0.115138 0.000000 0.274660
O O15 0.500000 0.900154 0.500000
O O16 0.750000 0.866888 0.563072
O O17 0.513198 0.793670 0.578676
O O18 0.250000 0.690018 0.794291
O O19 0.492120 0.627830 0.785283
O O20 0.462171 0.736767 0.707757
O O21 0.250000 0.588353 0.248452
O O22 0.038007 0.500000 0.228798
O O23 0.250000 0.743533 0.604737
#
# Coordination Sequence:
#
# PCOD8208296 Si02
#       8
#     8   8   8   8   8   8   8   8
#     4  10  19  31  47  70 103 138 171 209 254 302
#     4   9  18  34  56  80 107 140 175 210 249 297
#     4  10  21  36  54  81 114 142 171 207 249 300
#     4   9  19  35  52  70  93 123 163 210 256 304
#     4  11  22  33  46  66  93 125 164 212 263 310
#     4   9  19  35  55  78 104 135 171 213 256 303
#     4   9  19  35  54  77 104 135 174 219 264 310
#     4  10  19  33  52  71  94 127 168 210 254 303
#
# _framework density 19.434267999999999
#
# number of rings (size 3 to 8) (size 9 to 14) (size 15 to 20)
#    0.000    2.375    0.000    2.250    0.000    5.000 
#    0.000    0.000    0.000    0.375    0.000    0.000 
#    0.000    0.000    0.000    0.000    0.000    0.000 
#
# Total GULP energy -793070.304947 kJ/mol
# GULP energy per Si atom -12391.723515 kJ/mol
# Density = 1.939003 g / cm^3
# Si number density = 19.434268 Si / 1000 Ang^3
#
#
#
# Elastic Constant Matrix: (Units=GPa)
#
#
# Indices 1 2 3 4 5 6 
#
# 1 21.7429 44.6416 9.3305 0.0000 0.0000 0.0000
# 2 44.6416 31.6255 61.4309 0.0000 0.0000 0.0000
# 3 9.3305 61.4309 81.4187 0.0000 0.0000 0.0000
# 4 0.0000 0.0000 0.0000 7.5926 0.0000 0.0000
# 5 0.0000 0.0000 0.0000 0.0000 33.1059 0.0000
# 6 0.0000 0.0000 0.0000 0.0000 0.0000 22.7188
#
#
#
# Elastic Compliance Matrix: (Units=1/GPa)
#
#
# Indices 1 2 3 4 5 6 
#
# 1 0.008569 0.021883 -0.017493 0.000000 0.000000 0.000000
# 2 0.021883 -0.012032 0.006570 0.000000 0.000000 0.000000
# 3 -0.017493 0.006570 0.009330 0.000000 0.000000 0.000000
# 4 0.000000 0.000000 0.000000 0.131707 0.000000 0.000000
# 5 0.000000 0.000000 0.000000 0.000000 0.030206 0.000000
# 6 0.000000 0.000000 0.000000 0.000000 0.000000 0.044016
#
#
# Mechanical properties :
#
#
# Convention : Reuss Voigt Hill
#
# Bulk Modulus (GPa) = 35.98691 40.62146 38.30418
# Shear Modulus (GPa) = 25.10808 13.97573 19.54190
#
# Velocity S-wave (km/s) = 3.59827 2.68457 3.17446
# Velocity P-wave (km/s) = 5.98505 5.52780 5.76096
#
# Compressibility (1/GPa) = 0.02778788
#
# Stress axis : x y z
#
# Youngs Moduli (GPa) = 116.69671 -83.11503 107.18419
#
# Poissons Ratio (x) = 1.81882 1.87497
# Poissons Ratio (y) = -2.55369 -0.70421
# Poissons Ratio (z) = 2.04138 0.54607
#
# Static dielectric constant tensor:
#      x y z
#    x 3.521080 0.000000 0.000000 
#    y 0.000000 3.647160 0.000000 
#    z 0.000000 0.000000 3.905140 
# 
# 
# High freq. dielectric constant tensor:
#      x y z
#    x 1.752090 0.000000 0.000000 
#    y 0.000000 1.748880 0.000000 
#    z 0.000000 0.000000 1.746690 
# 
# From -- ./inp_files/28392.got.cif
#   From: 2010.03.12/outbox.cif.g09.slc.cpg/sg51_15_cif.got.tgz:28392.got - 2010.04.16 13:43:02.
