data_PCOD8208901
_publ_section_title
;
Structure prediction by ZEFSAII (Michael W. Deem and Ramdas Pophale) SiO2 
 PCOD8208901
Probable space group: P M M A
;
_chemical_formula_sum "Si O2"
_cell_formula_units_Z 48
_cell_length_a 16.404436
_cell_length_b 9.223117
_cell_length_c 16.698815
_cell_angle_alpha 90.000000
_cell_angle_beta 90.000000
_cell_angle_gamma 90.000000
_cell_volume 2526.531253
_symmetry_space_group_name_H-M "P M M A"
_symmetry_group_IT_number 51
_symmetry_cell_setting 'orthorhombic'
loop_
_space_group_symop_operation_xyz
x,y,z
1/2-x,-y,z
1/2+x,-y,-z
-x,y,-z
-x,-y,-z
1/2+x,y,-z
1/2-x,y,z
x,-y,z
loop_
_atom_site_type_symbol
_atom_site_label
_atom_site_fract_x
_atom_site_fract_y
_atom_site_fract_z
Si Si1 0.579253 0.172254 0.948791
Si Si2 0.250000 0.171962 0.974462
Si Si3 0.846219 0.664235 0.633231
Si Si4 0.111767 0.663301 0.708054
Si Si5 0.840939 0.329415 0.461412
Si Si6 0.937128 0.334551 0.783544
Si Si7 0.750000 0.171240 0.205524
O O1 0.665763 0.228079 0.984984
O O2 0.573407 0.237512 0.861023
O O3 0.578455 0.000000 0.942319
O O4 0.500000 0.224497 0.000000
O O5 0.250000 0.000000 0.975739
O O6 0.250000 0.232787 0.884499
O O7 0.750000 0.671664 0.640578
O O8 0.879530 0.500000 0.637059
O O9 0.872449 0.735917 0.547132
O O10 0.884874 0.739829 0.711542
O O11 0.148512 0.500000 0.710545
O O12 0.101073 0.708795 0.613984
O O13 0.170366 0.775542 0.750002
O O14 0.029200 0.670649 0.755475
O O15 0.750000 0.270973 0.441288
O O16 0.836215 0.500000 0.477100
O O17 0.910086 0.500000 0.803034
O O18 0.750000 0.000000 0.205264
#
# Coordination Sequence:
#
# PCOD8208901 Si02
#       7
#     8   4   8   8   8   8   4
#     4  10  21  39  59  76 102 139 180 225 269 325
#     4   9  20  37  57  78  97 132 182 221 267 327
#     4   8  15  28  47  74 108 141 175 215 253 298
#     4  10  19  32  51  78 112 141 170 212 263 315
#     4   8  13  25  47  72 102 141 176 206 248 302
#     4  10  21  33  51  82 112 137 170 219 271 314
#     4  11  21  35  57  80 101 130 176 223 265 317
#
# _framework density 18.998379
#
# number of rings (size 3 to 8) (size 9 to 14) (size 15 to 20)
#    0.000    2.667    0.833    2.250    1.167    3.000 
#    0.000    5.000    0.000    1.000    0.000    2.333 
#    0.000    0.000    0.000    0.000    0.000    0.000 
#
# Total GULP energy -594724.388198 kJ/mol
# GULP energy per Si atom -12390.091421 kJ/mol
# Density = 1.895514 g / cm^3
# Si number density = 18.998379 Si / 1000 Ang^3
#
#
#
# Elastic Constant Matrix: (Units=GPa)
#
#
# Indices 1 2 3 4 5 6 
#
# 1 84.8839 19.1321 61.4262 0.0000 0.0000 0.0000
# 2 19.1321 26.2894 34.0587 0.0000 0.0000 0.0000
# 3 61.4262 34.0587 188.3676 0.0000 0.0000 0.0000
# 4 0.0000 0.0000 0.0000 5.6006 0.0000 0.0000
# 5 0.0000 0.0000 0.0000 0.0000 34.0421 0.0000
# 6 0.0000 0.0000 0.0000 0.0000 0.0000 11.3021
#
#
#
# Elastic Compliance Matrix: (Units=1/GPa)
#
#
# Indices 1 2 3 4 5 6 
#
# 1 0.016220 -0.006466 -0.004120 0.000000 0.000000 0.000000
# 2 -0.006466 0.052252 -0.007339 0.000000 0.000000 0.000000
# 3 -0.004120 -0.007339 0.007979 0.000000 0.000000 0.000000
# 4 0.000000 0.000000 0.000000 0.178551 0.000000 0.000000
# 5 0.000000 0.000000 0.000000 0.000000 0.029375 0.000000
# 6 0.000000 0.000000 0.000000 0.000000 0.000000 0.088479
#
#
# Mechanical properties :
#
#
# Convention : Reuss Voigt Hill
#
# Bulk Modulus (GPa) = 24.63043 58.75277 41.69160
# Shear Modulus (GPa) = 11.84159 22.51722 17.17941
#
# Velocity S-wave (km/s) = 2.49930 3.44643 3.01035
# Velocity P-wave (km/s) = 4.61750 6.84321 5.83741
#
# Compressibility (1/GPa) = 0.04060019
#
# Stress axis : x y z
#
# Youngs Moduli (GPa) = 61.65348 19.13811 125.32466
#
# Poissons Ratio (x) = 0.12375 0.51634
# Poissons Ratio (y) = 0.39866 0.91976
# Poissons Ratio (z) = 0.25402 0.14046
#
# Static dielectric constant tensor:
#      x y z
#    x 3.372540 0.000000 0.000000 
#    y 0.000000 3.009640 0.000000 
#    z 0.000000 0.000000 3.854670 
# 
# 
# High freq. dielectric constant tensor:
#      x y z
#    x 1.738050 0.000000 0.000000 
#    y 0.000000 1.675990 0.000000 
#    z 0.000000 0.000000 1.765590 
# 
# From -- ./inp_files/24874.got.cif
#   From: 2010.03.12/outbox.cif.g09.slc.cpg/sg51_13_cif.got.tgz:24874.got - 2010.04.16 13:43:02.
