data_PCOD8208547
_publ_section_title
;
Structure prediction by ZEFSAII (Michael W. Deem and Ramdas Pophale) SiO2 
 PCOD8208547
Probable space group: P M M A
;
_chemical_formula_sum "Si O2"
_cell_formula_units_Z 44
_cell_length_a 8.760345
_cell_length_b 28.237083
_cell_length_c 9.463077
_cell_angle_alpha 90.000000
_cell_angle_beta 90.000000
_cell_angle_gamma 90.000000
_cell_volume 2340.849078
_symmetry_space_group_name_H-M "P M M A"
_symmetry_group_IT_number 51
_symmetry_cell_setting 'orthorhombic'
loop_
_space_group_symop_operation_xyz
x,y,z
1/2-x,-y,z
1/2+x,-y,-z
-x,y,-z
-x,-y,-z
1/2+x,y,-z
1/2-x,y,z
x,-y,z
loop_
_atom_site_type_symbol
_atom_site_label
_atom_site_fract_x
_atom_site_fract_y
_atom_site_fract_z
Si Si1 0.068377 0.000000 0.154411
Si Si2 0.430516 0.355130 0.655327
Si Si3 0.071275 0.551278 0.346144
Si Si4 0.569763 0.268143 0.153386
Si Si5 0.069301 0.077758 0.649702
Si Si6 0.428739 0.814160 0.647057
O O1 0.009027 0.046981 0.230343
O O2 0.250000 0.000000 0.149327
O O3 0.000000 0.000000 0.000000
O O4 0.500000 0.348338 0.500000
O O5 0.250000 0.356528 0.642218
O O6 0.490246 0.404008 0.729664
O O7 0.486813 0.312369 0.753593
O O8 0.250000 0.561710 0.358356
O O9 0.042339 0.500000 0.269835
O O10 0.000000 0.548310 0.500000
O O11 0.750000 0.268239 0.138431
O O12 0.511688 0.219857 0.228184
O O13 0.500000 0.271700 0.000000
O O14 0.250000 0.069008 0.647613
O O15 0.025899 0.132023 0.683858
O O16 0.000000 0.062147 0.500000
O O17 0.500000 0.797405 0.500000
O O18 0.250000 0.808746 0.627754
#
# Coordination Sequence:
#
# PCOD8208547 Si02
#       6
#     4   8   8   8   8   8
#     4  12  25  40  57  80 112 148 184 224 269 316
#     4  10  19  31  50  75 102 132 169 210 253 304
#     4   9  16  26  43  69  99 129 163 205 253 302
#     4  10  22  37  52  75 105 138 174 212 257 308
#     4  10  20  37  60  85 112 143 180 221 264 314
#     4   9  19  36  58  83 109 137 174 217 260 309
#
# _framework density 18.796599000000001
#
# number of rings (size 3 to 8) (size 9 to 14) (size 15 to 20)
#    0.000    2.182    0.000    4.364    0.000    4.727 
#    0.000    1.818    0.000    0.545    0.000    0.000 
#    0.000    0.000    0.000    0.000    0.000    0.000 
#
# Total GULP energy -545466.599789 kJ/mol
# GULP energy per Si atom -12396.968177 kJ/mol
# Density = 1.875382 g / cm^3
# Si number density = 18.796599 Si / 1000 Ang^3
#
#
#
# Elastic Constant Matrix: (Units=GPa)
#
#
# Indices 1 2 3 4 5 6 
#
# 1 81.1629 51.1343 47.0282 0.0000 0.0000 0.0000
# 2 51.1343 157.3318 87.9727 0.0000 0.0000 0.0000
# 3 47.0282 87.9727 127.9243 0.0000 0.0000 0.0000
# 4 0.0000 0.0000 0.0000 -2.1400 0.0000 0.0000
# 5 0.0000 0.0000 0.0000 0.0000 31.1226 0.0000
# 6 0.0000 0.0000 0.0000 0.0000 0.0000 28.3128
#
#
#
# Elastic Compliance Matrix: (Units=1/GPa)
#
#
# Indices 1 2 3 4 5 6 
#
# 1 0.016604 -0.003222 -0.003888 0.000000 0.000000 0.000000
# 2 -0.003222 0.010952 -0.006347 0.000000 0.000000 0.000000
# 3 -0.003888 -0.006347 0.013611 0.000000 0.000000 0.000000
# 4 0.000000 0.000000 0.000000 -0.467293 0.000000 0.000000
# 5 0.000000 0.000000 0.000000 0.000000 0.032131 0.000000
# 6 0.000000 0.000000 0.000000 0.000000 0.000000 0.035320
#
#
# Mechanical properties :
#
#
# Convention : Reuss Voigt Hill
#
# Bulk Modulus (GPa) = 70.16364 82.07662 76.12013
# Shear Modulus (GPa) = -15.29010 23.47801 4.09395
#
# Velocity S-wave (km/s) = -2.85520 3.53803 1.47742
# Velocity P-wave (km/s) = 5.15163 7.77501 6.59507
#
# Compressibility (1/GPa) = 0.01425240
#
# Stress axis : x y z
#
# Youngs Moduli (GPa) = 60.22678 91.30405 73.46789
#
# Poissons Ratio (x) = 0.29422 0.28564
# Poissons Ratio (y) = 0.19408 0.46632
# Poissons Ratio (z) = 0.23416 0.57953
#
# Static dielectric constant tensor:
#      x y z
#    x 3.475670 0.000000 0.000000 
#    y 0.000000 4.201310 0.000000 
#    z 0.000000 0.000000 3.284920 
# 
# 
# High freq. dielectric constant tensor:
#      x y z
#    x 1.737320 0.000000 0.000000 
#    y 0.000000 1.756080 0.000000 
#    z 0.000000 0.000000 1.696450 
# 
# From -- ./inp_files/5882.got.cif
#   From: 2010.03.12/outbox.cif.g09.slc.cpg/sg51_3_cif.got.tgz:5882.got - 2010.04.16 13:43:02.
