data_PCOD8208337
_publ_section_title
;
Structure prediction by ZEFSAII (Michael W. Deem and Ramdas Pophale) SiO2 
 PCOD8208337
Probable space group: P M M A
;
_chemical_formula_sum "Si O2"
_cell_formula_units_Z 64
_cell_length_a 18.971305
_cell_length_b 9.123357
_cell_length_c 21.278777
_cell_angle_alpha 90.000000
_cell_angle_beta 90.000000
_cell_angle_gamma 90.000000
_cell_volume 3682.973031
_symmetry_space_group_name_H-M "P M M A"
_symmetry_group_IT_number 51
_symmetry_cell_setting 'orthorhombic'
loop_
_space_group_symop_operation_xyz
x,y,z
1/2-x,-y,z
1/2+x,-y,-z
-x,y,-z
-x,-y,-z
1/2+x,y,-z
1/2-x,y,z
x,-y,z
loop_
_atom_site_type_symbol
_atom_site_label
_atom_site_fract_x
_atom_site_fract_y
_atom_site_fract_z
Si Si1 0.136295 0.163990 0.765494
Si Si2 0.596443 0.671887 0.352087
Si Si3 0.941619 0.329919 0.695950
Si Si4 0.173901 0.667180 0.882931
Si Si5 0.521666 0.835870 0.813827
Si Si6 0.330757 0.331491 0.407765
Si Si7 0.668642 0.171745 0.464680
Si Si8 0.974510 0.327293 0.067494
O O1 0.144975 0.257564 0.702141
O O2 0.181383 0.237359 0.820271
O O3 0.056266 0.162104 0.787018
O O4 0.164449 0.000000 0.752915
O O5 0.611694 0.500000 0.354829
O O6 0.514742 0.707252 0.338952
O O7 0.617215 0.744419 0.417621
O O8 0.938518 0.500000 0.713399
O O9 0.878453 0.281647 0.650554
O O10 0.930701 0.243473 0.761369
O O11 0.250000 0.682658 0.918464
O O12 0.160383 0.500000 0.862105
O O13 0.108338 0.717315 0.926268
O O14 0.522486 0.749261 0.879659
O O15 0.550224 0.000000 0.825296
O O16 0.250000 0.310461 0.387142
O O17 0.346433 0.500000 0.426370
O O18 0.349972 0.228959 0.466135
O O19 0.750000 0.206773 0.448340
O O20 0.652779 0.000000 0.461469
O O21 0.986012 0.500000 0.074214
O O22 0.000000 0.269785 0.000000
#
# Coordination Sequence:
#
# PCOD8208337 Si02
#       8
#     8   8   8   8   8   8   8   8
#     4   9  17  29  44  64  91 120 151 186 225 271
#     4  10  19  31  48  69  94 124 157 192 232 279
#     4   9  18  32  51  74  97 121 152 194 238 278
#     4   9  17  29  45  66  92 121 155 193 229 268
#     4   9  17  29  47  71  96 121 150 186 227 271
#     4   9  18  34  54  72  91 119 156 196 240 289
#     4  10  21  35  48  64  90 123 158 197 239 284
#     4   9  17  30  49  71  95 126 160 191 227 272
#
# _framework density 17.377265000000001
#
# number of rings (size 3 to 8) (size 9 to 14) (size 15 to 20)
#    0.000    2.750    0.000    1.500    0.000    6.250 
#    0.000    2.500    0.000    0.750    0.000    3.500 
#    0.000    0.000    0.000    0.000    0.000    0.000 
#
# Total GULP energy -793480.115429 kJ/mol
# GULP energy per Si atom -12398.126804 kJ/mol
# Density = 1.733771 g / cm^3
# Si number density = 17.377265 Si / 1000 Ang^3
#
#
#
# Elastic Constant Matrix: (Units=GPa)
#
#
# Indices 1 2 3 4 5 6 
#
# 1 68.7673 35.9810 60.2158 0.0000 0.0000 0.0000
# 2 35.9810 92.0284 64.4847 0.0000 0.0000 0.0000
# 3 60.2158 64.4847 139.9980 0.0000 0.0000 0.0000
# 4 0.0000 0.0000 0.0000 17.8540 0.0000 0.0000
# 5 0.0000 0.0000 0.0000 0.0000 19.2781 0.0000
# 6 0.0000 0.0000 0.0000 0.0000 0.0000 15.4446
#
#
#
# Elastic Compliance Matrix: (Units=1/GPa)
#
#
# Indices 1 2 3 4 5 6 
#
# 1 0.023937 -0.003167 -0.008837 0.000000 0.000000 0.000000
# 2 -0.003167 0.016464 -0.006221 0.000000 0.000000 0.000000
# 3 -0.008837 -0.006221 0.013810 0.000000 0.000000 0.000000
# 4 0.000000 0.000000 0.000000 0.056010 0.000000 0.000000
# 5 0.000000 0.000000 0.000000 0.000000 0.051872 0.000000
# 6 0.000000 0.000000 0.000000 0.000000 0.000000 0.064748
#
#
# Mechanical properties :
#
#
# Convention : Reuss Voigt Hill
#
# Bulk Modulus (GPa) = 56.30636 69.12853 62.71744
# Shear Modulus (GPa) = 18.57288 19.85615 19.21452
#
# Velocity S-wave (km/s) = 3.27280 3.38398 3.32886
# Velocity P-wave (km/s) = 6.83771 7.42535 7.13758
#
# Compressibility (1/GPa) = 0.01775998
#
# Stress axis : x y z
#
# Youngs Moduli (GPa) = 41.77668 60.74017 72.41341
#
# Poissons Ratio (x) = 0.19234 0.63993
# Poissons Ratio (y) = 0.13229 0.45051
# Poissons Ratio (z) = 0.36919 0.37788
#
# Static dielectric constant tensor:
#      x y z
#    x 3.119340 0.000000 0.000000 
#    y 0.000000 3.364340 0.000000 
#    z 0.000000 0.000000 3.182810 
# 
# 
# High freq. dielectric constant tensor:
#      x y z
#    x 1.649850 0.000000 0.000000 
#    y 0.000000 1.677440 0.000000 
#    z 0.000000 0.000000 1.659130 
# 
# From -- ./inp_files/30559.got.cif
#   From: 2010.03.12/outbox.cif.g09.slc.cpg/sg51_16_cif.got.tgz:30559.got - 2010.04.16 13:43:02.
