data_PCOD8208824
_publ_section_title
;
Structure prediction by ZEFSAII (Michael W. Deem and Ramdas Pophale) SiO2 
 PCOD8208824
Probable space group: P M M A
;
_chemical_formula_sum "Si O2"
_cell_formula_units_Z 64
_cell_length_a 23.174246
_cell_length_b 9.140184
_cell_length_c 18.017003
_cell_angle_alpha 90.000000
_cell_angle_beta 90.000000
_cell_angle_gamma 90.000000
_cell_volume 3816.305227
_symmetry_space_group_name_H-M "P M M A"
_symmetry_group_IT_number 51
_symmetry_cell_setting 'orthorhombic'
loop_
_space_group_symop_operation_xyz
x,y,z
1/2-x,-y,z
1/2+x,-y,-z
-x,y,-z
-x,-y,-z
1/2+x,y,-z
1/2-x,y,z
x,-y,z
loop_
_atom_site_type_symbol
_atom_site_label
_atom_site_fract_x
_atom_site_fract_y
_atom_site_fract_z
Si Si1 0.181317 0.664878 0.578290
Si Si2 0.681286 0.165026 0.564434
Si Si3 0.683708 0.829279 0.275474
Si Si4 0.182713 0.668196 0.993138
Si Si5 0.182874 0.328545 0.289085
Si Si6 0.000204 0.672752 0.086382
Si Si7 0.112515 0.827306 0.868710
Si Si8 0.623800 0.672727 0.858528
O O1 0.250000 0.666258 0.575326
O O2 0.157267 0.500000 0.576750
O O3 0.156177 0.750978 0.507279
O O4 0.160045 0.742731 0.653268
O O5 0.750000 0.166716 0.561948
O O6 0.659473 0.245686 0.638424
O O7 0.657402 0.000000 0.563924
O O8 0.750000 0.787855 0.257379
O O9 0.644735 0.781066 0.206483
O O10 0.678136 0.000000 0.293151
O O11 0.250000 0.687021 0.979909
O O12 0.162820 0.500000 0.980823
O O13 0.149739 0.771626 0.937099
O O14 0.166935 0.720800 0.075865
O O15 0.250000 0.296008 0.274433
O O16 0.172365 0.500000 0.301458
O O17 0.147132 0.263952 0.219274
O O18 0.991547 0.500000 0.094716
O O19 0.059516 0.728342 0.123438
O O20 0.950026 0.753928 0.130888
O O21 0.000000 0.717906 0.000000
O O22 0.105816 0.000000 0.875227
O O23 0.624251 0.500000 0.852257
#
# Coordination Sequence:
#
# PCOD8208824 Si02
#       8
#     8   8   8   8   8   8   8   8
#     4   9  16  26  43  68  95 123 158 196 229 270
#     4   9  16  26  41  63  95 132 161 185 224 280
#     4   9  18  32  47  65  95 131 159 189 236 290
#     4  10  19  32  51  72  95 126 163 198 239 294
#     4   9  16  27  45  69  96 124 157 197 238 283
#     4  10  19  35  55  70  90 122 165 212 250 289
#     4  11  22  34  49  70  98 128 162 202 246 292
#     4   9  17  31  50  71  93 122 160 204 249 285
#
# _framework density 16.770147999999999
#
# number of rings (size 3 to 8) (size 9 to 14) (size 15 to 20)
#    0.000    2.500    1.250    1.875    0.000    6.500 
#    0.000    2.500    0.000    1.500    0.000    0.875 
#    0.000    7.000    0.000    0.000    0.000    0.000 
#
# Total GULP energy -793604.143212 kJ/mol
# GULP energy per Si atom -12400.064738 kJ/mol
# Density = 1.673198 g / cm^3
# Si number density = 16.770148 Si / 1000 Ang^3
#
#
#
# Elastic Constant Matrix: (Units=GPa)
#
#
# Indices 1 2 3 4 5 6 
#
# 1 52.4796 16.0374 21.5288 0.0000 0.0000 0.0000
# 2 16.0374 53.9759 32.0214 0.0000 0.0000 0.0000
# 3 21.5288 32.0214 101.5468 0.0000 0.0000 0.0000
# 4 0.0000 0.0000 0.0000 20.6049 0.0000 0.0000
# 5 0.0000 0.0000 0.0000 0.0000 4.6443 0.0000
# 6 0.0000 0.0000 0.0000 0.0000 0.0000 17.8278
#
#
#
# Elastic Compliance Matrix: (Units=1/GPa)
#
#
# Indices 1 2 3 4 5 6 
#
# 1 0.021755 -0.004586 -0.003166 0.000000 0.000000 0.000000
# 2 -0.004586 0.023757 -0.006519 0.000000 0.000000 0.000000
# 3 -0.003166 -0.006519 0.012575 0.000000 0.000000 0.000000
# 4 0.000000 0.000000 0.000000 0.048532 0.000000 0.000000
# 5 0.000000 0.000000 0.000000 0.000000 0.215317 0.000000
# 6 0.000000 0.000000 0.000000 0.000000 0.000000 0.056092
#
#
# Mechanical properties :
#
#
# Convention : Reuss Voigt Hill
#
# Bulk Modulus (GPa) = 33.84710 38.57527 36.21119
# Shear Modulus (GPa) = 12.00716 17.84307 14.92511
#
# Velocity S-wave (km/s) = 2.67869 3.26541 2.98649
# Velocity P-wave (km/s) = 5.45838 6.10487 5.79066
#
# Compressibility (1/GPa) = 0.02954463
#
# Stress axis : x y z
#
# Youngs Moduli (GPa) = 45.96594 42.09328 79.52476
#
# Poissons Ratio (x) = 0.19302 0.25180
# Poissons Ratio (y) = 0.21078 0.51844
# Poissons Ratio (z) = 0.14554 0.27441
#
# Static dielectric constant tensor:
#      x y z
#    x 2.985720 0.000000 0.000000 
#    y 0.000000 3.094490 0.000000 
#    z 0.000000 0.000000 3.337250 
# 
# 
# High freq. dielectric constant tensor:
#      x y z
#    x 1.608850 0.000000 0.000000 
#    y 0.000000 1.638000 0.000000 
#    z 0.000000 0.000000 1.656070 
# 
# From -- ./inp_files/30880.got.cif
#   From: 2010.03.12/outbox.cif.g09.slc.cpg/sg51_16_cif.got.tgz:30880.got - 2010.04.16 13:43:02.
