data_PCOD8208620
_publ_section_title
;
Structure prediction by ZEFSAII (Michael W. Deem and Ramdas Pophale) SiO2 
 PCOD8208620
Probable space group: P M M A
;
_chemical_formula_sum "Si O2"
_cell_formula_units_Z 64
_cell_length_a 26.781796
_cell_length_b 9.130581
_cell_length_c 14.664260
_cell_angle_alpha 90.000000
_cell_angle_beta 90.000000
_cell_angle_gamma 90.000000
_cell_volume 3585.900736
_symmetry_space_group_name_H-M "P M M A"
_symmetry_group_IT_number 51
_symmetry_cell_setting 'orthorhombic'
loop_
_space_group_symop_operation_xyz
x,y,z
1/2-x,-y,z
1/2+x,-y,-z
-x,y,-z
-x,-y,-z
1/2+x,y,-z
1/2-x,y,z
x,-y,z
loop_
_atom_site_type_symbol
_atom_site_label
_atom_site_fract_x
_atom_site_fract_y
_atom_site_fract_z
Si Si1 0.080280 0.830682 0.164184
Si Si2 0.391510 0.172655 0.521410
Si Si3 0.083837 0.330058 0.345573
Si Si4 0.193161 0.829889 0.662247
Si Si5 0.966676 0.330055 0.351383
Si Si6 0.808025 0.330379 0.155870
Si Si7 0.534339 0.167908 0.171017
Si Si8 0.381242 0.169795 0.969528
O O1 0.099842 0.731993 0.247205
O O2 0.022356 0.799010 0.142955
O O3 0.088197 0.000000 0.189988
O O4 0.111417 0.786793 0.074811
O O5 0.385042 0.243004 0.421774
O O6 0.341444 0.211802 0.577050
O O7 0.439810 0.242840 0.568409
O O8 0.399737 0.000000 0.512703
O O9 0.097879 0.500000 0.349978
O O10 0.025382 0.302923 0.362537
O O11 0.250000 0.785247 0.637639
O O12 0.173424 0.744496 0.750831
O O13 0.188968 0.000000 0.686285
O O14 0.952682 0.500000 0.359102
O O15 0.948065 0.269639 0.254265
O O16 0.750000 0.299164 0.140406
O O17 0.820527 0.500000 0.163784
O O18 0.835983 0.264368 0.069036
O O19 0.567856 0.205886 0.084043
O O20 0.541134 0.000000 0.202383
O O21 0.367442 0.000000 0.959525
#
# Coordination Sequence:
#
# PCOD8208620 Si02
#       8
#     8   8   8   8   8   8   8   8
#     4   9  18  33  51  71  98 131 166 203 240 282
#     4  11  21  32  51  75  96 125 165 204 244 290
#     4  10  21  35  49  68  98 134 167 201 242 285
#     4   9  19  36  55  75 100 127 156 195 243 293
#     4  10  20  32  46  69 102 135 165 198 238 286
#     4  10  21  35  51  74 103 132 161 196 241 291
#     4   9  17  30  48  72 102 132 162 198 240 287
#     4  10  19  31  51  76  99 128 166 203 242 288
#
# _framework density 17.847677999999998
#
# number of rings (size 3 to 8) (size 9 to 14) (size 15 to 20)
#    0.000    2.250    0.000    3.000    0.000   10.250 
#    0.000    0.000    0.000    4.500    0.000    1.750 
#    0.000    0.000    0.000    0.000    0.000    0.000 
#
# Total GULP energy -793859.101374 kJ/mol
# GULP energy per Si atom -12404.048459 kJ/mol
# Density = 1.780706 g / cm^3
# Si number density = 17.847678 Si / 1000 Ang^3
#
#
#
# Elastic Constant Matrix: (Units=GPa)
#
#
# Indices 1 2 3 4 5 6 
#
# 1 56.1815 44.3164 55.0278 0.0000 0.0000 0.0000
# 2 44.3164 95.2502 73.7563 0.0000 0.0000 0.0000
# 3 55.0278 73.7563 146.0692 0.0000 0.0000 0.0000
# 4 0.0000 0.0000 0.0000 12.4106 0.0000 0.0000
# 5 0.0000 0.0000 0.0000 0.0000 26.6187 0.0000
# 6 0.0000 0.0000 0.0000 0.0000 0.0000 22.3704
#
#
#
# Elastic Compliance Matrix: (Units=1/GPa)
#
#
# Indices 1 2 3 4 5 6 
#
# 1 0.032530 -0.009270 -0.007574 0.000000 0.000000 0.000000
# 2 -0.009270 0.019881 -0.006546 0.000000 0.000000 0.000000
# 3 -0.007574 -0.006546 0.013005 0.000000 0.000000 0.000000
# 4 0.000000 0.000000 0.000000 0.080576 0.000000 0.000000
# 5 0.000000 0.000000 0.000000 0.000000 0.037568 0.000000
# 6 0.000000 0.000000 0.000000 0.000000 0.000000 0.044702
#
#
# Mechanical properties :
#
#
# Convention : Reuss Voigt Hill
#
# Bulk Modulus (GPa) = 53.66279 71.52245 62.59262
# Shear Modulus (GPa) = 17.77747 20.57331 19.17539
#
# Velocity S-wave (km/s) = 3.15948 3.39885 3.28135
# Velocity P-wave (km/s) = 6.59106 7.45411 7.03583
#
# Compressibility (1/GPa) = 0.01863489
#
# Stress axis : x y z
#
# Youngs Moduli (GPa) = 30.74047 50.29960 76.89404
#
# Poissons Ratio (x) = 0.46629 0.58240
# Poissons Ratio (y) = 0.28497 0.50337
# Poissons Ratio (z) = 0.23283 0.32928
#
# Static dielectric constant tensor:
#      x y z
#    x 3.157100 0.000000 0.000000 
#    y 0.000000 3.349960 0.000000 
#    z 0.000000 0.000000 3.370140 
# 
# 
# High freq. dielectric constant tensor:
#      x y z
#    x 1.667230 0.000000 0.000000 
#    y 0.000000 1.694670 0.000000 
#    z 0.000000 0.000000 1.691750 
# 
# From -- ./inp_files/26208.got.cif
#   From: 2010.03.12/outbox.cif.g09.slc.cpg/sg51_14_cif.got.tgz:26208.got - 2010.04.16 13:43:02.
