data_PCOD8208473
_publ_section_title
;
Structure prediction by ZEFSAII (Michael W. Deem and Ramdas Pophale) SiO2 
 PCOD8208473
Probable space group: P M M A
;
_chemical_formula_sum "Si O2"
_cell_formula_units_Z 44
_cell_length_a 9.037634
_cell_length_b 28.417470
_cell_length_c 9.402585
_cell_angle_alpha 90.000000
_cell_angle_beta 90.000000
_cell_angle_gamma 90.000000
_cell_volume 2414.834812
_symmetry_space_group_name_H-M "P M M A"
_symmetry_group_IT_number 51
_symmetry_cell_setting 'orthorhombic'
loop_
_space_group_symop_operation_xyz
x,y,z
1/2-x,-y,z
1/2+x,-y,-z
-x,y,-z
-x,-y,-z
1/2+x,y,-z
1/2-x,y,z
x,-y,z
loop_
_atom_site_type_symbol
_atom_site_label
_atom_site_fract_x
_atom_site_fract_y
_atom_site_fract_z
Si Si1 0.575993 0.224195 0.146272
Si Si2 0.075746 0.500000 0.847083
Si Si3 0.421258 0.049725 0.350840
Si Si4 0.424046 0.413420 0.651497
Si Si5 0.924927 0.151056 0.652375
Si Si6 0.422003 0.331777 0.855022
O O1 0.750000 0.214884 0.135180
O O2 0.504206 0.192288 0.264943
O O3 0.539593 0.278164 0.185423
O O4 0.500000 0.209812 0.000000
O O5 0.250000 0.500000 0.873116
O O6 0.024748 0.545308 0.757268
O O7 0.000000 0.500000 0.000000
O O8 0.500000 0.048822 0.500000
O O9 0.250000 0.050316 0.387498
O O10 0.457446 0.099567 0.272476
O O11 0.461007 0.000000 0.267719
O O12 0.500000 0.419182 0.500000
O O13 0.250000 0.415389 0.624943
O O14 0.473867 0.364291 0.724006
O O15 0.750000 0.161373 0.641545
O O16 0.000000 0.150427 0.500000
O O17 0.250000 0.338780 0.884344
O O18 0.500000 0.347682 0.000000
#
# Coordination Sequence:
#
# PCOD8208473 Si02
#       6
#     8   4   8   8   8   8
#     4  10  20  35  53  73  99 132 169 209 252 301
#     4  10  21  36  56  80 106 136 173 212 248 294
#     4   8  14  25  42  65  93 124 158 197 242 292
#     4  10  21  36  53  78 108 136 168 207 251 297
#     4  10  19  31  49  74 102 131 164 205 251 298
#     4   9  19  35  54  75  99 129 168 208 247 297
#
# _framework density 18.22071
#
# number of rings (size 3 to 8) (size 9 to 14) (size 15 to 20)
#    0.000    2.545    0.000    1.909    0.000    3.636 
#    0.000    1.818    0.000    0.545    0.000    0.000 
#    0.000    0.000    0.000    0.000    0.000    0.000 
#
# Total GULP energy -545165.254267 kJ/mol
# GULP energy per Si atom -12390.119415 kJ/mol
# Density = 1.817924 g / cm^3
# Si number density = 18.220710 Si / 1000 Ang^3
#
#
#
# Elastic Constant Matrix: (Units=GPa)
#
#
# Indices 1 2 3 4 5 6 
#
# 1 61.8409 47.4301 44.9618 0.0000 0.0000 0.0000
# 2 47.4301 136.4777 76.9109 0.0000 0.0000 0.0000
# 3 44.9618 76.9109 113.4565 0.0000 0.0000 0.0000
# 4 0.0000 0.0000 0.0000 3.4665 0.0000 0.0000
# 5 0.0000 0.0000 0.0000 0.0000 33.8775 0.0000
# 6 0.0000 0.0000 0.0000 0.0000 0.0000 24.7748
#
#
#
# Elastic Compliance Matrix: (Units=1/GPa)
#
#
# Indices 1 2 3 4 5 6 
#
# 1 0.024621 -0.004948 -0.006403 0.000000 0.000000 0.000000
# 2 -0.004948 0.012851 -0.006751 0.000000 0.000000 0.000000
# 3 -0.006403 -0.006751 0.015927 0.000000 0.000000 0.000000
# 4 0.000000 0.000000 0.000000 0.288475 0.000000 0.000000
# 5 0.000000 0.000000 0.000000 0.000000 0.029518 0.000000
# 6 0.000000 0.000000 0.000000 0.000000 0.000000 0.040364
#
#
# Mechanical properties :
#
#
# Convention : Reuss Voigt Hill
#
# Bulk Modulus (GPa) = 58.15238 72.26452 65.20845
# Shear Modulus (GPa) = 11.02071 21.92192 16.47131
#
# Velocity S-wave (km/s) = 2.46203 3.47238 3.00990
# Velocity P-wave (km/s) = 6.32984 7.47150 6.92424
#
# Compressibility (1/GPa) = 0.01719620
#
# Stress axis : x y z
#
# Youngs Moduli (GPa) = 40.61611 77.81369 62.78466
#
# Poissons Ratio (x) = 0.38505 0.40198
# Poissons Ratio (y) = 0.20098 0.42384
# Poissons Ratio (z) = 0.26005 0.52530
#
# Static dielectric constant tensor:
#      x y z
#    x 3.418770 0.000000 0.000000 
#    y 0.000000 4.073770 0.000000 
#    z 0.000000 0.000000 3.030370 
# 
# 
# High freq. dielectric constant tensor:
#      x y z
#    x 1.709490 0.000000 0.000000 
#    y 0.000000 1.734430 0.000000 
#    z 0.000000 0.000000 1.672970 
# 
# From -- ./inp_files/5848.got.cif
#   From: 2010.03.12/outbox.cif.g09.slc.cpg/sg51_3_cif.got.tgz:5848.got - 2010.04.16 13:43:02.
