data_PCOD8208411
_publ_section_title
;
Structure prediction by ZEFSAII (Michael W. Deem and Ramdas Pophale) SiO2 
 PCOD8208411
Probable space group: P M M A
;
_chemical_formula_sum "Si O2"
_cell_formula_units_Z 64
_cell_length_a 18.790388
_cell_length_b 9.260766
_cell_length_c 20.637835
_cell_angle_alpha 90.000000
_cell_angle_beta 90.000000
_cell_angle_gamma 90.000000
_cell_volume 3591.259555
_symmetry_space_group_name_H-M "P M M A"
_symmetry_group_IT_number 51
_symmetry_cell_setting 'orthorhombic'
loop_
_space_group_symop_operation_xyz
x,y,z
1/2-x,-y,z
1/2+x,-y,-z
-x,y,-z
-x,-y,-z
1/2+x,y,-z
1/2-x,y,z
x,-y,z
loop_
_atom_site_type_symbol
_atom_site_label
_atom_site_fract_x
_atom_site_fract_y
_atom_site_fract_z
Si Si1 0.584634 0.836802 0.500337
Si Si2 0.666933 0.832631 0.734634
Si Si3 0.416184 0.668033 0.373826
Si Si4 0.834721 0.162886 0.123735
Si Si5 0.332562 0.667551 0.750732
Si Si6 0.665529 0.840158 0.879983
Si Si7 0.334988 0.662197 0.999522
Si Si8 0.582561 0.666980 0.375505
O O1 0.500000 0.834225 0.500000
O O2 0.612998 0.750537 0.562765
O O3 0.612758 0.759261 0.435530
O O4 0.614132 0.000000 0.502713
O O5 0.750000 0.802720 0.723974
O O6 0.622956 0.728758 0.688632
O O7 0.643503 0.791241 0.807791
O O8 0.649273 0.000000 0.720327
O O9 0.398663 0.500000 0.382215
O O10 0.499586 0.695434 0.364079
O O11 0.750000 0.164103 0.122058
O O12 0.861806 0.242164 0.188411
O O13 0.864705 0.246363 0.061029
O O14 0.864391 0.000000 0.123023
O O15 0.250000 0.699380 0.737453
O O16 0.345716 0.500000 0.766262
O O17 0.375975 0.718761 0.688115
O O18 0.750000 0.846349 0.884095
O O19 0.635135 0.000000 0.894684
O O20 0.635165 0.730427 0.933694
O O21 0.250000 0.662814 0.999278
O O22 0.364502 0.500000 0.994042
O O23 0.597736 0.500000 0.391081
#
# Coordination Sequence:
#
# PCOD8208411 Si02
#       8
#     8   8   8   8   8   8   8   8
#     4   9  17  30  49  70  90 116 153 193 229 267
#     4   9  18  32  48  67  94 125 154 187 228 272
#     4  10  19  31  49  71  94 120 151 188 229 275
#     4   9  16  25  38  58  86 118 150 185 224 265
#     4   9  17  30  47  66  91 122 152 184 225 271
#     4   8  14  25  40  58  83 115 147 181 223 265
#     4   9  15  22  35  57  84 114 149 186 221 261
#     4   9  18  32  49  70  94 119 150 190 233 273
#
# _framework density 17.821044000000001
#
# number of rings (size 3 to 8) (size 9 to 14) (size 15 to 20)
#    0.000    3.000    0.000    2.250    0.000    6.250 
#    0.000    1.875    0.000    2.250    0.000    0.875 
#    0.000    7.000    0.000    0.000    0.000    0.000 
#
# Total GULP energy -793501.254473 kJ/mol
# GULP energy per Si atom -12398.457101 kJ/mol
# Density = 1.778048 g / cm^3
# Si number density = 17.821044 Si / 1000 Ang^3
#
#
#
# Elastic Constant Matrix: (Units=GPa)
#
#
# Indices 1 2 3 4 5 6 
#
# 1 20.7725 27.1481 33.6574 0.0000 0.0000 0.0000
# 2 27.1481 138.7956 104.8200 0.0000 0.0000 0.0000
# 3 33.6574 104.8200 183.5223 0.0000 0.0000 0.0000
# 4 0.0000 0.0000 0.0000 41.8489 0.0000 0.0000
# 5 0.0000 0.0000 0.0000 0.0000 -10.1885 0.0000
# 6 0.0000 0.0000 0.0000 0.0000 0.0000 14.8173
#
#
#
# Elastic Compliance Matrix: (Units=1/GPa)
#
#
# Indices 1 2 3 4 5 6 
#
# 1 0.072442 -0.007273 -0.009131 0.000000 0.000000 0.000000
# 2 -0.007273 0.013400 -0.006320 0.000000 0.000000 0.000000
# 3 -0.009131 -0.006320 0.010733 0.000000 0.000000 0.000000
# 4 0.000000 0.000000 0.000000 0.023895 0.000000 0.000000
# 5 0.000000 0.000000 0.000000 0.000000 -0.098150 0.000000
# 6 0.000000 0.000000 0.000000 0.000000 0.000000 0.067489
#
#
# Mechanical properties :
#
#
# Convention : Reuss Voigt Hill
#
# Bulk Modulus (GPa) = 19.55945 74.92683 47.24314
# Shear Modulus (GPa) = 32.82986 21.12653 26.97820
#
# Velocity S-wave (km/s) = 4.29674 3.44682 3.89503
# Velocity P-wave (km/s) = 5.96785 7.61420 6.84073
#
# Compressibility (1/GPa) = 0.05112619
#
# Stress axis : x y z
#
# Youngs Moduli (GPa) = 13.80422 74.62569 93.16950
#
# Poissons Ratio (x) = 0.54278 0.85076
# Poissons Ratio (y) = 0.10040 0.58880
# Poissons Ratio (z) = 0.12605 0.47161
#
# Static dielectric constant tensor:
#      x y z
#    x 2.724330 0.000000 0.000000 
#    y 0.000000 3.458530 0.000000 
#    z 0.000000 0.000000 3.535500 
# 
# 
# High freq. dielectric constant tensor:
#      x y z
#    x 1.623400 0.000000 0.000000 
#    y 0.000000 1.697460 0.000000 
#    z 0.000000 0.000000 1.706450 
# 
# From -- ./inp_files/30893.got.cif
#   From: 2010.03.12/outbox.cif.g09.slc.cpg/sg51_16_cif.got.tgz:30893.got - 2010.04.16 13:43:02.
