data_PCOD8208163
_publ_section_title
;
Structure prediction by ZEFSAII (Michael W. Deem and Ramdas Pophale) SiO2 
 PCOD8208163
Probable space group: P M M A
;
_chemical_formula_sum "Si O2"
_cell_formula_units_Z 64
_cell_length_a 19.263349
_cell_length_b 13.815990
_cell_length_c 14.763346
_cell_angle_alpha 90.000000
_cell_angle_beta 90.000000
_cell_angle_gamma 90.000000
_cell_volume 3929.149932
_symmetry_space_group_name_H-M "P M M A"
_symmetry_group_IT_number 51
_symmetry_cell_setting 'orthorhombic'
loop_
_space_group_symop_operation_xyz
x,y,z
1/2-x,-y,z
1/2+x,-y,-z
-x,y,-z
-x,-y,-z
1/2+x,y,-z
1/2-x,y,z
x,-y,z
loop_
_atom_site_type_symbol
_atom_site_label
_atom_site_fract_x
_atom_site_fract_y
_atom_site_fract_z
Si Si1 0.392529 0.107021 0.473605
Si Si2 0.674142 0.612693 0.628098
Si Si3 0.831658 0.613154 0.125475
Si Si4 0.014863 0.892958 0.651379
Si Si5 0.571713 0.614037 0.962429
Si Si6 0.937622 0.386054 0.762886
Si Si7 0.327904 0.712592 0.549278
Si Si8 0.078814 0.708906 0.723276
O O1 0.439613 0.105456 0.562004
O O2 0.437316 0.134484 0.383642
O O3 0.334071 0.186915 0.492978
O O4 0.359215 0.000000 0.460293
O O5 0.750000 0.657925 0.650440
O O6 0.675689 0.500000 0.647333
O O7 0.616159 0.661674 0.692031
O O8 0.656625 0.628217 0.522606
O O9 0.750000 0.633997 0.121915
O O10 0.846407 0.500000 0.150115
O O11 0.866248 0.686223 0.197497
O O12 0.863698 0.639508 0.027414
O O13 0.045721 0.817345 0.725323
O O14 0.015123 0.000000 0.696651
O O15 0.562881 0.500000 0.954384
O O16 0.581656 0.657549 0.861754
O O17 0.500000 0.659058 0.000000
O O18 0.928904 0.500000 0.764423
O O19 0.016023 0.365672 0.732449
O O20 0.250000 0.706508 0.589417
O O21 0.382851 0.695473 0.628118
#
# Coordination Sequence:
#
# PCOD8208163 Si02
#       8
#     8   8   8   8   8   8   8   8
#     4   8  14  27  45  63  83 110 150 196 236 269
#     4   9  19  33  44  59  88 124 160 193 222 262
#     4  10  20  32  47  70  98 125 154 190 234 287
#     4   8  15  27  44  65  88 115 148 189 231 270
#     4   9  16  30  48  66  90 115 144 189 240 279
#     4  10  19  30  49  71  89 115 153 196 238 279
#     4  10  20  31  42  60  91 128 159 189 228 272
#     4  11  19  29  46  68  95 125 156 188 228 277
#
# _framework density 16.288509999999999
#
# number of rings (size 3 to 8) (size 9 to 14) (size 15 to 20)
#    0.000    2.625    1.250    2.250    0.000    3.250 
#    0.000    5.000    0.000    1.125    0.000    1.750 
#    0.000    0.000    0.000    2.875    0.000    0.375 
#
# Total GULP energy -792977.004925 kJ/mol
# GULP energy per Si atom -12390.265702 kJ/mol
# Density = 1.625144 g / cm^3
# Si number density = 16.288510 Si / 1000 Ang^3
#
#
#
# Elastic Constant Matrix: (Units=GPa)
#
#
# Indices 1 2 3 4 5 6 
#
# 1 94.5914 18.4758 64.9441 0.0000 0.0000 0.0000
# 2 18.4758 39.2216 30.5627 0.0000 0.0000 0.0000
# 3 64.9441 30.5627 94.0203 0.0000 0.0000 0.0000
# 4 0.0000 0.0000 0.0000 12.3966 0.0000 0.0000
# 5 0.0000 0.0000 0.0000 0.0000 31.8882 0.0000
# 6 0.0000 0.0000 0.0000 0.0000 0.0000 17.8449
#
#
#
# Elastic Compliance Matrix: (Units=1/GPa)
#
#
# Indices 1 2 3 4 5 6 
#
# 1 0.020204 0.001818 -0.014547 0.000000 0.000000 0.000000
# 2 0.001818 0.034309 -0.012408 0.000000 0.000000 0.000000
# 3 -0.014547 -0.012408 0.024718 0.000000 0.000000 0.000000
# 4 0.000000 0.000000 0.000000 0.080667 0.000000 0.000000
# 5 0.000000 0.000000 0.000000 0.000000 0.031360 0.000000
# 6 0.000000 0.000000 0.000000 0.000000 0.000000 0.056038
#
#
# Mechanical properties :
#
#
# Convention : Reuss Voigt Hill
#
# Bulk Modulus (GPa) = 34.53496 50.64427 42.58962
# Shear Modulus (GPa) = 16.27481 20.01597 18.14539
#
# Velocity S-wave (km/s) = 3.16438 3.50928 3.34128
# Velocity P-wave (km/s) = 5.88210 6.89780 6.41010
#
# Compressibility (1/GPa) = 0.02895616
#
# Stress axis : x y z
#
# Youngs Moduli (GPa) = 49.49430 29.14707 40.45659
#
# Poissons Ratio (x) = -0.05299 0.58852
# Poissons Ratio (y) = -0.08998 0.50200
# Poissons Ratio (z) = 0.72000 0.36167
#
# Static dielectric constant tensor:
#      x y z
#    x 3.222060 0.000000 0.000000 
#    y 0.000000 3.104590 0.000000 
#    z 0.000000 0.000000 3.121100 
# 
# 
# High freq. dielectric constant tensor:
#      x y z
#    x 1.631710 0.000000 0.000000 
#    y 0.000000 1.595540 0.000000 
#    z 0.000000 0.000000 1.610140 
# 
# From -- ./inp_files/25382.got.cif
#   From: 2010.03.12/outbox.cif.g09.slc.cpg/sg51_13_cif.got.tgz:25382.got - 2010.04.16 13:43:02.
