data_PCOD8208891
_publ_section_title
;
Structure prediction by ZEFSAII (Michael W. Deem and Ramdas Pophale) SiO2 
 PCOD8208891
Probable space group: P M M A
;
_chemical_formula_sum "Si O2"
_cell_formula_units_Z 40
_cell_length_a 8.604521
_cell_length_b 25.693469
_cell_length_c 10.032795
_cell_angle_alpha 90.000000
_cell_angle_beta 90.000000
_cell_angle_gamma 90.000000
_cell_volume 2218.050254
_symmetry_space_group_name_H-M "P M M A"
_symmetry_group_IT_number 51
_symmetry_cell_setting 'orthorhombic'
loop_
_space_group_symop_operation_xyz
x,y,z
1/2-x,-y,z
1/2+x,-y,-z
-x,y,-z
-x,-y,-z
1/2+x,y,-z
1/2-x,y,z
x,-y,z
loop_
_atom_site_type_symbol
_atom_site_label
_atom_site_fract_x
_atom_site_fract_y
_atom_site_fract_z
Si Si1 0.932321 0.945141 0.854582
Si Si2 0.434732 0.168017 0.148866
Si Si3 0.433683 0.558544 0.139561
Si Si4 0.065382 0.639682 0.358125
Si Si5 0.433732 0.751474 0.642773
O O1 0.750000 0.944636 0.869949
O O2 0.980763 0.889560 0.790695
O O3 0.983264 0.000000 0.779811
O O4 0.000000 0.946853 0.000000
O O5 0.250000 0.177008 0.147663
O O6 0.516837 0.208632 0.244220
O O7 0.500000 0.175125 0.000000
O O8 0.250000 0.559828 0.131770
O O9 0.493711 0.500000 0.169915
O O10 0.494951 0.596886 0.253793
O O11 0.500000 0.578920 0.000000
O O12 0.250000 0.643170 0.364156
O O13 0.000000 0.621990 0.500000
O O14 0.999061 0.695413 0.315345
O O15 0.500000 0.769393 0.500000
O O16 0.250000 0.748501 0.631778
#
# Coordination Sequence:
#
# PCOD8208891 Si02
#       5
#     8   8   8   8   8
#     4   8  14  25  43  68  98 130 162 200 246 294
#     4  10  19  32  51  77 106 134 169 210 252 300
#     4   9  19  35  54  77 105 135 166 202 245 294
#     4  10  20  35  54  76 102 131 168 209 249 297
#     4  11  22  37  55  74 100 134 172 212 258 307
#
# _framework density 18.033857000000001
#
# number of rings (size 3 to 8) (size 9 to 14) (size 15 to 20)
#    0.000    2.400    0.000    4.200    0.000    3.600 
#    0.000    2.000    0.000    0.600    0.000    0.000 
#    0.000    0.000    0.000    0.000    0.000    0.000 
#
# Total GULP energy -495593.148390 kJ/mol
# GULP energy per Si atom -12389.828710 kJ/mol
# Density = 1.799281 g / cm^3
# Si number density = 18.033857 Si / 1000 Ang^3
#
#
#
# Elastic Constant Matrix: (Units=GPa)
#
#
# Indices 1 2 3 4 5 6 
#
# 1 70.1709 42.1860 34.7978 0.0000 0.0000 0.0000
# 2 42.1860 151.7348 98.6809 0.0000 0.0000 0.0000
# 3 34.7978 98.6809 106.7123 0.0000 0.0000 0.0000
# 4 0.0000 0.0000 0.0000 -6.0501 0.0000 0.0000
# 5 0.0000 0.0000 0.0000 0.0000 29.3141 0.0000
# 6 0.0000 0.0000 0.0000 0.0000 0.0000 7.1319
#
#
#
# Elastic Compliance Matrix: (Units=1/GPa)
#
#
# Indices 1 2 3 4 5 6 
#
# 1 0.017492 -0.002894 -0.003028 0.000000 0.000000 0.000000
# 2 -0.002894 0.017013 -0.014789 0.000000 0.000000 0.000000
# 3 -0.003028 -0.014789 0.024034 0.000000 0.000000 0.000000
# 4 0.000000 0.000000 0.000000 -0.165287 0.000000 0.000000
# 5 0.000000 0.000000 0.000000 0.000000 0.034113 0.000000
# 6 0.000000 0.000000 0.000000 0.000000 0.000000 0.140215
#
#
# Mechanical properties :
#
#
# Convention : Reuss Voigt Hill
#
# Bulk Modulus (GPa) = 58.41809 75.54971 66.98390
# Shear Modulus (GPa) = 43.58905 16.27607 29.93256
#
# Velocity S-wave (km/s) = 4.92170 3.00747 4.07848
# Velocity P-wave (km/s) = 8.04745 7.35147 7.70732
#
# Compressibility (1/GPa) = 0.01711798
#
# Stress axis : x y z
#
# Youngs Moduli (GPa) = 57.16790 58.77847 41.60767
#
# Poissons Ratio (x) = 0.17012 0.12597
# Poissons Ratio (y) = 0.16546 0.61533
# Poissons Ratio (z) = 0.17308 0.86926
#
# Static dielectric constant tensor:
#      x y z
#    x 3.409990 0.000000 0.000000 
#    y 0.000000 4.024880 0.000000 
#    z 0.000000 0.000000 3.297910 
# 
# 
# High freq. dielectric constant tensor:
#      x y z
#    x 1.707190 0.000000 0.000000 
#    y 0.000000 1.720070 0.000000 
#    z 0.000000 0.000000 1.668300 
# 
# From -- ./inp_files/5214.got.cif
#   From: 2010.03.12/outbox.cif.g09.slc.cpg/sg51_3_cif.got.tgz:5214.got - 2010.04.16 13:43:02.
