data_PCOD8208699
_publ_section_title
;
Structure prediction by ZEFSAII (Michael W. Deem and Ramdas Pophale) SiO2 
 PCOD8208699
Probable space group: P M M A
;
_chemical_formula_sum "Si O2"
_cell_formula_units_Z 52
_cell_length_a 9.110307
_cell_length_b 15.702272
_cell_length_c 20.556395
_cell_angle_alpha 90.000000
_cell_angle_beta 90.000000
_cell_angle_gamma 90.000000
_cell_volume 2940.644076
_symmetry_space_group_name_H-M "P M M A"
_symmetry_group_IT_number 51
_symmetry_cell_setting 'orthorhombic'
loop_
_space_group_symop_operation_xyz
x,y,z
1/2-x,-y,z
1/2+x,-y,-z
-x,y,-z
-x,-y,-z
1/2+x,y,-z
1/2-x,y,z
x,-y,z
loop_
_atom_site_type_symbol
_atom_site_label
_atom_site_fract_x
_atom_site_fract_y
_atom_site_fract_z
Si Si1 0.577757 0.097080 0.066908
Si Si2 0.584112 0.899614 0.562325
Si Si3 0.418428 0.592534 0.791723
Si Si4 0.578335 0.779381 0.179590
Si Si5 0.916086 0.188399 0.688753
Si Si6 0.424446 0.500000 0.568752
Si Si7 0.083931 0.380629 0.338295
O O1 0.750000 0.108631 0.056297
O O2 0.516630 0.163490 0.120538
O O3 0.540115 0.000000 0.088146
O O4 0.500000 0.121076 0.000000
O O5 0.500000 0.860127 0.500000
O O6 0.750000 0.865034 0.558729
O O7 0.516690 0.872231 0.632324
O O8 0.576836 0.000000 0.558425
O O9 0.250000 0.601765 0.767982
O O10 0.437120 0.500000 0.829017
O O11 0.458403 0.678274 0.833071
O O12 0.525078 0.587968 0.730809
O O13 0.750000 0.794409 0.185845
O O14 0.510251 0.815300 0.245914
O O15 0.750000 0.161656 0.707187
O O16 0.920880 0.280202 0.656189
O O17 0.250000 0.500000 0.562128
O O18 0.500000 0.500000 0.500000
O O19 0.478401 0.583841 0.606155
O O20 0.250000 0.414764 0.346628
#
# Coordination Sequence:
#
# PCOD8208699 Si02
#       7
#     8   8   8   8   8   4   8
#     4   9  18  33  52  74 102 136 171 206 247 297
#     4   9  18  33  50  67  90 122 160 199 240 290
#     4   9  16  28  48  70  93 124 159 194 236 288
#     4   9  18  31  48  74 102 127 162 206 247 290
#     4   9  19  33  49  72 100 127 158 199 247 294
#     4  12  24  36  48  64  88 120 159 200 245 298
#     4  10  19  32  48  67  92 120 152 194 242 289
#
# _framework density 17.683201
#
# number of rings (size 3 to 8) (size 9 to 14) (size 15 to 20)
#    0.000    2.615    0.769    1.154    0.000    3.077 
#    0.000    1.538    0.000    0.462    0.000    0.000 
#    0.000    0.000    0.000    0.000    0.000    0.000 
#
# Total GULP energy -644371.075126 kJ/mol
# GULP energy per Si atom -12391.751445 kJ/mol
# Density = 1.764295 g / cm^3
# Si number density = 17.683201 Si / 1000 Ang^3
#
#
#
# Elastic Constant Matrix: (Units=GPa)
#
#
# Indices 1 2 3 4 5 6 
#
# 1 68.4598 33.1416 44.4335 0.0000 0.0000 0.0000
# 2 33.1416 79.3630 70.3893 0.0000 0.0000 0.0000
# 3 44.4335 70.3893 124.5034 0.0000 0.0000 0.0000
# 4 0.0000 0.0000 0.0000 22.6913 0.0000 0.0000
# 5 0.0000 0.0000 0.0000 0.0000 28.7308 0.0000
# 6 0.0000 0.0000 0.0000 0.0000 0.0000 18.1823
#
#
#
# Elastic Compliance Matrix: (Units=1/GPa)
#
#
# Indices 1 2 3 4 5 6 
#
# 1 0.019617 -0.003977 -0.004753 0.000000 0.000000 0.000000
# 2 -0.003977 0.026079 -0.013325 0.000000 0.000000 0.000000
# 3 -0.004753 -0.013325 0.017262 0.000000 0.000000 0.000000
# 4 0.000000 0.000000 0.000000 0.044070 0.000000 0.000000
# 5 0.000000 0.000000 0.000000 0.000000 0.034806 0.000000
# 6 0.000000 0.000000 0.000000 0.000000 0.000000 0.054999
#
#
# Mechanical properties :
#
#
# Convention : Reuss Voigt Hill
#
# Bulk Modulus (GPa) = 53.05315 63.13945 58.09630
# Shear Modulus (GPa) = 20.22459 22.21166 21.21813
#
# Velocity S-wave (km/s) = 3.38556 3.54798 3.46772
# Velocity P-wave (km/s) = 6.73423 7.25035 6.99705
#
# Compressibility (1/GPa) = 0.01884902
#
# Stress axis : x y z
#
# Youngs Moduli (GPa) = 50.97625 38.34469 57.93217
#
# Poissons Ratio (x) = 0.15248 0.27534
# Poissons Ratio (y) = 0.20271 0.77195
# Poissons Ratio (z) = 0.24228 0.51094
#
# Static dielectric constant tensor:
#      x y z
#    x 3.278140 0.000000 0.000000 
#    y 0.000000 3.325080 0.000000 
#    z 0.000000 0.000000 3.167690 
# 
# 
# High freq. dielectric constant tensor:
#      x y z
#    x 1.681500 0.000000 0.000000 
#    y 0.000000 1.693540 0.000000 
#    z 0.000000 0.000000 1.656540 
# 
# From -- ./inp_files/27930.got.cif
#   From: 2010.03.12/outbox.cif.g09.slc.cpg/sg51_14_cif.got.tgz:27930.got - 2010.04.16 13:43:02.
