data_PCOD8208061
_publ_section_title
;
Structure prediction by ZEFSAII (Michael W. Deem and Ramdas Pophale) SiO2 
 PCOD8208061
Probable space group: P M M A
;
_chemical_formula_sum "Si O2"
_cell_formula_units_Z 64
_cell_length_a 8.868212
_cell_length_b 18.752985
_cell_length_c 23.620546
_cell_angle_alpha 90.000000
_cell_angle_beta 90.000000
_cell_angle_gamma 90.000000
_cell_volume 3928.225452
_symmetry_space_group_name_H-M "P M M A"
_symmetry_group_IT_number 51
_symmetry_cell_setting 'orthorhombic'
loop_
_space_group_symop_operation_xyz
x,y,z
1/2-x,-y,z
1/2+x,-y,-z
-x,y,-z
-x,-y,-z
1/2+x,y,-z
1/2-x,y,z
x,-y,z
loop_
_atom_site_type_symbol
_atom_site_label
_atom_site_fract_x
_atom_site_fract_y
_atom_site_fract_z
Si Si1 0.574217 0.918309 0.219602
Si Si2 0.924788 0.580959 0.889825
Si Si3 0.571723 0.287232 0.058149
Si Si4 0.075498 0.289749 0.274419
Si Si5 0.573600 0.164068 0.332389
Si Si6 0.424728 0.794721 0.159634
Si Si7 0.923691 0.580360 0.230300
Si Si8 0.571751 0.918904 0.442365
O O1 0.750000 0.908303 0.206379
O O2 0.535716 0.891461 0.282566
O O3 0.479778 0.874549 0.173230
O O4 0.523853 0.000000 0.215057
O O5 0.750000 0.603096 0.891384
O O6 0.949994 0.500000 0.910442
O O7 0.016962 0.631908 0.931376
O O8 0.980239 0.591096 0.826142
O O9 0.750000 0.286275 0.053219
O O10 0.520235 0.235059 0.107827
O O11 0.500000 0.258951 0.000000
O O12 0.250000 0.303960 0.285563
O O13 0.043624 0.254798 0.213579
O O14 0.013295 0.238298 0.323419
O O15 0.987025 0.364960 0.277161
O O16 0.750000 0.180865 0.334670
O O17 0.514587 0.129441 0.390521
O O18 0.250000 0.795906 0.143045
O O19 0.750000 0.597315 0.216457
O O20 0.942596 0.500000 0.253804
O O21 0.500000 0.888543 0.500000
O O22 0.750000 0.915456 0.447525
O O23 0.517549 0.000000 0.431726
#
# Coordination Sequence:
#
# PCOD8208061 Si02
#       8
#     8   8   8   8   8   8   8   8
#     4   9  17  30  50  74  97 123 156 194 236 283
#     4  10  20  34  51  71  96 124 155 192 232 276
#     4  12  24  37  54  71  92 121 156 195 235 282
#     4  10  19  30  47  69  96 126 157 197 242 284
#     4   9  17  29  46  68  97 130 166 204 240 280
#     4  10  20  34  50  70  96 122 152 189 235 288
#     4  10  19  30  47  70  95 126 161 193 231 283
#     4   9  17  29  45  66  95 134 174 209 244 282
#
# _framework density 16.292342999999999
#
# number of rings (size 3 to 8) (size 9 to 14) (size 15 to 20)
#    0.000    2.125    1.250    3.000    0.000    5.000 
#    0.000    0.000    0.000    2.625    0.000    0.000 
#    0.000    0.500    0.000    1.625    0.000    2.000 
#
# Total GULP energy -793764.367698 kJ/mol
# GULP energy per Si atom -12402.568245 kJ/mol
# Density = 1.625526 g / cm^3
# Si number density = 16.292343 Si / 1000 Ang^3
#
#
#
# Elastic Constant Matrix: (Units=GPa)
#
#
# Indices 1 2 3 4 5 6 
#
# 1 89.5760 45.9871 44.3929 0.0000 0.0000 0.0000
# 2 45.9871 98.3630 47.5123 0.0000 0.0000 0.0000
# 3 44.3929 47.5123 91.7837 0.0000 0.0000 0.0000
# 4 0.0000 0.0000 0.0000 24.5920 0.0000 0.0000
# 5 0.0000 0.0000 0.0000 0.0000 24.9446 0.0000
# 6 0.0000 0.0000 0.0000 0.0000 0.0000 26.5389
#
#
#
# Elastic Compliance Matrix: (Units=1/GPa)
#
#
# Indices 1 2 3 4 5 6 
#
# 1 0.016413 -0.005119 -0.005288 0.000000 0.000000 0.000000
# 2 -0.005119 0.015152 -0.005368 0.000000 0.000000 0.000000
# 3 -0.005288 -0.005368 0.016232 0.000000 0.000000 0.000000
# 4 0.000000 0.000000 0.000000 0.040664 0.000000 0.000000
# 5 0.000000 0.000000 0.000000 0.000000 0.040089 0.000000
# 6 0.000000 0.000000 0.000000 0.000000 0.000000 0.037681
#
#
# Mechanical properties :
#
#
# Convention : Reuss Voigt Hill
#
# Bulk Modulus (GPa) = 61.55214 61.72304 61.63759
# Shear Modulus (GPa) = 24.60682 24.67045 24.63864
#
# Velocity S-wave (km/s) = 3.89051 3.89554 3.89303
# Velocity P-wave (km/s) = 7.61861 7.62893 7.62377
#
# Compressibility (1/GPa) = 0.01624639
#
# Stress axis : x y z
#
# Youngs Moduli (GPa) = 60.92905 65.99591 61.60744
#
# Poissons Ratio (x) = 0.33782 0.32581
# Poissons Ratio (y) = 0.31188 0.33071
# Poissons Ratio (z) = 0.32222 0.35426
#
# Static dielectric constant tensor:
#      x y z
#    x 3.112220 0.000000 0.000000 
#    y 0.000000 3.180070 0.000000 
#    z 0.000000 0.000000 2.883060 
# 
# 
# High freq. dielectric constant tensor:
#      x y z
#    x 1.637600 0.000000 0.000000 
#    y 0.000000 1.623750 0.000000 
#    z 0.000000 0.000000 1.592990 
# 
# From -- ./inp_files/32356.got.cif
#   From: 2010.03.12/outbox.cif.g09.slc.cpg/sg51_17_cif.got.tgz:32356.got - 2010.04.16 13:43:02.
