data_PCOD8208157
_publ_section_title
;
Structure prediction by ZEFSAII (Michael W. Deem and Ramdas Pophale) SiO2 
 PCOD8208157
Probable space group: P M M A
;
_chemical_formula_sum "Si O2"
_cell_formula_units_Z 40
_cell_length_a 19.869654
_cell_length_b 9.059294
_cell_length_c 12.529431
_cell_angle_alpha 90.000000
_cell_angle_beta 90.000000
_cell_angle_gamma 90.000000
_cell_volume 2255.360694
_symmetry_space_group_name_H-M "P M M A"
_symmetry_group_IT_number 51
_symmetry_cell_setting 'orthorhombic'
loop_
_space_group_symop_operation_xyz
x,y,z
1/2-x,-y,z
1/2+x,-y,-z
-x,y,-z
-x,-y,-z
1/2+x,y,-z
1/2-x,y,z
x,-y,z
loop_
_atom_site_type_symbol
_atom_site_label
_atom_site_fract_x
_atom_site_fract_y
_atom_site_fract_z
Si Si1 0.578621 0.166740 0.023608
Si Si2 0.052533 0.673140 0.768850
Si Si3 0.930012 0.827659 0.447077
Si Si4 0.172449 0.831080 0.370087
Si Si5 0.899109 0.672769 0.815373
O O1 0.592817 0.251721 0.133853
O O2 0.605625 0.000000 0.033105
O O3 0.500000 0.170584 0.000000
O O4 0.617167 0.247904 0.927377
O O5 0.065073 0.500000 0.775455
O O6 0.082666 0.735684 0.659734
O O7 0.973611 0.712976 0.774240
O O8 0.870000 0.784926 0.526523
O O9 0.000000 0.778555 0.500000
O O10 0.930983 0.000000 0.417896
O O11 0.250000 0.808400 0.399589
O O12 0.154250 0.728280 0.270827
O O13 0.156118 0.000000 0.338594
O O14 0.890398 0.500000 0.833394
#
# Coordination Sequence:
#
# PCOD8208157 Si02
#       5
#     8   8   8   8   8
#     4   9  17  29  48  73 102 134 167 204 251 305
#     4  10  19  30  48  76 107 135 167 212 263 309
#     4  10  19  32  52  75 101 135 176 218 260 309
#     4  10  21  36  53  74 102 137 176 216 259 310
#     4  10  19  31  49  74 105 135 167 210 260 310
#
# _framework density 17.735523000000001
#
# number of rings (size 3 to 8) (size 9 to 14) (size 15 to 20)
#    0.000    2.200    2.000    1.800    0.000    5.600 
#    0.000    0.000    0.000    1.200    0.000    2.800 
#    0.000    0.000    0.000    0.000    0.000    0.000 
#
# Total GULP energy -496150.152050 kJ/mol
# GULP energy per Si atom -12403.753801 kJ/mol
# Density = 1.769516 g / cm^3
# Si number density = 17.735523 Si / 1000 Ang^3
#
#
#
# Elastic Constant Matrix: (Units=GPa)
#
#
# Indices 1 2 3 4 5 6 
#
# 1 66.7996 32.1811 47.1090 0.0000 0.0000 0.0000
# 2 32.1811 97.5803 74.7728 0.0000 0.0000 0.0000
# 3 47.1090 74.7728 163.5057 0.0000 0.0000 0.0000
# 4 0.0000 0.0000 0.0000 29.6863 0.0000 0.0000
# 5 0.0000 0.0000 0.0000 0.0000 19.7709 0.0000
# 6 0.0000 0.0000 0.0000 0.0000 0.0000 16.3405
#
#
#
# Elastic Compliance Matrix: (Units=1/GPa)
#
#
# Indices 1 2 3 4 5 6 
#
# 1 0.019440 -0.003262 -0.004109 0.000000 0.000000 0.000000
# 2 -0.003262 0.016324 -0.006525 0.000000 0.000000 0.000000
# 3 -0.004109 -0.006525 0.010284 0.000000 0.000000 0.000000
# 4 0.000000 0.000000 0.000000 0.033686 0.000000 0.000000
# 5 0.000000 0.000000 0.000000 0.000000 0.050579 0.000000
# 6 0.000000 0.000000 0.000000 0.000000 0.000000 0.061198
#
#
# Mechanical properties :
#
#
# Convention : Reuss Voigt Hill
#
# Bulk Modulus (GPa) = 54.78153 70.66794 62.72473
# Shear Modulus (GPa) = 22.18400 24.74772 23.46586
#
# Velocity S-wave (km/s) = 3.54053 3.73953 3.64139
# Velocity P-wave (km/s) = 6.90427 7.65358 7.28856
#
# Compressibility (1/GPa) = 0.01825433
#
# Stress axis : x y z
#
# Youngs Moduli (GPa) = 51.44139 61.26001 97.23986
#
# Poissons Ratio (x) = 0.19986 0.39955
# Poissons Ratio (y) = 0.16782 0.63450
# Poissons Ratio (z) = 0.21137 0.39973
#
# Static dielectric constant tensor:
#      x y z
#    x 2.886470 0.000000 0.000000 
#    y 0.000000 3.305980 0.000000 
#    z 0.000000 0.000000 3.375210 
# 
# 
# High freq. dielectric constant tensor:
#      x y z
#    x 1.636140 0.000000 0.000000 
#    y 0.000000 1.693860 0.000000 
#    z 0.000000 0.000000 1.698440 
# 
# From -- ./inp_files/17086.got.cif
#   From: 2010.03.12/outbox.cif.g09.slc.cpg/sg51_9_cif.got.tgz:17086.got - 2010.04.16 13:43:02.
