data_PCOD8208516
_publ_section_title
;
Structure prediction by ZEFSAII (Michael W. Deem and Ramdas Pophale) SiO2 
 PCOD8208516
Probable space group: P M M A
;
_chemical_formula_sum "Si O2"
_cell_formula_units_Z 64
_cell_length_a 14.393449
_cell_length_b 9.115209
_cell_length_c 27.972440
_cell_angle_alpha 90.000000
_cell_angle_beta 90.000000
_cell_angle_gamma 90.000000
_cell_volume 3669.964432
_symmetry_space_group_name_H-M "P M M A"
_symmetry_group_IT_number 51
_symmetry_cell_setting 'orthorhombic'
loop_
_space_group_symop_operation_xyz
x,y,z
1/2-x,-y,z
1/2+x,-y,-z
-x,y,-z
-x,-y,-z
1/2+x,y,-z
1/2-x,y,z
x,-y,z
loop_
_atom_site_type_symbol
_atom_site_label
_atom_site_fract_x
_atom_site_fract_y
_atom_site_fract_z
Si Si1 0.455813 0.826486 0.389569
Si Si2 0.857128 0.328337 0.695641
Si Si3 0.142218 0.330128 0.028963
Si Si4 0.897432 0.336660 0.519872
Si Si5 0.143510 0.830976 0.207131
Si Si6 0.646315 0.831162 0.066634
Si Si7 0.538926 0.830750 0.886989
Si Si8 0.850244 0.166703 0.430663
O O1 0.424262 0.756875 0.340105
O O2 0.393314 0.758879 0.431911
O O3 0.564639 0.782490 0.396963
O O4 0.440435 0.000000 0.388117
O O5 0.750000 0.294204 0.682889
O O6 0.878685 0.500000 0.692889
O O7 0.880900 0.271580 0.748359
O O8 0.250000 0.299463 0.038118
O O9 0.118350 0.500000 0.025520
O O10 0.087109 0.263372 0.072641
O O11 0.110828 0.258737 0.979104
O O12 0.858677 0.500000 0.530798
O O13 0.837649 0.260613 0.478772
O O14 0.000000 0.345831 0.500000
O O15 0.250000 0.807896 0.190603
O O16 0.075300 0.779819 0.164695
O O17 0.126021 0.000000 0.221505
O O18 0.750000 0.780996 0.083212
O O19 0.572810 0.806192 0.109705
O O20 0.647759 0.000000 0.050944
O O21 0.565771 0.000000 0.895263
O O22 0.750000 0.179654 0.403568
O O23 0.870463 0.000000 0.446574
#
# Coordination Sequence:
#
# PCOD8208516 Si02
#       8
#     8   8   8   8   8   8   8   8
#     4  10  19  32  52  74  97 128 164 200 239 284
#     4  10  21  36  53  73  97 124 155 194 240 288
#     4  10  20  31  44  67  99 131 162 197 237 281
#     4   9  17  29  45  67  96 128 162 199 236 275
#     4   9  18  33  52  73  95 118 149 192 241 292
#     4   9  18  32  48  67  95 130 165 199 233 272
#     4  10  19  31  50  73  95 124 161 197 236 282
#     4   9  18  32  49  71 100 132 165 200 237 278
#
# _framework density 17.438859999999998
#
# number of rings (size 3 to 8) (size 9 to 14) (size 15 to 20)
#    0.000    2.500    0.000    2.250    0.000    7.250 
#    0.000    1.250    0.000    0.750    0.000    3.500 
#    0.000    0.000    0.000    0.000    0.000    0.000 
#
# Total GULP energy -793451.601297 kJ/mol
# GULP energy per Si atom -12397.681270 kJ/mol
# Density = 1.739917 g / cm^3
# Si number density = 17.438860 Si / 1000 Ang^3
#
#
#
# Elastic Constant Matrix: (Units=GPa)
#
#
# Indices 1 2 3 4 5 6 
#
# 1 89.4640 46.9590 68.4384 0.0000 0.0000 0.0000
# 2 46.9590 85.3053 52.7533 0.0000 0.0000 0.0000
# 3 68.4384 52.7533 109.1815 0.0000 0.0000 0.0000
# 4 0.0000 0.0000 0.0000 10.9035 0.0000 0.0000
# 5 0.0000 0.0000 0.0000 0.0000 26.3803 0.0000
# 6 0.0000 0.0000 0.0000 0.0000 0.0000 17.7499
#
#
#
# Elastic Compliance Matrix: (Units=1/GPa)
#
#
# Indices 1 2 3 4 5 6 
#
# 1 0.023074 -0.005359 -0.011874 0.000000 0.000000 0.000000
# 2 -0.005359 0.017962 -0.005320 0.000000 0.000000 0.000000
# 3 -0.011874 -0.005320 0.019173 0.000000 0.000000 0.000000
# 4 0.000000 0.000000 0.000000 0.091713 0.000000 0.000000
# 5 0.000000 0.000000 0.000000 0.000000 0.037907 0.000000
# 6 0.000000 0.000000 0.000000 0.000000 0.000000 0.056338
#
#
# Mechanical properties :
#
#
# Convention : Reuss Voigt Hill
#
# Bulk Modulus (GPa) = 66.21111 68.91691 67.56401
# Shear Modulus (GPa) = 16.87431 18.72675 17.80053
#
# Velocity S-wave (km/s) = 3.11404 3.28052 3.19837
# Velocity P-wave (km/s) = 7.14001 7.34534 7.24340
#
# Compressibility (1/GPa) = 0.01510321
#
# Stress axis : x y z
#
# Youngs Moduli (GPa) = 43.33861 55.67220 52.15747
#
# Poissons Ratio (x) = 0.29833 0.61934
# Poissons Ratio (y) = 0.23224 0.27747
# Poissons Ratio (z) = 0.51462 0.29617
#
# Static dielectric constant tensor:
#      x y z
#    x 3.410530 0.000000 0.000000 
#    y 0.000000 3.368690 0.000000 
#    z 0.000000 0.000000 3.077600 
# 
# 
# High freq. dielectric constant tensor:
#      x y z
#    x 1.675020 0.000000 0.000000 
#    y 0.000000 1.680860 0.000000 
#    z 0.000000 0.000000 1.647170 
# 
# From -- ./inp_files/35629.got.cif
#   From: 2010.03.12/outbox.cif.g09.slc.cpg/sg51_18_cif.got.tgz:35629.got - 2010.04.16 13:43:02.
