data_PCOD8208313
_publ_section_title
;
Structure prediction by ZEFSAII (Michael W. Deem and Ramdas Pophale) SiO2 
 PCOD8208313
Probable space group: P M M A
;
_chemical_formula_sum "Si O2"
_cell_formula_units_Z 52
_cell_length_a 9.129481
_cell_length_b 26.894446
_cell_length_c 13.481756
_cell_angle_alpha 90.000000
_cell_angle_beta 90.000000
_cell_angle_gamma 90.000000
_cell_volume 3310.207014
_symmetry_space_group_name_H-M "P M M A"
_symmetry_group_IT_number 51
_symmetry_cell_setting 'orthorhombic'
loop_
_space_group_symop_operation_xyz
x,y,z
1/2-x,-y,z
1/2+x,-y,-z
-x,y,-z
-x,-y,-z
1/2+x,y,-z
1/2-x,y,z
x,-y,z
loop_
_atom_site_type_symbol
_atom_site_label
_atom_site_fract_x
_atom_site_fract_y
_atom_site_fract_z
Si Si1 0.079475 0.755201 0.721851
Si Si2 0.421194 0.146259 0.603808
Si Si3 0.577767 0.000000 0.894806
Si Si4 0.420118 0.447487 0.603394
Si Si5 0.921706 0.340178 0.395385
Si Si6 0.420304 0.197444 0.102748
Si Si7 0.419938 0.098588 0.219364
O O1 0.250000 0.754813 0.750985
O O2 0.047008 0.797932 0.641182
O O3 0.024618 0.702716 0.678390
O O4 0.984733 0.763187 0.819798
O O5 0.500000 0.137977 0.500000
O O6 0.250000 0.136036 0.590630
O O7 0.484781 0.106660 0.682122
O O8 0.528885 0.952235 0.831749
O O9 0.750000 0.000000 0.915102
O O10 0.500000 0.000000 0.000000
O O11 0.500000 0.448551 0.500000
O O12 0.250000 0.446946 0.578972
O O13 0.459134 0.500000 0.661559
O O14 0.459421 0.394490 0.655305
O O15 0.750000 0.333841 0.415215
O O16 0.000000 0.333898 0.500000
O O17 0.250000 0.208176 0.088739
O O18 0.451124 0.141840 0.140276
O O19 0.500000 0.205715 0.000000
O O20 0.250000 0.097317 0.250397
#
# Coordination Sequence:
#
# PCOD8208313 Si02
#       7
#     8   8   4   8   8   8   8
#     4   9  18  30  43  62  87 114 145 178 212 252
#     4  10  19  31  48  67  89 118 149 181 214 250
#     4  10  20  34  53  74  95 116 139 174 216 256
#     4   8  13  21  33  50  74 106 142 175 207 244
#     4   9  16  25  38  57  83 114 145 178 212 246
#     4  10  19  31  48  67  88 113 139 170 209 253
#     4   9  19  34  50  70  93 116 143 173 207 250
#
# _framework density 15.708988
#
# number of rings (size 3 to 8) (size 9 to 14) (size 15 to 20)
#    0.000    2.769    0.000    1.846    0.000    2.462 
#    0.000    0.385    0.000    0.000    0.000    0.000 
#    0.000    0.615    0.000    1.077    0.000    1.846 
#
# Total GULP energy -644426.490000 kJ/mol
# GULP energy per Si atom -12392.817115 kJ/mol
# Density = 1.567323 g / cm^3
# Si number density = 15.708988 Si / 1000 Ang^3
#
#
#
# Elastic Constant Matrix: (Units=GPa)
#
#
# Indices 1 2 3 4 5 6 
#
# 1 62.4870 43.4436 58.0161 0.0000 0.0000 0.0000
# 2 43.4436 150.9196 69.5745 0.0000 0.0000 0.0000
# 3 58.0161 69.5745 114.8744 0.0000 0.0000 0.0000
# 4 0.0000 0.0000 0.0000 -13.7428 0.0000 0.0000
# 5 0.0000 0.0000 0.0000 0.0000 28.3000 0.0000
# 6 0.0000 0.0000 0.0000 0.0000 0.0000 16.5337
#
#
#
# Elastic Compliance Matrix: (Units=1/GPa)
#
#
# Indices 1 2 3 4 5 6 
#
# 1 0.030720 -0.002346 -0.014094 0.000000 0.000000 0.000000
# 2 -0.002346 0.009372 -0.004492 0.000000 0.000000 0.000000
# 3 -0.014094 -0.004492 0.018544 0.000000 0.000000 0.000000
# 4 0.000000 0.000000 0.000000 -0.072765 0.000000 0.000000
# 5 0.000000 0.000000 0.000000 0.000000 0.035336 0.000000
# 6 0.000000 0.000000 0.000000 0.000000 0.000000 0.060482
#
#
# Mechanical properties :
#
#
# Convention : Reuss Voigt Hill
#
# Bulk Modulus (GPa) = 59.62027 74.48325 67.05176
# Shear Modulus (GPa) = 38.71737 16.70132 27.70935
#
# Velocity S-wave (km/s) = 4.96992 3.26417 4.20446
# Velocity P-wave (km/s) = 8.42430 7.85644 8.14532
#
# Compressibility (1/GPa) = 0.01677282
#
# Stress axis : x y z
#
# Youngs Moduli (GPa) = 32.55241 106.70265 53.92713
#
# Poissons Ratio (x) = 0.25027 0.76005
# Poissons Ratio (y) = 0.07635 0.24222
# Poissons Ratio (z) = 0.45880 0.47926
#
# Static dielectric constant tensor:
#      x y z
#    x 2.981340 0.000000 0.000000 
#    y 0.000000 3.500730 0.000000 
#    z 0.000000 0.000000 2.712650 
# 
# 
# High freq. dielectric constant tensor:
#      x y z
#    x 1.609860 0.000000 0.000000 
#    y 0.000000 1.610110 0.000000 
#    z 0.000000 0.000000 1.569980 
# 
# From -- ./inp_files/14624.got.cif
#   From: 2010.03.12/outbox.cif.g09.slc.cpg/sg51_8_cif.got.tgz:14624.got - 2010.04.16 13:43:02.
