data_PCOD8208021
_publ_section_title
;
Structure prediction by ZEFSAII (Michael W. Deem and Ramdas Pophale) SiO2 
 PCOD8208021
Probable space group: P M M A
;
_chemical_formula_sum "Si O2"
_cell_formula_units_Z 64
_cell_length_a 9.181277
_cell_length_b 20.728221
_cell_length_c 17.688265
_cell_angle_alpha 90.000000
_cell_angle_beta 90.000000
_cell_angle_gamma 90.000000
_cell_volume 3366.280929
_symmetry_space_group_name_H-M "P M M A"
_symmetry_group_IT_number 51
_symmetry_cell_setting 'orthorhombic'
loop_
_space_group_symop_operation_xyz
x,y,z
1/2-x,-y,z
1/2+x,-y,-z
-x,y,-z
-x,-y,-z
1/2+x,y,-z
1/2-x,y,z
x,-y,z
loop_
_atom_site_type_symbol
_atom_site_label
_atom_site_fract_x
_atom_site_fract_y
_atom_site_fract_z
Si Si1 0.078881 0.607804 0.427553
Si Si2 0.576679 0.708981 0.779277
Si Si3 0.911311 0.134173 0.427906
Si Si4 0.088471 0.073317 0.298441
Si Si5 0.577768 0.207832 0.925633
Si Si6 0.414856 0.727545 0.630356
Si Si7 0.076994 0.929614 0.128313
Si Si8 0.579924 0.431123 0.739068
O O1 0.250000 0.613620 0.444202
O O2 0.047779 0.568979 0.350708
O O3 0.000000 0.574422 0.500000
O O4 0.009691 0.677911 0.417381
O O5 0.750000 0.712371 0.764776
O O6 0.532900 0.746218 0.855774
O O7 0.494402 0.743484 0.710099
O O8 0.520984 0.633579 0.780955
O O9 0.750000 0.105435 0.436356
O O10 0.908605 0.210859 0.423283
O O11 0.000000 0.109543 0.500000
O O12 0.978137 0.110318 0.350509
O O13 0.250000 0.104936 0.302767
O O14 0.024505 0.078318 0.214172
O O15 0.098160 0.000000 0.325249
O O16 0.750000 0.209394 0.937059
O O17 0.520306 0.133681 0.915862
O O18 0.500000 0.236077 0.000000
O O19 0.250000 0.702374 0.646054
O O20 0.250000 0.930835 0.127227
O O21 0.019989 0.000000 0.096495
O O22 0.750000 0.431985 0.753765
O O23 0.514021 0.500000 0.769837
#
# Coordination Sequence:
#
# PCOD8208021 Si02
#       8
#     8   8   8   8   8   8   8   8
#     4  10  19  30  46  69  99 134 168 204 249 296
#     4   9  18  33  54  76  98 129 165 202 246 295
#     4  11  23  34  46  66  92 124 161 204 252 296
#     4   9  18  34  55  73  89 117 158 202 248 296
#     4  10  20  33  51  77 106 134 163 195 236 287
#     4  10  20  33  50  72  96 125 164 207 251 298
#     4   8  15  30  52  75  99 129 163 196 233 284
#     4   8  15  29  49  72  96 125 166 212 254 297
#
# _framework density 19.012079
#
# number of rings (size 3 to 8) (size 9 to 14) (size 15 to 20)
#    0.000    2.625    0.000    3.750    0.000    5.500 
#    0.000    0.625    0.000   10.125    0.000    0.000 
#    0.000    0.000    0.000    0.000    0.000    0.000 
#
# Total GULP energy -793014.337326 kJ/mol
# GULP energy per Si atom -12390.849021 kJ/mol
# Density = 1.896881 g / cm^3
# Si number density = 19.012079 Si / 1000 Ang^3
#
#
#
# Elastic Constant Matrix: (Units=GPa)
#
#
# Indices 1 2 3 4 5 6 
#
# 1 65.0173 19.2180 26.0005 0.0000 0.0000 0.0000
# 2 19.2180 80.8671 35.9291 0.0000 0.0000 0.0000
# 3 26.0005 35.9291 80.9613 0.0000 0.0000 0.0000
# 4 0.0000 0.0000 0.0000 21.0377 0.0000 0.0000
# 5 0.0000 0.0000 0.0000 0.0000 27.8838 0.0000
# 6 0.0000 0.0000 0.0000 0.0000 0.0000 12.6092
#
#
#
# Elastic Compliance Matrix: (Units=1/GPa)
#
#
# Indices 1 2 3 4 5 6 
#
# 1 0.017934 -0.002121 -0.004818 0.000000 0.000000 0.000000
# 2 -0.002121 0.015654 -0.006266 0.000000 0.000000 0.000000
# 3 -0.004818 -0.006266 0.016679 0.000000 0.000000 0.000000
# 4 0.000000 0.000000 0.000000 0.047534 0.000000 0.000000
# 5 0.000000 0.000000 0.000000 0.000000 0.035863 0.000000
# 6 0.000000 0.000000 0.000000 0.000000 0.000000 0.079307
#
#
# Mechanical properties :
#
#
# Convention : Reuss Voigt Hill
#
# Bulk Modulus (GPa) = 41.91567 43.23788 42.57678
# Shear Modulus (GPa) = 20.21556 22.01936 21.11746
#
# Velocity S-wave (km/s) = 3.26437 3.40689 3.33639
# Velocity P-wave (km/s) = 6.02518 6.18608 6.10616
#
# Compressibility (1/GPa) = 0.02385743
#
# Stress axis : x y z
#
# Youngs Moduli (GPa) = 55.75890 63.88179 59.95388
#
# Poissons Ratio (x) = 0.13552 0.28887
# Poissons Ratio (y) = 0.11829 0.37565
# Poissons Ratio (z) = 0.26865 0.40026
#
# Static dielectric constant tensor:
#      x y z
#    x 3.353290 0.000000 0.000000 
#    y 0.000000 3.790080 0.000000 
#    z 0.000000 0.000000 3.326200 
# 
# 
# High freq. dielectric constant tensor:
#      x y z
#    x 1.714570 0.000000 0.000000 
#    y 0.000000 1.740730 0.000000 
#    z 0.000000 0.000000 1.720460 
# 
# From -- ./inp_files/28496.got.cif
#   From: 2010.03.12/outbox.cif.g09.slc.cpg/sg51_15_cif.got.tgz:28496.got - 2010.04.16 13:43:02.
