data_PCOD8208792
_publ_section_title
;
Structure prediction by ZEFSAII (Michael W. Deem and Ramdas Pophale) SiO2 
 PCOD8208792
Probable space group: P M M A
;
_chemical_formula_sum "Si O2"
_cell_formula_units_Z 56
_cell_length_a 14.056078
_cell_length_b 9.709810
_cell_length_c 22.051316
_cell_angle_alpha 90.000000
_cell_angle_beta 90.000000
_cell_angle_gamma 90.000000
_cell_volume 3009.604330
_symmetry_space_group_name_H-M "P M M A"
_symmetry_group_IT_number 51
_symmetry_cell_setting 'orthorhombic'
loop_
_space_group_symop_operation_xyz
x,y,z
1/2-x,-y,z
1/2+x,-y,-z
-x,y,-z
-x,-y,-z
1/2+x,y,-z
1/2-x,y,z
x,-y,z
loop_
_atom_site_type_symbol
_atom_site_label
_atom_site_fract_x
_atom_site_fract_y
_atom_site_fract_z
Si Si1 0.045414 0.662687 0.407170
Si Si2 0.552851 0.843067 0.704063
Si Si3 0.355571 0.337262 0.530514
Si Si4 0.491159 0.844315 0.928530
Si Si5 0.143840 0.837514 0.169113
Si Si6 0.145255 0.846459 0.751015
Si Si7 0.640814 0.346556 0.137014
O O1 0.049669 0.500000 0.394035
O O2 0.936444 0.710636 0.421701
O O3 0.087916 0.743909 0.349532
O O4 0.112678 0.705275 0.462972
O O5 0.592936 0.788458 0.768608
O O6 0.437751 0.834027 0.701832
O O7 0.586870 0.000000 0.692110
O O8 0.250000 0.274916 0.544937
O O9 0.350411 0.500000 0.533553
O O10 0.583636 0.792678 0.890403
O O11 0.406565 0.739224 0.916396
O O12 0.466032 0.000000 0.907644
O O13 0.500000 0.839461 0.000000
O O14 0.250000 0.772587 0.164763
O O15 0.152064 0.000000 0.170486
O O16 0.250000 0.821449 0.721566
O O17 0.123714 0.732218 0.800657
O O18 0.141129 0.000000 0.780572
O O19 0.750000 0.355806 0.119663
O O20 0.597081 0.500000 0.142636
#
# Coordination Sequence:
#
# PCOD8208792 Si02
#       7
#     8   8   8   8   8   8   8
#     4   9  18  31  50  76  99 127 171 214 248 296
#     4  10  19  32  50  73 104 139 167 204 264 318
#     4   8  15  31  52  71  97 133 169 208 254 297
#     4  10  20  35  57  81 102 133 180 225 263 309
#     4   9  18  34  53  74 103 137 173 214 261 312
#     4   9  17  31  51  72  96 130 172 213 253 306
#     4  10  20  33  51  76 105 135 166 207 263 318
#
# _framework density 18.607097
#
# number of rings (size 3 to 8) (size 9 to 14) (size 15 to 20)
#    0.000    2.714    1.429    1.286    0.000    3.429 
#    0.000    2.857    0.000    2.143    0.000    0.000 
#    0.000    0.000    0.000    0.000    0.000    0.000 
#
# Total GULP energy -693895.753576 kJ/mol
# GULP energy per Si atom -12390.995600 kJ/mol
# Density = 1.856475 g / cm^3
# Si number density = 18.607097 Si / 1000 Ang^3
#
#
#
# Elastic Constant Matrix: (Units=GPa)
#
#
# Indices 1 2 3 4 5 6 
#
# 1 69.9535 16.4593 27.3833 0.0000 0.0000 0.0000
# 2 16.4593 75.0966 30.9553 0.0000 0.0000 0.0000
# 3 27.3833 30.9553 98.8212 0.0000 0.0000 0.0000
# 4 0.0000 0.0000 0.0000 -41.0418 0.0000 0.0000
# 5 0.0000 0.0000 0.0000 0.0000 15.5498 0.0000
# 6 0.0000 0.0000 0.0000 0.0000 0.0000 17.1799
#
#
#
# Elastic Compliance Matrix: (Units=1/GPa)
#
#
# Indices 1 2 3 4 5 6 
#
# 1 0.016282 -0.001962 -0.003897 0.000000 0.000000 0.000000
# 2 -0.001962 0.015527 -0.004320 0.000000 0.000000 0.000000
# 3 -0.003897 -0.004320 0.012552 0.000000 0.000000 0.000000
# 4 0.000000 0.000000 0.000000 -0.024365 0.000000 0.000000
# 5 0.000000 0.000000 0.000000 0.000000 0.064309 0.000000
# 6 0.000000 0.000000 0.000000 0.000000 0.000000 0.058207
#
#
# Mechanical properties :
#
#
# Convention : Reuss Voigt Hill
#
# Bulk Modulus (GPa) = 41.66156 43.71856 42.69006
# Shear Modulus (GPa) = 29.26146 9.60916 19.43531
#
# Velocity S-wave (km/s) = 3.96990 2.27496 3.23540
# Velocity P-wave (km/s) = 6.59183 5.51790 6.07863
#
# Compressibility (1/GPa) = 0.02400294
#
# Stress axis : x y z
#
# Youngs Moduli (GPa) = 61.41577 64.40391 79.66595
#
# Poissons Ratio (x) = 0.12638 0.31047
# Poissons Ratio (y) = 0.12051 0.34416
# Poissons Ratio (z) = 0.23935 0.27823
#
# Static dielectric constant tensor:
#      x y z
#    x 3.848170 0.000000 0.000000 
#    y 0.000000 3.337270 0.000000 
#    z 0.000000 0.000000 3.188360 
# 
# 
# High freq. dielectric constant tensor:
#      x y z
#    x 1.726580 0.000000 0.000000 
#    y 0.000000 1.691120 0.000000 
#    z 0.000000 0.000000 1.706660 
# 
# From -- ./inp_files/33384.got.cif
#   From: 2010.03.12/outbox.cif.g09.slc.cpg/sg51_17_cif.got.tgz:33384.got - 2010.04.16 13:43:02.
