data_PCOD8208223
_publ_section_title
;
Structure prediction by ZEFSAII (Michael W. Deem and Ramdas Pophale) SiO2 
 PCOD8208223
Probable space group: P M M A
;
_chemical_formula_sum "Si O2"
_cell_formula_units_Z 64
_cell_length_a 28.517388
_cell_length_b 9.025682
_cell_length_c 15.391694
_cell_angle_alpha 90.000000
_cell_angle_beta 90.000000
_cell_angle_gamma 90.000000
_cell_volume 3961.650812
_symmetry_space_group_name_H-M "P M M A"
_symmetry_group_IT_number 51
_symmetry_cell_setting 'orthorhombic'
loop_
_space_group_symop_operation_xyz
x,y,z
1/2-x,-y,z
1/2+x,-y,-z
-x,y,-z
-x,-y,-z
1/2+x,y,-z
1/2-x,y,z
x,-y,z
loop_
_atom_site_type_symbol
_atom_site_label
_atom_site_fract_x
_atom_site_fract_y
_atom_site_fract_z
Si Si1 0.396772 0.828530 0.324539
Si Si2 0.301757 0.172122 0.403678
Si Si3 0.054816 0.829476 0.506359
Si Si4 0.198146 0.328538 0.581227
Si Si5 0.944595 0.837071 0.991635
Si Si6 0.103607 0.326940 0.664589
Si Si7 0.952395 0.674379 0.822492
Si Si8 0.552047 0.824642 0.182071
O O1 0.341200 0.792456 0.331895
O O2 0.421953 0.789436 0.414709
O O3 0.415676 0.721520 0.250421
O O4 0.405708 0.000000 0.299611
O O5 0.250000 0.224385 0.371107
O O6 0.316097 0.247373 0.493321
O O7 0.301772 0.000000 0.424843
O O8 0.075455 0.724091 0.580007
O O9 0.000000 0.797236 0.500000
O O10 0.064754 0.000000 0.531656
O O11 0.250000 0.278808 0.614427
O O12 0.197901 0.500000 0.557644
O O13 0.159083 0.293379 0.653636
O O14 0.926699 0.784702 0.086735
O O15 0.924228 0.000000 0.968078
O O16 0.931027 0.722260 0.916065
O O17 0.000000 0.848648 0.000000
O O18 0.093616 0.500000 0.679325
O O19 0.088552 0.235642 0.748539
O O20 0.959701 0.500000 0.821881
O O21 0.001637 0.751450 0.802111
O O22 0.545375 0.000000 0.192459
#
# Coordination Sequence:
#
# PCOD8208223 Si02
#       8
#     8   8   8   8   8   8   8   8
#     4  10  19  31  46  66  95 130 161 194 236 281
#     4   9  17  30  49  70  89 116 160 206 241 275
#     4  10  20  32  45  62  90 131 167 191 225 276
#     4   9  18  32  48  67  94 126 156 192 242 289
#     4   8  16  32  51  69  91 123 158 192 234 280
#     4  11  21  31  47  71  96 124 159 199 236 277
#     4  11  21  31  48  73  99 125 157 197 234 276
#     4  10  20  34  51  69  95 129 161 193 233 282
#
# _framework density 16.154882000000001
#
# number of rings (size 3 to 8) (size 9 to 14) (size 15 to 20)
#    0.000    2.250    1.250    3.375    0.000    5.500 
#    0.000    0.000    0.000    0.000    0.000    0.875 
#    0.000    1.000    0.000    0.000    0.000    0.000 
#
# Total GULP energy -793436.823361 kJ/mol
# GULP energy per Si atom -12397.450365 kJ/mol
# Density = 1.611811 g / cm^3
# Si number density = 16.154882 Si / 1000 Ang^3
#
#
#
# Elastic Constant Matrix: (Units=GPa)
#
#
# Indices 1 2 3 4 5 6 
#
# 1 85.7674 41.9345 51.3415 0.0000 0.0000 0.0000
# 2 41.9345 82.9872 55.2382 0.0000 0.0000 0.0000
# 3 51.3415 55.2382 109.1167 0.0000 0.0000 0.0000
# 4 0.0000 0.0000 0.0000 12.4096 0.0000 0.0000
# 5 0.0000 0.0000 0.0000 0.0000 5.2464 0.0000
# 6 0.0000 0.0000 0.0000 0.0000 0.0000 15.8228
#
#
#
# Elastic Compliance Matrix: (Units=1/GPa)
#
#
# Indices 1 2 3 4 5 6 
#
# 1 0.017547 -0.005084 -0.005682 0.000000 0.000000 0.000000
# 2 -0.005084 0.019647 -0.007554 0.000000 0.000000 0.000000
# 3 -0.005682 -0.007554 0.015662 0.000000 0.000000 0.000000
# 4 0.000000 0.000000 0.000000 0.080583 0.000000 0.000000
# 5 0.000000 0.000000 0.000000 0.000000 0.190606 0.000000
# 6 0.000000 0.000000 0.000000 0.000000 0.000000 0.063200
#
#
# Mechanical properties :
#
#
# Convention : Reuss Voigt Hill
#
# Bulk Modulus (GPa) = 61.66999 63.87776 62.77388
# Shear Modulus (GPa) = 11.64712 15.31957 13.48334
#
# Velocity S-wave (km/s) = 2.68799 3.08278 2.89213
# Velocity P-wave (km/s) = 6.92032 7.23174 7.07774
#
# Compressibility (1/GPa) = 0.01621534
#
# Stress axis : x y z
#
# Youngs Moduli (GPa) = 56.99033 50.89786 63.84879
#
# Poissons Ratio (x) = 0.25879 0.36280
# Poissons Ratio (y) = 0.28976 0.48229
# Poissons Ratio (z) = 0.32383 0.38447
#
# Static dielectric constant tensor:
#      x y z
#    x 3.218570 0.000000 0.000000 
#    y 0.000000 3.092820 0.000000 
#    z 0.000000 0.000000 3.201840 
# 
# 
# High freq. dielectric constant tensor:
#      x y z
#    x 1.605230 0.000000 0.000000 
#    y 0.000000 1.625650 0.000000 
#    z 0.000000 0.000000 1.608840 
# 
# From -- ./inp_files/26658.got.cif
#   From: 2010.03.12/outbox.cif.g09.slc.cpg/sg51_14_cif.got.tgz:26658.got - 2010.04.16 13:43:02.
