data_PCOD8208945
_publ_section_title
;
Structure prediction by ZEFSAII (Michael W. Deem and Ramdas Pophale) SiO2 
 PCOD8208945
Probable space group: P M M A
;
_chemical_formula_sum "Si O2"
_cell_formula_units_Z 56
_cell_length_a 14.209111
_cell_length_b 9.186526
_cell_length_c 22.953268
_cell_angle_alpha 90.000000
_cell_angle_beta 90.000000
_cell_angle_gamma 90.000000
_cell_volume 2996.144417
_symmetry_space_group_name_H-M "P M M A"
_symmetry_group_IT_number 51
_symmetry_cell_setting 'orthorhombic'
loop_
_space_group_symop_operation_xyz
x,y,z
1/2-x,-y,z
1/2+x,-y,-z
-x,y,-z
-x,-y,-z
1/2+x,y,-z
1/2-x,y,z
x,-y,z
loop_
_atom_site_type_symbol
_atom_site_label
_atom_site_fract_x
_atom_site_fract_y
_atom_site_fract_z
Si Si1 0.643580 0.826977 0.250796
Si Si2 0.858027 0.670693 0.590711
Si Si3 0.394872 0.338324 0.978147
Si Si4 0.475391 0.171315 0.639635
Si Si5 0.449876 0.171830 0.868179
Si Si6 0.351194 0.166067 0.087244
Si Si7 0.142154 0.165987 0.526570
O O1 0.750000 0.764132 0.252140
O O2 0.585430 0.769117 0.306247
O O3 0.589357 0.771787 0.193334
O O4 0.647626 0.000000 0.252327
O O5 0.750000 0.707948 0.606308
O O6 0.876760 0.500000 0.590657
O O7 0.884434 0.731929 0.527194
O O8 0.924113 0.747132 0.638811
O O9 0.353156 0.500000 0.968210
O O10 0.388708 0.249288 0.918069
O O11 0.500000 0.347911 0.000000
O O12 0.337728 0.257053 0.028253
O O13 0.419919 0.212734 0.581223
O O14 0.493452 0.000000 0.645310
O O15 0.560841 0.216974 0.872817
O O16 0.435783 0.000000 0.874846
O O17 0.250000 0.181197 0.120845
O O18 0.369925 0.000000 0.068554
O O19 0.250000 0.184905 0.545588
O O20 0.121078 0.000000 0.507683
#
# Coordination Sequence:
#
# PCOD8208945 Si02
#       7
#     8   8   8   8   8   8   8
#     4   9  18  33  53  76 100 127 162 203 245 290
#     4  10  21  35  50  71 101 134 165 200 246 298
#     4   9  17  29  46  69  97 127 159 198 242 285
#     4  10  19  32  52  76 100 129 166 206 246 288
#     4   9  17  31  50  71  97 130 165 200 241 289
#     4   9  17  29  46  69  97 128 162 200 242 290
#     4   9  17  30  50  76 104 132 163 201 245 293
#
# _framework density 18.690688999999999
#
# number of rings (size 3 to 8) (size 9 to 14) (size 15 to 20)
#    0.000    2.714    0.000    1.714    0.000    7.429 
#    0.000    2.857    0.000    4.714    0.000    0.000 
#    0.000    0.000    0.000    0.000    0.000    0.000 
#
# Total GULP energy -694207.671917 kJ/mol
# GULP energy per Si atom -12396.565570 kJ/mol
# Density = 1.864815 g / cm^3
# Si number density = 18.690689 Si / 1000 Ang^3
#
#
#
# Elastic Constant Matrix: (Units=GPa)
#
#
# Indices 1 2 3 4 5 6 
#
# 1 131.9165 39.3306 80.2721 0.0000 0.0000 0.0000
# 2 39.3306 56.1792 39.8410 0.0000 0.0000 0.0000
# 3 80.2721 39.8410 112.8302 0.0000 0.0000 0.0000
# 4 0.0000 0.0000 0.0000 3.3482 0.0000 0.0000
# 5 0.0000 0.0000 0.0000 0.0000 25.5669 0.0000
# 6 0.0000 0.0000 0.0000 0.0000 0.0000 16.0284
#
#
#
# Elastic Compliance Matrix: (Units=1/GPa)
#
#
# Indices 1 2 3 4 5 6 
#
# 1 0.013900 -0.003626 -0.008609 0.000000 0.000000 0.000000
# 2 -0.003626 0.024693 -0.006139 0.000000 0.000000 0.000000
# 3 -0.008609 -0.006139 0.017155 0.000000 0.000000 0.000000
# 4 0.000000 0.000000 0.000000 0.298670 0.000000 0.000000
# 5 0.000000 0.000000 0.000000 0.000000 0.039113 0.000000
# 6 0.000000 0.000000 0.000000 0.000000 0.000000 0.062389
#
#
# Mechanical properties :
#
#
# Convention : Reuss Voigt Hill
#
# Bulk Modulus (GPa) = 52.63244 68.86816 60.75030
# Shear Modulus (GPa) = 10.01999 18.42083 14.22041
#
# Velocity S-wave (km/s) = 2.31789 3.14277 2.76130
# Velocity P-wave (km/s) = 5.94847 7.07782 6.53758
#
# Compressibility (1/GPa) = 0.01899969
#
# Stress axis : x y z
#
# Youngs Moduli (GPa) = 71.94152 40.49770 58.29112
#
# Poissons Ratio (x) = 0.14686 0.50181
# Poissons Ratio (y) = 0.26088 0.35786
# Poissons Ratio (z) = 0.61932 0.24863
#
# Static dielectric constant tensor:
#      x y z
#    x 3.656660 0.000000 0.000000 
#    y 0.000000 3.328200 0.000000 
#    z 0.000000 0.000000 3.330070 
# 
# 
# High freq. dielectric constant tensor:
#      x y z
#    x 1.741330 0.000000 0.000000 
#    y 0.000000 1.702540 0.000000 
#    z 0.000000 0.000000 1.701000 
# 
# From -- ./inp_files/33292.got.cif
#   From: 2010.03.12/outbox.cif.g09.slc.cpg/sg51_17_cif.got.tgz:33292.got - 2010.04.16 13:43:02.
