data_PCOD8208234
_publ_section_title
;
Structure prediction by ZEFSAII (Michael W. Deem and Ramdas Pophale) SiO2 
 PCOD8208234
Probable space group: P M M A
;
_chemical_formula_sum "Si O2"
_cell_formula_units_Z 56
_cell_length_a 19.788486
_cell_length_b 7.619847
_cell_length_c 20.926798
_cell_angle_alpha 90.000000
_cell_angle_beta 90.000000
_cell_angle_gamma 90.000000
_cell_volume 3155.452168
_symmetry_space_group_name_H-M "P M M A"
_symmetry_group_IT_number 51
_symmetry_cell_setting 'orthorhombic'
loop_
_space_group_symop_operation_xyz
x,y,z
1/2-x,-y,z
1/2+x,-y,-z
-x,y,-z
-x,-y,-z
1/2+x,y,-z
1/2-x,y,z
x,-y,z
loop_
_atom_site_type_symbol
_atom_site_label
_atom_site_fract_x
_atom_site_fract_y
_atom_site_fract_z
Si Si1 0.887436 0.000000 0.988678
Si Si2 0.172718 0.700290 0.088644
Si Si3 0.174245 0.798445 0.392223
Si Si4 0.322767 0.698439 0.533465
Si Si5 0.550326 0.300423 0.682128
Si Si6 0.545906 0.293994 0.825158
Si Si7 0.982480 0.000000 0.097826
Si Si8 0.534652 0.710695 0.434934
O O1 0.844378 0.173467 0.971134
O O2 0.908666 0.000000 0.063678
O O3 0.957539 0.000000 0.952264
O O4 0.250000 0.734047 0.111577
O O5 0.163676 0.500000 0.065056
O O6 0.121469 0.740714 0.147145
O O7 0.250000 0.774196 0.367053
O O8 0.162356 0.696214 0.458012
O O9 0.128055 0.715585 0.337769
O O10 0.155983 0.000000 0.404383
O O11 0.250000 0.794947 0.547571
O O12 0.316024 0.500000 0.556918
O O13 0.387816 0.783150 0.568432
O O14 0.528117 0.500000 0.687215
O O15 0.543070 0.220120 0.752676
O O16 0.503455 0.210834 0.627378
O O17 0.527411 0.500000 0.831001
O O18 0.489531 0.179152 0.861410
O O19 0.500000 0.781442 0.500000
O O20 0.533255 0.500000 0.435721
#
# Coordination Sequence:
#
# PCOD8208234 Si02
#       8
#     4   8   8   8   8   8   4   8
#     4   9  17  30  50  76  97 129 167 193 235 279
#     4   9  17  30  48  73 105 134 163 197 230 279
#     4  10  20  30  40  59  88 118 150 194 244 296
#     4   9  16  28  46  63  81 110 147 190 247 308
#     4  10  19  31  47  64  87 124 166 205 244 293
#     4   9  19  32  47  69  98 136 172 202 241 291
#     4   9  18  32  50  70  99 128 159 205 239 275
#     4   9  15  26  44  66  88 111 150 206 256 291
#
# _framework density 17.747060999999999
#
# number of rings (size 3 to 8) (size 9 to 14) (size 15 to 20)
#    0.000    2.714    1.429    0.643    1.000    2.000 
#    0.000    5.714    0.000    0.000    0.000    2.000 
#    0.000    4.571    0.000    0.000    0.000    0.000 
#
# Total GULP energy -693852.097314 kJ/mol
# GULP energy per Si atom -12390.216023 kJ/mol
# Density = 1.770667 g / cm^3
# Si number density = 17.747061 Si / 1000 Ang^3
#
#
#
# Elastic Constant Matrix: (Units=GPa)
#
#
# Indices 1 2 3 4 5 6 
#
# 1 106.8834 26.4625 69.1186 0.0000 0.0000 0.0000
# 2 26.4625 54.8900 32.4828 0.0000 0.0000 0.0000
# 3 69.1186 32.4828 113.1767 0.0000 0.0000 0.0000
# 4 0.0000 0.0000 0.0000 5.8122 0.0000 0.0000
# 5 0.0000 0.0000 0.0000 0.0000 24.0855 0.0000
# 6 0.0000 0.0000 0.0000 0.0000 0.0000 10.1029
#
#
#
# Elastic Compliance Matrix: (Units=1/GPa)
#
#
# Indices 1 2 3 4 5 6 
#
# 1 0.015696 -0.002282 -0.008931 0.000000 0.000000 0.000000
# 2 -0.002282 0.022277 -0.005000 0.000000 0.000000 0.000000
# 3 -0.008931 -0.005000 0.015725 0.000000 0.000000 0.000000
# 4 0.000000 0.000000 0.000000 0.172053 0.000000 0.000000
# 5 0.000000 0.000000 0.000000 0.000000 0.041519 0.000000
# 6 0.000000 0.000000 0.000000 0.000000 0.000000 0.098982
#
#
# Mechanical properties :
#
#
# Convention : Reuss Voigt Hill
#
# Bulk Modulus (GPa) = 47.00908 59.00864 53.00886
# Shear Modulus (GPa) = 12.32227 17.79254 15.05740
#
# Velocity S-wave (km/s) = 2.63787 3.16976 2.91597
# Velocity P-wave (km/s) = 5.98529 6.83509 6.42426
#
# Compressibility (1/GPa) = 0.02127249
#
# Stress axis : x y z
#
# Youngs Moduli (GPa) = 63.70855 44.88855 63.59231
#
# Poissons Ratio (x) = 0.10244 0.56795
# Poissons Ratio (y) = 0.14539 0.31797
# Poissons Ratio (z) = 0.56899 0.22445
#
# Static dielectric constant tensor:
#      x y z
#    x 3.517860 0.000000 0.000000 
#    y 0.000000 3.187390 0.000000 
#    z 0.000000 0.000000 3.252110 
# 
# 
# High freq. dielectric constant tensor:
#      x y z
#    x 1.678440 0.000000 0.000000 
#    y 0.000000 1.682160 0.000000 
#    z 0.000000 0.000000 1.648440 
# 
# From -- ./inp_files/25832.got.cif
#   From: 2010.03.12/outbox.cif.g09.slc.cpg/sg51_13_cif.got.tgz:25832.got - 2010.04.16 13:43:02.
