data_PCOD8208303
_publ_section_title
;
Structure prediction by ZEFSAII (Michael W. Deem and Ramdas Pophale) SiO2 
 PCOD8208303
Probable space group: P M M A
;
_chemical_formula_sum "Si O2"
_cell_formula_units_Z 52
_cell_length_a 9.028083
_cell_length_b 13.410922
_cell_length_c 23.998081
_cell_angle_alpha 90.000000
_cell_angle_beta 90.000000
_cell_angle_gamma 90.000000
_cell_volume 2905.565663
_symmetry_space_group_name_H-M "P M M A"
_symmetry_group_IT_number 51
_symmetry_cell_setting 'orthorhombic'
loop_
_space_group_symop_operation_xyz
x,y,z
1/2-x,-y,z
1/2+x,-y,-z
-x,y,-z
-x,-y,-z
1/2+x,y,-z
1/2-x,y,z
x,-y,z
loop_
_atom_site_type_symbol
_atom_site_label
_atom_site_fract_x
_atom_site_fract_y
_atom_site_fract_z
Si Si1 0.575676 0.389841 0.347998
Si Si2 0.073642 0.000000 0.440183
Si Si3 0.076616 0.885306 0.942726
Si Si4 0.914299 0.887296 0.257787
Si Si5 0.420975 0.180952 0.621232
Si Si6 0.422319 0.205941 0.160633
Si Si7 0.580580 0.388982 0.767725
O O1 0.750000 0.390686 0.340637
O O2 0.521105 0.500000 0.369864
O O3 0.534750 0.298083 0.390662
O O4 0.512555 0.367693 0.287135
O O5 0.000000 0.000000 0.500000
O O6 0.024844 0.101967 0.409747
O O7 0.250000 0.000000 0.444949
O O8 0.250000 0.867819 0.949182
O O9 0.014830 0.814959 0.894558
O O10 0.039571 0.000000 0.927902
O O11 0.000000 0.853372 0.000000
O O12 0.750000 0.864041 0.233732
O O13 0.945847 0.823520 0.312602
O O14 0.034475 0.869403 0.210041
O O15 0.926003 0.000000 0.278257
O O16 0.250000 0.158212 0.604915
O O17 0.250000 0.192881 0.146929
O O18 0.465014 0.316337 0.181831
O O19 0.750000 0.370263 0.750705
O O20 0.553657 0.500000 0.790509
#
# Coordination Sequence:
#
# PCOD8208303 Si02
#       7
#     8   4   8   8   8   8   8
#     4   9  17  30  52  81 111 146 184 221 266 322
#     4  12  26  42  62  84 110 146 191 230 271 324
#     4  10  21  37  55  73  96 129 168 211 261 316
#     4  10  19  31  47  71 106 144 173 206 259 314
#     4  10  19  35  56  80 114 148 180 223 271 318
#     4  11  21  31  48  74 103 135 174 216 260 311
#     4   9  18  31  46  69 105 143 176 214 260 309
#
# _framework density 17.896685999999999
#
# number of rings (size 3 to 8) (size 9 to 14) (size 15 to 20)
#    0.000    2.000    2.308    2.077    0.000    4.923 
#    0.000    0.000    0.000    0.923    0.000    0.000 
#    0.000    0.000    0.000    0.000    0.000    0.000 
#
# Total GULP energy -644516.151151 kJ/mol
# GULP energy per Si atom -12394.541368 kJ/mol
# Density = 1.785595 g / cm^3
# Si number density = 17.896686 Si / 1000 Ang^3
#
#
#
# Elastic Constant Matrix: (Units=GPa)
#
#
# Indices 1 2 3 4 5 6 
#
# 1 72.5724 50.6510 36.5353 0.0000 0.0000 0.0000
# 2 50.6510 138.2989 50.4775 0.0000 0.0000 0.0000
# 3 36.5353 50.4775 64.8502 0.0000 0.0000 0.0000
# 4 0.0000 0.0000 0.0000 12.5528 0.0000 0.0000
# 5 0.0000 0.0000 0.0000 0.0000 29.7507 0.0000
# 6 0.0000 0.0000 0.0000 0.0000 0.0000 22.4533
#
#
#
# Elastic Compliance Matrix: (Units=1/GPa)
#
#
# Indices 1 2 3 4 5 6 
#
# 1 0.021274 -0.004773 -0.008270 0.000000 0.000000 0.000000
# 2 -0.004773 0.011171 -0.006006 0.000000 0.000000 0.000000
# 3 -0.008270 -0.006006 0.024754 0.000000 0.000000 0.000000
# 4 0.000000 0.000000 0.000000 0.079664 0.000000 0.000000
# 5 0.000000 0.000000 0.000000 0.000000 0.033613 0.000000
# 6 0.000000 0.000000 0.000000 0.000000 0.000000 0.044537
#
#
# Mechanical properties :
#
#
# Convention : Reuss Voigt Hill
#
# Bulk Modulus (GPa) = 52.35392 61.22768 56.79080
# Shear Modulus (GPa) = 19.26943 22.15520 20.71232
#
# Velocity S-wave (km/s) = 3.28488 3.52227 3.40564
# Velocity P-wave (km/s) = 6.61091 7.12936 6.87503
#
# Compressibility (1/GPa) = 0.01910077
#
# Stress axis : x y z
#
# Youngs Moduli (GPa) = 47.00560 89.51790 40.39672
#
# Poissons Ratio (x) = 0.42726 0.33409
# Poissons Ratio (y) = 0.22435 0.24263
# Poissons Ratio (z) = 0.38875 0.53766
#
# Static dielectric constant tensor:
#      x y z
#    x 3.364950 0.000000 0.000000 
#    y 0.000000 3.900550 0.000000 
#    z 0.000000 0.000000 3.030150 
# 
# 
# High freq. dielectric constant tensor:
#      x y z
#    x 1.694440 0.000000 0.000000 
#    y 0.000000 1.705740 0.000000 
#    z 0.000000 0.000000 1.658440 
# 
# From -- ./inp_files/31722.got.cif
#   From: 2010.03.12/outbox.cif.g09.slc.cpg/sg51_16_cif.got.tgz:31722.got - 2010.04.16 13:43:02.
