data_PCOD8208462
_publ_section_title
;
Structure prediction by ZEFSAII (Michael W. Deem and Ramdas Pophale) SiO2 
 PCOD8208462
Probable space group: P M M A
;
_chemical_formula_sum "Si O2"
_cell_formula_units_Z 64
_cell_length_a 17.731875
_cell_length_b 9.140492
_cell_length_c 22.666210
_cell_angle_alpha 90.000000
_cell_angle_beta 90.000000
_cell_angle_gamma 90.000000
_cell_volume 3673.695380
_symmetry_space_group_name_H-M "P M M A"
_symmetry_group_IT_number 51
_symmetry_cell_setting 'orthorhombic'
loop_
_space_group_symop_operation_xyz
x,y,z
1/2-x,-y,z
1/2+x,-y,-z
-x,y,-z
-x,-y,-z
1/2+x,y,-z
1/2-x,y,z
x,-y,z
loop_
_atom_site_type_symbol
_atom_site_label
_atom_site_fract_x
_atom_site_fract_y
_atom_site_fract_z
Si Si1 0.336740 0.829326 0.052143
Si Si2 0.464166 0.329364 0.253486
Si Si3 0.835661 0.164497 0.688936
Si Si4 0.477455 0.827477 0.132171
Si Si5 0.468719 0.332617 0.624717
Si Si6 0.334458 0.332046 0.545685
Si Si7 0.599367 0.168164 0.564982
Si Si8 0.072214 0.336055 0.959074
O O1 0.250000 0.791840 0.070460
O O2 0.395065 0.786484 0.104678
O O3 0.345155 0.000000 0.037232
O O4 0.358357 0.740052 0.993239
O O5 0.465461 0.500000 0.237303
O O6 0.380837 0.284299 0.274156
O O7 0.486052 0.235752 0.197178
O O8 0.521837 0.288531 0.306609
O O9 0.750000 0.183553 0.708089
O O10 0.843295 0.192258 0.619158
O O11 0.864388 0.000000 0.704243
O O12 0.547970 0.759734 0.096955
O O13 0.488194 0.000000 0.133449
O O14 0.494517 0.500000 0.616811
O O15 0.382572 0.307075 0.605305
O O16 0.519233 0.237912 0.580714
O O17 0.250000 0.282818 0.561323
O O18 0.338230 0.500000 0.525529
O O19 0.365169 0.238163 0.492309
O O20 0.584840 0.000000 0.551134
O O21 0.096801 0.500000 0.939908
O O22 0.000000 0.344385 0.000000
#
# Coordination Sequence:
#
# PCOD8208462 Si02
#       8
#     8   8   8   8   8   8   8   8
#     4   9  18  32  50  74 104 134 161 192 235 288
#     4  10  20  33  49  69  93 124 164 208 246 281
#     4   9  18  32  47  64  92 128 160 192 235 290
#     4  10  19  32  51  73  98 132 170 203 239 287
#     4   9  19  35  51  68  94 127 162 201 245 294
#     4  10  20  33  50  71  94 122 156 196 246 301
#     4  10  19  31  49  73  98 124 156 195 241 294
#     4   9  17  30  49  73 100 129 162 200 237 273
#
# _framework density 17.421150000000001
#
# number of rings (size 3 to 8) (size 9 to 14) (size 15 to 20)
#    0.000    2.500    0.000    2.250    0.000    6.750 
#    0.000    1.250    0.000    0.750    0.000    1.750 
#    0.000    0.000    0.000    0.000    0.000    0.000 
#
# Total GULP energy -793506.105808 kJ/mol
# GULP energy per Si atom -12398.532903 kJ/mol
# Density = 1.738150 g / cm^3
# Si number density = 17.421150 Si / 1000 Ang^3
#
#
#
# Elastic Constant Matrix: (Units=GPa)
#
#
# Indices 1 2 3 4 5 6 
#
# 1 83.4528 43.0360 52.4311 0.0000 0.0000 0.0000
# 2 43.0360 87.8164 57.2957 0.0000 0.0000 0.0000
# 3 52.4311 57.2957 99.1497 0.0000 0.0000 0.0000
# 4 0.0000 0.0000 0.0000 32.4376 0.0000 0.0000
# 5 0.0000 0.0000 0.0000 0.0000 10.4584 0.0000
# 6 0.0000 0.0000 0.0000 0.0000 0.0000 19.5093
#
#
#
# Elastic Compliance Matrix: (Units=1/GPa)
#
#
# Indices 1 2 3 4 5 6 
#
# 1 0.018953 -0.004413 -0.007473 0.000000 0.000000 0.000000
# 2 -0.004413 0.019307 -0.008823 0.000000 0.000000 0.000000
# 3 -0.007473 -0.008823 0.019136 0.000000 0.000000 0.000000
# 4 0.000000 0.000000 0.000000 0.030828 0.000000 0.000000
# 5 0.000000 0.000000 0.000000 0.000000 0.095617 0.000000
# 6 0.000000 0.000000 0.000000 0.000000 0.000000 0.051258
#
#
# Mechanical properties :
#
#
# Convention : Reuss Voigt Hill
#
# Bulk Modulus (GPa) = 62.58354 63.99381 63.28867
# Shear Modulus (GPa) = 17.74041 20.32480 19.03260
#
# Velocity S-wave (km/s) = 3.19458 3.41937 3.30888
# Velocity P-wave (km/s) = 7.04337 7.23896 7.14183
#
# Compressibility (1/GPa) = 0.01597864
#
# Stress axis : x y z
#
# Youngs Moduli (GPa) = 52.76114 51.79547 52.25770
#
# Poissons Ratio (x) = 0.22857 0.39050
# Poissons Ratio (y) = 0.23283 0.46108
# Poissons Ratio (z) = 0.39426 0.45700
#
# Static dielectric constant tensor:
#      x y z
#    x 3.234710 0.000000 0.000000 
#    y 0.000000 3.434520 0.000000 
#    z 0.000000 0.000000 3.205270 
# 
# 
# High freq. dielectric constant tensor:
#      x y z
#    x 1.655050 0.000000 0.000000 
#    y 0.000000 1.682550 0.000000 
#    z 0.000000 0.000000 1.661690 
# 
# From -- ./inp_files/35908.got.cif
#   From: 2010.03.12/outbox.cif.g09.slc.cpg/sg51_18_cif.got.tgz:35908.got - 2010.04.16 13:43:02.
