data_PCOD8208940
_publ_section_title
;
Structure prediction by ZEFSAII (Michael W. Deem and Ramdas Pophale) SiO2 
 PCOD8208940
Probable space group: P M M A
;
_chemical_formula_sum "Si O2"
_cell_formula_units_Z 56
_cell_length_a 18.159883
_cell_length_b 9.643509
_cell_length_c 18.174473
_cell_angle_alpha 90.000000
_cell_angle_beta 90.000000
_cell_angle_gamma 90.000000
_cell_volume 3182.804496
_symmetry_space_group_name_H-M "P M M A"
_symmetry_group_IT_number 51
_symmetry_cell_setting 'orthorhombic'
loop_
_space_group_symop_operation_xyz
x,y,z
1/2-x,-y,z
1/2+x,-y,-z
-x,y,-z
-x,-y,-z
1/2+x,y,-z
1/2-x,y,z
x,-y,z
loop_
_atom_site_type_symbol
_atom_site_label
_atom_site_fract_x
_atom_site_fract_y
_atom_site_fract_z
Si Si1 0.163333 0.652021 0.941860
Si Si2 0.426530 0.163516 0.041607
Si Si3 0.913523 0.158176 0.790279
Si Si4 0.023390 0.656763 0.416166
Si Si5 0.836414 0.343039 0.222185
Si Si6 0.444114 0.841985 0.695732
Si Si7 0.165922 0.660463 0.328209
O O1 0.250000 0.643951 0.940007
O O2 0.131758 0.500000 0.963770
O O3 0.135718 0.691957 0.860165
O O4 0.141266 0.767356 0.000154
O O5 0.421350 0.211762 0.126162
O O6 0.418925 0.000000 0.034859
O O7 0.500000 0.215738 0.000000
O O8 0.857197 0.252152 0.743814
O O9 0.995162 0.168721 0.758810
O O10 0.884362 0.000000 0.787131
O O11 0.006584 0.500000 0.389377
O O12 0.109779 0.690191 0.396763
O O13 0.000000 0.673408 0.500000
O O14 0.971900 0.766633 0.376837
O O15 0.750000 0.325121 0.229293
O O16 0.859898 0.500000 0.242908
O O17 0.870957 0.233910 0.277919
O O18 0.425003 0.000000 0.675941
O O19 0.250000 0.700151 0.351405
O O20 0.161998 0.500000 0.305223
#
# Coordination Sequence:
#
# PCOD8208940 Si02
#       7
#     8   8   8   8   8   8   8
#     4   9  19  34  49  67  93 125 162 204 249 295
#     4  10  20  33  48  68  96 128 165 208 251 298
#     4   9  19  33  48  69  97 130 165 202 248 298
#     4   9  18  34  55  77 103 135 167 198 240 296
#     4   9  18  33  51  70  95 128 164 202 245 294
#     4  10  19  32  52  75  99 127 161 202 244 289
#     4   9  18  33  53  76 100 128 166 209 247 288
#
# _framework density 17.594545
#
# number of rings (size 3 to 8) (size 9 to 14) (size 15 to 20)
#    0.000    2.714    0.000    2.143    0.000    4.857 
#    0.000    5.000    0.000    2.571    0.000    0.000 
#    0.000    0.000    0.000    0.000    0.000    0.000 
#
# Total GULP energy -694158.823746 kJ/mol
# GULP energy per Si atom -12395.693281 kJ/mol
# Density = 1.755450 g / cm^3
# Si number density = 17.594545 Si / 1000 Ang^3
#
#
#
# Elastic Constant Matrix: (Units=GPa)
#
#
# Indices 1 2 3 4 5 6 
#
# 1 69.4207 44.8748 56.2977 0.0000 0.0000 0.0000
# 2 44.8748 87.0097 59.7989 0.0000 0.0000 0.0000
# 3 56.2977 59.7989 108.1424 0.0000 0.0000 0.0000
# 4 0.0000 0.0000 0.0000 26.3304 0.0000 0.0000
# 5 0.0000 0.0000 0.0000 0.0000 22.4414 0.0000
# 6 0.0000 0.0000 0.0000 0.0000 0.0000 27.9140
#
#
#
# Elastic Compliance Matrix: (Units=1/GPa)
#
#
# Indices 1 2 3 4 5 6 
#
# 1 0.027314 -0.006959 -0.010371 0.000000 0.000000 0.000000
# 2 -0.006959 0.020311 -0.007608 0.000000 0.000000 0.000000
# 3 -0.010371 -0.007608 0.018853 0.000000 0.000000 0.000000
# 4 0.000000 0.000000 0.000000 0.037979 0.000000 0.000000
# 5 0.000000 0.000000 0.000000 0.000000 0.044560 0.000000
# 6 0.000000 0.000000 0.000000 0.000000 0.000000 0.035824
#
#
# Mechanical properties :
#
#
# Convention : Reuss Voigt Hill
#
# Bulk Modulus (GPa) = 60.23778 65.16841 62.70310
# Shear Modulus (GPa) = 20.81127 22.24392 21.52759
#
# Velocity S-wave (km/s) = 3.44295 3.55949 3.50171
# Velocity P-wave (km/s) = 7.07928 7.34933 7.21557
#
# Compressibility (1/GPa) = 0.01660088
#
# Stress axis : x y z
#
# Youngs Moduli (GPa) = 36.61084 49.23373 53.04089
#
# Poissons Ratio (x) = 0.34264 0.55010
# Poissons Ratio (y) = 0.25479 0.40356
# Poissons Ratio (z) = 0.37970 0.37459
#
# Static dielectric constant tensor:
#      x y z
#    x 3.176960 0.000000 0.000000 
#    y 0.000000 3.380980 0.000000 
#    z 0.000000 0.000000 3.232950 
# 
# 
# High freq. dielectric constant tensor:
#      x y z
#    x 1.673380 0.000000 0.000000 
#    y 0.000000 1.684630 0.000000 
#    z 0.000000 0.000000 1.669320 
# 
# From -- ./inp_files/30387.got.cif
#   From: 2010.03.12/outbox.cif.g09.slc.cpg/sg51_16_cif.got.tgz:30387.got - 2010.04.16 13:43:02.
