data_PCOD8208435
_publ_section_title
;
Structure prediction by ZEFSAII (Michael W. Deem and Ramdas Pophale) SiO2 
 PCOD8208435
Probable space group: P M M A
;
_chemical_formula_sum "Si O2"
_cell_formula_units_Z 56
_cell_length_a 19.571989
_cell_length_b 9.367751
_cell_length_c 17.604034
_cell_angle_alpha 90.000000
_cell_angle_beta 90.000000
_cell_angle_gamma 90.000000
_cell_volume 3227.620759
_symmetry_space_group_name_H-M "P M M A"
_symmetry_group_IT_number 51
_symmetry_cell_setting 'orthorhombic'
loop_
_space_group_symop_operation_xyz
x,y,z
1/2-x,-y,z
1/2+x,-y,-z
-x,y,-z
-x,-y,-z
1/2+x,y,-z
1/2-x,y,z
x,-y,z
loop_
_atom_site_type_symbol
_atom_site_label
_atom_site_fract_x
_atom_site_fract_y
_atom_site_fract_z
Si Si1 0.404715 0.333295 0.275799
Si Si2 0.827306 0.335550 0.573898
Si Si3 0.462667 0.836623 0.694920
Si Si4 0.827267 0.169644 0.019585
Si Si5 0.566575 0.165355 0.139370
Si Si6 0.088119 0.830726 0.127627
Si Si7 0.073007 0.164140 0.528856
O O1 0.413666 0.500000 0.257112
O O2 0.348393 0.304623 0.339678
O O3 0.474945 0.271844 0.308831
O O4 0.381089 0.249257 0.200701
O O5 0.750000 0.286581 0.565556
O O6 0.838517 0.500000 0.554194
O O7 0.867930 0.248698 0.511603
O O8 0.418608 0.805664 0.771232
O O9 0.417774 0.813742 0.619558
O O10 0.490591 0.000000 0.698208
O O11 0.750000 0.233043 0.022185
O O12 0.865576 0.216879 0.942862
O O13 0.822886 0.000000 0.024219
O O14 0.872551 0.234827 0.089188
O O15 0.490725 0.221248 0.116447
O O16 0.567618 0.000000 0.119225
O O17 0.090817 0.000000 0.141659
O O18 0.000000 0.222483 0.500000
O O19 0.080194 0.000000 0.505423
#
# Coordination Sequence:
#
# PCOD8208435 Si02
#       7
#     8   8   8   8   8   8   8
#     4  10  19  31  49  72  96 125 163 203 243 289
#     4  10  22  37  50  69 101 138 172 204 244 299
#     4   9  17  31  51  75  99 124 157 200 250 298
#     4   9  16  26  43  69  95 120 157 200 237 280
#     4   8  14  26  45  67  93 123 154 190 237 286
#     4   9  17  29  47  69  95 124 155 194 243 292
#     4  10  19  32  53  78 103 128 163 211 257 299
#
# _framework density 17.350242999999999
#
# number of rings (size 3 to 8) (size 9 to 14) (size 15 to 20)
#    0.000    2.714    1.429    1.714    0.000    4.000 
#    0.000    0.714    0.000    9.429    0.000    0.000 
#    0.000    0.000    0.000    0.000    0.000    0.000 
#
# Total GULP energy -694140.089012 kJ/mol
# GULP energy per Si atom -12395.358732 kJ/mol
# Density = 1.731075 g / cm^3
# Si number density = 17.350243 Si / 1000 Ang^3
#
#
#
# Elastic Constant Matrix: (Units=GPa)
#
#
# Indices 1 2 3 4 5 6 
#
# 1 125.6893 37.0793 90.8346 0.0000 0.0000 0.0000
# 2 37.0793 45.1357 46.6431 0.0000 0.0000 0.0000
# 3 90.8346 46.6431 149.0783 0.0000 0.0000 0.0000
# 4 0.0000 0.0000 0.0000 15.9154 0.0000 0.0000
# 5 0.0000 0.0000 0.0000 0.0000 24.4274 0.0000
# 6 0.0000 0.0000 0.0000 0.0000 0.0000 17.3697
#
#
#
# Elastic Compliance Matrix: (Units=1/GPa)
#
#
# Indices 1 2 3 4 5 6 
#
# 1 0.014730 -0.004176 -0.007669 0.000000 0.000000 0.000000
# 2 -0.004176 0.033926 -0.008070 0.000000 0.000000 0.000000
# 3 -0.007669 -0.008070 0.013905 0.000000 0.000000 0.000000
# 4 0.000000 0.000000 0.000000 0.062832 0.000000 0.000000
# 5 0.000000 0.000000 0.000000 0.000000 0.040938 0.000000
# 6 0.000000 0.000000 0.000000 0.000000 0.000000 0.057572
#
#
# Mechanical properties :
#
#
# Convention : Reuss Voigt Hill
#
# Bulk Modulus (GPa) = 43.99153 74.33526 59.16339
# Shear Modulus (GPa) = 18.42914 21.23223 19.83068
#
# Velocity S-wave (km/s) = 3.26265 3.50200 3.38444
# Velocity P-wave (km/s) = 6.29311 7.69993 7.03179
#
# Compressibility (1/GPa) = 0.02273165
#
# Stress axis : x y z
#
# Youngs Moduli (GPa) = 67.88801 29.47621 71.91509
#
# Poissons Ratio (x) = 0.12310 0.55148
# Poissons Ratio (y) = 0.28352 0.58035
# Poissons Ratio (z) = 0.52060 0.23787
#
# Static dielectric constant tensor:
#      x y z
#    x 3.235830 0.000000 0.000000 
#    y 0.000000 2.940290 0.000000 
#    z 0.000000 0.000000 3.459810 
# 
# 
# High freq. dielectric constant tensor:
#      x y z
#    x 1.651620 0.000000 0.000000 
#    y 0.000000 1.635650 0.000000 
#    z 0.000000 0.000000 1.685950 
# 
# From -- ./inp_files/30370.got.cif
#   From: 2010.03.12/outbox.cif.g09.slc.cpg/sg51_16_cif.got.tgz:30370.got - 2010.04.16 13:43:02.
