data_PCOD8208496
_publ_section_title
;
Structure prediction by ZEFSAII (Michael W. Deem and Ramdas Pophale) SiO2 
 PCOD8208496
Probable space group: P M M A
;
_chemical_formula_sum "Si O2"
_cell_formula_units_Z 48
_cell_length_a 16.274346
_cell_length_b 9.788733
_cell_length_c 16.378620
_cell_angle_alpha 90.000000
_cell_angle_beta 90.000000
_cell_angle_gamma 90.000000
_cell_volume 2609.199789
_symmetry_space_group_name_H-M "P M M A"
_symmetry_group_IT_number 51
_symmetry_cell_setting 'orthorhombic'
loop_
_space_group_symop_operation_xyz
x,y,z
1/2-x,-y,z
1/2+x,-y,-z
-x,y,-z
-x,-y,-z
1/2+x,y,-z
1/2-x,y,z
x,-y,z
loop_
_atom_site_type_symbol
_atom_site_label
_atom_site_fract_x
_atom_site_fract_y
_atom_site_fract_z
Si Si1 0.398210 0.342984 0.320402
Si Si2 0.654785 0.840588 0.538786
Si Si3 0.846384 0.149156 0.357441
Si Si4 0.250000 0.661766 0.210434
Si Si5 0.428990 0.656188 0.764951
Si Si6 0.920914 0.337614 0.049671
Si Si7 0.750000 0.336953 0.972421
O O1 0.381681 0.500000 0.345742
O O2 0.400228 0.250479 0.400968
O O3 0.329402 0.286553 0.258905
O O4 0.481882 0.326481 0.272329
O O5 0.750000 0.799047 0.549734
O O6 0.622197 0.806699 0.447482
O O7 0.641995 0.000000 0.558652
O O8 0.750000 0.134401 0.365169
O O9 0.865932 0.258314 0.288590
O O10 0.883663 0.000000 0.334432
O O11 0.250000 0.500000 0.203125
O O12 0.250000 0.722727 0.119345
O O13 0.398990 0.500000 0.763058
O O14 0.429192 0.712080 0.857149
O O15 0.922559 0.500000 0.043798
O O16 0.833479 0.282143 0.015495
O O17 0.000000 0.279227 0.000000
O O18 0.750000 0.500000 0.973723
#
# Coordination Sequence:
#
# PCOD8208496 Si02
#       7
#     8   8   8   4   8   8   4
#     4  10  19  31  49  76 108 138 166 206 263 313
#     4   9  18  34  54  75  99 132 177 220 255 301
#     4   9  20  38  56  73  99 138 179 216 258 309
#     4   9  16  28  47  72 103 136 170 205 251 311
#     4  10  21  33  50  79 110 136 169 216 262 306
#     4   9  17  30  47  72 107 137 167 212 258 303
#     4   9  16  26  46  70  95 136 174 201 251 311
#
# _framework density 18.396446000000001
#
# number of rings (size 3 to 8) (size 9 to 14) (size 15 to 20)
#    0.000    2.667    0.833    2.000    1.167    6.333 
#    0.000    5.000    0.000    0.500    0.000    2.333 
#    0.000    0.000    0.000    0.000    0.000    0.000 
#
# Total GULP energy -595078.727937 kJ/mol
# GULP energy per Si atom -12397.473499 kJ/mol
# Density = 1.835457 g / cm^3
# Si number density = 18.396446 Si / 1000 Ang^3
#
#
#
# Elastic Constant Matrix: (Units=GPa)
#
#
# Indices 1 2 3 4 5 6 
#
# 1 73.5738 21.3406 48.0976 0.0000 0.0000 0.0000
# 2 21.3406 46.7796 56.5771 0.0000 0.0000 0.0000
# 3 48.0976 56.5771 167.9244 0.0000 0.0000 0.0000
# 4 0.0000 0.0000 0.0000 -0.4275 0.0000 0.0000
# 5 0.0000 0.0000 0.0000 0.0000 29.5951 0.0000
# 6 0.0000 0.0000 0.0000 0.0000 0.0000 14.8385
#
#
#
# Elastic Compliance Matrix: (Units=1/GPa)
#
#
# Indices 1 2 3 4 5 6 
#
# 1 0.016994 -0.003149 -0.003807 0.000000 0.000000 0.000000
# 2 -0.003149 0.036661 -0.011450 0.000000 0.000000 0.000000
# 3 -0.003807 -0.011450 0.010903 0.000000 0.000000 0.000000
# 4 0.000000 0.000000 0.000000 -2.338994 0.000000 0.000000
# 5 0.000000 0.000000 0.000000 0.000000 0.033789 0.000000
# 6 0.000000 0.000000 0.000000 0.000000 0.000000 0.067392
#
#
# Mechanical properties :
#
#
# Convention : Reuss Voigt Hill
#
# Bulk Modulus (GPa) = 36.03915 60.03428 48.03671
# Shear Modulus (GPa) = -2.35051 19.61870 8.63409
#
# Velocity S-wave (km/s) = -1.13158 3.26918 2.16876
# Velocity P-wave (km/s) = 4.23385 6.85234 5.69561
#
# Compressibility (1/GPa) = 0.02774760
#
# Stress axis : x y z
#
# Youngs Moduli (GPa) = 58.84596 27.27659 91.71669
#
# Poissons Ratio (x) = 0.08588 0.34912
# Poissons Ratio (y) = 0.18528 1.05017
# Poissons Ratio (z) = 0.22400 0.31232
#
# Static dielectric constant tensor:
#      x y z
#    x 3.439400 0.000000 0.000000 
#    y 0.000000 3.021790 0.000000 
#    z 0.000000 0.000000 3.607000 
# 
# 
# High freq. dielectric constant tensor:
#      x y z
#    x 1.716160 0.000000 0.000000 
#    y 0.000000 1.665390 0.000000 
#    z 0.000000 0.000000 1.725720 
# 
# From -- ./inp_files/29644.got.cif
#   From: 2010.03.12/outbox.cif.g09.slc.cpg/sg51_15_cif.got.tgz:29644.got - 2010.04.16 13:43:02.
