data_PCOD8208925
_publ_section_title
;
Structure prediction by ZEFSAII (Michael W. Deem and Ramdas Pophale) SiO2 
 PCOD8208925
Probable space group: P M M A
;
_chemical_formula_sum "Si O2"
_cell_formula_units_Z 56
_cell_length_a 24.357615
_cell_length_b 8.933499
_cell_length_c 14.925235
_cell_angle_alpha 90.000000
_cell_angle_beta 90.000000
_cell_angle_gamma 90.000000
_cell_volume 3247.712170
_symmetry_space_group_name_H-M "P M M A"
_symmetry_group_IT_number 51
_symmetry_cell_setting 'orthorhombic'
loop_
_space_group_symop_operation_xyz
x,y,z
1/2-x,-y,z
1/2+x,-y,-z
-x,y,-z
-x,-y,-z
1/2+x,y,-z
1/2-x,y,z
x,-y,z
loop_
_atom_site_type_symbol
_atom_site_label
_atom_site_fract_x
_atom_site_fract_y
_atom_site_fract_z
Si Si1 0.433685 0.825713 0.867872
Si Si2 0.130898 0.323855 0.027989
Si Si3 0.250000 0.677453 0.784806
Si Si4 0.537047 0.676731 0.626089
Si Si5 0.355548 0.826134 0.704936
Si Si6 0.580542 0.322769 0.442383
Si Si7 0.750000 0.323307 0.013766
Si Si8 0.954346 0.676596 0.824463
O O1 0.405648 0.793536 0.772442
O O2 0.493203 0.750497 0.871087
O O3 0.441093 0.000000 0.886359
O O4 0.395728 0.758595 0.944511
O O5 0.126927 0.500000 0.008785
O O6 0.194555 0.270817 0.037410
O O7 0.099806 0.280438 0.119450
O O8 0.250000 0.500000 0.784223
O O9 0.303112 0.734484 0.734339
O O10 0.250000 0.742732 0.885685
O O11 0.535339 0.500000 0.628919
O O12 0.476385 0.732829 0.601531
O O13 0.579849 0.723934 0.547832
O O14 0.554665 0.739756 0.723466
O O15 0.371253 0.767469 0.606255
O O16 0.340547 0.000000 0.700996
O O17 0.589336 0.500000 0.430053
O O18 0.750000 0.500000 0.020351
O O19 0.964696 0.500000 0.823958
#
# Coordination Sequence:
#
# PCOD8208925 Si02
#       8
#     8   8   4   8   8   8   4   8
#     4  11  22  33  47  71 106 138 163 202 254 307
#     4  10  20  34  52  72  96 131 171 212 252 301
#     4  11  21  35  57  74  93 132 174 213 249 299
#     4   8  15  28  49  76 100 128 166 210 249 291
#     4  11  22  34  49  75 107 135 165 208 256 303
#     4   9  16  30  52  73  98 133 170 204 247 300
#     4   9  18  33  51  72  95 122 166 211 247 287
#     4  10  19  32  52  75 101 133 171 210 254 301
#
# _framework density 17.242906999999999
#
# number of rings (size 3 to 8) (size 9 to 14) (size 15 to 20)
#    0.000    2.143    2.857    2.357    0.000    3.429 
#    0.000    2.500    0.000    0.857    0.000    4.000 
#    0.000    0.000    0.000    0.000    0.000    0.000 
#
# Total GULP energy -694261.841644 kJ/mol
# GULP energy per Si atom -12397.532886 kJ/mol
# Density = 1.720366 g / cm^3
# Si number density = 17.242907 Si / 1000 Ang^3
#
#
#
# Elastic Constant Matrix: (Units=GPa)
#
#
# Indices 1 2 3 4 5 6 
#
# 1 126.5564 32.9486 56.5684 0.0000 0.0000 0.0000
# 2 32.9486 46.6000 25.5756 0.0000 0.0000 0.0000
# 3 56.5684 25.5756 95.1360 0.0000 0.0000 0.0000
# 4 0.0000 0.0000 0.0000 16.1583 0.0000 0.0000
# 5 0.0000 0.0000 0.0000 0.0000 36.5136 0.0000
# 6 0.0000 0.0000 0.0000 0.0000 0.0000 7.8009
#
#
#
# Elastic Compliance Matrix: (Units=1/GPa)
#
#
# Indices 1 2 3 4 5 6 
#
# 1 0.011765 -0.005254 -0.005583 0.000000 0.000000 0.000000
# 2 -0.005254 0.027520 -0.004274 0.000000 0.000000 0.000000
# 3 -0.005583 -0.004274 0.014980 0.000000 0.000000 0.000000
# 4 0.000000 0.000000 0.000000 0.061888 0.000000 0.000000
# 5 0.000000 0.000000 0.000000 0.000000 0.027387 0.000000
# 6 0.000000 0.000000 0.000000 0.000000 0.000000 0.128190
#
#
# Mechanical properties :
#
#
# Convention : Reuss Voigt Hill
#
# Bulk Modulus (GPa) = 41.59339 55.38641 48.48990
# Shear Modulus (GPa) = 16.13079 22.30790 19.21934
#
# Velocity S-wave (km/s) = 3.06192 3.60077 3.34222
# Velocity P-wave (km/s) = 6.05598 7.03409 6.56328
#
# Compressibility (1/GPa) = 0.02404228
#
# Stress axis : x y z
#
# Youngs Moduli (GPa) = 84.99720 36.33714 66.75584
#
# Poissons Ratio (x) = 0.19093 0.37270
# Poissons Ratio (y) = 0.44661 0.28531
# Poissons Ratio (z) = 0.47454 0.15530
#
# Static dielectric constant tensor:
#      x y z
#    x 3.161130 0.000000 0.000000 
#    y 0.000000 3.008110 0.000000 
#    z 0.000000 0.000000 3.612890 
# 
# 
# High freq. dielectric constant tensor:
#      x y z
#    x 1.652520 0.000000 0.000000 
#    y 0.000000 1.646850 0.000000 
#    z 0.000000 0.000000 1.666300 
# 
# From -- ./inp_files/25848.got.cif
#   From: 2010.03.12/outbox.cif.g09.slc.cpg/sg51_13_cif.got.tgz:25848.got - 2010.04.16 13:43:02.
