data_PCOD8208656
_publ_section_title
;
Structure prediction by ZEFSAII (Michael W. Deem and Ramdas Pophale) SiO2 
 PCOD8208656
Probable space group: P M M A
;
_chemical_formula_sum "Si O2"
_cell_formula_units_Z 64
_cell_length_a 9.187758
_cell_length_b 19.848908
_cell_length_c 19.710271
_cell_angle_alpha 90.000000
_cell_angle_beta 90.000000
_cell_angle_gamma 90.000000
_cell_volume 3594.502267
_symmetry_space_group_name_H-M "P M M A"
_symmetry_group_IT_number 51
_symmetry_cell_setting 'orthorhombic'
loop_
_space_group_symop_operation_xyz
x,y,z
1/2-x,-y,z
1/2+x,-y,-z
-x,y,-z
-x,-y,-z
1/2+x,y,-z
1/2-x,y,z
x,-y,z
loop_
_atom_site_type_symbol
_atom_site_label
_atom_site_fract_x
_atom_site_fract_y
_atom_site_fract_z
Si Si1 0.413722 0.602777 0.064512
Si Si2 0.580203 0.296073 0.246786
Si Si3 0.918824 0.889993 0.933838
Si Si4 0.413626 0.745383 0.116104
Si Si5 0.087092 0.074329 0.805112
Si Si6 0.580230 0.163420 0.319526
Si Si7 0.579334 0.574714 0.785099
Si Si8 0.420685 0.076592 0.429241
O O1 0.250000 0.576773 0.055948
O O2 0.424990 0.683504 0.064189
O O3 0.475945 0.576352 0.136690
O O4 0.500000 0.573323 0.000000
O O5 0.750000 0.310417 0.238935
O O6 0.524866 0.262039 0.177849
O O7 0.551333 0.243692 0.308914
O O8 0.501419 0.368159 0.259610
O O9 0.750000 0.906802 0.941322
O O10 0.952438 0.810911 0.926833
O O11 0.979033 0.927488 0.868229
O O12 0.000000 0.917911 0.000000
O O13 0.250000 0.749795 0.146560
O O14 0.250000 0.094309 0.829203
O O15 0.030919 0.126697 0.749396
O O16 0.086705 0.000000 0.772122
O O17 0.750000 0.149210 0.334977
O O18 0.483012 0.133232 0.379158
O O19 0.750000 0.591978 0.783582
O O20 0.547612 0.500000 0.755148
O O21 0.500000 0.087618 0.500000
O O22 0.250000 0.089564 0.438900
O O23 0.449269 0.000000 0.402729
#
# Coordination Sequence:
#
# PCOD8208656 Si02
#       8
#     8   8   8   8   8   8   8   8
#     4   9  17  28  42  62  86 114 152 195 246 308
#     4  10  19  31  52  78 101 126 164 214 259 303
#     4  11  22  34  50  68  90 120 160 213 270 325
#     4   9  18  32  47  65  90 121 155 199 256 317
#     4  10  21  37  54  71  95 129 168 211 261 316
#     4  10  20  35  56  81 109 141 175 216 263 308
#     4   9  19  35  50  65  94 133 167 205 258 317
#     4  10  21  36  56  84 118 155 190 221 255 300
#
# _framework density 17.804969
#
# number of rings (size 3 to 8) (size 9 to 14) (size 15 to 20)
#    0.000    2.250    1.250    2.625    0.000    6.250 
#    0.000    0.000    0.000    0.000    0.000    0.000 
#    0.000    0.500    0.000    1.625    0.000    2.375 
#
# Total GULP energy -793411.210065 kJ/mol
# GULP energy per Si atom -12397.050157 kJ/mol
# Density = 1.776444 g / cm^3
# Si number density = 17.804969 Si / 1000 Ang^3
#
#
#
# Elastic Constant Matrix: (Units=GPa)
#
#
# Indices 1 2 3 4 5 6 
#
# 1 92.7113 46.4432 46.8200 0.0000 0.0000 0.0000
# 2 46.4432 107.6074 38.1341 0.0000 0.0000 0.0000
# 3 46.8200 38.1341 69.9678 0.0000 0.0000 0.0000
# 4 0.0000 0.0000 0.0000 13.8157 0.0000 0.0000
# 5 0.0000 0.0000 0.0000 0.0000 29.1124 0.0000
# 6 0.0000 0.0000 0.0000 0.0000 0.0000 21.8712
#
#
#
# Elastic Compliance Matrix: (Units=1/GPa)
#
#
# Indices 1 2 3 4 5 6 
#
# 1 0.017750 -0.004278 -0.009546 0.000000 0.000000 0.000000
# 2 -0.004278 0.012549 -0.003977 0.000000 0.000000 0.000000
# 3 -0.009546 -0.003977 0.022848 0.000000 0.000000 0.000000
# 4 0.000000 0.000000 0.000000 0.072381 0.000000 0.000000
# 5 0.000000 0.000000 0.000000 0.000000 0.034350 0.000000
# 6 0.000000 0.000000 0.000000 0.000000 0.000000 0.045722
#
#
# Mechanical properties :
#
#
# Convention : Reuss Voigt Hill
#
# Bulk Modulus (GPa) = 56.99683 59.23124 58.11404
# Shear Modulus (GPa) = 20.23886 22.21913 21.22899
#
# Velocity S-wave (km/s) = 3.37515 3.53642 3.45673
# Velocity P-wave (km/s) = 6.87533 7.07205 6.97438
#
# Compressibility (1/GPa) = 0.01754483
#
# Stress axis : x y z
#
# Youngs Moduli (GPa) = 56.33786 79.68990 43.76821
#
# Poissons Ratio (x) = 0.34091 0.41782
# Poissons Ratio (y) = 0.24101 0.17405
# Poissons Ratio (z) = 0.53781 0.31690
#
# Static dielectric constant tensor:
#      x y z
#    x 3.309880 0.000000 0.000000 
#    y 0.000000 3.454000 0.000000 
#    z 0.000000 0.000000 2.888240 
# 
# 
# High freq. dielectric constant tensor:
#      x y z
#    x 1.692080 0.000000 0.000000 
#    y 0.000000 1.696400 0.000000 
#    z 0.000000 0.000000 1.638220 
# 
# From -- ./inp_files/28375.got.cif
#   From: 2010.03.12/outbox.cif.g09.slc.cpg/sg51_15_cif.got.tgz:28375.got - 2010.04.16 13:43:02.
