data_PCOD8208300
_publ_section_title
;
Structure prediction by ZEFSAII (Michael W. Deem and Ramdas Pophale) SiO2 
 PCOD8208300
Probable space group: P M M A
;
_chemical_formula_sum "Si O2"
_cell_formula_units_Z 56
_cell_length_a 17.620927
_cell_length_b 9.519545
_cell_length_c 19.277111
_cell_angle_alpha 90.000000
_cell_angle_beta 90.000000
_cell_angle_gamma 90.000000
_cell_volume 3233.604431
_symmetry_space_group_name_H-M "P M M A"
_symmetry_group_IT_number 51
_symmetry_cell_setting 'orthorhombic'
loop_
_space_group_symop_operation_xyz
x,y,z
1/2-x,-y,z
1/2+x,-y,-z
-x,y,-z
-x,-y,-z
1/2+x,y,-z
1/2-x,y,z
x,-y,z
loop_
_atom_site_type_symbol
_atom_site_label
_atom_site_fract_x
_atom_site_fract_y
_atom_site_fract_z
Si Si1 0.335970 0.164826 0.664169
Si Si2 0.970921 0.337899 0.296302
Si Si3 0.837486 0.845575 0.492821
Si Si4 0.428900 0.841130 0.949693
Si Si5 0.447491 0.338570 0.434084
Si Si6 0.662990 0.337025 0.948157
Si Si7 0.024132 0.660841 0.147222
O O1 0.250000 0.199941 0.687157
O O2 0.393254 0.250536 0.713182
O O3 0.349531 0.214267 0.584830
O O4 0.351545 0.000000 0.671793
O O5 0.948237 0.500000 0.306243
O O6 0.014836 0.280691 0.363814
O O7 0.025421 0.316503 0.229959
O O8 0.750000 0.857568 0.509821
O O9 0.870929 0.745540 0.551775
O O10 0.875125 0.000000 0.498101
O O11 0.456433 0.758098 0.881724
O O12 0.402913 0.000000 0.930685
O O13 0.500000 0.845042 0.000000
O O14 0.359563 0.758376 0.985863
O O15 0.500000 0.310519 0.500000
O O16 0.425821 0.500000 0.425093
O O17 0.750000 0.303184 0.926757
O O18 0.654258 0.500000 0.969412
O O19 0.607298 0.300568 0.883475
O O20 0.004159 0.500000 0.128071
#
# Coordination Sequence:
#
# PCOD8208300 Si02
#       7
#     8   8   8   8   8   8   8
#     4   9  18  32  49  69  92 120 159 207 256 304
#     4  10  20  33  49  72 101 134 169 206 249 298
#     4   9  18  32  49  69  92 120 160 209 257 304
#     4   9  17  30  50  75 100 125 157 196 238 284
#     4  10  19  31  47  71 100 127 163 210 255 302
#     4   9  17  31  53  78 101 130 167 203 240 285
#     4   9  18  33  51  72 102 136 169 204 242 289
#
# _framework density 17.318135000000002
#
# number of rings (size 3 to 8) (size 9 to 14) (size 15 to 20)
#    0.000    2.714    1.429    1.286    0.000    4.000 
#    0.000    2.857    0.000    3.429    0.000    0.000 
#    0.000    0.000    0.000    0.000    0.000    0.000 
#
# Total GULP energy -694237.627996 kJ/mol
# GULP energy per Si atom -12397.100500 kJ/mol
# Density = 1.727872 g / cm^3
# Si number density = 17.318135 Si / 1000 Ang^3
#
#
#
# Elastic Constant Matrix: (Units=GPa)
#
#
# Indices 1 2 3 4 5 6 
#
# 1 94.3934 45.8620 43.4062 0.0000 0.0000 0.0000
# 2 45.8620 68.2587 36.4490 0.0000 0.0000 0.0000
# 3 43.4062 36.4490 86.3077 0.0000 0.0000 0.0000
# 4 0.0000 0.0000 0.0000 18.6959 0.0000 0.0000
# 5 0.0000 0.0000 0.0000 0.0000 23.1622 0.0000
# 6 0.0000 0.0000 0.0000 0.0000 0.0000 92.1210
#
#
#
# Elastic Compliance Matrix: (Units=1/GPa)
#
#
# Indices 1 2 3 4 5 6 
#
# 1 0.017174 -0.008944 -0.004860 0.000000 0.000000 0.000000
# 2 -0.008944 0.023574 -0.005457 0.000000 0.000000 0.000000
# 3 -0.004860 -0.005457 0.016336 0.000000 0.000000 0.000000
# 4 0.000000 0.000000 0.000000 0.053488 0.000000 0.000000
# 5 0.000000 0.000000 0.000000 0.000000 0.043174 0.000000
# 6 0.000000 0.000000 0.000000 0.000000 0.000000 0.010855
#
#
# Mechanical properties :
#
#
# Convention : Reuss Voigt Hill
#
# Bulk Modulus (GPa) = 53.87814 55.59936 54.73875
# Shear Modulus (GPa) = 23.88797 35.01199 29.44998
#
# Velocity S-wave (km/s) = 3.71800 4.50120 4.12822
# Velocity P-wave (km/s) = 7.04342 7.69343 7.37559
#
# Compressibility (1/GPa) = 0.01856040
#
# Stress axis : x y z
#
# Youngs Moduli (GPa) = 58.22607 42.42039 61.21633
#
# Poissons Ratio (x) = 0.37941 0.29753
# Poissons Ratio (y) = 0.52077 0.33408
# Poissons Ratio (z) = 0.28299 0.23150
#
# Static dielectric constant tensor:
#      x y z
#    x 3.120970 0.000000 0.000000 
#    y 0.000000 3.303990 0.000000 
#    z 0.000000 0.000000 3.093460 
# 
# 
# High freq. dielectric constant tensor:
#      x y z
#    x 1.656440 0.000000 0.000000 
#    y 0.000000 1.669940 0.000000 
#    z 0.000000 0.000000 1.648600 
# 
# From -- ./inp_files/33676.got.cif
#   From: 2010.03.12/outbox.cif.g09.slc.cpg/sg51_17_cif.got.tgz:33676.got - 2010.04.16 13:43:02.
