data_PCOD8208837
_publ_section_title
;
Structure prediction by ZEFSAII (Michael W. Deem and Ramdas Pophale) SiO2 
 PCOD8208837
Probable space group: P M M A
;
_chemical_formula_sum "Si O2"
_cell_formula_units_Z 48
_cell_length_a 18.486063
_cell_length_b 9.117937
_cell_length_c 15.427829
_cell_angle_alpha 90.000000
_cell_angle_beta 90.000000
_cell_angle_gamma 90.000000
_cell_volume 2600.433981
_symmetry_space_group_name_H-M "P M M A"
_symmetry_group_IT_number 51
_symmetry_cell_setting 'orthorhombic'
loop_
_space_group_symop_operation_xyz
x,y,z
1/2-x,-y,z
1/2+x,-y,-z
-x,y,-z
-x,-y,-z
1/2+x,y,-z
1/2-x,y,z
x,-y,z
loop_
_atom_site_type_symbol
_atom_site_label
_atom_site_fract_x
_atom_site_fract_y
_atom_site_fract_z
Si Si1 0.086373 0.335646 0.503637
Si Si2 0.081619 0.835813 0.669643
Si Si3 0.432345 0.671617 0.841154
Si Si4 0.909995 0.161908 0.659919
Si Si5 0.417382 0.826554 0.148809
Si Si6 0.666433 0.332739 0.995658
O O1 0.115792 0.500000 0.513586
O O2 0.115410 0.241935 0.584970
O O3 0.119016 0.270473 0.414317
O O4 0.000000 0.333267 0.500000
O O5 0.101350 0.743233 0.754873
O O6 0.996161 0.842913 0.659160
O O7 0.113703 0.000000 0.677560
O O8 0.445141 0.500000 0.824286
O O9 0.507678 0.744040 0.869522
O O10 0.375852 0.702839 0.916797
O O11 0.885985 0.214333 0.755804
O O12 0.879207 0.000000 0.639777
O O13 0.431843 0.000000 0.142367
O O14 0.358419 0.776163 0.079789
O O15 0.750000 0.303534 0.014813
O O16 0.652114 0.500000 0.966152
#
# Coordination Sequence:
#
# PCOD8208837 Si02
#       6
#     8   8   8   8   8   8
#     4   9  15  22  36  61  92 125 159 193 231 279
#     4   9  16  26  41  63  94 128 159 195 239 285
#     4  10  19  32  51  73  98 129 165 204 245 290
#     4   8  15  26  39  60  92 126 156 190 235 282
#     4  10  20  33  51  75 101 129 163 203 246 292
#     4  10  22  38  53  71  97 129 164 203 248 295
#
# _framework density 18.458456999999999
#
# number of rings (size 3 to 8) (size 9 to 14) (size 15 to 20)
#    0.000    2.667    0.000    3.500    0.000   10.333 
#    0.000    0.000    0.000    0.000    0.000    1.167 
#    0.000    6.667    0.000    0.000    0.000    0.000 
#
# Total GULP energy -595131.429234 kJ/mol
# GULP energy per Si atom -12398.571442 kJ/mol
# Density = 1.841644 g / cm^3
# Si number density = 18.458457 Si / 1000 Ang^3
#
#
#
# Elastic Constant Matrix: (Units=GPa)
#
#
# Indices 1 2 3 4 5 6 
#
# 1 29.4880 19.1681 28.8654 0.0000 0.0000 0.0000
# 2 19.1681 125.3641 75.3279 0.0000 0.0000 0.0000
# 3 28.8654 75.3279 146.4690 0.0000 0.0000 0.0000
# 4 0.0000 0.0000 0.0000 38.5686 0.0000 0.0000
# 5 0.0000 0.0000 0.0000 0.0000 -0.2597 0.0000
# 6 0.0000 0.0000 0.0000 0.0000 0.0000 9.3454
#
#
#
# Elastic Compliance Matrix: (Units=1/GPa)
#
#
# Indices 1 2 3 4 5 6 
#
# 1 0.042402 -0.002116 -0.007268 0.000000 0.000000 0.000000
# 2 -0.002116 0.011650 -0.005574 0.000000 0.000000 0.000000
# 3 -0.007268 -0.005574 0.011127 0.000000 0.000000 0.000000
# 4 0.000000 0.000000 0.000000 0.025928 0.000000 0.000000
# 5 0.000000 0.000000 0.000000 0.000000 -3.850628 0.000000
# 6 0.000000 0.000000 0.000000 0.000000 0.000000 0.107005
#
#
# Mechanical properties :
#
#
# Convention : Reuss Voigt Hill
#
# Bulk Modulus (GPa) = 28.35953 60.89376 44.62665
# Shear Modulus (GPa) = -1.38472 21.39484 10.00506
#
# Velocity S-wave (km/s) = -0.86707 3.40822 2.33068
# Velocity P-wave (km/s) = 3.79406 6.96773 5.61000
#
# Compressibility (1/GPa) = 0.03526151
#
# Stress axis : x y z
#
# Youngs Moduli (GPa) = 23.58366 85.83838 89.87457
#
# Poissons Ratio (x) = 0.18164 0.65322
# Poissons Ratio (y) = 0.04990 0.50100
# Poissons Ratio (z) = 0.17141 0.47850
#
# Static dielectric constant tensor:
#      x y z
#    x 2.758180 0.000000 0.000000 
#    y 0.000000 3.612400 0.000000 
#    z 0.000000 0.000000 3.700090 
# 
# 
# High freq. dielectric constant tensor:
#      x y z
#    x 1.644590 0.000000 0.000000 
#    y 0.000000 1.729180 0.000000 
#    z 0.000000 0.000000 1.734510 
# 
# From -- ./inp_files/24714.got.cif
#   From: 2010.03.12/outbox.cif.g09.slc.cpg/sg51_13_cif.got.tgz:24714.got - 2010.04.16 13:43:02.
