data_PCOD8208777
_publ_section_title
;
Structure prediction by ZEFSAII (Michael W. Deem and Ramdas Pophale) SiO2 
 PCOD8208777
Probable space group: P M M A
;
_chemical_formula_sum "Si O2"
_cell_formula_units_Z 64
_cell_length_a 23.611435
_cell_length_b 9.256939
_cell_length_c 15.137539
_cell_angle_alpha 90.000000
_cell_angle_beta 90.000000
_cell_angle_gamma 90.000000
_cell_volume 3308.606049
_symmetry_space_group_name_H-M "P M M A"
_symmetry_group_IT_number 51
_symmetry_cell_setting 'orthorhombic'
loop_
_space_group_symop_operation_xyz
x,y,z
1/2-x,-y,z
1/2+x,-y,-z
-x,y,-z
-x,-y,-z
1/2+x,y,-z
1/2-x,y,z
x,-y,z
loop_
_atom_site_type_symbol
_atom_site_label
_atom_site_fract_x
_atom_site_fract_y
_atom_site_fract_z
Si Si1 0.316010 0.169522 0.366637
Si Si2 0.024699 0.335589 0.591330
Si Si3 0.687907 0.838202 0.312129
Si Si4 0.650894 0.663845 0.466314
Si Si5 0.627698 0.828935 0.813676
Si Si6 0.003257 0.829200 0.231691
Si Si7 0.314703 0.827474 0.009383
Si Si8 0.113487 0.171175 0.845189
O O1 0.250000 0.207144 0.373755
O O2 0.350984 0.255445 0.440244
O O3 0.339159 0.225179 0.272786
O O4 0.327249 0.000000 0.379137
O O5 0.003402 0.500000 0.605191
O O6 0.091741 0.327903 0.584149
O O7 0.000000 0.272291 0.500000
O O8 0.003294 0.241355 0.672650
O O9 0.750000 0.843660 0.268094
O O10 0.693623 0.744031 0.400631
O O11 0.645613 0.767694 0.240973
O O12 0.667727 0.000000 0.338155
O O13 0.670623 0.500000 0.482344
O O14 0.562235 0.777211 0.811626
O O15 0.659555 0.765229 0.899320
O O16 0.630033 0.000000 0.818245
O O17 0.952596 0.783563 0.164219
O O18 0.002647 0.000000 0.247333
O O19 0.250000 0.771881 0.997212
O O20 0.315149 0.000000 0.009769
O O21 0.356044 0.765642 0.932447
O O22 0.120255 0.000000 0.847347
#
# Coordination Sequence:
#
# PCOD8208777 Si02
#       8
#     8   8   8   8   8   8   8   8
#     4  10  20  34  51  72 101 136 173 213 257 310
#     4  10  21  36  52  71  99 137 178 215 253 306
#     4  10  19  32  50  72 102 137 170 205 247 301
#     4  11  22  34  50  74 101 131 170 215 259 306
#     4   9  18  31  49  75 104 135 172 214 262 307
#     4  10  19  32  51  77 107 135 168 215 262 305
#     4   9  16  28  48  75 108 142 172 207 256 313
#     4   9  17  29  47  74 106 138 171 205 249 304
#
# _framework density 19.343492999999999
#
# number of rings (size 3 to 8) (size 9 to 14) (size 15 to 20)
#    0.000    2.250    1.250    2.250    0.000    6.250 
#    0.000    2.500    0.000    0.000    0.000    4.375 
#    0.000    6.000    0.000    0.000    0.000    0.000 
#
# Total GULP energy -793439.674497 kJ/mol
# GULP energy per Si atom -12397.494914 kJ/mol
# Density = 1.929947 g / cm^3
# Si number density = 19.343493 Si / 1000 Ang^3
#
#
#
# Elastic Constant Matrix: (Units=GPa)
#
#
# Indices 1 2 3 4 5 6 
#
# 1 103.9038 21.4103 52.0810 0.0000 0.0000 0.0000
# 2 21.4103 39.4532 32.1028 0.0000 0.0000 0.0000
# 3 52.0810 32.1028 145.8237 0.0000 0.0000 0.0000
# 4 0.0000 0.0000 0.0000 5.2236 0.0000 0.0000
# 5 0.0000 0.0000 0.0000 0.0000 38.4539 0.0000
# 6 0.0000 0.0000 0.0000 0.0000 0.0000 11.7317
#
#
#
# Elastic Compliance Matrix: (Units=1/GPa)
#
#
# Indices 1 2 3 4 5 6 
#
# 1 0.012158 -0.003733 -0.003520 0.000000 0.000000 0.000000
# 2 -0.003733 0.032024 -0.005717 0.000000 0.000000 0.000000
# 3 -0.003520 -0.005717 0.009373 0.000000 0.000000 0.000000
# 4 0.000000 0.000000 0.000000 0.191439 0.000000 0.000000
# 5 0.000000 0.000000 0.000000 0.000000 0.026005 0.000000
# 6 0.000000 0.000000 0.000000 0.000000 0.000000 0.085239
#
#
# Mechanical properties :
#
#
# Convention : Reuss Voigt Hill
#
# Bulk Modulus (GPa) = 36.21253 55.59654 45.90454
# Shear Modulus (GPa) = 12.77514 23.32094 18.04804
#
# Velocity S-wave (km/s) = 2.57268 3.47597 3.05787
# Velocity P-wave (km/s) = 5.25227 6.70179 6.02081
#
# Compressibility (1/GPa) = 0.02761475
#
# Stress axis : x y z
#
# Youngs Moduli (GPa) = 82.24933 31.22649 106.68480
#
# Poissons Ratio (x) = 0.11658 0.37557
# Poissons Ratio (y) = 0.30707 0.60988
# Poissons Ratio (z) = 0.28955 0.17851
#
# Static dielectric constant tensor:
#      x y z
#    x 3.740440 0.000000 0.000000 
#    y 0.000000 3.073270 0.000000 
#    z 0.000000 0.000000 3.626820 
# 
# 
# High freq. dielectric constant tensor:
#      x y z
#    x 1.768910 0.000000 0.000000 
#    y 0.000000 1.696350 0.000000 
#    z 0.000000 0.000000 1.755880 
# 
# From -- ./inp_files/26190.got.cif
#   From: 2010.03.12/outbox.cif.g09.slc.cpg/sg51_14_cif.got.tgz:26190.got - 2010.04.16 13:43:02.
