data_PCOD8208720
_publ_section_title
;
Structure prediction by ZEFSAII (Michael W. Deem and Ramdas Pophale) SiO2 
 PCOD8208720
Probable space group: P M M A
;
_chemical_formula_sum "Si O2"
_cell_formula_units_Z 64
_cell_length_a 8.989619
_cell_length_b 19.856583
_cell_length_c 20.045104
_cell_angle_alpha 90.000000
_cell_angle_beta 90.000000
_cell_angle_gamma 90.000000
_cell_volume 3578.113521
_symmetry_space_group_name_H-M "P M M A"
_symmetry_group_IT_number 51
_symmetry_cell_setting 'orthorhombic'
loop_
_space_group_symop_operation_xyz
x,y,z
1/2-x,-y,z
1/2+x,-y,-z
-x,y,-z
-x,-y,-z
1/2+x,y,-z
1/2-x,y,z
x,-y,z
loop_
_atom_site_type_symbol
_atom_site_label
_atom_site_fract_x
_atom_site_fract_y
_atom_site_fract_z
Si Si1 0.077050 0.880108 0.563178
Si Si2 0.075086 0.714523 0.748294
Si Si3 0.918324 0.605177 0.566253
Si Si4 0.074536 0.076685 0.068515
Si Si5 0.420318 0.247674 0.386321
Si Si6 0.421438 0.573595 0.700244
Si Si7 0.080648 0.924632 0.708742
Si Si8 0.574887 0.168187 0.809963
O O1 0.250000 0.867068 0.548665
O O2 0.053957 0.924033 0.629449
O O3 0.000000 0.917796 0.500000
O O4 0.989916 0.809998 0.568779
O O5 0.250000 0.724194 0.755785
O O6 0.028520 0.634852 0.749554
O O7 0.021551 0.746237 0.679123
O O8 0.997029 0.756821 0.807935
O O9 0.750000 0.579661 0.562576
O O10 0.928117 0.685477 0.569710
O O11 0.000000 0.579085 0.500000
O O12 0.989314 0.572741 0.631728
O O13 0.250000 0.081899 0.060072
O O14 0.016308 0.126950 0.125898
O O15 0.027221 0.000000 0.086473
O O16 0.000000 0.100296 0.000000
O O17 0.250000 0.231849 0.365206
O O18 0.250000 0.585768 0.681545
O O19 0.444670 0.500000 0.734995
O O20 0.250000 0.903304 0.725403
O O21 0.969766 0.873124 0.744020
O O22 0.047755 0.000000 0.734359
O O23 0.750000 0.176481 0.812125
#
# Coordination Sequence:
#
# PCOD8208720 Si02
#       8
#     8   8   8   8   8   8   8   8
#     4  11  22  34  49  67  90 121 161 210 264 318
#     4  10  19  32  52  76 101 129 165 208 253 301
#     4  10  20  31  45  66  90 119 156 198 249 311
#     4   9  19  35  54  80 114 150 184 215 248 291
#     4  10  19  32  49  69  92 119 156 204 258 311
#     4   9  19  35  52  69  93 126 162 204 255 308
#     4  10  22  38  53  71  96 128 169 214 260 310
#     4  11  21  34  55  81 109 139 175 213 251 298
#
# _framework density 17.886519
#
# number of rings (size 3 to 8) (size 9 to 14) (size 15 to 20)
#    0.000    2.000    1.250    2.625    0.000    6.000 
#    0.000    1.250    0.000    0.000    0.000    0.000 
#    0.000    0.500    0.000    1.125    0.000    1.750 
#
# Total GULP energy -793473.403777 kJ/mol
# GULP energy per Si atom -12398.021934 kJ/mol
# Density = 1.784581 g / cm^3
# Si number density = 17.886519 Si / 1000 Ang^3
#
#
#
# Elastic Constant Matrix: (Units=GPa)
#
#
# Indices 1 2 3 4 5 6 
#
# 1 73.1483 40.2630 32.9693 0.0000 0.0000 0.0000
# 2 40.2630 112.3795 47.0337 0.0000 0.0000 0.0000
# 3 32.9693 47.0337 79.7998 0.0000 0.0000 0.0000
# 4 0.0000 0.0000 0.0000 17.7014 0.0000 0.0000
# 5 0.0000 0.0000 0.0000 0.0000 26.1928 0.0000
# 6 0.0000 0.0000 0.0000 0.0000 0.0000 18.5076
#
#
#
# Elastic Compliance Matrix: (Units=1/GPa)
#
#
# Indices 1 2 3 4 5 6 
#
# 1 0.018382 -0.004523 -0.004929 0.000000 0.000000 0.000000
# 2 -0.004523 0.012925 -0.005749 0.000000 0.000000 0.000000
# 3 -0.004929 -0.005749 0.017956 0.000000 0.000000 0.000000
# 4 0.000000 0.000000 0.000000 0.056493 0.000000 0.000000
# 5 0.000000 0.000000 0.000000 0.000000 0.038178 0.000000
# 6 0.000000 0.000000 0.000000 0.000000 0.000000 0.054032
#
#
# Mechanical properties :
#
#
# Convention : Reuss Voigt Hill
#
# Bulk Modulus (GPa) = 53.01861 56.20662 54.61262
# Shear Modulus (GPa) = 21.30783 22.15112 21.72948
#
# Velocity S-wave (km/s) = 3.45523 3.52295 3.48925
# Velocity P-wave (km/s) = 6.75457 6.93112 6.84341
#
# Compressibility (1/GPa) = 0.01886130
#
# Stress axis : x y z
#
# Youngs Moduli (GPa) = 54.40136 77.36829 55.69084
#
# Poissons Ratio (x) = 0.34994 0.27448
# Poissons Ratio (y) = 0.24606 0.32019
# Poissons Ratio (z) = 0.26812 0.44482
#
# Static dielectric constant tensor:
#      x y z
#    x 3.399800 0.000000 0.000000 
#    y 0.000000 3.517730 0.000000 
#    z 0.000000 0.000000 3.040670 
# 
# 
# High freq. dielectric constant tensor:
#      x y z
#    x 1.701450 0.000000 0.000000 
#    y 0.000000 1.694860 0.000000 
#    z 0.000000 0.000000 1.647380 
# 
# From -- ./inp_files/32618.got.cif
#   From: 2010.03.12/outbox.cif.g09.slc.cpg/sg51_17_cif.got.tgz:32618.got - 2010.04.16 13:43:02.
