data_PCOD8208820
_publ_section_title
;
Structure prediction by ZEFSAII (Michael W. Deem and Ramdas Pophale) SiO2 
 PCOD8208820
Probable space group: P M M A
;
_chemical_formula_sum "Si O2"
_cell_formula_units_Z 40
_cell_length_a 20.003762
_cell_length_b 12.725152
_cell_length_c 8.974169
_cell_angle_alpha 90.000000
_cell_angle_beta 90.000000
_cell_angle_gamma 90.000000
_cell_volume 2284.382904
_symmetry_space_group_name_H-M "P M M A"
_symmetry_group_IT_number 51
_symmetry_cell_setting 'orthorhombic'
loop_
_space_group_symop_operation_xyz
x,y,z
1/2-x,-y,z
1/2+x,-y,-z
-x,y,-z
-x,-y,-z
1/2+x,y,-z
1/2-x,y,z
x,-y,z
loop_
_atom_site_type_symbol
_atom_site_label
_atom_site_fract_x
_atom_site_fract_y
_atom_site_fract_z
Si Si1 0.940347 0.228004 0.116494
Si Si2 0.440663 0.378061 0.607571
Si Si3 0.172645 0.772044 0.121663
Si Si4 0.326612 0.379308 0.383392
Si Si5 0.941769 0.000000 0.118843
Si Si6 0.175480 0.000000 0.097528
O O1 0.944736 0.316994 0.238803
O O2 0.946470 0.113266 0.201879
O O3 0.870664 0.240839 0.027826
O O4 0.000000 0.242611 0.000000
O O5 0.500000 0.340365 0.500000
O O6 0.448928 0.500000 0.647012
O O7 0.369951 0.354360 0.529136
O O8 0.250000 0.749159 0.080814
O O9 0.147421 0.691563 0.247028
O O10 0.163329 0.891276 0.188826
O O11 0.250000 0.353252 0.423637
O O12 0.335877 0.500000 0.333766
O O13 0.869626 0.000000 0.046324
O O14 0.000000 0.000000 0.000000
O O15 0.250000 0.000000 0.033093
#
# Coordination Sequence:
#
# PCOD8208820 Si02
#       6
#     8   8   8   8   4   4
#     4  10  19  32  51  72  94 121 156 196 232 272
#     4  10  21  35  49  67  95 128 157 189 234 282
#     4   9  17  30  50  73  95 121 155 193 230 272
#     4   9  18  33  50  68  95 128 156 187 232 280
#     4   8  16  30  46  67  94 121 148 185 236 279
#     4   8  14  26  45  69  95 121 148 183 231 277
#
# _framework density 17.510199
#
# number of rings (size 3 to 8) (size 9 to 14) (size 15 to 20)
#    0.000    2.800    0.000    1.200    0.000    2.000 
#    0.000    1.500    0.000    0.000    0.000    0.000 
#    0.000    0.000    0.000    0.000    0.000    0.000 
#
# Total GULP energy -495570.833594 kJ/mol
# GULP energy per Si atom -12389.270840 kJ/mol
# Density = 1.747035 g / cm^3
# Si number density = 17.510199 Si / 1000 Ang^3
#
#
#
# Elastic Constant Matrix: (Units=GPa)
#
#
# Indices 1 2 3 4 5 6 
#
# 1 81.2799 40.3186 38.5756 0.0000 0.0000 0.0000
# 2 40.3186 109.8403 69.6843 0.0000 0.0000 0.0000
# 3 38.5756 69.6843 88.0462 0.0000 0.0000 0.0000
# 4 0.0000 0.0000 0.0000 2.9203 0.0000 0.0000
# 5 0.0000 0.0000 0.0000 0.0000 22.9127 0.0000
# 6 0.0000 0.0000 0.0000 0.0000 0.0000 21.6196
#
#
#
# Elastic Compliance Matrix: (Units=1/GPa)
#
#
# Indices 1 2 3 4 5 6 
#
# 1 0.015968 -0.002858 -0.004734 0.000000 0.000000 0.000000
# 2 -0.002858 0.018797 -0.013625 0.000000 0.000000 0.000000
# 3 -0.004734 -0.013625 0.024215 0.000000 0.000000 0.000000
# 4 0.000000 0.000000 0.000000 0.342425 0.000000 0.000000
# 5 0.000000 0.000000 0.000000 0.000000 0.043644 0.000000
# 6 0.000000 0.000000 0.000000 0.000000 0.000000 0.046254
#
#
# Mechanical properties :
#
#
# Convention : Reuss Voigt Hill
#
# Bulk Modulus (GPa) = 60.43613 64.03594 62.23603
# Shear Modulus (GPa) = 9.27211 18.19638 13.73424
#
# Velocity S-wave (km/s) = 2.30364 3.22714 2.80368
# Velocity P-wave (km/s) = 6.45488 7.10886 6.78975
#
# Compressibility (1/GPa) = 0.01654639
#
# Stress axis : x y z
#
# Youngs Moduli (GPa) = 62.62704 53.20041 41.29650
#
# Poissons Ratio (x) = 0.15204 0.19550
# Poissons Ratio (y) = 0.17897 0.56265
# Poissons Ratio (z) = 0.29648 0.72484
#
# Static dielectric constant tensor:
#      x y z
#    x 3.524680 0.000000 0.000000 
#    y 0.000000 3.714830 0.000000 
#    z 0.000000 0.000000 2.755720 
# 
# 
# High freq. dielectric constant tensor:
#      x y z
#    x 1.699120 0.000000 0.000000 
#    y 0.000000 1.696090 0.000000 
#    z 0.000000 0.000000 1.622240 
# 
# From -- ./inp_files/10689.got.cif
#   From: 2010.03.12/outbox.cif.g09.slc.cpg/sg51_6_cif.got.tgz:10689.got - 2010.04.16 13:43:02.
