data_PCOD8208554
_publ_section_title
;
Structure prediction by ZEFSAII (Michael W. Deem and Ramdas Pophale) SiO2 
 PCOD8208554
Probable space group: P M M A
;
_chemical_formula_sum "Si O2"
_cell_formula_units_Z 64
_cell_length_a 8.959635
_cell_length_b 20.485883
_cell_length_c 19.584676
_cell_angle_alpha 90.000000
_cell_angle_beta 90.000000
_cell_angle_gamma 90.000000
_cell_volume 3594.689613
_symmetry_space_group_name_H-M "P M M A"
_symmetry_group_IT_number 51
_symmetry_cell_setting 'orthorhombic'
loop_
_space_group_symop_operation_xyz
x,y,z
1/2-x,-y,z
1/2+x,-y,-z
-x,y,-z
-x,-y,-z
1/2+x,y,-z
1/2-x,y,z
x,-y,z
loop_
_atom_site_type_symbol
_atom_site_label
_atom_site_fract_x
_atom_site_fract_y
_atom_site_fract_z
Si Si1 0.926234 0.073626 0.709034
Si Si2 0.074575 0.718800 0.430740
Si Si3 0.073733 0.314406 0.705944
Si Si4 0.076374 0.377689 0.066641
Si Si5 0.076405 0.186823 0.787443
Si Si6 0.075937 0.870011 0.432069
Si Si7 0.420545 0.573772 0.212907
Si Si8 0.925243 0.760767 0.067344
O O1 0.750000 0.082600 0.710585
O O2 0.985909 0.091144 0.633389
O O3 0.994129 0.121516 0.764793
O O4 0.974587 0.000000 0.726985
O O5 0.250000 0.706225 0.434216
O O6 0.033834 0.794599 0.421404
O O7 0.000000 0.691749 0.500000
O O8 0.006113 0.680308 0.367033
O O9 0.250000 0.312477 0.695390
O O10 0.016762 0.250213 0.746467
O O11 0.032179 0.378600 0.748180
O O12 0.250000 0.366143 0.051493
O O13 0.050781 0.423608 0.131690
O O14 0.998927 0.308802 0.081737
O O15 0.000000 0.410533 0.000000
O O16 0.250000 0.178351 0.772645
O O17 0.042751 0.193759 0.867698
O O18 0.250000 0.880389 0.441495
O O19 0.000000 0.898514 0.500000
O O20 0.250000 0.594366 0.228993
O O21 0.451926 0.500000 0.237225
O O22 0.750000 0.751193 0.055546
O O23 0.000000 0.793134 0.000000
#
# Coordination Sequence:
#
# PCOD8208554 Si02
#       8
#     8   8   8   8   8   8   8   8
#     4  10  21  36  53  76 107 142 181 221 264 317
#     4  10  19  33  54  81 110 142 177 222 270 317
#     4  11  21  35  56  82 109 140 180 226 270 317
#     4  10  19  31  50  75 106 143 181 219 261 314
#     4  10  21  35  54  79 108 138 176 222 268 316
#     4   9  18  31  48  73 105 140 177 214 255 305
#     4  10  22  38  54  76 108 146 185 223 267 320
#     4  10  19  33  52  79 108 136 172 219 268 317
#
# _framework density 17.804041000000002
#
# number of rings (size 3 to 8) (size 9 to 14) (size 15 to 20)
#    0.000    2.000    2.500    2.250    0.000    4.000 
#    0.000    0.000    0.000    0.750    0.000    0.000 
#    0.000    0.000    0.000    0.000    0.000    0.000 
#
# Total GULP energy -793689.328721 kJ/mol
# GULP energy per Si atom -12401.395761 kJ/mol
# Density = 1.776352 g / cm^3
# Si number density = 17.804041 Si / 1000 Ang^3
#
#
#
# Elastic Constant Matrix: (Units=GPa)
#
#
# Indices 1 2 3 4 5 6 
#
# 1 74.5550 33.1674 49.0076 0.0000 0.0000 0.0000
# 2 33.1674 79.8252 47.9686 0.0000 0.0000 0.0000
# 3 49.0076 47.9686 120.3939 0.0000 0.0000 0.0000
# 4 0.0000 0.0000 0.0000 38.7062 0.0000 0.0000
# 5 0.0000 0.0000 0.0000 0.0000 35.6040 0.0000
# 6 0.0000 0.0000 0.0000 0.0000 0.0000 20.8594
#
#
#
# Elastic Compliance Matrix: (Units=1/GPa)
#
#
# Indices 1 2 3 4 5 6 
#
# 1 0.019402 -0.004359 -0.006161 0.000000 0.000000 0.000000
# 2 -0.004359 0.017450 -0.005178 0.000000 0.000000 0.000000
# 3 -0.006161 -0.005178 0.012877 0.000000 0.000000 0.000000
# 4 0.000000 0.000000 0.000000 0.025836 0.000000 0.000000
# 5 0.000000 0.000000 0.000000 0.000000 0.028087 0.000000
# 6 0.000000 0.000000 0.000000 0.000000 0.000000 0.047940
#
#
# Mechanical properties :
#
#
# Convention : Reuss Voigt Hill
#
# Bulk Modulus (GPa) = 54.54780 59.45124 56.99952
# Shear Modulus (GPa) = 26.44107 28.67596 27.55851
#
# Velocity S-wave (km/s) = 3.85790 4.01764 3.93858
# Velocity P-wave (km/s) = 7.10978 7.41528 7.26413
#
# Compressibility (1/GPa) = 0.01833255
#
# Stress axis : x y z
#
# Youngs Moduli (GPa) = 51.54093 57.30523 77.65720
#
# Poissons Ratio (x) = 0.24981 0.47844
# Poissons Ratio (y) = 0.22468 0.40213
# Poissons Ratio (z) = 0.31754 0.29674
#
# Static dielectric constant tensor:
#      x y z
#    x 3.291390 0.000000 0.000000 
#    y 0.000000 3.018260 0.000000 
#    z 0.000000 0.000000 3.459540 
# 
# 
# High freq. dielectric constant tensor:
#      x y z
#    x 1.693690 0.000000 0.000000 
#    y 0.000000 1.657480 0.000000 
#    z 0.000000 0.000000 1.697000 
# 
# From -- ./inp_files/28406.got.cif
#   From: 2010.03.12/outbox.cif.g09.slc.cpg/sg51_15_cif.got.tgz:28406.got - 2010.04.16 13:43:02.
