data_PCOD8208198
_publ_section_title
;
Structure prediction by ZEFSAII (Michael W. Deem and Ramdas Pophale) SiO2 
 PCOD8208198
Probable space group: P M M A
;
_chemical_formula_sum "Si O2"
_cell_formula_units_Z 48
_cell_length_a 9.126083
_cell_length_b 17.595184
_cell_length_c 15.219083
_cell_angle_alpha 90.000000
_cell_angle_beta 90.000000
_cell_angle_gamma 90.000000
_cell_volume 2443.805920
_symmetry_space_group_name_H-M "P M M A"
_symmetry_group_IT_number 51
_symmetry_cell_setting 'orthorhombic'
loop_
_space_group_symop_operation_xyz
x,y,z
1/2-x,-y,z
1/2+x,-y,-z
-x,y,-z
-x,-y,-z
1/2+x,y,-z
1/2-x,y,z
x,-y,z
loop_
_atom_site_type_symbol
_atom_site_label
_atom_site_fract_x
_atom_site_fract_y
_atom_site_fract_z
Si Si1 0.087603 0.394246 0.918536
Si Si2 0.072314 0.332107 0.411951
Si Si3 0.912524 0.215478 0.084333
Si Si4 0.423967 0.782757 0.718304
Si Si5 0.420235 0.914340 0.587144
Si Si6 0.592806 0.500000 0.611880
Si Si7 0.091441 0.500000 0.186331
O O1 0.250000 0.428381 0.916684
O O2 0.093354 0.304966 0.924827
O O3 0.000412 0.423650 0.833773
O O4 0.000000 0.429678 0.000000
O O5 0.250000 0.326803 0.412357
O O6 0.013177 0.420155 0.411139
O O7 0.000000 0.295436 0.500000
O O8 0.010387 0.287051 0.327047
O O9 0.750000 0.179877 0.079208
O O10 0.980252 0.200904 0.181636
O O11 0.000000 0.181060 0.000000
O O12 0.250000 0.763636 0.719030
O O13 0.461723 0.860076 0.667483
O O14 0.500000 0.884869 0.500000
O O15 0.250000 0.910886 0.566018
O O16 0.470109 0.000000 0.611665
O O17 0.750000 0.500000 0.562514
O O18 0.624051 0.500000 0.713125
O O19 0.250000 0.500000 0.137659
#
# Coordination Sequence:
#
# PCOD8208198 Si02
#       7
#     8   8   8   8   8   4   4
#     4  10  19  31  45  63  87 117 155 201 255 306
#     4  11  22  37  55  76 103 137 177 219 265 313
#     4   9  19  34  52  73  99 131 168 211 255 303
#     4  10  20  35  55  81 109 137 175 219 262 311
#     4   9  18  33  54  80 111 144 174 208 255 310
#     4   9  21  37  51  68  95 133 173 212 255 307
#     4  11  20  31  46  64  86 115 156 204 253 305
#
# _framework density 19.641494999999999
#
# number of rings (size 3 to 8) (size 9 to 14) (size 15 to 20)
#    0.000    2.167    0.000    3.250    0.000    3.333 
#    0.000    3.750    0.000    0.500    0.000    0.000 
#    0.000    0.000    0.000    0.000    0.000    0.000 
#
# Total GULP energy -594670.808110 kJ/mol
# GULP energy per Si atom -12388.975169 kJ/mol
# Density = 1.959679 g / cm^3
# Si number density = 19.641495 Si / 1000 Ang^3
#
#
#
# Elastic Constant Matrix: (Units=GPa)
#
#
# Indices 1 2 3 4 5 6 
#
# 1 95.5118 25.8899 54.5879 0.0000 0.0000 0.0000
# 2 25.8899 69.0003 43.0822 0.0000 0.0000 0.0000
# 3 54.5879 43.0822 160.2254 0.0000 0.0000 0.0000
# 4 0.0000 0.0000 0.0000 30.7735 0.0000 0.0000
# 5 0.0000 0.0000 0.0000 0.0000 30.2684 0.0000
# 6 0.0000 0.0000 0.0000 0.0000 0.0000 19.4159
#
#
#
# Elastic Compliance Matrix: (Units=1/GPa)
#
#
# Indices 1 2 3 4 5 6 
#
# 1 0.013382 -0.002613 -0.003857 0.000000 0.000000 0.000000
# 2 -0.002613 0.017927 -0.003930 0.000000 0.000000 0.000000
# 3 -0.003857 -0.003930 0.008612 0.000000 0.000000 0.000000
# 4 0.000000 0.000000 0.000000 0.032495 0.000000 0.000000
# 5 0.000000 0.000000 0.000000 0.000000 0.033038 0.000000
# 6 0.000000 0.000000 0.000000 0.000000 0.000000 0.051504
#
#
# Mechanical properties :
#
#
# Convention : Reuss Voigt Hill
#
# Bulk Modulus (GPa) = 52.29711 63.53973 57.91842
# Shear Modulus (GPa) = 27.15436 29.50340 28.32888
#
# Velocity S-wave (km/s) = 3.72223 3.87989 3.80188
# Velocity P-wave (km/s) = 6.71989 7.24509 6.98743
#
# Compressibility (1/GPa) = 0.01912152
#
# Stress axis : x y z
#
# Youngs Moduli (GPa) = 74.72455 55.78178 116.11886
#
# Poissons Ratio (x) = 0.14577 0.44783
# Poissons Ratio (y) = 0.19528 0.45634
# Poissons Ratio (z) = 0.28819 0.21922
#
# Static dielectric constant tensor:
#      x y z
#    x 3.774940 0.000000 0.000000 
#    y 0.000000 3.440860 0.000000 
#    z 0.000000 0.000000 3.795160 
# 
# 
# High freq. dielectric constant tensor:
#      x y z
#    x 1.759300 0.000000 0.000000 
#    y 0.000000 1.740430 0.000000 
#    z 0.000000 0.000000 1.771550 
# 
# From -- ./inp_files/21172.got.cif
#   From: 2010.03.12/outbox.cif.g09.slc.cpg/sg51_11_cif.got.tgz:21172.got - 2010.04.16 13:43:02.
