data_PCOD8208195
_publ_section_title
;
Structure prediction by ZEFSAII (Michael W. Deem and Ramdas Pophale) SiO2 
 PCOD8208195
Probable space group: P M M A
;
_chemical_formula_sum "Si O2"
_cell_formula_units_Z 56
_cell_length_a 22.592339
_cell_length_b 8.929671
_cell_length_c 17.551499
_cell_angle_alpha 90.000000
_cell_angle_beta 90.000000
_cell_angle_gamma 90.000000
_cell_volume 3540.877221
_symmetry_space_group_name_H-M "P M M A"
_symmetry_group_IT_number 51
_symmetry_cell_setting 'orthorhombic'
loop_
_space_group_symop_operation_xyz
x,y,z
1/2-x,-y,z
1/2+x,-y,-z
-x,y,-z
-x,-y,-z
1/2+x,y,-z
1/2-x,y,z
x,-y,z
loop_
_atom_site_type_symbol
_atom_site_label
_atom_site_fract_x
_atom_site_fract_y
_atom_site_fract_z
Si Si1 0.066102 0.665545 0.468263
Si Si2 0.025926 0.676456 0.173316
Si Si3 0.528875 0.175852 0.673832
Si Si4 0.596657 0.823380 0.129432
Si Si5 0.682217 0.673802 0.241253
Si Si6 0.908031 0.325494 0.370152
Si Si7 0.434236 0.834961 0.032195
O O1 0.084147 0.500000 0.439478
O O2 0.106352 0.714477 0.541017
O O3 0.000000 0.664342 0.500000
O O4 0.071025 0.778533 0.397252
O O5 0.022901 0.500000 0.180232
O O6 0.053670 0.745363 0.250094
O O7 0.959704 0.738029 0.163484
O O8 0.068774 0.720547 0.102776
O O9 0.461457 0.225910 0.661086
O O10 0.531506 0.000000 0.684715
O O11 0.655115 0.771275 0.173094
O O12 0.585790 0.000000 0.139788
O O13 0.606187 0.783851 0.039568
O O14 0.750000 0.721287 0.251406
O O15 0.675480 0.500000 0.219781
O O16 0.649985 0.710018 0.320994
O O17 0.927026 0.500000 0.363896
O O18 0.415287 0.000000 0.061317
O O19 0.500000 0.841850 0.000000
#
# Coordination Sequence:
#
# PCOD8208195 Si02
#       7
#     8   8   8   8   8   8   8
#     4   8  15  27  41  57  80 111 144 175 213 260
#     4  11  19  27  42  63  87 115 146 176 212 261
#     4  11  19  26  40  62  87 114 144 177 214 258
#     4  10  19  31  45  61  84 115 146 182 223 258
#     4  10  20  32  47  66  87 116 154 189 218 253
#     4   9  17  30  44  58  82 115 146 181 221 257
#     4   8  16  29  42  59  84 111 142 176 214 260
#
# _framework density 15.815289
#
# number of rings (size 3 to 8) (size 9 to 14) (size 15 to 20)
#    0.000    2.429    1.429    4.714    0.000    6.000 
#    0.000    0.000    0.000    0.000    0.000    0.000 
#    0.000    1.143    0.000    6.000    0.000    3.000 
#
# Total GULP energy -694125.084147 kJ/mol
# GULP energy per Si atom -12395.090788 kJ/mol
# Density = 1.577929 g / cm^3
# Si number density = 15.815289 Si / 1000 Ang^3
#
#
#
# Elastic Constant Matrix: (Units=GPa)
#
#
# Indices 1 2 3 4 5 6 
#
# 1 46.5204 22.5481 43.7764 0.0000 0.0000 0.0000
# 2 22.5481 106.4757 68.6888 0.0000 0.0000 0.0000
# 3 43.7764 68.6888 148.6024 0.0000 0.0000 0.0000
# 4 0.0000 0.0000 0.0000 27.9558 0.0000 0.0000
# 5 0.0000 0.0000 0.0000 0.0000 15.8392 0.0000
# 6 0.0000 0.0000 0.0000 0.0000 0.0000 9.2093
#
#
#
# Elastic Compliance Matrix: (Units=1/GPa)
#
#
# Indices 1 2 3 4 5 6 
#
# 1 0.029804 -0.000923 -0.008353 0.000000 0.000000 0.000000
# 2 -0.000923 0.013411 -0.005927 0.000000 0.000000 0.000000
# 3 -0.008353 -0.005927 0.011930 0.000000 0.000000 0.000000
# 4 0.000000 0.000000 0.000000 0.035771 0.000000 0.000000
# 5 0.000000 0.000000 0.000000 0.000000 0.063134 0.000000
# 6 0.000000 0.000000 0.000000 0.000000 0.000000 0.108586
#
#
# Mechanical properties :
#
#
# Convention : Reuss Voigt Hill
#
# Bulk Modulus (GPa) = 40.42317 63.51390 51.96853
# Shear Modulus (GPa) = 16.59541 21.70653 19.15097
#
# Velocity S-wave (km/s) = 3.24285 3.70875 3.48360
# Velocity P-wave (km/s) = 6.29575 7.65420 7.00797
#
# Compressibility (1/GPa) = 0.02473829
#
# Stress axis : x y z
#
# Youngs Moduli (GPa) = 33.55276 74.56638 83.82311
#
# Poissons Ratio (x) = 0.06880 0.70021
# Poissons Ratio (y) = 0.03096 0.49683
# Poissons Ratio (z) = 0.28028 0.44197
#
# Static dielectric constant tensor:
#      x y z
#    x 2.548920 0.000000 0.000000 
#    y 0.000000 3.005120 0.000000 
#    z 0.000000 0.000000 3.581030 
# 
# 
# High freq. dielectric constant tensor:
#      x y z
#    x 1.529750 0.000000 0.000000 
#    y 0.000000 1.611660 0.000000 
#    z 0.000000 0.000000 1.627270 
# 
# From -- ./inp_files/30769.got.cif
#   From: 2010.03.12/outbox.cif.g09.slc.cpg/sg51_16_cif.got.tgz:30769.got - 2010.04.16 13:43:02.
