data_PCOD8208239
_publ_section_title
;
Structure prediction by ZEFSAII (Michael W. Deem and Ramdas Pophale) SiO2 
 PCOD8208239
Probable space group: P M M A
;
_chemical_formula_sum "Si O2"
_cell_formula_units_Z 52
_cell_length_a 9.171654
_cell_length_b 15.324773
_cell_length_c 23.073286
_cell_angle_alpha 90.000000
_cell_angle_beta 90.000000
_cell_angle_gamma 90.000000
_cell_volume 3243.031463
_symmetry_space_group_name_H-M "P M M A"
_symmetry_group_IT_number 51
_symmetry_cell_setting 'orthorhombic'
loop_
_space_group_symop_operation_xyz
x,y,z
1/2-x,-y,z
1/2+x,-y,-z
-x,y,-z
-x,-y,-z
1/2+x,y,-z
1/2-x,y,z
x,-y,z
loop_
_atom_site_type_symbol
_atom_site_label
_atom_site_fract_x
_atom_site_fract_y
_atom_site_fract_z
Si Si1 0.420613 0.228725 0.771331
Si Si2 0.413487 0.896883 0.445089
Si Si3 0.581369 0.403082 0.174086
Si Si4 0.581855 0.000000 0.941558
Si Si5 0.077607 0.899348 0.671727
Si Si6 0.418325 0.649206 0.059063
Si Si7 0.915459 0.174988 0.881830
O O1 0.250000 0.217805 0.766990
O O2 0.465285 0.332165 0.776064
O O3 0.484737 0.171497 0.718187
O O4 0.473301 0.187743 0.830472
O O5 0.500000 0.856879 0.500000
O O6 0.250000 0.857450 0.443060
O O7 0.499473 0.871566 0.387268
O O8 0.404370 0.000000 0.451826
O O9 0.750000 0.386922 0.157145
O O10 0.558034 0.500000 0.200333
O O11 0.488029 0.396479 0.115315
O O12 0.534382 0.916462 0.906101
O O13 0.750000 0.000000 0.956465
O O14 0.500000 0.000000 0.000000
O O15 0.250000 0.890872 0.662399
O O16 0.038587 0.000000 0.689604
O O17 0.250000 0.619754 0.054115
O O18 0.432307 0.753084 0.067780
O O19 0.500000 0.621280 0.000000
O O20 0.750000 0.174779 0.857962
#
# Coordination Sequence:
#
# PCOD8208239 Si02
#       7
#     8   8   8   4   8   8   8
#     4   9  18  31  47  66  87 113 146 180 215 256
#     4   9  16  26  41  62  89 123 159 189 217 247
#     4   9  18  33  50  66  85 110 140 176 219 265
#     4  10  20  32  44  60  80 106 141 178 215 256
#     4   9  17  28  42  63  92 122 151 182 212 248
#     4  10  19  31  47  65  85 107 134 170 216 268
#     4   9  19  32  44  60  83 110 139 176 218 258
#
# _framework density 16.034379999999999
#
# number of rings (size 3 to 8) (size 9 to 14) (size 15 to 20)
#    0.000    2.769    0.000    1.385    1.077    4.308 
#    0.000    0.000    0.000    0.000    0.000    0.000 
#    0.000    0.615    0.000    1.077    0.000    1.538 
#
# Total GULP energy -644393.958239 kJ/mol
# GULP energy per Si atom -12392.191505 kJ/mol
# Density = 1.599789 g / cm^3
# Si number density = 16.034380 Si / 1000 Ang^3
#
#
#
# Elastic Constant Matrix: (Units=GPa)
#
#
# Indices 1 2 3 4 5 6 
#
# 1 39.2094 26.9259 34.5201 0.0000 0.0000 0.0000
# 2 26.9259 104.9198 47.1442 0.0000 0.0000 0.0000
# 3 34.5201 47.1442 95.7578 0.0000 0.0000 0.0000
# 4 0.0000 0.0000 0.0000 12.6002 0.0000 0.0000
# 5 0.0000 0.0000 0.0000 0.0000 26.1767 0.0000
# 6 0.0000 0.0000 0.0000 0.0000 0.0000 12.8302
#
#
#
# Elastic Compliance Matrix: (Units=1/GPa)
#
#
# Indices 1 2 3 4 5 6 
#
# 1 0.039126 -0.004755 -0.011764 0.000000 0.000000 0.000000
# 2 -0.004755 0.012816 -0.004596 0.000000 0.000000 0.000000
# 3 -0.011764 -0.004596 0.016946 0.000000 0.000000 0.000000
# 4 0.000000 0.000000 0.000000 0.079364 0.000000 0.000000
# 5 0.000000 0.000000 0.000000 0.000000 0.038202 0.000000
# 6 0.000000 0.000000 0.000000 0.000000 0.000000 0.077941
#
#
# Mechanical properties :
#
#
# Convention : Reuss Voigt Hill
#
# Bulk Modulus (GPa) = 37.50941 50.78525 44.14733
# Shear Modulus (GPa) = 15.84728 19.07455 17.46092
#
# Velocity S-wave (km/s) = 3.14718 3.45280 3.30353
# Velocity P-wave (km/s) = 6.05395 6.90198 6.49182
#
# Compressibility (1/GPa) = 0.02665998
#
# Stress axis : x y z
#
# Youngs Moduli (GPa) = 25.55818 78.02489 59.01001
#
# Poissons Ratio (x) = 0.37103 0.69417
# Poissons Ratio (y) = 0.12154 0.27119
# Poissons Ratio (z) = 0.30066 0.35857
#
# Static dielectric constant tensor:
#      x y z
#    x 3.108530 0.000000 0.000000 
#    y 0.000000 3.209720 0.000000 
#    z 0.000000 0.000000 2.930310 
# 
# 
# High freq. dielectric constant tensor:
#      x y z
#    x 1.622070 0.000000 0.000000 
#    y 0.000000 1.600390 0.000000 
#    z 0.000000 0.000000 1.594520 
# 
# From -- ./inp_files/34669.got.cif
#   From: 2010.03.12/outbox.cif.g09.slc.cpg/sg51_18_cif.got.tgz:34669.got - 2010.04.16 13:43:02.
