data_PCOD8208603
_publ_section_title
;
Structure prediction by ZEFSAII (Michael W. Deem and Ramdas Pophale) SiO2 
 PCOD8208603
Probable space group: P M M A
;
_chemical_formula_sum "Si O2"
_cell_formula_units_Z 32
_cell_length_a 8.723944
_cell_length_b 10.261881
_cell_length_c 19.270770
_cell_angle_alpha 90.000000
_cell_angle_beta 90.000000
_cell_angle_gamma 90.000000
_cell_volume 1725.197862
_symmetry_space_group_name_H-M "P M M A"
_symmetry_group_IT_number 51
_symmetry_cell_setting 'orthorhombic'
loop_
_space_group_symop_operation_xyz
x,y,z
1/2-x,-y,z
1/2+x,-y,-z
-x,y,-z
-x,-y,-z
1/2+x,y,-z
1/2-x,y,z
x,-y,z
loop_
_atom_site_type_symbol
_atom_site_label
_atom_site_fract_x
_atom_site_fract_y
_atom_site_fract_z
Si Si1 0.422095 0.154751 0.569190
Si Si2 0.931042 0.500000 0.923422
Si Si3 0.430317 0.000000 0.924934
Si Si4 0.931065 0.256261 0.154539
Si Si5 0.929992 0.150770 0.711676
O O1 0.500000 0.213385 0.500000
O O2 0.250000 0.210110 0.575840
O O3 0.520819 0.198842 0.635487
O O4 0.418692 0.000000 0.563980
O O5 0.750000 0.500000 0.930800
O O6 0.983560 0.374875 0.881078
O O7 0.000000 0.500000 0.000000
O O8 0.487695 0.126780 0.884457
O O9 0.250000 0.000000 0.931598
O O10 0.500000 0.000000 0.000000
O O11 0.750000 0.278226 0.149663
O O12 0.980785 0.242344 0.234339
O O13 0.750000 0.170166 0.720839
O O14 0.978052 0.000000 0.722969
#
# Coordination Sequence:
#
# PCOD8208603 Si02
#       5
#     8   4   4   8   8
#     4   9  16  26  42  67 103 145 185 227 274 328
#     4  12  26  44  62  84 111 146 187 232 282 338
#     4  10  22  36  56  82 109 138 177 222 274 332
#     4  11  22  39  59  83 111 147 186 230 281 334
#     4  10  19  31  50  78 111 147 185 229 278 331
#
# _framework density 18.548597000000001
#
# number of rings (size 3 to 8) (size 9 to 14) (size 15 to 20)
#    0.000    1.750    1.250    4.125    0.000    8.000 
#    0.000    0.000    0.000    0.000    0.000    0.875 
#    0.000    0.000    0.000    0.000    0.000    0.000 
#
# Total GULP energy -396892.161970 kJ/mol
# GULP energy per Si atom -12402.880062 kJ/mol
# Density = 1.850638 g / cm^3
# Si number density = 18.548597 Si / 1000 Ang^3
#
#
#
# Elastic Constant Matrix: (Units=GPa)
#
#
# Indices 1 2 3 4 5 6 
#
# 1 103.4398 41.1560 48.2858 0.0000 0.0000 0.0000
# 2 41.1560 93.2504 54.2215 0.0000 0.0000 0.0000
# 3 48.2858 54.2215 160.4978 0.0000 0.0000 0.0000
# 4 0.0000 0.0000 0.0000 13.4057 0.0000 0.0000
# 5 0.0000 0.0000 0.0000 0.0000 42.4481 0.0000
# 6 0.0000 0.0000 0.0000 0.0000 0.0000 9.6115
#
#
#
# Elastic Compliance Matrix: (Units=1/GPa)
#
#
# Indices 1 2 3 4 5 6 
#
# 1 0.012395 -0.004110 -0.002341 0.000000 0.000000 0.000000
# 2 -0.004110 0.014708 -0.003732 0.000000 0.000000 0.000000
# 3 -0.002341 -0.003732 0.008196 0.000000 0.000000 0.000000
# 4 0.000000 0.000000 0.000000 0.074595 0.000000 0.000000
# 5 0.000000 0.000000 0.000000 0.000000 0.023558 0.000000
# 6 0.000000 0.000000 0.000000 0.000000 0.000000 0.104042
#
#
# Mechanical properties :
#
#
# Convention : Reuss Voigt Hill
#
# Bulk Modulus (GPa) = 66.96435 71.61273 69.28854
# Shear Modulus (GPa) = 19.02313 27.32802 23.17558
#
# Velocity S-wave (km/s) = 3.20595 3.84255 3.53859
# Velocity P-wave (km/s) = 7.06290 7.64061 7.35743
#
# Compressibility (1/GPa) = 0.01493332
#
# Stress axis : x y z
#
# Youngs Moduli (GPa) = 80.67627 67.99093 122.01409
#
# Poissons Ratio (x) = 0.27941 0.28561
# Poissons Ratio (y) = 0.33154 0.45541
# Poissons Ratio (z) = 0.18884 0.25377
#
# Static dielectric constant tensor:
#      x y z
#    x 3.299920 0.000000 0.000000 
#    y 0.000000 3.138670 0.000000 
#    z 0.000000 0.000000 3.609370 
# 
# 
# High freq. dielectric constant tensor:
#      x y z
#    x 1.734730 0.000000 0.000000 
#    y 0.000000 1.671700 0.000000 
#    z 0.000000 0.000000 1.739800 
# 
# From -- ./inp_files/26970.got.cif
#   From: 2010.03.12/outbox.cif.g09.slc.cpg/sg51_14_cif.got.tgz:26970.got - 2010.04.16 13:43:02.
