data_PCOD8208641
_publ_section_title
;
Structure prediction by ZEFSAII (Michael W. Deem and Ramdas Pophale) SiO2 
 PCOD8208641
Probable space group: P M M A
;
_chemical_formula_sum "Si O2"
_cell_formula_units_Z 56
_cell_length_a 8.926836
_cell_length_b 14.705400
_cell_length_c 22.684220
_cell_angle_alpha 90.000000
_cell_angle_beta 90.000000
_cell_angle_gamma 90.000000
_cell_volume 2977.818673
_symmetry_space_group_name_H-M "P M M A"
_symmetry_group_IT_number 51
_symmetry_cell_setting 'orthorhombic'
loop_
_space_group_symop_operation_xyz
x,y,z
1/2-x,-y,z
1/2+x,-y,-z
-x,y,-z
-x,-y,-z
1/2+x,y,-z
1/2-x,y,z
x,-y,z
loop_
_atom_site_type_symbol
_atom_site_label
_atom_site_fract_x
_atom_site_fract_y
_atom_site_fract_z
Si Si1 0.574715 0.212492 0.835489
Si Si2 0.585942 0.848101 0.274027
Si Si3 0.076042 0.900402 0.601799
Si Si4 0.425976 0.896517 0.938094
Si Si5 0.072625 0.278837 0.439555
Si Si6 0.421874 0.599059 0.217209
Si Si7 0.415720 0.650917 0.671188
O O1 0.750000 0.204705 0.847884
O O2 0.533462 0.150132 0.778954
O O3 0.486565 0.175556 0.891348
O O4 0.522028 0.317542 0.824116
O O5 0.750000 0.877269 0.249116
O O6 0.535803 0.911287 0.328453
O O7 0.597398 0.749761 0.302083
O O8 0.250000 0.870301 0.595037
O O9 0.972704 0.826540 0.570145
O O10 0.047971 0.000000 0.573309
O O11 0.250000 0.883842 0.944481
O O12 0.467002 0.000000 0.919278
O O13 0.500000 0.872052 0.000000
O O14 0.250000 0.285417 0.443100
O O15 0.000000 0.313978 0.500000
O O16 0.013758 0.345352 0.388208
O O17 0.250000 0.619683 0.232528
O O18 0.440835 0.500000 0.185287
O O19 0.507045 0.589433 0.279236
O O20 0.250000 0.612332 0.656654
#
# Coordination Sequence:
#
# PCOD8208641 Si02
#       7
#     8   8   8   8   8   8   8
#     4  10  19  31  51  79 109 141 176 215 257 303
#     4   8  15  28  45  66  93 125 160 200 247 298
#     4   9  18  32  47  64  90 123 160 206 259 312
#     4  10  21  37  56  77 104 140 181 224 267 309
#     4  11  21  33  49  67  89 121 163 208 256 311
#     4   9  18  33  54  82 114 144 173 208 254 308
#     4   9  17  31  50  72  97 125 161 203 248 299
#
# _framework density 18.805712
#
# number of rings (size 3 to 8) (size 9 to 14) (size 15 to 20)
#    0.000    2.571    0.000    3.429    0.000    6.286 
#    0.000    1.429    0.000    0.857    0.000    0.000 
#    0.000    0.000    0.000    0.000    0.000    0.000 
#
# Total GULP energy -694050.714760 kJ/mol
# GULP energy per Si atom -12393.762764 kJ/mol
# Density = 1.876291 g / cm^3
# Si number density = 18.805712 Si / 1000 Ang^3
#
#
#
# Elastic Constant Matrix: (Units=GPa)
#
#
# Indices 1 2 3 4 5 6 
#
# 1 108.3108 28.8545 55.2327 0.0000 0.0000 0.0000
# 2 28.8545 69.3224 39.2606 0.0000 0.0000 0.0000
# 3 55.2327 39.2606 110.8156 0.0000 0.0000 0.0000
# 4 0.0000 0.0000 0.0000 15.7144 0.0000 0.0000
# 5 0.0000 0.0000 0.0000 0.0000 36.1222 0.0000
# 6 0.0000 0.0000 0.0000 0.0000 0.0000 16.1864
#
#
#
# Elastic Compliance Matrix: (Units=1/GPa)
#
#
# Indices 1 2 3 4 5 6 
#
# 1 0.012622 -0.002115 -0.005542 0.000000 0.000000 0.000000
# 2 -0.002115 0.018401 -0.005465 0.000000 0.000000 0.000000
# 3 -0.005542 -0.005465 0.013722 0.000000 0.000000 0.000000
# 4 0.000000 0.000000 0.000000 0.063636 0.000000 0.000000
# 5 0.000000 0.000000 0.000000 0.000000 0.027684 0.000000
# 6 0.000000 0.000000 0.000000 0.000000 0.000000 0.061780
#
#
# Mechanical properties :
#
#
# Convention : Reuss Voigt Hill
#
# Bulk Modulus (GPa) = 54.04974 59.46050 56.75512
# Shear Modulus (GPa) = 21.71496 24.61134 23.16315
#
# Velocity S-wave (km/s) = 3.40177 3.62154 3.51338
# Velocity P-wave (km/s) = 6.65079 7.01245 6.83401
#
# Compressibility (1/GPa) = 0.01850148
#
# Stress axis : x y z
#
# Youngs Moduli (GPa) = 79.22544 54.34536 72.87427
#
# Poissons Ratio (x) = 0.11495 0.40385
# Poissons Ratio (y) = 0.16758 0.39825
# Poissons Ratio (z) = 0.43905 0.29699
#
# Static dielectric constant tensor:
#      x y z
#    x 3.574880 0.000000 0.000000 
#    y 0.000000 3.464390 0.000000 
#    z 0.000000 0.000000 3.447680 
# 
# 
# High freq. dielectric constant tensor:
#      x y z
#    x 1.733780 0.000000 0.000000 
#    y 0.000000 1.714530 0.000000 
#    z 0.000000 0.000000 1.711150 
# 
# From -- ./inp_files/31959.got.cif
#   From: 2010.03.12/outbox.cif.g09.slc.cpg/sg51_16_cif.got.tgz:31959.got - 2010.04.16 13:43:02.
