data_PCOD8208475
_publ_section_title
;
Structure prediction by ZEFSAII (Michael W. Deem and Ramdas Pophale) SiO2 
 PCOD8208475
Probable space group: P M M A
;
_chemical_formula_sum "Si O2"
_cell_formula_units_Z 64
_cell_length_a 23.842040
_cell_length_b 9.132518
_cell_length_c 16.410053
_cell_angle_alpha 90.000000
_cell_angle_beta 90.000000
_cell_angle_gamma 90.000000
_cell_volume 3573.089814
_symmetry_space_group_name_H-M "P M M A"
_symmetry_group_IT_number 51
_symmetry_cell_setting 'orthorhombic'
loop_
_space_group_symop_operation_xyz
x,y,z
1/2-x,-y,z
1/2+x,-y,-z
-x,y,-z
-x,-y,-z
1/2+x,y,-z
1/2-x,y,z
x,-y,z
loop_
_atom_site_type_symbol
_atom_site_label
_atom_site_fract_x
_atom_site_fract_y
_atom_site_fract_z
Si Si1 0.378253 0.172026 0.228452
Si Si2 0.816592 0.664325 0.093499
Si Si3 0.814211 0.829114 0.934347
Si Si4 0.582635 0.829237 0.360452
Si Si5 0.022555 0.670793 0.309820
Si Si6 0.912401 0.334612 0.524987
Si Si7 0.686452 0.666068 0.637611
Si Si8 0.186417 0.829837 0.746647
O O1 0.354411 0.213624 0.140129
O O2 0.436479 0.256315 0.243335
O O3 0.331656 0.220948 0.293290
O O4 0.388547 0.000000 0.237879
O O5 0.750000 0.666911 0.092323
O O6 0.840492 0.500000 0.093959
O O7 0.837375 0.745273 0.174757
O O8 0.838709 0.745572 0.012881
O O9 0.750000 0.782323 0.914249
O O10 0.816710 0.000000 0.953630
O O11 0.538243 0.745095 0.303221
O O12 0.576180 0.777683 0.453076
O O13 0.645368 0.794092 0.328714
O O14 0.568964 0.000000 0.356271
O O15 0.018163 0.500000 0.289673
O O16 0.045665 0.698744 0.400794
O O17 0.921828 0.500000 0.492530
O O18 0.849023 0.311367 0.555582
O O19 0.750000 0.697377 0.613189
O O20 0.677129 0.500000 0.670372
O O21 0.250000 0.780765 0.723412
O O22 0.185245 0.000000 0.769029
#
# Coordination Sequence:
#
# PCOD8208475 Si02
#       8
#     8   8   8   8   8   8   8   8
#     4  10  19  31  49  74 102 132 170 211 246 287
#     4   9  17  29  48  75 102 129 165 204 238 280
#     4   9  17  29  47  73 105 138 166 195 240 293
#     4  11  22  34  53  78  98 123 164 209 250 295
#     4  10  21  37  54  71  97 133 168 205 253 300
#     4   9  19  34  50  70  97 131 169 207 249 295
#     4   9  18  32  48  68 100 140 173 202 246 300
#     4   9  19  36  54  73 102 134 159 192 246 304
#
# _framework density 17.911667999999999
#
# number of rings (size 3 to 8) (size 9 to 14) (size 15 to 20)
#    0.000    2.500    0.000    3.000    0.000    8.750 
#    0.000    1.250    0.000    0.750    0.000    5.250 
#    0.000    0.000    0.000    0.000    0.000    0.000 
#
# Total GULP energy -793635.443917 kJ/mol
# GULP energy per Si atom -12400.553811 kJ/mol
# Density = 1.787090 g / cm^3
# Si number density = 17.911668 Si / 1000 Ang^3
#
#
#
# Elastic Constant Matrix: (Units=GPa)
#
#
# Indices 1 2 3 4 5 6 
#
# 1 88.4712 36.1314 21.7638 0.0000 0.0000 0.0000
# 2 36.1314 84.2090 39.2497 0.0000 0.0000 0.0000
# 3 21.7638 39.2497 67.7313 0.0000 0.0000 0.0000
# 4 0.0000 0.0000 0.0000 23.0693 0.0000 0.0000
# 5 0.0000 0.0000 0.0000 0.0000 16.0525 0.0000
# 6 0.0000 0.0000 0.0000 0.0000 0.0000 25.5747
#
#
#
# Elastic Compliance Matrix: (Units=1/GPa)
#
#
# Indices 1 2 3 4 5 6 
#
# 1 0.013797 -0.005280 -0.001374 0.000000 0.000000 0.000000
# 2 -0.005280 0.018290 -0.008902 0.000000 0.000000 0.000000
# 3 -0.001374 -0.008902 0.020365 0.000000 0.000000 0.000000
# 4 0.000000 0.000000 0.000000 0.043348 0.000000 0.000000
# 5 0.000000 0.000000 0.000000 0.000000 0.062296 0.000000
# 6 0.000000 0.000000 0.000000 0.000000 0.000000 0.039101
#
#
# Mechanical properties :
#
#
# Convention : Reuss Voigt Hill
#
# Bulk Modulus (GPa) = 46.86054 48.30017 47.58035
# Shear Modulus (GPa) = 21.23854 22.49042 21.86448
#
# Velocity S-wave (km/s) = 3.44719 3.54733 3.49762
# Velocity P-wave (km/s) = 6.48560 6.61834 6.55230
#
# Compressibility (1/GPa) = 0.02133992
#
# Stress axis : x y z
#
# Youngs Moduli (GPa) = 72.47815 54.67498 49.10492
#
# Poissons Ratio (x) = 0.28866 0.06747
# Poissons Ratio (y) = 0.38265 0.43715
# Poissons Ratio (z) = 0.09958 0.48674
#
# Static dielectric constant tensor:
#      x y z
#    x 3.342040 0.000000 0.000000 
#    y 0.000000 3.382920 0.000000 
#    z 0.000000 0.000000 3.165390 
# 
# 
# High freq. dielectric constant tensor:
#      x y z
#    x 1.681410 0.000000 0.000000 
#    y 0.000000 1.700150 0.000000 
#    z 0.000000 0.000000 1.677660 
# 
# From -- ./inp_files/26194.got.cif
#   From: 2010.03.12/outbox.cif.g09.slc.cpg/sg51_14_cif.got.tgz:26194.got - 2010.04.16 13:43:02.
