data_PCOD8208713
_publ_section_title
;
Structure prediction by ZEFSAII (Michael W. Deem and Ramdas Pophale) SiO2 
 PCOD8208713
Probable space group: P M M A
;
_chemical_formula_sum "Si O2"
_cell_formula_units_Z 52
_cell_length_a 8.992312
_cell_length_b 10.293122
_cell_length_c 30.444935
_cell_angle_alpha 90.000000
_cell_angle_beta 90.000000
_cell_angle_gamma 90.000000
_cell_volume 2817.951657
_symmetry_space_group_name_H-M "P M M A"
_symmetry_group_IT_number 51
_symmetry_cell_setting 'orthorhombic'
loop_
_space_group_symop_operation_xyz
x,y,z
1/2-x,-y,z
1/2+x,-y,-z
-x,y,-z
-x,-y,-z
1/2+x,y,-z
1/2-x,y,z
x,-y,z
loop_
_atom_site_type_symbol
_atom_site_label
_atom_site_fract_x
_atom_site_fract_y
_atom_site_fract_z
Si Si1 0.074511 0.848957 0.112418
Si Si2 0.583305 0.844633 0.712707
Si Si3 0.916294 0.846575 0.201699
Si Si4 0.087843 0.854606 0.629774
Si Si5 0.575996 0.219402 0.547406
Si Si6 0.417388 0.500000 0.455449
Si Si7 0.075382 0.647818 0.953288
O O1 0.250000 0.826451 0.110678
O O2 0.016223 0.807567 0.160237
O O3 0.994921 0.754328 0.078469
O O4 0.035043 0.000000 0.102002
O O5 0.750000 0.788709 0.714926
O O6 0.492248 0.790088 0.754394
O O7 0.508309 0.786976 0.668245
O O8 0.588410 0.000000 0.712761
O O9 0.750000 0.788033 0.196704
O O10 0.906490 0.000000 0.205796
O O11 0.250000 0.785953 0.624084
O O12 0.001436 0.868705 0.583577
O O13 0.115580 0.000000 0.646163
O O14 0.500000 0.199971 0.500000
O O15 0.750000 0.185046 0.542735
O O16 0.548166 0.364198 0.568643
O O17 0.250000 0.500000 0.471095
O O18 0.500000 0.500000 0.500000
O O19 0.250000 0.675166 0.957648
O O20 0.046300 0.500000 0.936328
O O21 0.000000 0.667988 0.000000
#
# Coordination Sequence:
#
# PCOD8208713 Si02
#       7
#     8   8   8   8   8   4   8
#     4  10  20  33  51  78 109 139 174 217 264 312
#     4   9  16  27  44  66  93 125 160 197 237 284
#     4   9  16  27  45  70 100 131 162 201 248 294
#     4  10  20  32  45  65  94 126 159 192 229 278
#     4  10  19  32  49  68  90 116 149 189 233 280
#     4   8  16  30  48  68  86 106 138 182 226 268
#     4  10  21  37  56  77 103 139 182 223 264 313
#
# _framework density 18.453120999999999
#
# number of rings (size 3 to 8) (size 9 to 14) (size 15 to 20)
#    0.000    2.462    0.000    2.769    0.000    7.692 
#    0.000    0.000    0.000    0.000    2.000    0.000 
#    0.000    0.000    0.000    0.000    0.000    0.000 
#
# Total GULP energy -644322.336079 kJ/mol
# GULP energy per Si atom -12390.814155 kJ/mol
# Density = 1.841112 g / cm^3
# Si number density = 18.453121 Si / 1000 Ang^3
#
#
#
# Elastic Constant Matrix: (Units=GPa)
#
#
# Indices 1 2 3 4 5 6 
#
# 1 158.1477 34.7753 79.3276 0.0000 0.0000 0.0000
# 2 34.7753 45.1460 38.7442 0.0000 0.0000 0.0000
# 3 79.3276 38.7442 143.8509 0.0000 0.0000 0.0000
# 4 0.0000 0.0000 0.0000 0.5043 0.0000 0.0000
# 5 0.0000 0.0000 0.0000 0.0000 39.8765 0.0000
# 6 0.0000 0.0000 0.0000 0.0000 0.0000 17.6037
#
#
#
# Elastic Compliance Matrix: (Units=1/GPa)
#
#
# Indices 1 2 3 4 5 6 
#
# 1 0.009156 -0.003537 -0.004096 0.000000 0.000000 0.000000
# 2 -0.003537 0.030176 -0.006177 0.000000 0.000000 0.000000
# 3 -0.004096 -0.006177 0.010874 0.000000 0.000000 0.000000
# 4 0.000000 0.000000 0.000000 1.983143 0.000000 0.000000
# 5 0.000000 0.000000 0.000000 0.000000 0.025077 0.000000
# 6 0.000000 0.000000 0.000000 0.000000 0.000000 0.056806
#
#
# Mechanical properties :
#
#
# Convention : Reuss Voigt Hill
#
# Bulk Modulus (GPa) = 44.27659 72.53764 58.40711
# Shear Modulus (GPa) = 2.32517 24.55007 13.43762
#
# Velocity S-wave (km/s) = 1.12373 3.65142 2.70145
# Velocity P-wave (km/s) = 5.07246 7.56120 6.43823
#
# Compressibility (1/GPa) = 0.02258530
#
# Stress axis : x y z
#
# Youngs Moduli (GPa) = 109.22156 33.13899 91.96031
#
# Poissons Ratio (x) = 0.11721 0.37670
# Poissons Ratio (y) = 0.38632 0.56803
# Poissons Ratio (z) = 0.44741 0.20470
#
# Static dielectric constant tensor:
#      x y z
#    x 3.742080 0.000000 0.000000 
#    y 0.000000 3.217850 0.000000 
#    z 0.000000 0.000000 3.409890 
# 
# 
# High freq. dielectric constant tensor:
#      x y z
#    x 1.740560 0.000000 0.000000 
#    y 0.000000 1.665740 0.000000 
#    z 0.000000 0.000000 1.713850 
# 
# From -- ./inp_files/36236.got.cif
#   From: 2010.03.12/outbox.cif.g09.slc.cpg/sg51_19_cif.got.tgz:36236.got - 2010.04.16 13:43:02.
