data_PCOD8208104
_publ_section_title
;
Structure prediction by ZEFSAII (Michael W. Deem and Ramdas Pophale) SiO2 
 PCOD8208104
Probable space group: P M M A
;
_chemical_formula_sum "Si O2"
_cell_formula_units_Z 48
_cell_length_a 30.427657
_cell_length_b 8.936197
_cell_length_c 9.589136
_cell_angle_alpha 90.000000
_cell_angle_beta 90.000000
_cell_angle_gamma 90.000000
_cell_volume 2607.358354
_symmetry_space_group_name_H-M "P M M A"
_symmetry_group_IT_number 51
_symmetry_cell_setting 'orthorhombic'
loop_
_space_group_symop_operation_xyz
x,y,z
1/2-x,-y,z
1/2+x,-y,-z
-x,y,-z
-x,-y,-z
1/2+x,y,-z
1/2-x,y,z
x,-y,z
loop_
_atom_site_type_symbol
_atom_site_label
_atom_site_fract_x
_atom_site_fract_y
_atom_site_fract_z
Si Si1 0.625563 0.677574 0.651981
Si Si2 0.301129 0.826234 0.852497
Si Si3 0.047416 0.678148 0.160439
Si Si4 0.449955 0.677731 0.847811
Si Si5 0.699843 0.325114 0.860982
Si Si6 0.629678 0.678436 0.337949
O O1 0.622387 0.500000 0.647982
O O2 0.582714 0.744267 0.730596
O O3 0.669585 0.727979 0.732831
O O4 0.626980 0.740700 0.495425
O O5 0.250000 0.795154 0.826796
O O6 0.326365 0.742178 0.729859
O O7 0.312768 0.000000 0.849166
O O8 0.315736 0.761637 0.001672
O O9 0.049216 0.500000 0.161382
O O10 0.998315 0.732630 0.201895
O O11 0.059342 0.735312 0.004834
O O12 0.448743 0.500000 0.845667
O O13 0.412891 0.741361 0.744357
O O14 0.750000 0.286259 0.821164
O O15 0.693635 0.500000 0.892356
O O16 0.631853 0.500000 0.333996
#
# Coordination Sequence:
#
# PCOD8208104 Si02
#       6
#     8   8   8   8   8   8
#     4   9  17  27  43  71 103 130 156 191 236 284
#     4  10  21  36  52  70  92 121 159 199 238 282
#     4   8  13  23  39  63  97 130 159 194 233 271
#     4   8  14  24  41  66  95 127 160 194 232 273
#     4   9  17  31  51  72  93 119 154 197 240 280
#     4  10  19  30  47  73 101 128 158 192 235 284
#
# _framework density 18.409435999999999
#
# number of rings (size 3 to 8) (size 9 to 14) (size 15 to 20)
#    0.000    3.000    0.000    2.500    0.000    5.000 
#    0.000    5.833    0.000    2.000    0.000   11.667 
#    0.000    0.000    0.000    0.000    0.000    0.000 
#
# Total GULP energy -595060.005744 kJ/mol
# GULP energy per Si atom -12397.083453 kJ/mol
# Density = 1.836754 g / cm^3
# Si number density = 18.409436 Si / 1000 Ang^3
#
#
#
# Elastic Constant Matrix: (Units=GPa)
#
#
# Indices 1 2 3 4 5 6 
#
# 1 124.1065 23.2323 95.5073 0.0000 0.0000 0.0000
# 2 23.2323 20.3420 25.2336 0.0000 0.0000 0.0000
# 3 95.5073 25.2336 168.0402 0.0000 0.0000 0.0000
# 4 0.0000 0.0000 0.0000 4.3439 0.0000 0.0000
# 5 0.0000 0.0000 0.0000 0.0000 25.1120 0.0000
# 6 0.0000 0.0000 0.0000 0.0000 0.0000 9.0106
#
#
#
# Elastic Compliance Matrix: (Units=1/GPa)
#
#
# Indices 1 2 3 4 5 6 
#
# 1 0.015373 -0.008257 -0.007498 0.000000 0.000000 0.000000
# 2 -0.008257 0.064847 -0.005045 0.000000 0.000000 0.000000
# 3 -0.007498 -0.005045 0.010970 0.000000 0.000000 0.000000
# 4 0.000000 0.000000 0.000000 0.230207 0.000000 0.000000
# 5 0.000000 0.000000 0.000000 0.000000 0.039822 0.000000
# 6 0.000000 0.000000 0.000000 0.000000 0.000000 0.110980
#
#
# Mechanical properties :
#
#
# Convention : Reuss Voigt Hill
#
# Bulk Modulus (GPa) = 20.16467 66.71502 43.43984
# Shear Modulus (GPa) = 9.42813 18.92769 14.17791
#
# Velocity S-wave (km/s) = 2.26550 3.20996 2.77816
# Velocity P-wave (km/s) = 4.22144 7.07508 5.82569
#
# Compressibility (1/GPa) = 0.04959169
#
# Stress axis : x y z
#
# Youngs Moduli (GPa) = 65.04891 15.42083 91.15910
#
# Poissons Ratio (x) = 0.12733 0.68347
# Poissons Ratio (y) = 0.53710 0.45989
# Poissons Ratio (z) = 0.48771 0.07780
#
# Static dielectric constant tensor:
#      x y z
#    x 3.679350 0.000000 0.000000 
#    y 0.000000 2.811590 0.000000 
#    z 0.000000 0.000000 3.591680 
# 
# 
# High freq. dielectric constant tensor:
#      x y z
#    x 1.729430 0.000000 0.000000 
#    y 0.000000 1.650850 0.000000 
#    z 0.000000 0.000000 1.713630 
# 
# From -- ./inp_files/12795.got.cif
#   From: 2010.03.12/outbox.cif.g09.slc.cpg/sg51_7_cif.got.tgz:12795.got - 2010.04.16 13:43:02.
