data_PCOD8208463
_publ_section_title
;
Structure prediction by ZEFSAII (Michael W. Deem and Ramdas Pophale) SiO2 
 PCOD8208463
Probable space group: P M M A
;
_chemical_formula_sum "Si O2"
_cell_formula_units_Z 44
_cell_length_a 8.964151
_cell_length_b 28.331241
_cell_length_c 9.452376
_cell_angle_alpha 90.000000
_cell_angle_beta 90.000000
_cell_angle_gamma 90.000000
_cell_volume 2400.577608
_symmetry_space_group_name_H-M "P M M A"
_symmetry_group_IT_number 51
_symmetry_cell_setting 'orthorhombic'
loop_
_space_group_symop_operation_xyz
x,y,z
1/2-x,-y,z
1/2+x,-y,-z
-x,y,-z
-x,-y,-z
1/2+x,y,-z
1/2-x,y,z
x,-y,z
loop_
_atom_site_type_symbol
_atom_site_label
_atom_site_fract_x
_atom_site_fract_y
_atom_site_fract_z
Si Si1 0.425884 0.500000 0.849640
Si Si2 0.574784 0.229722 0.150927
Si Si3 0.573167 0.142693 0.346516
Si Si4 0.924835 0.948774 0.651998
Si Si5 0.074896 0.418188 0.645182
Si Si6 0.074662 0.311512 0.645967
O O1 0.250000 0.500000 0.868986
O O2 0.480275 0.546794 0.767636
O O3 0.500000 0.500000 0.000000
O O4 0.750000 0.230568 0.127114
O O5 0.526161 0.185731 0.246938
O O6 0.519705 0.277491 0.228370
O O7 0.500000 0.225641 0.000000
O O8 0.500000 0.150514 0.500000
O O9 0.750000 0.138494 0.363449
O O10 0.506982 0.095103 0.270916
O O11 0.750000 0.937701 0.636451
O O12 0.000000 0.951787 0.500000
O O13 0.948694 0.000000 0.728650
O O14 0.250000 0.422466 0.622142
O O15 0.027724 0.364892 0.686515
O O16 0.000000 0.434276 0.500000
O O17 0.250000 0.306635 0.623034
O O18 0.000000 0.295390 0.500000
#
# Coordination Sequence:
#
# PCOD8208463 Si02
#       6
#     4   8   8   8   8   8
#     4  10  21  34  48  72 104 136 169 206 246 290
#     4  10  22  36  50  71  99 130 164 201 243 291
#     4  10  19  31  49  73  98 126 161 200 241 287
#     4   9  16  26  43  69  98 126 157 195 239 285
#     4   9  18  33  53  75 100 129 164 206 248 292
#     4   9  18  34  54  76 100 127 162 204 248 294
#
# _framework density 18.328923
#
# number of rings (size 3 to 8) (size 9 to 14) (size 15 to 20)
#    0.000    2.545    0.000    3.000    0.000    4.727 
#    0.000    0.000    0.000    0.545    0.000    0.000 
#    0.000    0.000    0.000    0.000    0.000    0.000 
#
# Total GULP energy -545406.116755 kJ/mol
# GULP energy per Si atom -12395.593563 kJ/mol
# Density = 1.828721 g / cm^3
# Si number density = 18.328923 Si / 1000 Ang^3
#
#
#
# Elastic Constant Matrix: (Units=GPa)
#
#
# Indices 1 2 3 4 5 6 
#
# 1 55.7469 49.4890 43.7347 0.0000 0.0000 0.0000
# 2 49.4890 163.3427 91.5752 0.0000 0.0000 0.0000
# 3 43.7347 91.5752 125.2705 0.0000 0.0000 0.0000
# 4 0.0000 0.0000 0.0000 6.5150 0.0000 0.0000
# 5 0.0000 0.0000 0.0000 0.0000 30.9595 0.0000
# 6 0.0000 0.0000 0.0000 0.0000 0.0000 24.1830
#
#
#
# Elastic Compliance Matrix: (Units=1/GPa)
#
#
# Indices 1 2 3 4 5 6 
#
# 1 0.026814 -0.004873 -0.005799 0.000000 0.000000 0.000000
# 2 -0.004873 0.011259 -0.006529 0.000000 0.000000 0.000000
# 3 -0.005799 -0.006529 0.014780 0.000000 0.000000 0.000000
# 4 0.000000 0.000000 0.000000 0.153493 0.000000 0.000000
# 5 0.000000 0.000000 0.000000 0.000000 0.032300 0.000000
# 6 0.000000 0.000000 0.000000 0.000000 0.000000 0.041351
#
#
# Mechanical properties :
#
#
# Convention : Reuss Voigt Hill
#
# Bulk Modulus (GPa) = 54.19909 79.32867 66.76388
# Shear Modulus (GPa) = 15.59818 22.96890 19.28354
#
# Velocity S-wave (km/s) = 2.92038 3.54383 3.24710
# Velocity P-wave (km/s) = 6.40359 7.75368 7.11075
#
# Compressibility (1/GPa) = 0.01845049
#
# Stress axis : x y z
#
# Youngs Moduli (GPa) = 37.29463 88.81788 67.65682
#
# Poissons Ratio (x) = 0.43278 0.39235
# Poissons Ratio (y) = 0.18172 0.44176
# Poissons Ratio (z) = 0.21628 0.57993
#
# Static dielectric constant tensor:
#      x y z
#    x 3.329460 0.000000 0.000000 
#    y 0.000000 4.159360 0.000000 
#    z 0.000000 0.000000 3.324540 
# 
# 
# High freq. dielectric constant tensor:
#      x y z
#    x 1.710280 0.000000 0.000000 
#    y 0.000000 1.736760 0.000000 
#    z 0.000000 0.000000 1.674670 
# 
# From -- ./inp_files/5786.got.cif
#   From: 2010.03.12/outbox.cif.g09.slc.cpg/sg51_3_cif.got.tgz:5786.got - 2010.04.16 13:43:02.
