data_PCOD8208297
_publ_section_title
;
Structure prediction by ZEFSAII (Michael W. Deem and Ramdas Pophale) SiO2 
 PCOD8208297
Probable space group: P M M A
;
_chemical_formula_sum "Si O2"
_cell_formula_units_Z 64
_cell_length_a 8.976278
_cell_length_b 19.891457
_cell_length_c 18.004612
_cell_angle_alpha 90.000000
_cell_angle_beta 90.000000
_cell_angle_gamma 90.000000
_cell_volume 3214.745940
_symmetry_space_group_name_H-M "P M M A"
_symmetry_group_IT_number 51
_symmetry_cell_setting 'orthorhombic'
loop_
_space_group_symop_operation_xyz
x,y,z
1/2-x,-y,z
1/2+x,-y,-z
-x,y,-z
-x,-y,-z
1/2+x,y,-z
1/2-x,y,z
x,-y,z
loop_
_atom_site_type_symbol
_atom_site_label
_atom_site_fract_x
_atom_site_fract_y
_atom_site_fract_z
Si Si1 0.575147 0.605885 0.424316
Si Si2 0.574642 0.714187 0.782293
Si Si3 0.921055 0.110723 0.425219
Si Si4 0.087534 0.075738 0.280583
Si Si5 0.572312 0.204064 0.925648
Si Si6 0.418522 0.746527 0.636937
Si Si7 0.925062 0.078611 0.136171
Si Si8 0.578088 0.426952 0.723077
O O1 0.500000 0.579636 0.500000
O O2 0.750000 0.593072 0.430806
O O3 0.531255 0.683740 0.412573
O O4 0.513230 0.566746 0.353209
O O5 0.750000 0.719042 0.782434
O O6 0.515347 0.748256 0.858006
O O7 0.516997 0.755751 0.710936
O O8 0.521985 0.635468 0.774626
O O9 0.750000 0.087290 0.426491
O O10 0.937288 0.190378 0.416567
O O11 0.000000 0.086678 0.500000
O O12 0.004863 0.075335 0.358457
O O13 0.250000 0.113182 0.282839
O O14 0.980028 0.104847 0.217002
O O15 0.119409 0.000000 0.258030
O O16 0.750000 0.202452 0.931393
O O17 0.511801 0.127330 0.920213
O O18 0.500000 0.235472 0.000000
O O19 0.250000 0.737159 0.664822
O O20 0.750000 0.091496 0.130604
O O21 0.962188 0.000000 0.119829
O O22 0.750000 0.414206 0.702514
O O23 0.558276 0.500000 0.763730
#
# Coordination Sequence:
#
# PCOD8208297 Si02
#       8
#     8   8   8   8   8   8   8   8
#     4  10  19  31  47  70 103 139 175 216 263 314
#     4   9  19  35  56  81 106 136 175 218 263 313
#     4  11  22  34  49  70  97 130 172 222 275 325
#     4  10  21  37  55  74  98 131 172 216 262 314
#     4  11  23  38  58  85 116 147 178 214 259 312
#     4   9  19  33  50  73  99 131 170 213 262 315
#     4  10  21  38  60  85 113 145 180 217 258 309
#     4   9  18  34  55  77 102 136 179 224 269 317
#
# _framework density 19.908259999999999
#
# number of rings (size 3 to 8) (size 9 to 14) (size 15 to 20)
#    0.000    2.125    0.000    3.000    0.000    7.000 
#    0.000    0.000    0.000    0.375    0.000    0.000 
#    0.000    0.000    0.000    0.000    0.000    0.125 
#
# Total GULP energy -793340.866948 kJ/mol
# GULP energy per Si atom -12395.951046 kJ/mol
# Density = 1.986295 g / cm^3
# Si number density = 19.908260 Si / 1000 Ang^3
#
#
#
# Elastic Constant Matrix: (Units=GPa)
#
#
# Indices 1 2 3 4 5 6 
#
# 1 87.2154 24.4576 36.4259 0.0000 0.0000 0.0000
# 2 24.4576 69.9543 27.9999 0.0000 0.0000 0.0000
# 3 36.4259 27.9999 108.8048 0.0000 0.0000 0.0000
# 4 0.0000 0.0000 0.0000 11.0089 0.0000 0.0000
# 5 0.0000 0.0000 0.0000 0.0000 34.2821 0.0000
# 6 0.0000 0.0000 0.0000 0.0000 0.0000 19.3276
#
#
#
# Elastic Compliance Matrix: (Units=1/GPa)
#
#
# Indices 1 2 3 4 5 6 
#
# 1 0.014007 -0.003367 -0.003823 0.000000 0.000000 0.000000
# 2 -0.003367 0.016746 -0.003182 0.000000 0.000000 0.000000
# 3 -0.003823 -0.003182 0.011289 0.000000 0.000000 0.000000
# 4 0.000000 0.000000 0.000000 0.090836 0.000000 0.000000
# 5 0.000000 0.000000 0.000000 0.000000 0.029170 0.000000
# 6 0.000000 0.000000 0.000000 0.000000 0.000000 0.051740
#
#
# Mechanical properties :
#
#
# Convention : Reuss Voigt Hill
#
# Bulk Modulus (GPa) = 46.95222 49.30459 48.12841
# Shear Modulus (GPa) = 20.69277 24.72980 22.71128
#
# Velocity S-wave (km/s) = 3.22748 3.52829 3.38123
# Velocity P-wave (km/s) = 6.12571 6.43569 6.28261
#
# Compressibility (1/GPa) = 0.02129825
#
# Stress axis : x y z
#
# Youngs Moduli (GPa) = 71.39483 59.71605 88.57823
#
# Poissons Ratio (x) = 0.20106 0.33861
# Poissons Ratio (y) = 0.24038 0.28188
# Poissons Ratio (z) = 0.27292 0.19003
#
# Static dielectric constant tensor:
#      x y z
#    x 3.724150 0.000000 0.000000 
#    y 0.000000 3.786610 0.000000 
#    z 0.000000 0.000000 3.505360 
# 
# 
# High freq. dielectric constant tensor:
#      x y z
#    x 1.781740 0.000000 0.000000 
#    y 0.000000 1.776300 0.000000 
#    z 0.000000 0.000000 1.754930 
# 
# From -- ./inp_files/28427.got.cif
#   From: 2010.03.12/outbox.cif.g09.slc.cpg/sg51_15_cif.got.tgz:28427.got - 2010.04.16 13:43:02.
