data_PCOD8208033
_publ_section_title
;
Structure prediction by ZEFSAII (Michael W. Deem and Ramdas Pophale) SiO2 
 PCOD8208033
Probable space group: P M M A
;
_chemical_formula_sum "Si O2"
_cell_formula_units_Z 64
_cell_length_a 9.193217
_cell_length_b 19.767338
_cell_length_c 17.733646
_cell_angle_alpha 90.000000
_cell_angle_beta 90.000000
_cell_angle_gamma 90.000000
_cell_volume 3222.654405
_symmetry_space_group_name_H-M "P M M A"
_symmetry_group_IT_number 51
_symmetry_cell_setting 'orthorhombic'
loop_
_space_group_symop_operation_xyz
x,y,z
1/2-x,-y,z
1/2+x,-y,-z
-x,y,-z
-x,-y,-z
1/2+x,y,-z
1/2-x,y,z
x,-y,z
loop_
_atom_site_type_symbol
_atom_site_label
_atom_site_fract_x
_atom_site_fract_y
_atom_site_fract_z
Si Si1 0.913732 0.118968 0.428526
Si Si2 0.920310 0.294535 0.209828
Si Si3 0.090701 0.922048 0.728624
Si Si4 0.419241 0.392372 0.427707
Si Si5 0.420518 0.781596 0.074271
Si Si6 0.087879 0.731783 0.620884
Si Si7 0.581667 0.575244 0.739798
Si Si8 0.583366 0.924363 0.870056
O O1 0.750000 0.091486 0.435851
O O2 0.985570 0.089800 0.352061
O O3 0.920092 0.199271 0.424636
O O4 0.000000 0.090961 0.500000
O O5 0.750000 0.297881 0.188541
O O6 0.946772 0.257342 0.290110
O O7 0.006552 0.252746 0.146827
O O8 0.981791 0.371316 0.215785
O O9 0.250000 0.885406 0.729602
O O10 0.994001 0.894209 0.796024
O O11 0.112606 0.000000 0.744170
O O12 0.500000 0.425917 0.500000
O O13 0.250000 0.395306 0.445576
O O14 0.469546 0.314983 0.418920
O O15 0.458108 0.429180 0.349276
O O16 0.250000 0.762729 0.072989
O O17 0.440865 0.863812 0.070645
O O18 0.500000 0.752649 0.000000
O O19 0.250000 0.699765 0.613763
O O20 0.750000 0.597150 0.748974
O O21 0.554898 0.500000 0.773398
O O22 0.750000 0.932081 0.848346
O O23 0.526665 0.000000 0.896807
#
# Coordination Sequence:
#
# PCOD8208033 Si02
#       8
#     8   8   8   8   8   8   8   8
#     4  10  20  31  43  63  91 124 166 216 268 317
#     4  10  20  36  59  84 110 141 180 225 270 320
#     4   9  18  33  51  69  92 126 168 213 262 317
#     4  10  19  30  46  70 102 139 178 221 269 318
#     4  11  23  38  58  85 117 149 179 214 260 314
#     4   9  18  32  49  69  95 129 170 216 264 317
#     4   9  19  36  56  79 109 146 187 229 275 327
#     4   9  19  36  57  82 111 142 178 219 261 310
#
# _framework density 19.859404999999999
#
# number of rings (size 3 to 8) (size 9 to 14) (size 15 to 20)
#    0.000    2.375    0.000    2.250    0.000    6.000 
#    0.000    0.000    0.000    0.375    0.000    0.000 
#    0.000    0.000    0.000    0.000    0.000    0.000 
#
# Total GULP energy -793158.614103 kJ/mol
# GULP energy per Si atom -12393.103345 kJ/mol
# Density = 1.981420 g / cm^3
# Si number density = 19.859405 Si / 1000 Ang^3
#
#
#
# Elastic Constant Matrix: (Units=GPa)
#
#
# Indices 1 2 3 4 5 6 
#
# 1 88.3931 32.5434 40.6588 0.0000 0.0000 0.0000
# 2 32.5434 55.6615 19.2943 0.0000 0.0000 0.0000
# 3 40.6588 19.2943 78.9653 0.0000 0.0000 0.0000
# 4 0.0000 0.0000 0.0000 9.7535 0.0000 0.0000
# 5 0.0000 0.0000 0.0000 0.0000 31.9658 0.0000
# 6 0.0000 0.0000 0.0000 0.0000 0.0000 20.2249
#
#
#
# Elastic Compliance Matrix: (Units=1/GPa)
#
#
# Indices 1 2 3 4 5 6 
#
# 1 0.017414 -0.007728 -0.007078 0.000000 0.000000 0.000000
# 2 -0.007728 0.023058 -0.001655 0.000000 0.000000 0.000000
# 3 -0.007078 -0.001655 0.016713 0.000000 0.000000 0.000000
# 4 0.000000 0.000000 0.000000 0.102527 0.000000 0.000000
# 5 0.000000 0.000000 0.000000 0.000000 0.031283 0.000000
# 6 0.000000 0.000000 0.000000 0.000000 0.000000 0.049444
#
#
# Mechanical properties :
#
#
# Convention : Reuss Voigt Hill
#
# Bulk Modulus (GPa) = 41.21582 45.33478 43.27530
# Shear Modulus (GPa) = 17.76525 21.09039 19.42782
#
# Velocity S-wave (km/s) = 2.99415 3.26235 3.13112
# Velocity P-wave (km/s) = 5.72294 6.08835 5.90847
#
# Compressibility (1/GPa) = 0.02426253
#
# Stress axis : x y z
#
# Youngs Moduli (GPa) = 57.42500 43.36975 59.83488
#
# Poissons Ratio (x) = 0.33515 0.42352
# Poissons Ratio (y) = 0.44377 0.09902
# Poissons Ratio (z) = 0.40646 0.07177
#
# Static dielectric constant tensor:
#      x y z
#    x 3.803510 0.000000 0.000000 
#    y 0.000000 3.521140 0.000000 
#    z 0.000000 0.000000 3.447020 
# 
# 
# High freq. dielectric constant tensor:
#      x y z
#    x 1.771100 0.000000 0.000000 
#    y 0.000000 1.764680 0.000000 
#    z 0.000000 0.000000 1.759810 
# 
# From -- ./inp_files/28497.got.cif
#   From: 2010.03.12/outbox.cif.g09.slc.cpg/sg51_15_cif.got.tgz:28497.got - 2010.04.16 13:43:02.
