data_PCOD8208272
_publ_section_title
;
Structure prediction by ZEFSAII (Michael W. Deem and Ramdas Pophale) SiO2 
 PCOD8208272
Probable space group: P M M A
;
_chemical_formula_sum "Si O2"
_cell_formula_units_Z 40
_cell_length_a 19.897710
_cell_length_b 9.643999
_cell_length_c 12.664389
_cell_angle_alpha 90.000000
_cell_angle_beta 90.000000
_cell_angle_gamma 90.000000
_cell_volume 2430.213872
_symmetry_space_group_name_H-M "P M M A"
_symmetry_group_IT_number 51
_symmetry_cell_setting 'orthorhombic'
loop_
_space_group_symop_operation_xyz
x,y,z
1/2-x,-y,z
1/2+x,-y,-z
-x,y,-z
-x,-y,-z
1/2+x,y,-z
1/2-x,y,z
x,-y,z
loop_
_atom_site_type_symbol
_atom_site_label
_atom_site_fract_x
_atom_site_fract_y
_atom_site_fract_z
Si Si1 0.427963 0.163623 0.021204
Si Si2 0.948332 0.839746 0.752236
Si Si3 0.070113 0.338012 0.447373
Si Si4 0.327314 0.659372 0.626624
Si Si5 0.605029 0.839818 0.201419
O O1 0.406275 0.203291 0.140995
O O2 0.438027 0.000000 0.017857
O O3 0.500000 0.234493 0.000000
O O4 0.380267 0.204037 0.921904
O O5 0.918968 0.745746 0.659862
O O6 0.027409 0.812048 0.769463
O O7 0.935919 0.000000 0.723197
O O8 0.071675 0.500000 0.419955
O O9 0.129502 0.293565 0.525916
O O10 0.000000 0.294542 0.500000
O O11 0.250000 0.683544 0.597519
O O12 0.342896 0.500000 0.654120
O O13 0.346042 0.748182 0.728466
O O14 0.623318 0.000000 0.220489
#
# Coordination Sequence:
#
# PCOD8208272 Si02
#       5
#     8   8   8   8   8
#     4   7  12  24  42  67  96 120 141 174 224 274
#     4   9  16  27  47  73  97 121 151 190 234 277
#     4  10  19  31  47  67  93 124 160 199 235 276
#     4  10  21  35  48  64  92 128 159 192 239 285
#     4   9  16  28  48  71  95 121 152 189 230 278
#
# _framework density 16.459457
#
# number of rings (size 3 to 8) (size 9 to 14) (size 15 to 20)
#    0.000    3.000    2.000    2.400    0.000    1.600 
#    0.000    1.000    0.000    4.800    0.000    5.600 
#    0.000    0.000    0.000    0.000    0.000    0.000 
#
# Total GULP energy -495579.075871 kJ/mol
# GULP energy per Si atom -12389.476897 kJ/mol
# Density = 1.642199 g / cm^3
# Si number density = 16.459457 Si / 1000 Ang^3
#
#
#
# Elastic Constant Matrix: (Units=GPa)
#
#
# Indices 1 2 3 4 5 6 
#
# 1 66.3679 28.7813 52.7634 0.0000 0.0000 0.0000
# 2 28.7813 49.7400 62.0694 0.0000 0.0000 0.0000
# 3 52.7634 62.0694 167.6133 0.0000 0.0000 0.0000
# 4 0.0000 0.0000 0.0000 -2.8379 0.0000 0.0000
# 5 0.0000 0.0000 0.0000 0.0000 18.1492 0.0000
# 6 0.0000 0.0000 0.0000 0.0000 0.0000 16.6217
#
#
#
# Elastic Compliance Matrix: (Units=1/GPa)
#
#
# Indices 1 2 3 4 5 6 
#
# 1 0.021475 -0.007418 -0.004013 0.000000 0.000000 0.000000
# 2 -0.007418 0.039939 -0.012455 0.000000 0.000000 0.000000
# 3 -0.004013 -0.012455 0.011842 0.000000 0.000000 0.000000
# 4 0.000000 0.000000 0.000000 -0.352378 0.000000 0.000000
# 5 0.000000 0.000000 0.000000 0.000000 0.055099 0.000000
# 6 0.000000 0.000000 0.000000 0.000000 0.000000 0.060162
#
#
# Mechanical properties :
#
#
# Convention : Reuss Voigt Hill
#
# Bulk Modulus (GPa) = 39.24141 63.43881 51.34011
# Shear Modulus (GPa) = -46.47095 15.72707 -15.37194
#
# Velocity S-wave (km/s) = -5.31929 3.09448 -3.05934
# Velocity P-wave (km/s) = 3.71934 7.16895 4.33361
#
# Compressibility (1/GPa) = 0.02548329
#
# Stress axis : x y z
#
# Youngs Moduli (GPa) = 46.56568 25.03824 84.44863
#
# Poissons Ratio (x) = 0.18574 0.33890
# Poissons Ratio (y) = 0.34544 1.05178
# Poissons Ratio (z) = 0.18687 0.31184
#
# Static dielectric constant tensor:
#      x y z
#    x 2.762890 0.000000 0.000000 
#    y 0.000000 2.882220 0.000000 
#    z 0.000000 0.000000 3.482350 
# 
# 
# High freq. dielectric constant tensor:
#      x y z
#    x 1.588500 0.000000 0.000000 
#    y 0.000000 1.612540 0.000000 
#    z 0.000000 0.000000 1.651780 
# 
# From -- ./inp_files/17899.got.cif
#   From: 2010.03.12/outbox.cif.g09.slc.cpg/sg51_9_cif.got.tgz:17899.got - 2010.04.16 13:43:02.
