data_PCOD8208802
_publ_section_title
;
Structure prediction by ZEFSAII (Michael W. Deem and Ramdas Pophale) SiO2 
 PCOD8208802
Probable space group: P M M A
;
_chemical_formula_sum "Si O2"
_cell_formula_units_Z 56
_cell_length_a 9.405774
_cell_length_b 19.147911
_cell_length_c 18.307699
_cell_angle_alpha 90.000000
_cell_angle_beta 90.000000
_cell_angle_gamma 90.000000
_cell_volume 3297.233496
_symmetry_space_group_name_H-M "P M M A"
_symmetry_group_IT_number 51
_symmetry_cell_setting 'orthorhombic'
loop_
_space_group_symop_operation_xyz
x,y,z
1/2-x,-y,z
1/2+x,-y,-z
-x,y,-z
-x,-y,-z
1/2+x,y,-z
1/2-x,y,z
x,-y,z
loop_
_atom_site_type_symbol
_atom_site_label
_atom_site_fract_x
_atom_site_fract_y
_atom_site_fract_z
Si Si1 0.914761 0.577872 0.348722
Si Si2 0.412878 0.150304 0.070224
Si Si3 0.414067 0.722844 0.162425
Si Si4 0.416524 0.201200 0.714906
Si Si5 0.414206 0.714140 0.570564
Si Si6 0.587030 0.575665 0.797949
Si Si7 0.915898 0.919900 0.778480
O O1 0.750000 0.590445 0.330465
O O2 0.941425 0.500000 0.381202
O O3 0.966894 0.636622 0.405503
O O4 0.995779 0.587945 0.273558
O O5 0.250000 0.141085 0.048655
O O6 0.449418 0.231008 0.091007
O O7 0.453518 0.101399 0.138494
O O8 0.500000 0.126370 0.000000
O O9 0.250000 0.737546 0.184930
O O10 0.513826 0.744464 0.229192
O O11 0.440539 0.640228 0.146204
O O12 0.250000 0.194511 0.732735
O O13 0.442752 0.229506 0.633727
O O14 0.491166 0.125707 0.722340
O O15 0.500000 0.738718 0.500000
O O16 0.250000 0.711855 0.549014
O O17 0.750000 0.576231 0.772578
O O18 0.549358 0.500000 0.834360
O O19 0.750000 0.906100 0.763128
O O20 0.957379 0.000000 0.766282
#
# Coordination Sequence:
#
# PCOD8208802 Si02
#       7
#     8   8   8   8   8   8   8
#     4   9  17  30  45  63  93 128 159 198 248 292
#     4   9  18  31  47  71 101 132 161 190 226 274
#     4   9  17  30  48  68  94 128 163 200 244 288
#     4  10  19  32  50  74  99 122 159 203 238 279
#     4  10  21  33  46  68  96 129 165 202 243 286
#     4   9  16  26  44  69  91 117 160 208 248 287
#     4   9  19  36  56  77 101 129 157 186 229 284
#
# _framework density 16.983934999999999
#
# number of rings (size 3 to 8) (size 9 to 14) (size 15 to 20)
#    0.000    2.714    1.429    1.286    0.000    4.857 
#    0.000    0.000    0.000    0.857    0.000    0.000 
#    0.000    0.000    0.000    0.000    0.000    0.286 
#
# Total GULP energy -694086.807555 kJ/mol
# GULP energy per Si atom -12394.407278 kJ/mol
# Density = 1.694528 g / cm^3
# Si number density = 16.983935 Si / 1000 Ang^3
#
#
#
# Elastic Constant Matrix: (Units=GPa)
#
#
# Indices 1 2 3 4 5 6 
#
# 1 58.2670 39.0290 32.6103 0.0000 0.0000 0.0000
# 2 39.0290 132.5789 32.8195 0.0000 0.0000 0.0000
# 3 32.6103 32.8195 53.5179 0.0000 0.0000 0.0000
# 4 0.0000 0.0000 0.0000 16.3064 0.0000 0.0000
# 5 0.0000 0.0000 0.0000 0.0000 26.7209 0.0000
# 6 0.0000 0.0000 0.0000 0.0000 0.0000 22.6823
#
#
#
# Elastic Compliance Matrix: (Units=1/GPa)
#
#
# Indices 1 2 3 4 5 6 
#
# 1 0.028429 -0.004811 -0.014372 0.000000 0.000000 0.000000
# 2 -0.004811 0.009707 -0.003021 0.000000 0.000000 0.000000
# 3 -0.014372 -0.003021 0.029295 0.000000 0.000000 0.000000
# 4 0.000000 0.000000 0.000000 0.061325 0.000000 0.000000
# 5 0.000000 0.000000 0.000000 0.000000 0.037424 0.000000
# 6 0.000000 0.000000 0.000000 0.000000 0.000000 0.044087
#
#
# Mechanical properties :
#
#
# Convention : Reuss Voigt Hill
#
# Bulk Modulus (GPa) = 43.43634 50.36461 46.90047
# Shear Modulus (GPa) = 19.05847 22.46893 20.76370
#
# Velocity S-wave (km/s) = 3.35348 3.64119 3.50029
# Velocity P-wave (km/s) = 6.37377 6.88450 6.63405
#
# Compressibility (1/GPa) = 0.02302220
#
# Stress axis : x y z
#
# Youngs Moduli (GPa) = 35.17569 103.02000 34.13499
#
# Poissons Ratio (x) = 0.49564 0.49060
# Poissons Ratio (y) = 0.16924 0.10312
# Poissons Ratio (z) = 0.50555 0.31123
#
# Static dielectric constant tensor:
#      x y z
#    x 3.145030 0.000000 0.000000 
#    y 0.000000 3.502500 0.000000 
#    z 0.000000 0.000000 2.801860 
# 
# 
# High freq. dielectric constant tensor:
#      x y z
#    x 1.657520 0.000000 0.000000 
#    y 0.000000 1.665740 0.000000 
#    z 0.000000 0.000000 1.613550 
# 
# From -- ./inp_files/28165.got.cif
#   From: 2010.03.12/outbox.cif.g09.slc.cpg/sg51_15_cif.got.tgz:28165.got - 2010.04.16 13:43:02.
