data_PCOD8208012
_publ_section_title
;
Structure prediction by ZEFSAII (Michael W. Deem and Ramdas Pophale) SiO2 
 PCOD8208012
Probable space group: P M M A
;
_chemical_formula_sum "Si O2"
_cell_formula_units_Z 52
_cell_length_a 9.196821
_cell_length_b 18.280497
_cell_length_c 18.135046
_cell_angle_alpha 90.000000
_cell_angle_beta 90.000000
_cell_angle_gamma 90.000000
_cell_volume 3048.908522
_symmetry_space_group_name_H-M "P M M A"
_symmetry_group_IT_number 51
_symmetry_cell_setting 'orthorhombic'
loop_
_space_group_symop_operation_xyz
x,y,z
1/2-x,-y,z
1/2+x,-y,-z
-x,y,-z
-x,-y,-z
1/2+x,y,-z
1/2-x,y,z
x,-y,z
loop_
_atom_site_type_symbol
_atom_site_label
_atom_site_fract_x
_atom_site_fract_y
_atom_site_fract_z
Si Si1 0.581412 0.080585 0.845049
Si Si2 0.589917 0.291775 0.201843
Si Si3 0.924139 0.500000 0.579089
Si Si4 0.577987 0.774086 0.924268
Si Si5 0.920614 0.365589 0.349245
Si Si6 0.421121 0.785394 0.575093
Si Si7 0.410185 0.861828 0.717197
O O1 0.750000 0.092617 0.832160
O O2 0.525305 0.144218 0.899828
O O3 0.512058 0.084689 0.763813
O O4 0.547202 0.000000 0.878813
O O5 0.750000 0.309794 0.168694
O O6 0.472529 0.285943 0.136051
O O7 0.545814 0.352852 0.262200
O O8 0.599343 0.216177 0.244397
O O9 0.750000 0.500000 0.570054
O O10 0.000000 0.500000 0.500000
O O11 0.975099 0.429745 0.624462
O O12 0.750000 0.769171 0.934409
O O13 0.500000 0.754703 0.000000
O O14 0.750000 0.384686 0.360402
O O15 0.965123 0.295098 0.397175
O O16 0.500000 0.805020 0.500000
O O17 0.250000 0.789193 0.562994
O O18 0.469802 0.847137 0.634656
O O19 0.250000 0.897493 0.714442
#
# Coordination Sequence:
#
# PCOD8208012 Si02
#       7
#     8   8   4   8   8   8   8
#     4   9  18  31  45  63  88 118 151 185 223 270
#     4   8  15  30  50  68  89 118 152 190 230 272
#     4  12  24  34  46  68 101 136 167 198 230 268
#     4  10  19  30  46  69  97 124 151 187 228 270
#     4   9  18  33  50  68  93 125 158 191 229 275
#     4   9  17  28  44  66  89 113 145 187 231 273
#     4   8  15  28  44  63  85 110 145 186 226 270
#
# _framework density 17.055284
#
# number of rings (size 3 to 8) (size 9 to 14) (size 15 to 20)
#    0.000    2.923    0.000    3.462    0.000    4.308 
#    0.000    3.077    0.000    0.462    0.000    0.538 
#    0.000    0.000    0.000    0.000    0.000    0.000 
#
# Total GULP energy -644461.936155 kJ/mol
# GULP energy per Si atom -12393.498772 kJ/mol
# Density = 1.701647 g / cm^3
# Si number density = 17.055284 Si / 1000 Ang^3
#
#
#
# Elastic Constant Matrix: (Units=GPa)
#
#
# Indices 1 2 3 4 5 6 
#
# 1 65.4761 23.3520 47.1799 0.0000 0.0000 0.0000
# 2 23.3520 38.1824 24.0474 0.0000 0.0000 0.0000
# 3 47.1799 24.0474 117.3293 0.0000 0.0000 0.0000
# 4 0.0000 0.0000 0.0000 19.2159 0.0000 0.0000
# 5 0.0000 0.0000 0.0000 0.0000 32.3831 0.0000
# 6 0.0000 0.0000 0.0000 0.0000 0.0000 21.1792
#
#
#
# Elastic Compliance Matrix: (Units=1/GPa)
#
#
# Indices 1 2 3 4 5 6 
#
# 1 0.024465 -0.010066 -0.007775 0.000000 0.000000 0.000000
# 2 -0.010066 0.034213 -0.002965 0.000000 0.000000 0.000000
# 3 -0.007775 -0.002965 0.012257 0.000000 0.000000 0.000000
# 4 0.000000 0.000000 0.000000 0.052040 0.000000 0.000000
# 5 0.000000 0.000000 0.000000 0.000000 0.030880 0.000000
# 6 0.000000 0.000000 0.000000 0.000000 0.000000 0.047216
#
#
# Mechanical properties :
#
#
# Convention : Reuss Voigt Hill
#
# Bulk Modulus (GPa) = 34.10073 45.57179 39.83626
# Shear Modulus (GPa) = 19.80533 22.98288 21.39410
#
# Velocity S-wave (km/s) = 3.41140 3.67488 3.54559
# Velocity P-wave (km/s) = 5.96276 6.69212 6.33794
#
# Compressibility (1/GPa) = 0.02932489
#
# Stress axis : x y z
#
# Youngs Moduli (GPa) = 40.87491 29.22828 81.58660
#
# Poissons Ratio (x) = 0.29421 0.63430
# Poissons Ratio (y) = 0.41145 0.24187
# Poissons Ratio (z) = 0.31779 0.08665
#
# Static dielectric constant tensor:
#      x y z
#    x 3.256170 0.000000 0.000000 
#    y 0.000000 3.043970 0.000000 
#    z 0.000000 0.000000 3.338490 
# 
# 
# High freq. dielectric constant tensor:
#      x y z
#    x 1.655710 0.000000 0.000000 
#    y 0.000000 1.623420 0.000000 
#    z 0.000000 0.000000 1.655310 
# 
# From -- ./inp_files/27927.got.cif
#   From: 2010.03.12/outbox.cif.g09.slc.cpg/sg51_14_cif.got.tgz:27927.got - 2010.04.16 13:43:02.
