data_PCOD8208854
_publ_section_title
;
Structure prediction by ZEFSAII (Michael W. Deem and Ramdas Pophale) SiO2 
 PCOD8208854
Probable space group: P M M A
;
_chemical_formula_sum "Si O2"
_cell_formula_units_Z 44
_cell_length_a 9.590818
_cell_length_b 16.819215
_cell_length_c 14.755022
_cell_angle_alpha 90.000000
_cell_angle_beta 90.000000
_cell_angle_gamma 90.000000
_cell_volume 2380.133041
_symmetry_space_group_name_H-M "P M M A"
_symmetry_group_IT_number 51
_symmetry_cell_setting 'orthorhombic'
loop_
_space_group_symop_operation_xyz
x,y,z
1/2-x,-y,z
1/2+x,-y,-z
-x,y,-z
-x,-y,-z
1/2+x,y,-z
1/2-x,y,z
x,-y,z
loop_
_atom_site_type_symbol
_atom_site_label
_atom_site_fract_x
_atom_site_fract_y
_atom_site_fract_z
Si Si1 0.907771 0.179330 0.791500
Si Si2 0.915135 0.716659 0.088639
Si Si3 0.000000 0.202064 0.500000
Si Si4 0.905960 0.090162 0.343991
Si Si5 0.590848 0.588920 0.244097
Si Si6 0.896970 0.314461 0.646493
O O1 0.750000 0.152944 0.821927
O O2 0.896878 0.257056 0.731919
O O3 0.009270 0.202631 0.875188
O O4 0.981276 0.109786 0.733487
O O5 0.750000 0.732851 0.070279
O O6 0.934799 0.643442 0.157002
O O7 0.000000 0.690421 0.000000
O O8 0.913627 0.146650 0.431731
O O9 0.903735 0.261453 0.556550
O O10 0.750000 0.100616 0.303651
O O11 0.932675 0.000000 0.375867
O O12 0.750000 0.588717 0.272610
O O13 0.538116 0.500000 0.220938
O O14 0.516609 0.621051 0.335637
O O15 0.750000 0.360632 0.642360
#
# Coordination Sequence:
#
# PCOD8208854 Si02
#       6
#     8   8   4   8   8   8
#     4   9  18  33  51  72 101 135 170 206 247 298
#     4  10  19  32  53  79 105 132 166 206 248 297
#     4  10  19  32  51  74 102 134 170 212 253 298
#     4  10  20  33  51  76 105 136 169 207 254 304
#     4   9  19  35  52  71  99 134 168 205 253 304
#     4   9  18  31  49  72  96 128 170 211 250 294
#
# _framework density 18.486360999999999
#
# number of rings (size 3 to 8) (size 9 to 14) (size 15 to 20)
#    0.000    2.545    0.000    1.909    0.000    7.636 
#    0.000    0.455    0.000    0.545    0.000    0.000 
#    0.000    0.000    0.000    0.000    0.000    0.000 
#
# Total GULP energy -545143.123331 kJ/mol
# GULP energy per Si atom -12389.616439 kJ/mol
# Density = 1.844428 g / cm^3
# Si number density = 18.486361 Si / 1000 Ang^3
#
#
#
# Elastic Constant Matrix: (Units=GPa)
#
#
# Indices 1 2 3 4 5 6 
#
# 1 143.5495 58.3795 51.9724 0.0000 0.0000 0.0000
# 2 58.3795 76.8441 53.5499 0.0000 0.0000 0.0000
# 3 51.9724 53.5499 65.7316 0.0000 0.0000 0.0000
# 4 0.0000 0.0000 0.0000 16.7627 0.0000 0.0000
# 5 0.0000 0.0000 0.0000 0.0000 16.8863 0.0000
# 6 0.0000 0.0000 0.0000 0.0000 0.0000 25.8303
#
#
#
# Elastic Compliance Matrix: (Units=1/GPa)
#
#
# Indices 1 2 3 4 5 6 
#
# 1 0.010558 -0.005098 -0.004195 0.000000 0.000000 0.000000
# 2 -0.005098 0.032565 -0.022499 0.000000 0.000000 0.000000
# 3 -0.004195 -0.022499 0.036860 0.000000 0.000000 0.000000
# 4 0.000000 0.000000 0.000000 0.059656 0.000000 0.000000
# 5 0.000000 0.000000 0.000000 0.000000 0.059220 0.000000
# 6 0.000000 0.000000 0.000000 0.000000 0.000000 0.038714
#
#
# Mechanical properties :
#
#
# Convention : Reuss Voigt Hill
#
# Bulk Modulus (GPa) = 60.97952 68.21434 64.59693
# Shear Modulus (GPa) = 16.30657 20.04408 18.17533
#
# Velocity S-wave (km/s) = 2.97322 3.29639 3.13896
# Velocity P-wave (km/s) = 6.69660 7.17413 6.93948
#
# Compressibility (1/GPa) = 0.01639895
#
# Stress axis : x y z
#
# Youngs Moduli (GPa) = 94.71206 30.70751 27.12962
#
# Poissons Ratio (x) = 0.15654 0.11381
# Poissons Ratio (y) = 0.48283 0.61040
# Poissons Ratio (z) = 0.39733 0.69090
#
# Static dielectric constant tensor:
#      x y z
#    x 3.770340 0.000000 0.000000 
#    y 0.000000 3.294590 0.000000 
#    z 0.000000 0.000000 3.330230 
# 
# 
# High freq. dielectric constant tensor:
#      x y z
#    x 1.732650 0.000000 0.000000 
#    y 0.000000 1.696150 0.000000 
#    z 0.000000 0.000000 1.696900 
# 
# From -- ./inp_files/20933.got.cif
#   From: 2010.03.12/outbox.cif.g09.slc.cpg/sg51_11_cif.got.tgz:20933.got - 2010.04.16 13:43:02.
