data_PCOD8208610
_publ_section_title
;
Structure prediction by ZEFSAII (Michael W. Deem and Ramdas Pophale) SiO2 
 PCOD8208610
Probable space group: P M M A
;
_chemical_formula_sum "Si O2"
_cell_formula_units_Z 48
_cell_length_a 19.323358
_cell_length_b 8.644356
_cell_length_c 15.216052
_cell_angle_alpha 90.000000
_cell_angle_beta 90.000000
_cell_angle_gamma 90.000000
_cell_volume 2541.658676
_symmetry_space_group_name_H-M "P M M A"
_symmetry_group_IT_number 51
_symmetry_cell_setting 'orthorhombic'
loop_
_space_group_symop_operation_xyz
x,y,z
1/2-x,-y,z
1/2+x,-y,-z
-x,y,-z
-x,-y,-z
1/2+x,y,-z
1/2-x,y,z
x,-y,z
loop_
_atom_site_type_symbol
_atom_site_label
_atom_site_fract_x
_atom_site_fract_y
_atom_site_fract_z
Si Si1 0.169324 0.180859 0.902076
Si Si2 0.172469 0.815936 0.371198
Si Si3 0.928405 0.318523 0.957582
Si Si4 0.327548 0.184043 0.566452
Si Si5 0.588718 0.816153 0.269921
Si Si6 0.436298 0.816217 0.230920
O O1 0.250000 0.219077 0.899477
O O2 0.136308 0.238199 0.810807
O O3 0.155023 0.000000 0.917608
O O4 0.135599 0.276789 0.980603
O O5 0.250000 0.755778 0.349870
O O6 0.149772 0.760636 0.468969
O O7 0.119168 0.747317 0.300063
O O8 0.171842 0.000000 0.367817
O O9 0.932059 0.500000 0.941668
O O10 0.914991 0.236017 0.865552
O O11 0.000000 0.256894 0.000000
O O12 0.250000 0.243308 0.586987
O O13 0.379686 0.252526 0.639610
O O14 0.328335 0.000000 0.570732
O O15 0.511641 0.749537 0.256726
O O16 0.587034 0.000000 0.274495
O O17 0.436737 0.000000 0.234055
#
# Coordination Sequence:
#
# PCOD8208610 Si02
#       6
#     8   8   8   8   8   8
#     4  10  20  34  54  79 104 131 167 212 260 309
#     4   8  15  27  43  68 102 135 165 200 247 300
#     4  11  23  38  54  72  99 137 175 212 258 311
#     4   8  13  23  40  65 102 138 161 194 248 302
#     4   9  16  26  44  72 102 132 164 201 248 304
#     4  10  19  31  51  75 100 131 168 213 257 301
#
# _framework density 18.885304999999999
#
# number of rings (size 3 to 8) (size 9 to 14) (size 15 to 20)
#    0.000    2.667    1.667    2.000    0.000    4.333 
#    0.000    5.000    0.000    0.000    0.000    3.500 
#    0.000    2.667    0.000    0.000    0.000    0.000 
#
# Total GULP energy -595104.095274 kJ/mol
# GULP energy per Si atom -12398.001985 kJ/mol
# Density = 1.884232 g / cm^3
# Si number density = 18.885305 Si / 1000 Ang^3
#
#
#
# Elastic Constant Matrix: (Units=GPa)
#
#
# Indices 1 2 3 4 5 6 
#
# 1 138.9086 11.0121 89.2987 0.0000 0.0000 0.0000
# 2 11.0121 9.0686 7.4590 0.0000 0.0000 0.0000
# 3 89.2987 7.4590 169.9163 0.0000 0.0000 0.0000
# 4 0.0000 0.0000 0.0000 -0.5933 0.0000 0.0000
# 5 0.0000 0.0000 0.0000 0.0000 44.8357 0.0000
# 6 0.0000 0.0000 0.0000 0.0000 0.0000 11.8797
#
#
#
# Elastic Compliance Matrix: (Units=1/GPa)
#
#
# Indices 1 2 3 4 5 6 
#
# 1 0.011598 -0.009410 -0.005682 0.000000 0.000000 0.000000
# 2 -0.009410 0.122036 -0.000412 0.000000 0.000000 0.000000
# 3 -0.005682 -0.000412 0.008890 0.000000 0.000000 0.000000
# 4 0.000000 0.000000 0.000000 -1.685524 0.000000 0.000000
# 5 0.000000 0.000000 0.000000 0.000000 0.022304 0.000000
# 6 0.000000 0.000000 0.000000 0.000000 0.000000 0.084177
#
#
# Mechanical properties :
#
#
# Convention : Reuss Voigt Hill
#
# Bulk Modulus (GPa) = 8.96736 59.27036 34.11886
# Shear Modulus (GPa) = -3.65406 25.23268 10.78931
#
# Velocity S-wave (km/s) = -1.39250 3.65924 2.39280
# Velocity P-wave (km/s) = 1.47418 7.02181 5.07341
#
# Compressibility (1/GPa) = 0.11151550
#
# Stress axis : x y z
#
# Youngs Moduli (GPa) = 86.22403 8.19433 112.49225
#
# Poissons Ratio (x) = 0.07711 0.63919
# Poissons Ratio (y) = 0.81134 0.04634
# Poissons Ratio (z) = 0.48993 0.00338
#
# Static dielectric constant tensor:
#      x y z
#    x 3.723170 0.000000 0.000000 
#    y 0.000000 2.822370 0.000000 
#    z 0.000000 0.000000 3.705480 
# 
# 
# High freq. dielectric constant tensor:
#      x y z
#    x 1.739660 0.000000 0.000000 
#    y 0.000000 1.671180 0.000000 
#    z 0.000000 0.000000 1.747990 
# 
# From -- ./inp_files/24685.got.cif
#   From: 2010.03.12/outbox.cif.g09.slc.cpg/sg51_13_cif.got.tgz:24685.got - 2010.04.16 13:43:02.
