data_PCOD8208965
_publ_section_title
;
Structure prediction by ZEFSAII (Michael W. Deem and Ramdas Pophale) SiO2 
 PCOD8208965
Probable space group: P M M A
;
_chemical_formula_sum "Si O2"
_cell_formula_units_Z 48
_cell_length_a 15.353571
_cell_length_b 18.436878
_cell_length_c 8.713220
_cell_angle_alpha 90.000000
_cell_angle_beta 90.000000
_cell_angle_gamma 90.000000
_cell_volume 2466.467875
_symmetry_space_group_name_H-M "P M M A"
_symmetry_group_IT_number 51
_symmetry_cell_setting 'orthorhombic'
loop_
_space_group_symop_operation_xyz
x,y,z
1/2-x,-y,z
1/2+x,-y,-z
-x,y,-z
-x,-y,-z
1/2+x,y,-z
1/2-x,y,z
x,-y,z
loop_
_atom_site_type_symbol
_atom_site_label
_atom_site_fract_x
_atom_site_fract_y
_atom_site_fract_z
Si Si1 0.149688 0.195119 0.855900
Si Si2 0.586629 0.692123 0.597692
Si Si3 0.154022 0.345946 0.707031
Si Si4 0.505401 0.417294 0.825313
Si Si5 0.849653 0.826029 0.788563
Si Si6 0.491491 0.919971 0.819399
O O1 0.250000 0.177101 0.814908
O O2 0.119703 0.270918 0.782220
O O3 0.089104 0.133147 0.779867
O O4 0.135575 0.201429 0.037988
O O5 0.500000 0.710694 0.500000
O O6 0.656137 0.660449 0.477310
O O7 0.571069 0.632965 0.730226
O O8 0.628971 0.762291 0.671927
O O9 0.250000 0.364286 0.768226
O O10 0.091387 0.411221 0.755858
O O11 0.537787 0.500000 0.813143
O O12 0.500000 0.390637 0.000000
O O13 0.750000 0.852684 0.765145
O O14 0.916802 0.890944 0.751725
O O15 0.473574 0.000000 0.749037
O O16 0.500000 0.926534 0.000000
#
# Coordination Sequence:
#
# PCOD8208965 Si02
#       6
#     8   8   8   8   8   8
#     4   9  18  32  52  77 104 139 180 219 260 307
#     4  10  20  33  54  78 102 135 173 214 262 313
#     4  10  20  34  54  79 106 135 171 217 263 309
#     4  10  21  37  56  77 104 139 175 211 256 311
#     4  10  19  32  52  76 103 137 178 221 262 310
#     4   9  17  29  47  74 106 136 170 217 268 312
#
# _framework density 19.461027000000001
#
# number of rings (size 3 to 8) (size 9 to 14) (size 15 to 20)
#    0.000    2.333    0.000    3.500    0.000    5.333 
#    0.000    4.167    0.000    8.000    0.000    4.667 
#    0.000    0.000    0.000    0.000    0.000    0.000 
#
# Total GULP energy -595104.919375 kJ/mol
# GULP energy per Si atom -12398.019154 kJ/mol
# Density = 1.941673 g / cm^3
# Si number density = 19.461027 Si / 1000 Ang^3
#
#
#
# Elastic Constant Matrix: (Units=GPa)
#
#
# Indices 1 2 3 4 5 6 
#
# 1 79.7523 21.2356 12.4644 0.0000 0.0000 0.0000
# 2 21.2356 57.8126 24.5658 0.0000 0.0000 0.0000
# 3 12.4644 24.5658 77.6193 0.0000 0.0000 0.0000
# 4 0.0000 0.0000 0.0000 6.6520 0.0000 0.0000
# 5 0.0000 0.0000 0.0000 0.0000 19.7547 0.0000
# 6 0.0000 0.0000 0.0000 0.0000 0.0000 16.5428
#
#
#
# Elastic Compliance Matrix: (Units=1/GPa)
#
#
# Indices 1 2 3 4 5 6 
#
# 1 0.013932 -0.004814 -0.000714 0.000000 0.000000 0.000000
# 2 -0.004814 0.021649 -0.006078 0.000000 0.000000 0.000000
# 3 -0.000714 -0.006078 0.014922 0.000000 0.000000 0.000000
# 4 0.000000 0.000000 0.000000 0.150331 0.000000 0.000000
# 5 0.000000 0.000000 0.000000 0.000000 0.050621 0.000000
# 6 0.000000 0.000000 0.000000 0.000000 0.000000 0.060449
#
#
# Mechanical properties :
#
#
# Convention : Reuss Voigt Hill
#
# Bulk Modulus (GPa) = 36.64379 36.85731 36.75055
# Shear Modulus (GPa) = 14.52588 19.05112 16.78850
#
# Velocity S-wave (km/s) = 2.73501 3.13219 2.94032
# Velocity P-wave (km/s) = 5.37065 5.66224 5.51837
#
# Compressibility (1/GPa) = 0.02728975
#
# Stress axis : x y z
#
# Youngs Moduli (GPa) = 71.77584 46.19253 67.01622
#
# Poissons Ratio (x) = 0.22239 0.04782
# Poissons Ratio (y) = 0.34555 0.40735
# Poissons Ratio (z) = 0.05122 0.28078
#
# Static dielectric constant tensor:
#      x y z
#    x 3.623820 0.000000 0.000000 
#    y 0.000000 3.497520 0.000000 
#    z 0.000000 0.000000 3.544040 
# 
# 
# High freq. dielectric constant tensor:
#      x y z
#    x 1.761040 0.000000 0.000000 
#    y 0.000000 1.742390 0.000000 
#    z 0.000000 0.000000 1.749250 
# 
# From -- ./inp_files/8211.got.cif
#   From: 2010.03.12/outbox.cif.g09.slc.cpg/sg51_5_cif.got.tgz:8211.got - 2010.04.16 13:43:02.
