data_PCOD8208746
_publ_section_title
;
Structure prediction by ZEFSAII (Michael W. Deem and Ramdas Pophale) SiO2 
 PCOD8208746
Probable space group: P M M A
;
_chemical_formula_sum "Si O2"
_cell_formula_units_Z 48
_cell_length_a 23.600437
_cell_length_b 8.857804
_cell_length_c 13.656769
_cell_angle_alpha 90.000000
_cell_angle_beta 90.000000
_cell_angle_gamma 90.000000
_cell_volume 2854.920864
_symmetry_space_group_name_H-M "P M M A"
_symmetry_group_IT_number 51
_symmetry_cell_setting 'orthorhombic'
loop_
_space_group_symop_operation_xyz
x,y,z
1/2-x,-y,z
1/2+x,-y,-z
-x,y,-z
-x,-y,-z
1/2+x,y,-z
1/2-x,y,z
x,-y,z
loop_
_atom_site_type_symbol
_atom_site_label
_atom_site_fract_x
_atom_site_fract_y
_atom_site_fract_z
Si Si1 0.088601 0.174582 0.964013
Si Si2 0.186184 0.175497 0.655225
Si Si3 0.979407 0.321487 0.641697
Si Si4 0.418960 0.178033 0.530041
Si Si5 0.478489 0.175566 0.154906
Si Si6 0.313665 0.677473 0.856519
O O1 0.145278 0.267251 0.942462
O O2 0.038778 0.223917 0.890178
O O3 0.102075 0.000000 0.948752
O O4 0.070327 0.206915 0.075332
O O5 0.250000 0.223676 0.625000
O O6 0.144517 0.215899 0.565857
O O7 0.165407 0.261383 0.751933
O O8 0.182720 0.000000 0.680642
O O9 0.986429 0.500000 0.630043
O O10 0.928416 0.263374 0.572543
O O11 0.964504 0.279220 0.752570
O O12 0.037185 0.238680 0.610866
O O13 0.428459 0.000000 0.515986
O O14 0.479258 0.000000 0.185093
O O15 0.250000 0.735808 0.878700
O O16 0.315675 0.500000 0.852067
#
# Coordination Sequence:
#
# PCOD8208746 Si02
#       6
#     8   8   8   8   8   8
#     4   9  18  32  51  71  92 122 157 193 230 273
#     4   9  18  32  50  71  93 120 156 194 230 272
#     4  11  21  31  46  70  98 125 155 190 229 277
#     4  10  19  32  50  69  93 125 157 192 233 273
#     4   9  18  33  50  70  95 121 153 192 235 277
#     4  10  20  31  45  69 100 129 154 186 230 276
#
# _framework density 16.813075999999999
#
# number of rings (size 3 to 8) (size 9 to 14) (size 15 to 20)
#    0.000    2.333    0.000    5.500    0.000    7.667 
#    0.000    1.667    0.000    1.000    0.000    2.333 
#    0.000    0.000    0.000    0.000    0.000    0.000 
#
# Total GULP energy -595244.898120 kJ/mol
# GULP energy per Si atom -12400.935378 kJ/mol
# Density = 1.677481 g / cm^3
# Si number density = 16.813076 Si / 1000 Ang^3
#
#
#
# Elastic Constant Matrix: (Units=GPa)
#
#
# Indices 1 2 3 4 5 6 
#
# 1 90.1506 31.0369 46.0819 0.0000 0.0000 0.0000
# 2 31.0369 63.3804 37.5052 0.0000 0.0000 0.0000
# 3 46.0819 37.5052 103.0869 0.0000 0.0000 0.0000
# 4 0.0000 0.0000 0.0000 14.1223 0.0000 0.0000
# 5 0.0000 0.0000 0.0000 0.0000 24.0100 0.0000
# 6 0.0000 0.0000 0.0000 0.0000 0.0000 18.7852
#
#
#
# Elastic Compliance Matrix: (Units=1/GPa)
#
#
# Indices 1 2 3 4 5 6 
#
# 1 0.015277 -0.004384 -0.005234 0.000000 0.000000 0.000000
# 2 -0.004384 0.021364 -0.005813 0.000000 0.000000 0.000000
# 3 -0.005234 -0.005813 0.014155 0.000000 0.000000 0.000000
# 4 0.000000 0.000000 0.000000 0.070810 0.000000 0.000000
# 5 0.000000 0.000000 0.000000 0.000000 0.041649 0.000000
# 6 0.000000 0.000000 0.000000 0.000000 0.000000 0.053233
#
#
# Mechanical properties :
#
#
# Convention : Reuss Voigt Hill
#
# Bulk Modulus (GPa) = 50.16435 53.98510 52.07472
# Shear Modulus (GPa) = 19.68523 20.84975 20.26749
#
# Velocity S-wave (km/s) = 3.42545 3.52531 3.47574
# Velocity P-wave (km/s) = 6.74879 6.98206 6.86642
#
# Compressibility (1/GPa) = 0.01993448
#
# Stress axis : x y z
#
# Youngs Moduli (GPa) = 65.45594 46.80682 70.64436
#
# Poissons Ratio (x) = 0.20519 0.36978
# Poissons Ratio (y) = 0.28695 0.41067
# Poissons Ratio (z) = 0.34262 0.27210
#
# Static dielectric constant tensor:
#      x y z
#    x 3.226550 0.000000 0.000000 
#    y 0.000000 3.118010 0.000000 
#    z 0.000000 0.000000 3.063070 
# 
# 
# High freq. dielectric constant tensor:
#      x y z
#    x 1.638050 0.000000 0.000000 
#    y 0.000000 1.651830 0.000000 
#    z 0.000000 0.000000 1.637810 
# 
# From -- ./inp_files/26034.got.cif
#   From: 2010.03.12/outbox.cif.g09.slc.cpg/sg51_14_cif.got.tgz:26034.got - 2010.04.16 13:43:02.
