data_PCOD8208179
_publ_section_title
;
Structure prediction by ZEFSAII (Michael W. Deem and Ramdas Pophale) SiO2 
 PCOD8208179
Probable space group: P M M A
;
_chemical_formula_sum "Si O2"
_cell_formula_units_Z 64
_cell_length_a 18.301424
_cell_length_b 9.478953
_cell_length_c 20.260282
_cell_angle_alpha 90.000000
_cell_angle_beta 90.000000
_cell_angle_gamma 90.000000
_cell_volume 3514.720047
_symmetry_space_group_name_H-M "P M M A"
_symmetry_group_IT_number 51
_symmetry_cell_setting 'orthorhombic'
loop_
_space_group_symop_operation_xyz
x,y,z
1/2-x,-y,z
1/2+x,-y,-z
-x,y,-z
-x,-y,-z
1/2+x,y,-z
1/2-x,y,z
x,-y,z
loop_
_atom_site_type_symbol
_atom_site_label
_atom_site_fract_x
_atom_site_fract_y
_atom_site_fract_z
Si Si1 0.836610 0.341733 0.277639
Si Si2 0.421840 0.165605 0.475947
Si Si3 0.834642 0.831561 0.651378
Si Si4 0.575160 0.833172 0.180101
Si Si5 0.586925 0.166809 0.784020
Si Si6 0.163708 0.157457 0.603246
Si Si7 0.573560 0.167526 0.030762
Si Si8 0.831154 0.831731 0.912247
O O1 0.750000 0.344408 0.278592
O O2 0.868489 0.500000 0.274476
O O3 0.860648 0.250430 0.215494
O O4 0.867626 0.266133 0.343194
O O5 0.500000 0.230902 0.500000
O O6 0.386340 0.227213 0.408236
O O7 0.363741 0.203866 0.531938
O O8 0.432604 0.000000 0.465680
O O9 0.750000 0.777749 0.645873
O O10 0.871625 0.774202 0.719120
O O11 0.833990 0.000000 0.649900
O O12 0.498315 0.791273 0.214200
O O13 0.580814 0.777682 0.105155
O O14 0.589308 0.000000 0.185088
O O15 0.623262 0.229469 0.850487
O O16 0.595144 0.000000 0.784868
O O17 0.250000 0.159636 0.601377
O O18 0.135014 0.000000 0.621079
O O19 0.569347 0.000000 0.032546
O O20 0.500000 0.230431 0.000000
O O21 0.638388 0.220542 0.982977
O O22 0.750000 0.772024 0.905573
O O23 0.833358 0.000000 0.910176
#
# Coordination Sequence:
#
# PCOD8208179 Si02
#       8
#     8   8   8   8   8   8   8   8
#     4  10  22  38  53  71  98 131 165 204 251 300
#     4   9  17  26  40  67 100 129 157 196 245 293
#     4   9  16  25  37  58  95 135 163 192 240 298
#     4  10  19  30  51  76 101 130 164 206 250 296
#     4   9  16  25  40  66  96 128 161 198 243 290
#     4   9  17  31  52  74  96 126 164 202 240 288
#     4   9  15  26  41  64  99 135 164 198 246 292
#     4   9  15  23  37  60  94 133 167 198 239 291
#
# _framework density 18.209130999999999
#
# number of rings (size 3 to 8) (size 9 to 14) (size 15 to 20)
#    0.000    2.750    1.250    1.125    1.750    4.250 
#    0.000    1.250    0.000    0.750    0.000    0.000 
#    0.000    2.000    0.000    0.000    0.000    0.250 
#
# Total GULP energy -793159.855638 kJ/mol
# GULP energy per Si atom -12393.122744 kJ/mol
# Density = 1.816769 g / cm^3
# Si number density = 18.209131 Si / 1000 Ang^3
#
#
#
# Elastic Constant Matrix: (Units=GPa)
#
#
# Indices 1 2 3 4 5 6 
#
# 1 49.4847 16.0785 44.2956 0.0000 0.0000 0.0000
# 2 16.0785 34.1184 30.9177 0.0000 0.0000 0.0000
# 3 44.2956 30.9177 155.9208 0.0000 0.0000 0.0000
# 4 0.0000 0.0000 0.0000 -0.4245 0.0000 0.0000
# 5 0.0000 0.0000 0.0000 0.0000 40.1226 0.0000
# 6 0.0000 0.0000 0.0000 0.0000 0.0000 7.3868
#
#
#
# Elastic Compliance Matrix: (Units=1/GPa)
#
#
# Indices 1 2 3 4 5 6 
#
# 1 0.028572 -0.007447 -0.006640 0.000000 0.000000 0.000000
# 2 -0.007447 0.037671 -0.005354 0.000000 0.000000 0.000000
# 3 -0.006640 -0.005354 0.009362 0.000000 0.000000 0.000000
# 4 0.000000 0.000000 0.000000 -2.355750 0.000000 0.000000
# 5 0.000000 0.000000 0.000000 0.000000 0.024924 0.000000
# 6 0.000000 0.000000 0.000000 0.000000 0.000000 0.135376
#
#
# Mechanical properties :
#
#
# Convention : Reuss Voigt Hill
#
# Bulk Modulus (GPa) = 27.23219 46.90083 37.06651
# Shear Modulus (GPa) = -2.41695 19.29912 8.44108
#
# Velocity S-wave (km/s) = -1.15335 3.25908 2.15539
# Velocity P-wave (km/s) = 3.63512 6.32256 5.15698
#
# Compressibility (1/GPa) = 0.03672125
#
# Stress axis : x y z
#
# Youngs Moduli (GPa) = 34.99920 26.54544 106.81900
#
# Poissons Ratio (x) = 0.19770 0.70931
# Poissons Ratio (y) = 0.26065 0.57192
# Poissons Ratio (z) = 0.23240 0.14213
#
# Static dielectric constant tensor:
#      x y z
#    x 3.457240 0.000000 0.000000 
#    y 0.000000 2.734840 0.000000 
#    z 0.000000 0.000000 3.670630 
# 
# 
# High freq. dielectric constant tensor:
#      x y z
#    x 1.712020 0.000000 0.000000 
#    y 0.000000 1.618700 0.000000 
#    z 0.000000 0.000000 1.724590 
# 
# From -- ./inp_files/30622.got.cif
#   From: 2010.03.12/outbox.cif.g09.slc.cpg/sg51_16_cif.got.tgz:30622.got - 2010.04.16 13:43:02.
