data_PCOD8208046
_publ_section_title
;
Structure prediction by ZEFSAII (Michael W. Deem and Ramdas Pophale) SiO2 
 PCOD8208046
Probable space group: P M M A
;
_chemical_formula_sum "Si O2"
_cell_formula_units_Z 64
_cell_length_a 24.199603
_cell_length_b 9.188079
_cell_length_c 16.597687
_cell_angle_alpha 90.000000
_cell_angle_beta 90.000000
_cell_angle_gamma 90.000000
_cell_volume 3690.460254
_symmetry_space_group_name_H-M "P M M A"
_symmetry_group_IT_number 51
_symmetry_cell_setting 'orthorhombic'
loop_
_space_group_symop_operation_xyz
x,y,z
1/2-x,-y,z
1/2+x,-y,-z
-x,y,-z
-x,-y,-z
1/2+x,y,-z
1/2-x,y,z
x,-y,z
loop_
_atom_site_type_symbol
_atom_site_label
_atom_site_fract_x
_atom_site_fract_y
_atom_site_fract_z
Si Si1 0.188485 0.335855 0.754069
Si Si2 0.593655 0.666510 0.131395
Si Si3 0.418644 0.672320 0.212390
Si Si4 0.813003 0.171049 0.526289
Si Si5 0.056956 0.669902 0.035134
Si Si6 0.812221 0.669592 0.690236
Si Si7 0.523823 0.173378 0.261426
Si Si8 0.122500 0.171060 0.627576
O O1 0.250000 0.298454 0.779370
O O2 0.181427 0.500000 0.721321
O O3 0.154508 0.311140 0.835192
O O4 0.170226 0.227815 0.685050
O O5 0.572111 0.500000 0.141964
O O6 0.550700 0.769333 0.178374
O O7 0.600048 0.704790 0.036609
O O8 0.428781 0.500000 0.218133
O O9 0.424345 0.735835 0.121031
O O10 0.356844 0.712756 0.241696
O O11 0.463649 0.752673 0.269544
O O12 0.750000 0.211863 0.499134
O O13 0.828505 0.248037 0.609050
O O14 0.859633 0.224203 0.461690
O O15 0.817640 0.000000 0.540135
O O16 0.049819 0.500000 0.050899
O O17 0.000000 0.735937 0.000000
O O18 0.750000 0.712524 0.719242
O O19 0.815266 0.500000 0.670538
O O20 0.562083 0.221655 0.338776
O O21 0.517899 0.000000 0.257589
O O22 0.125218 0.000000 0.631165
#
# Coordination Sequence:
#
# PCOD8208046 Si02
#       8
#     8   8   8   8   8   8   8   8
#     4   9  17  27  41  65  96 127 157 191 233 279
#     4   9  16  29  46  64  92 127 159 192 231 276
#     4  10  19  33  52  71  94 126 159 191 235 288
#     4   9  17  31  52  73  92 120 160 199 234 277
#     4   9  15  26  48  72  90 117 161 197 225 273
#     4   9  19  35  53  73  96 121 154 198 241 279
#     4  10  19  30  46  71 100 125 154 194 236 278
#     4   9  18  31  47  69  96 126 160 195 232 278
#
# _framework density 17.342009999999998
#
# number of rings (size 3 to 8) (size 9 to 14) (size 15 to 20)
#    0.000    2.750    1.250    0.750    0.000    2.250 
#    0.000    3.750    0.000    7.500    0.000    0.000 
#    0.000    4.000    0.000    0.000    0.000    0.000 
#
# Total GULP energy -793017.378245 kJ/mol
# GULP energy per Si atom -12390.896535 kJ/mol
# Density = 1.730254 g / cm^3
# Si number density = 17.342010 Si / 1000 Ang^3
#
#
#
# Elastic Constant Matrix: (Units=GPa)
#
#
# Indices 1 2 3 4 5 6 
#
# 1 119.3202 23.9944 72.4265 0.0000 0.0000 0.0000
# 2 23.9944 14.1857 25.8651 0.0000 0.0000 0.0000
# 3 72.4265 25.8651 125.4723 0.0000 0.0000 0.0000
# 4 0.0000 0.0000 0.0000 10.2264 0.0000 0.0000
# 5 0.0000 0.0000 0.0000 0.0000 23.5493 0.0000
# 6 0.0000 0.0000 0.0000 0.0000 0.0000 21.4151
#
#
#
# Elastic Compliance Matrix: (Units=1/GPa)
#
#
# Indices 1 2 3 4 5 6 
#
# 1 0.014656 -0.015004 -0.005367 0.000000 0.000000 0.000000
# 2 -0.015004 0.128306 -0.017788 0.000000 0.000000 0.000000
# 3 -0.005367 -0.017788 0.014735 0.000000 0.000000 0.000000
# 4 0.000000 0.000000 0.000000 0.097786 0.000000 0.000000
# 5 0.000000 0.000000 0.000000 0.000000 0.042464 0.000000
# 6 0.000000 0.000000 0.000000 0.000000 0.000000 0.046696
#
#
# Mechanical properties :
#
#
# Convention : Reuss Voigt Hill
#
# Bulk Modulus (GPa) = 12.28835 55.95004 34.11919
# Shear Modulus (GPa) = 11.15855 20.15097 15.65476
#
# Velocity S-wave (km/s) = 2.53937 3.41247 3.00777
# Velocity P-wave (km/s) = 3.96221 6.91805 5.63731
#
# Compressibility (1/GPa) = 0.08137789
#
# Stress axis : x y z
#
# Youngs Moduli (GPa) = 68.23358 7.79388 67.86718
#
# Poissons Ratio (x) = 0.11694 0.36422
# Poissons Ratio (y) = 1.02377 1.20725
# Poissons Ratio (z) = 0.36619 0.13864
#
# Static dielectric constant tensor:
#      x y z
#    x 3.399570 0.000000 0.000000 
#    y 0.000000 3.093240 0.000000 
#    z 0.000000 0.000000 3.340620 
# 
# 
# High freq. dielectric constant tensor:
#      x y z
#    x 1.665620 0.000000 0.000000 
#    y 0.000000 1.650500 0.000000 
#    z 0.000000 0.000000 1.661210 
# 
# From -- ./inp_files/30603.got.cif
#   From: 2010.03.12/outbox.cif.g09.slc.cpg/sg51_16_cif.got.tgz:30603.got - 2010.04.16 13:43:02.
