data_PCOD8208597
_publ_section_title
;
Structure prediction by ZEFSAII (Michael W. Deem and Ramdas Pophale) SiO2 
 PCOD8208597
Probable space group: P M M A
;
_chemical_formula_sum "Si O2"
_cell_formula_units_Z 64
_cell_length_a 24.883852
_cell_length_b 9.218765
_cell_length_c 14.755650
_cell_angle_alpha 90.000000
_cell_angle_beta 90.000000
_cell_angle_gamma 90.000000
_cell_volume 3384.922263
_symmetry_space_group_name_H-M "P M M A"
_symmetry_group_IT_number 51
_symmetry_cell_setting 'orthorhombic'
loop_
_space_group_symop_operation_xyz
x,y,z
1/2-x,-y,z
1/2+x,-y,-z
-x,y,-z
-x,-y,-z
1/2+x,y,-z
1/2-x,y,z
x,-y,z
loop_
_atom_site_type_symbol
_atom_site_label
_atom_site_fract_x
_atom_site_fract_y
_atom_site_fract_z
Si Si1 0.811592 0.668593 0.218897
Si Si2 0.986142 0.163866 0.223668
Si Si3 0.911699 0.329674 0.718275
Si Si4 0.191116 0.328232 0.173707
Si Si5 0.108777 0.166178 0.646923
Si Si6 0.334977 0.662892 0.979635
Si Si7 0.061790 0.670005 0.486568
Si Si8 0.953412 0.663077 0.062867
O O1 0.750000 0.683936 0.250149
O O2 0.830419 0.500000 0.219350
O O3 0.847921 0.756254 0.289170
O O4 0.817951 0.735029 0.116580
O O5 0.040905 0.252984 0.227327
O O6 0.951774 0.172688 0.314919
O O7 0.947309 0.233348 0.148712
O O8 0.000628 0.000000 0.197906
O O9 0.918105 0.500000 0.733904
O O10 0.854882 0.270282 0.757948
O O11 0.917037 0.290089 0.613065
O O12 0.250000 0.287511 0.213443
O O13 0.183851 0.500000 0.165116
O O14 0.187340 0.261016 0.071266
O O15 0.103781 0.247085 0.551144
O O16 0.127298 0.000000 0.633348
O O17 0.312028 0.500000 0.975214
O O18 0.398775 0.665689 0.993149
O O19 0.066163 0.500000 0.507637
O O20 0.000000 0.721280 0.500000
O O21 0.967448 0.500000 0.095253
O O22 0.000000 0.726769 0.000000
#
# Coordination Sequence:
#
# PCOD8208597 Si02
#       8
#     8   8   8   8   8   8   8   8
#     4  10  20  35  57  82 108 144 188 231 274 324
#     4  11  22  34  51  78 112 147 179 221 278 333
#     4  10  20  35  57  83 110 143 184 229 279 333
#     4   9  17  31  53  82 112 138 173 225 275 320
#     4  11  23  37  55  80 112 147 182 226 282 339
#     4   9  16  28  49  79 111 140 175 219 268 320
#     4  10  20  35  57  83 111 145 184 232 282 330
#     4  10  19  31  50  77 109 147 186 225 271 327
#
# _framework density 18.907377
#
# number of rings (size 3 to 8) (size 9 to 14) (size 15 to 20)
#    0.000    2.000    2.500    1.875    0.000    5.750 
#    0.000    0.625    0.000    2.625    0.000    0.000 
#    0.000    0.000    0.000    0.000    0.000    0.000 
#
# Total GULP energy -793371.049035 kJ/mol
# GULP energy per Si atom -12396.422641 kJ/mol
# Density = 1.886434 g / cm^3
# Si number density = 18.907377 Si / 1000 Ang^3
#
#
#
# Elastic Constant Matrix: (Units=GPa)
#
#
# Indices 1 2 3 4 5 6 
#
# 1 114.0474 27.0934 48.4265 0.0000 0.0000 0.0000
# 2 27.0934 51.4831 36.4924 0.0000 0.0000 0.0000
# 3 48.4265 36.4924 106.0672 0.0000 0.0000 0.0000
# 4 0.0000 0.0000 0.0000 11.1618 0.0000 0.0000
# 5 0.0000 0.0000 0.0000 0.0000 23.9394 0.0000
# 6 0.0000 0.0000 0.0000 0.0000 0.0000 7.1008
#
#
#
# Elastic Compliance Matrix: (Units=1/GPa)
#
#
# Indices 1 2 3 4 5 6 
#
# 1 0.011218 -0.003006 -0.004087 0.000000 0.000000 0.000000
# 2 -0.003006 0.026494 -0.007743 0.000000 0.000000 0.000000
# 3 -0.004087 -0.007743 0.013958 0.000000 0.000000 0.000000
# 4 0.000000 0.000000 0.000000 0.089591 0.000000 0.000000
# 5 0.000000 0.000000 0.000000 0.000000 0.041772 0.000000
# 6 0.000000 0.000000 0.000000 0.000000 0.000000 0.140830
#
#
# Mechanical properties :
#
#
# Convention : Reuss Voigt Hill
#
# Bulk Modulus (GPa) = 45.46015 55.06914 50.26465
# Shear Modulus (GPa) = 13.85545 19.07943 16.46744
#
# Velocity S-wave (km/s) = 2.70998 3.18008 2.95439
# Velocity P-wave (km/s) = 5.82132 6.53245 6.18711
#
# Compressibility (1/GPa) = 0.02199729
#
# Stress axis : x y z
#
# Youngs Moduli (GPa) = 89.14188 37.74416 71.64325
#
# Poissons Ratio (x) = 0.11347 0.29284
# Poissons Ratio (y) = 0.26799 0.55471
# Poissons Ratio (z) = 0.36436 0.29224
#
# Static dielectric constant tensor:
#      x y z
#    x 3.449470 0.000000 0.000000 
#    y 0.000000 3.153310 0.000000 
#    z 0.000000 0.000000 3.489140 
# 
# 
# High freq. dielectric constant tensor:
#      x y z
#    x 1.736980 0.000000 0.000000 
#    y 0.000000 1.693610 0.000000 
#    z 0.000000 0.000000 1.734330 
# 
# From -- ./inp_files/26256.got.cif
#   From: 2010.03.12/outbox.cif.g09.slc.cpg/sg51_14_cif.got.tgz:26256.got - 2010.04.16 13:43:02.
