data_PCOD8208335
_publ_section_title
;
Structure prediction by ZEFSAII (Michael W. Deem and Ramdas Pophale) SiO2 
 PCOD8208335
Probable space group: P M M A
;
_chemical_formula_sum "Si O2"
_cell_formula_units_Z 64
_cell_length_a 18.794656
_cell_length_b 9.251306
_cell_length_c 20.893669
_cell_angle_alpha 90.000000
_cell_angle_beta 90.000000
_cell_angle_gamma 90.000000
_cell_volume 3632.889076
_symmetry_space_group_name_H-M "P M M A"
_symmetry_group_IT_number 51
_symmetry_cell_setting 'orthorhombic'
loop_
_space_group_symop_operation_xyz
x,y,z
1/2-x,-y,z
1/2+x,-y,-z
-x,y,-z
-x,-y,-z
1/2+x,y,-z
1/2-x,y,z
x,-y,z
loop_
_atom_site_type_symbol
_atom_site_label
_atom_site_fract_x
_atom_site_fract_y
_atom_site_fract_z
Si Si1 0.165620 0.834361 0.873071
Si Si2 0.073058 0.165283 0.375966
Si Si3 0.834657 0.336465 0.003519
Si Si4 0.069564 0.334894 0.627551
Si Si5 0.418969 0.332853 0.768227
Si Si6 0.831838 0.832454 0.879704
Si Si7 0.434049 0.832561 0.235379
Si Si8 0.585083 0.660011 0.507652
O O1 0.250000 0.824529 0.869230
O O2 0.134935 0.757352 0.810849
O O3 0.139771 0.000000 0.875871
O O4 0.135977 0.752667 0.935826
O O5 0.104566 0.191580 0.304594
O O6 0.115356 0.242436 0.434281
O O7 0.993174 0.220589 0.371661
O O8 0.072799 0.000000 0.395248
O O9 0.750000 0.334566 0.004676
O O10 0.864096 0.500000 0.006390
O O11 0.862044 0.260314 0.938917
O O12 0.039473 0.500000 0.621409
O O13 0.110685 0.319188 0.695015
O O14 0.117188 0.302445 0.563500
O O15 0.420092 0.500000 0.790027
O O16 0.498344 0.270252 0.774130
O O17 0.750000 0.794264 0.865307
O O18 0.876227 0.789952 0.817335
O O19 0.840487 0.000000 0.897944
O O20 0.458341 0.000000 0.229115
O O21 0.500000 0.677371 0.500000
O O22 0.607325 0.500000 0.527685
#
# Coordination Sequence:
#
# PCOD8208335 Si02
#       8
#     8   8   8   8   8   8   8   8
#     4  10  20  34  52  72  94 121 151 183 223 272
#     4   9  15  22  35  57  84 113 146 184 224 263
#     4   9  17  30  49  72  95 117 146 188 230 265
#     4   8  15  26  38  55  82 115 147 179 221 269
#     4  10  19  31  48  69  94 123 154 189 229 272
#     4   9  17  31  51  71  91 120 156 189 224 270
#     4   9  18  31  45  65  96 127 153 186 230 278
#     4   8  13  22  35  52  78 111 145 180 219 265
#
# _framework density 17.616834000000001
#
# number of rings (size 3 to 8) (size 9 to 14) (size 15 to 20)
#    0.000    3.000    0.000    2.250    0.000    6.000 
#    0.000    0.625    0.000    3.750    0.000    0.875 
#    0.000    3.000    0.000    0.000    0.000    0.000 
#
# Total GULP energy -792955.768010 kJ/mol
# GULP energy per Si atom -12389.933875 kJ/mol
# Density = 1.757674 g / cm^3
# Si number density = 17.616834 Si / 1000 Ang^3
#
#
#
# Elastic Constant Matrix: (Units=GPa)
#
#
# Indices 1 2 3 4 5 6 
#
# 1 18.6390 23.1626 27.9878 0.0000 0.0000 0.0000
# 2 23.1626 120.8480 87.0358 0.0000 0.0000 0.0000
# 3 27.9878 87.0358 179.0163 0.0000 0.0000 0.0000
# 4 0.0000 0.0000 0.0000 34.7870 0.0000 0.0000
# 5 0.0000 0.0000 0.0000 0.0000 2.9657 0.0000
# 6 0.0000 0.0000 0.0000 0.0000 0.0000 14.9328
#
#
#
# Elastic Compliance Matrix: (Units=1/GPa)
#
#
# Indices 1 2 3 4 5 6 
#
# 1 0.076332 -0.009288 -0.007418 0.000000 0.000000 0.000000
# 2 -0.009288 0.013864 -0.005288 0.000000 0.000000 0.000000
# 3 -0.007418 -0.005288 0.009317 0.000000 0.000000 0.000000
# 4 0.000000 0.000000 0.000000 0.028746 0.000000 0.000000
# 5 0.000000 0.000000 0.000000 0.000000 0.337193 0.000000
# 6 0.000000 0.000000 0.000000 0.000000 0.000000 0.066967
#
#
# Mechanical properties :
#
#
# Convention : Reuss Voigt Hill
#
# Bulk Modulus (GPa) = 18.01026 66.09730 42.05378
# Shear Modulus (GPa) = 8.40456 22.55822 15.48139
#
# Velocity S-wave (km/s) = 2.18658 3.58228 2.96764
# Velocity P-wave (km/s) = 4.07680 7.39670 5.97208
#
# Compressibility (1/GPa) = 0.05552392
#
# Stress axis : x y z
#
# Youngs Moduli (GPa) = 13.10072 72.13088 107.33044
#
# Poissons Ratio (x) = 0.66992 0.79622
# Poissons Ratio (y) = 0.12167 0.56760
# Poissons Ratio (z) = 0.09719 0.38145
#
# Static dielectric constant tensor:
#      x y z
#    x 2.619720 0.000000 0.000000 
#    y 0.000000 3.418290 0.000000 
#    z 0.000000 0.000000 3.912670 
# 
# 
# High freq. dielectric constant tensor:
#      x y z
#    x 1.601670 0.000000 0.000000 
#    y 0.000000 1.691480 0.000000 
#    z 0.000000 0.000000 1.710590 
# 
# From -- ./inp_files/34090.got.cif
#   From: 2010.03.12/outbox.cif.g09.slc.cpg/sg51_18_cif.got.tgz:34090.got - 2010.04.16 13:43:02.
