data_PCOD8208971
_publ_section_title
;
Structure prediction by ZEFSAII (Michael W. Deem and Ramdas Pophale) SiO2 
 PCOD8208971
Probable space group: P M M A
;
_chemical_formula_sum "Si O2"
_cell_formula_units_Z 44
_cell_length_a 9.078376
_cell_length_b 28.640818
_cell_length_c 9.303833
_cell_angle_alpha 90.000000
_cell_angle_beta 90.000000
_cell_angle_gamma 90.000000
_cell_volume 2419.109294
_symmetry_space_group_name_H-M "P M M A"
_symmetry_group_IT_number 51
_symmetry_cell_setting 'orthorhombic'
loop_
_space_group_symop_operation_xyz
x,y,z
1/2-x,-y,z
1/2+x,-y,-z
-x,y,-z
-x,-y,-z
1/2+x,y,-z
1/2-x,y,z
x,-y,z
loop_
_atom_site_type_symbol
_atom_site_label
_atom_site_fract_x
_atom_site_fract_y
_atom_site_fract_z
Si Si1 0.423832 0.087255 0.846961
Si Si2 0.923157 0.373579 0.346904
Si Si3 0.919266 0.446954 0.850601
Si Si4 0.577003 0.000000 0.346413
Si Si5 0.581407 0.726887 0.352567
Si Si6 0.422938 0.171911 0.653555
O O1 0.250000 0.087425 0.872999
O O2 0.472485 0.044984 0.744323
O O3 0.479695 0.134567 0.769589
O O4 0.500000 0.081935 0.000000
O O5 0.750000 0.384364 0.362680
O O6 0.949792 0.322328 0.269514
O O7 0.000000 0.373131 0.500000
O O8 0.998929 0.414056 0.259313
O O9 0.750000 0.431618 0.868153
O O10 0.930746 0.500000 0.793965
O O11 0.000000 0.441290 0.000000
O O12 0.500000 0.000000 0.500000
O O13 0.750000 0.000000 0.374933
O O14 0.500000 0.724627 0.500000
O O15 0.750000 0.728477 0.395836
O O16 0.540400 0.776437 0.277252
O O17 0.500000 0.164496 0.500000
O O18 0.250000 0.164878 0.626827
#
# Coordination Sequence:
#
# PCOD8208971 Si02
#       6
#     8   8   8   4   8   8
#     4  10  21  35  51  73 103 135 167 205 249 296
#     4  10  19  32  52  77 104 133 166 207 252 297
#     4  10  21  37  55  74  98 130 167 206 250 302
#     4  10  21  36  54  78 102 128 167 210 250 296
#     4   8  15  28  47  71  99 129 162 202 246 290
#     4   9  17  31  51  74  99 129 167 207 245 291
#
# _framework density 18.188514000000001
#
# number of rings (size 3 to 8) (size 9 to 14) (size 15 to 20)
#    0.000    2.545    0.000    1.909    0.000    3.636 
#    0.000    0.909    0.000    2.182    0.000    0.000 
#    0.000    0.000    0.000    0.000    0.000    0.000 
#
# Total GULP energy -545116.357136 kJ/mol
# GULP energy per Si atom -12389.008117 kJ/mol
# Density = 1.814712 g / cm^3
# Si number density = 18.188514 Si / 1000 Ang^3
#
#
#
# Elastic Constant Matrix: (Units=GPa)
#
#
# Indices 1 2 3 4 5 6 
#
# 1 78.2904 62.4503 46.7766 0.0000 0.0000 0.0000
# 2 62.4503 168.4271 80.2745 0.0000 0.0000 0.0000
# 3 46.7766 80.2745 102.9820 0.0000 0.0000 0.0000
# 4 0.0000 0.0000 0.0000 -0.4954 0.0000 0.0000
# 5 0.0000 0.0000 0.0000 0.0000 29.5845 0.0000
# 6 0.0000 0.0000 0.0000 0.0000 0.0000 33.3361
#
#
#
# Elastic Compliance Matrix: (Units=1/GPa)
#
#
# Indices 1 2 3 4 5 6 
#
# 1 0.019738 -0.004846 -0.005188 0.000000 0.000000 0.000000
# 2 -0.004846 0.010637 -0.006090 0.000000 0.000000 0.000000
# 3 -0.005188 -0.006090 0.016814 0.000000 0.000000 0.000000
# 4 0.000000 0.000000 0.000000 -2.018583 0.000000 0.000000
# 5 0.000000 0.000000 0.000000 0.000000 0.033801 0.000000
# 6 0.000000 0.000000 0.000000 0.000000 0.000000 0.029998
#
#
# Mechanical properties :
#
#
# Convention : Reuss Voigt Hill
#
# Bulk Modulus (GPa) = 66.93106 80.96691 73.94898
# Shear Modulus (GPa) = -2.67327 23.16494 10.24583
#
# Velocity S-wave (km/s) = -1.21365 3.57263 2.37600
# Velocity P-wave (km/s) = 5.90885 7.85050 6.94783
#
# Compressibility (1/GPa) = 0.01494075
#
# Stress axis : x y z
#
# Youngs Moduli (GPa) = 50.66329 94.01363 59.47314
#
# Poissons Ratio (x) = 0.45558 0.30855
# Poissons Ratio (y) = 0.24551 0.36221
# Poissons Ratio (z) = 0.26285 0.57257
#
# Static dielectric constant tensor:
#      x y z
#    x 3.343070 0.000000 0.000000 
#    y 0.000000 4.221000 0.000000 
#    z 0.000000 0.000000 2.954870 
# 
# 
# High freq. dielectric constant tensor:
#      x y z
#    x 1.709590 0.000000 0.000000 
#    y 0.000000 1.735010 0.000000 
#    z 0.000000 0.000000 1.669880 
# 
# From -- ./inp_files/5725.got.cif
#   From: 2010.03.12/outbox.cif.g09.slc.cpg/sg51_3_cif.got.tgz:5725.got - 2010.04.16 13:43:02.
