data_PCOD8208383
_publ_section_title
;
Structure prediction by ZEFSAII (Michael W. Deem and Ramdas Pophale) SiO2 
 PCOD8208383
Probable space group: P M M A
;
_chemical_formula_sum "Si O2"
_cell_formula_units_Z 40
_cell_length_a 25.554185
_cell_length_b 9.319300
_cell_length_c 9.559890
_cell_angle_alpha 90.000000
_cell_angle_beta 90.000000
_cell_angle_gamma 90.000000
_cell_volume 2276.660235
_symmetry_space_group_name_H-M "P M M A"
_symmetry_group_IT_number 51
_symmetry_cell_setting 'orthorhombic'
loop_
_space_group_symop_operation_xyz
x,y,z
1/2-x,-y,z
1/2+x,-y,-z
-x,y,-z
-x,-y,-z
1/2+x,y,-z
1/2-x,y,z
x,-y,z
loop_
_atom_site_type_symbol
_atom_site_label
_atom_site_fract_x
_atom_site_fract_y
_atom_site_fract_z
Si Si1 0.619857 0.166154 0.554136
Si Si2 0.606238 0.331148 0.979805
Si Si3 0.585750 0.167792 0.248270
Si Si4 0.965242 0.834411 0.781126
Si Si5 0.190626 0.666959 0.248783
O O1 0.610384 0.214837 0.395531
O O2 0.567390 0.199489 0.641420
O O3 0.668921 0.252215 0.615256
O O4 0.634248 0.000000 0.562623
O O5 0.597502 0.500000 0.995368
O O6 0.554878 0.262203 0.909160
O O7 0.657264 0.293141 0.888378
O O8 0.615155 0.260253 0.130760
O O9 0.524594 0.206317 0.251347
O O10 0.594495 0.000000 0.218941
O O11 0.959331 0.000000 0.826529
O O12 0.250000 0.715350 0.220461
O O13 0.186525 0.500000 0.282336
#
# Coordination Sequence:
#
# PCOD8208383 Si02
#       5
#     8   8   8   8   8
#     4   9  18  32  51  75  99 124 160 201 237 279
#     4  10  20  32  48  72  99 127 163 203 238 277
#     4  10  19  31  48  72 103 133 158 190 235 286
#     4   9  17  31  50  70  97 135 168 191 227 282
#     4   9  19  37  56  70  89 122 162 201 243 291
#
# _framework density 17.569596000000001
#
# number of rings (size 3 to 8) (size 9 to 14) (size 15 to 20)
#    0.000    2.600    0.000    1.800    0.000    7.600 
#    0.000    1.000    0.000    9.600    0.000    0.000 
#    0.000    0.000    0.000    0.000    0.000    0.000 
#
# Total GULP energy -496120.856758 kJ/mol
# GULP energy per Si atom -12403.021419 kJ/mol
# Density = 1.752961 g / cm^3
# Si number density = 17.569596 Si / 1000 Ang^3
#
#
#
# Elastic Constant Matrix: (Units=GPa)
#
#
# Indices 1 2 3 4 5 6 
#
# 1 104.7427 45.0638 53.6360 0.0000 0.0000 0.0000
# 2 45.0638 62.5569 61.2167 0.0000 0.0000 0.0000
# 3 53.6360 61.2167 145.7020 0.0000 0.0000 0.0000
# 4 0.0000 0.0000 0.0000 28.4998 0.0000 0.0000
# 5 0.0000 0.0000 0.0000 0.0000 13.1965 0.0000
# 6 0.0000 0.0000 0.0000 0.0000 0.0000 25.1392
#
#
#
# Elastic Compliance Matrix: (Units=1/GPa)
#
#
# Indices 1 2 3 4 5 6 
#
# 1 0.014041 -0.008587 -0.001561 0.000000 0.000000 0.000000
# 2 -0.008587 0.032399 -0.010451 0.000000 0.000000 0.000000
# 3 -0.001561 -0.010451 0.011829 0.000000 0.000000 0.000000
# 4 0.000000 0.000000 0.000000 0.035088 0.000000 0.000000
# 5 0.000000 0.000000 0.000000 0.000000 0.075778 0.000000
# 6 0.000000 0.000000 0.000000 0.000000 0.000000 0.039779
#
#
# Mechanical properties :
#
#
# Convention : Reuss Voigt Hill
#
# Bulk Modulus (GPa) = 58.58193 70.31497 64.44845
# Shear Modulus (GPa) = 19.54642 23.57276 21.55959
#
# Velocity S-wave (km/s) = 3.33906 3.66687 3.50679
# Velocity P-wave (km/s) = 6.94845 7.61811 7.29097
#
# Compressibility (1/GPa) = 0.01707011
#
# Stress axis : x y z
#
# Youngs Moduli (GPa) = 71.22001 30.86553 84.53830
#
# Poissons Ratio (x) = 0.26505 0.13195
# Poissons Ratio (y) = 0.61158 0.88352
# Poissons Ratio (z) = 0.11117 0.32258
#
# Static dielectric constant tensor:
#      x y z
#    x 3.193220 0.000000 0.000000 
#    y 0.000000 3.215080 0.000000 
#    z 0.000000 0.000000 3.382550 
# 
# 
# High freq. dielectric constant tensor:
#      x y z
#    x 1.664070 0.000000 0.000000 
#    y 0.000000 1.675560 0.000000 
#    z 0.000000 0.000000 1.683740 
# 
# From -- ./inp_files/11422.got.cif
#   From: 2010.03.12/outbox.cif.g09.slc.cpg/sg51_6_cif.got.tgz:11422.got - 2010.04.16 13:43:02.
