data_PCOD8208998
_publ_section_title
;
Structure prediction by ZEFSAII (Michael W. Deem and Ramdas Pophale) SiO2 
 PCOD8208998
Probable space group: P M M A
;
_chemical_formula_sum "Si O2"
_cell_formula_units_Z 48
_cell_length_a 8.992938
_cell_length_b 31.152555
_cell_length_c 9.157212
_cell_angle_alpha 90.000000
_cell_angle_beta 90.000000
_cell_angle_gamma 90.000000
_cell_volume 2565.420374
_symmetry_space_group_name_H-M "P M M A"
_symmetry_group_IT_number 51
_symmetry_cell_setting 'orthorhombic'
loop_
_space_group_symop_operation_xyz
x,y,z
1/2-x,-y,z
1/2+x,-y,-z
-x,y,-z
-x,-y,-z
1/2+x,y,-z
1/2-x,y,z
x,-y,z
loop_
_atom_site_type_symbol
_atom_site_label
_atom_site_fract_x
_atom_site_fract_y
_atom_site_fract_z
Si Si1 0.574452 0.788214 0.154881
Si Si2 0.925376 0.625974 0.154683
Si Si3 0.922213 0.954739 0.653207
Si Si4 0.573447 0.861249 0.659013
Si Si5 0.923401 0.705495 0.345460
Si Si6 0.575637 0.451703 0.350341
O O1 0.750000 0.795394 0.136622
O O2 0.501115 0.829527 0.227450
O O3 0.536758 0.747319 0.253049
O O4 0.500000 0.779898 0.000000
O O5 0.750000 0.628863 0.132726
O O6 0.982872 0.663702 0.260316
O O7 0.974842 0.580290 0.222258
O O8 0.000000 0.631870 0.000000
O O9 0.750000 0.954095 0.618035
O O10 0.962164 0.908983 0.727297
O O11 0.000000 0.956295 0.500000
O O12 0.962515 0.000000 0.739472
O O13 0.500000 0.855317 0.500000
O O14 0.750000 0.852495 0.646290
O O15 0.750000 0.701288 0.374208
O O16 0.000000 0.709350 0.500000
O O17 0.500000 0.437059 0.500000
O O18 0.750000 0.448590 0.377121
O O19 0.526907 0.500000 0.306192
#
# Coordination Sequence:
#
# PCOD8208998 Si02
#       6
#     8   8   8   8   8   8
#     4  11  23  38  55  76 103 135 172 213 260 311
#     4  10  21  36  53  77 108 139 173 212 256 306
#     4   8  14  25  43  69 100 132 166 206 251 297
#     4  10  19  32  52  78 107 138 173 213 256 304
#     4  10  22  38  57  80 104 133 170 212 256 305
#     4   9  18  33  53  77 105 137 175 218 260 304
#
# _framework density 18.710384999999999
#
# number of rings (size 3 to 8) (size 9 to 14) (size 15 to 20)
#    0.000    2.333    0.000    2.500    0.000    5.000 
#    0.000    0.000    0.000    0.500    0.000    0.000 
#    0.000    0.000    0.000    0.000    0.000    0.000 
#
# Total GULP energy -594858.863818 kJ/mol
# GULP energy per Si atom -12392.892996 kJ/mol
# Density = 1.866780 g / cm^3
# Si number density = 18.710385 Si / 1000 Ang^3
#
#
#
# Elastic Constant Matrix: (Units=GPa)
#
#
# Indices 1 2 3 4 5 6 
#
# 1 56.5907 57.3722 54.9713 0.0000 0.0000 0.0000
# 2 57.3722 159.3742 79.2925 0.0000 0.0000 0.0000
# 3 54.9713 79.2925 135.1176 0.0000 0.0000 0.0000
# 4 0.0000 0.0000 0.0000 19.6724 0.0000 0.0000
# 5 0.0000 0.0000 0.0000 0.0000 33.9350 0.0000
# 6 0.0000 0.0000 0.0000 0.0000 0.0000 23.2547
#
#
#
# Elastic Compliance Matrix: (Units=1/GPa)
#
#
# Indices 1 2 3 4 5 6 
#
# 1 0.034919 -0.007771 -0.009646 0.000000 0.000000 0.000000
# 2 -0.007771 0.010591 -0.003054 0.000000 0.000000 0.000000
# 3 -0.009646 -0.003054 0.013118 0.000000 0.000000 0.000000
# 4 0.000000 0.000000 0.000000 0.050833 0.000000 0.000000
# 5 0.000000 0.000000 0.000000 0.000000 0.029468 0.000000
# 6 0.000000 0.000000 0.000000 0.000000 0.000000 0.043002
#
#
# Mechanical properties :
#
#
# Convention : Reuss Voigt Hill
#
# Bulk Modulus (GPa) = 56.54214 81.59496 69.06855
# Shear Modulus (GPa) = 21.85612 26.00219 23.92915
#
# Velocity S-wave (km/s) = 3.42150 3.73194 3.58008
# Velocity P-wave (km/s) = 6.77452 7.89138 7.35418
#
# Compressibility (1/GPa) = 0.01768592
#
# Stress axis : x y z
#
# Youngs Moduli (GPa) = 28.63733 94.41612 76.23400
#
# Poissons Ratio (x) = 0.73373 0.73537
# Poissons Ratio (y) = 0.22255 0.23280
# Poissons Ratio (z) = 0.27624 0.28833
#
# Static dielectric constant tensor:
#      x y z
#    x 3.668510 0.000000 0.000000 
#    y 0.000000 4.165750 0.000000 
#    z 0.000000 0.000000 3.201820 
# 
# 
# High freq. dielectric constant tensor:
#      x y z
#    x 1.727180 0.000000 0.000000 
#    y 0.000000 1.757020 0.000000 
#    z 0.000000 0.000000 1.700040 
# 
# From -- ./inp_files/5942.got.cif
#   From: 2010.03.12/outbox.cif.g09.slc.cpg/sg51_3_cif.got.tgz:5942.got - 2010.04.16 13:43:02.
