data_PCOD8208332
_publ_section_title
;
Structure prediction by ZEFSAII (Michael W. Deem and Ramdas Pophale) SiO2 
 PCOD8208332
Probable space group: P M M A
;
_chemical_formula_sum "Si O2"
_cell_formula_units_Z 64
_cell_length_a 23.125445
_cell_length_b 9.273266
_cell_length_c 18.354077
_cell_angle_alpha 90.000000
_cell_angle_beta 90.000000
_cell_angle_gamma 90.000000
_cell_volume 3936.002498
_symmetry_space_group_name_H-M "P M M A"
_symmetry_group_IT_number 51
_symmetry_cell_setting 'orthorhombic'
loop_
_space_group_symop_operation_xyz
x,y,z
1/2-x,-y,z
1/2+x,-y,-z
-x,y,-z
-x,-y,-z
1/2+x,y,-z
1/2-x,y,z
x,-y,z
loop_
_atom_site_type_symbol
_atom_site_label
_atom_site_fract_x
_atom_site_fract_y
_atom_site_fract_z
Si Si1 0.180922 0.662930 0.583940
Si Si2 0.817270 0.332321 0.571757
Si Si3 0.684082 0.831703 0.277082
Si Si4 0.183032 0.665381 0.995903
Si Si5 0.184164 0.327346 0.271920
Si Si6 0.990501 0.667990 0.084409
Si Si7 0.123096 0.829471 0.871188
Si Si8 0.615010 0.669935 0.864974
O O1 0.250000 0.664672 0.582416
O O2 0.158251 0.500000 0.594448
O O3 0.158839 0.731003 0.505642
O O4 0.157505 0.756263 0.651221
O O5 0.750000 0.301537 0.577944
O O6 0.830196 0.500000 0.565606
O O7 0.841886 0.272488 0.649315
O O8 0.750000 0.781003 0.261838
O O9 0.644350 0.787844 0.209306
O O10 0.682237 0.000000 0.292055
O O11 0.250000 0.676044 0.015292
O O12 0.164560 0.500000 0.979724
O O13 0.169194 0.761977 0.926342
O O14 0.147786 0.730497 0.064048
O O15 0.250000 0.273272 0.258795
O O16 0.183916 0.500000 0.272071
O O17 0.143005 0.263668 0.208433
O O18 0.974656 0.500000 0.092856
O O19 0.939966 0.764035 0.117197
O O20 0.047570 0.709544 0.130145
O O21 0.000000 0.706135 0.000000
O O22 0.121202 0.000000 0.883039
O O23 0.624483 0.500000 0.864358
#
# Coordination Sequence:
#
# PCOD8208332 Si02
#       8
#     8   8   8   8   8   8   8   8
#     4   8  13  22  38  61  88 116 143 170 205 255
#     4   7  10  17  31  56  90 119 139 166 207 254
#     4   9  18  31  44  61  88 117 143 178 222 264
#     4  10  19  31  48  69  93 120 149 180 220 271
#     4   8  12  19  35  62  94 121 143 171 213 266
#     4  10  19  34  51  65  87 115 149 196 236 264
#     4  11  22  34  48  65  88 117 153 191 228 269
#     4   9  16  27  43  64  89 118 149 183 222 262
#
# _framework density 16.260152000000001
#
# number of rings (size 3 to 8) (size 9 to 14) (size 15 to 20)
#    0.000    3.000    1.250    2.625    0.000    3.500 
#    0.000    1.250    0.000    0.000    0.000    2.625 
#    0.000   11.000    0.000    0.000    0.000    0.000 
#
# Total GULP energy -792924.777314 kJ/mol
# GULP energy per Si atom -12389.449646 kJ/mol
# Density = 1.622314 g / cm^3
# Si number density = 16.260152 Si / 1000 Ang^3
#
#
#
# Elastic Constant Matrix: (Units=GPa)
#
#
# Indices 1 2 3 4 5 6 
#
# 1 62.5521 21.5586 44.5910 0.0000 0.0000 0.0000
# 2 21.5586 33.1047 42.1749 0.0000 0.0000 0.0000
# 3 44.5910 42.1749 159.4331 0.0000 0.0000 0.0000
# 4 0.0000 0.0000 0.0000 0.5989 0.0000 0.0000
# 5 0.0000 0.0000 0.0000 0.0000 10.3344 0.0000
# 6 0.0000 0.0000 0.0000 0.0000 0.0000 15.3261
#
#
#
# Elastic Compliance Matrix: (Units=1/GPa)
#
#
# Indices 1 2 3 4 5 6 
#
# 1 0.021864 -0.009725 -0.003542 0.000000 0.000000 0.000000
# 2 -0.009725 0.049888 -0.010477 0.000000 0.000000 0.000000
# 3 -0.003542 -0.010477 0.010034 0.000000 0.000000 0.000000
# 4 0.000000 0.000000 0.000000 1.669815 0.000000 0.000000
# 5 0.000000 0.000000 0.000000 0.000000 0.096764 0.000000
# 6 0.000000 0.000000 0.000000 0.000000 0.000000 0.065248
#
#
# Mechanical properties :
#
#
# Convention : Reuss Voigt Hill
#
# Bulk Modulus (GPa) = 29.15704 52.41544 40.78624
# Shear Modulus (GPa) = 2.53481 15.03623 8.78552
#
# Velocity S-wave (km/s) = 1.24992 3.04423 2.32698
# Velocity P-wave (km/s) = 4.47812 6.68296 5.68839
#
# Compressibility (1/GPa) = 0.03429704
#
# Stress axis : x y z
#
# Youngs Moduli (GPa) = 45.73792 20.04493 99.65730
#
# Poissons Ratio (x) = 0.19494 0.35302
# Poissons Ratio (y) = 0.44482 1.04409
# Poissons Ratio (z) = 0.16202 0.21001
#
# Static dielectric constant tensor:
#      x y z
#    x 2.854100 0.000000 0.000000 
#    y 0.000000 2.736540 0.000000 
#    z 0.000000 0.000000 3.580620 
# 
# 
# High freq. dielectric constant tensor:
#      x y z
#    x 1.589440 0.000000 0.000000 
#    y 0.000000 1.583110 0.000000 
#    z 0.000000 0.000000 1.644950 
# 
# From -- ./inp_files/30879.got.cif
#   From: 2010.03.12/outbox.cif.g09.slc.cpg/sg51_16_cif.got.tgz:30879.got - 2010.04.16 13:43:02.
