data_PCOD8208629
_publ_section_title
;
Structure prediction by ZEFSAII (Michael W. Deem and Ramdas Pophale) SiO2 
 PCOD8208629
Probable space group: P M M A
;
_chemical_formula_sum "Si O2"
_cell_formula_units_Z 56
_cell_length_a 13.991036
_cell_length_b 13.969763
_cell_length_c 15.145597
_cell_angle_alpha 90.000000
_cell_angle_beta 90.000000
_cell_angle_gamma 90.000000
_cell_volume 2960.229001
_symmetry_space_group_name_H-M "P M M A"
_symmetry_group_IT_number 51
_symmetry_cell_setting 'orthorhombic'
loop_
_space_group_symop_operation_xyz
x,y,z
1/2-x,-y,z
1/2+x,-y,-z
-x,y,-z
-x,-y,-z
1/2+x,y,-z
1/2-x,y,z
x,-y,z
loop_
_atom_site_type_symbol
_atom_site_label
_atom_site_fract_x
_atom_site_fract_y
_atom_site_fract_z
Si Si1 0.136908 0.392236 0.451577
Si Si2 0.523784 0.893647 0.398199
Si Si3 0.391080 0.395199 0.980983
Si Si4 0.362577 0.288812 0.628355
Si Si5 0.646573 0.659952 0.836909
Si Si6 0.858025 0.222879 0.676927
Si Si7 0.441246 0.393692 0.793352
O O1 0.250000 0.397710 0.457234
O O2 0.095199 0.500000 0.436251
O O3 0.098436 0.349509 0.544615
O O4 0.106549 0.320683 0.372613
O O5 0.500000 0.894248 0.500000
O O6 0.612660 0.822908 0.382446
O O7 0.428358 0.863120 0.345813
O O8 0.552841 0.000000 0.365957
O O9 0.340569 0.500000 0.987948
O O10 0.383909 0.354977 0.880584
O O11 0.500000 0.411946 0.000000
O O12 0.348692 0.324121 0.056206
O O13 0.250000 0.301301 0.640897
O O14 0.418605 0.322977 0.714433
O O15 0.750000 0.613724 0.808166
O O16 0.637135 0.759585 0.782749
O O17 0.555187 0.596303 0.811703
O O18 0.750000 0.196114 0.646674
O O19 0.404361 0.500000 0.770260
#
# Coordination Sequence:
#
# PCOD8208629 Si02
#       7
#     8   8   8   8   8   8   8
#     4   9  18  32  50  74 109 148 182 214 252 310
#     4  11  23  40  61  83 106 137 181 233 293 342
#     4   8  16  30  46  71 108 148 189 228 262 306
#     4  11  22  38  56  78 109 144 188 231 273 327
#     4  10  19  31  51  77 111 149 187 228 272 320
#     4  10  20  36  55  81 112 143 181 221 269 331
#     4  10  20  34  53  79 114 155 194 227 267 321
#
# _framework density 18.917455
#
# number of rings (size 3 to 8) (size 9 to 14) (size 15 to 20)
#    0.000    2.143    2.857    1.714    0.000    4.286 
#    0.000    6.429    0.000    0.000    0.000    2.000 
#    0.000    2.286    0.000    0.000    0.000    0.000 
#
# Total GULP energy -693748.933528 kJ/mol
# GULP energy per Si atom -12388.373813 kJ/mol
# Density = 1.887440 g / cm^3
# Si number density = 18.917455 Si / 1000 Ang^3
#
#
#
# Elastic Constant Matrix: (Units=GPa)
#
#
# Indices 1 2 3 4 5 6 
#
# 1 61.6135 15.4263 22.5661 0.0000 0.0000 0.0000
# 2 15.4263 96.1234 40.5731 0.0000 0.0000 0.0000
# 3 22.5661 40.5731 119.8334 0.0000 0.0000 0.0000
# 4 0.0000 0.0000 0.0000 -48.3600 0.0000 0.0000
# 5 0.0000 0.0000 0.0000 0.0000 21.0529 0.0000
# 6 0.0000 0.0000 0.0000 0.0000 0.0000 22.0883
#
#
#
# Elastic Compliance Matrix: (Units=1/GPa)
#
#
# Indices 1 2 3 4 5 6 
#
# 1 0.017659 -0.001669 -0.002760 0.000000 0.000000 0.000000
# 2 -0.001669 0.012296 -0.003849 0.000000 0.000000 0.000000
# 3 -0.002760 -0.003849 0.010168 0.000000 0.000000 0.000000
# 4 0.000000 0.000000 0.000000 -0.020678 0.000000 0.000000
# 5 0.000000 0.000000 0.000000 0.000000 0.047499 0.000000
# 6 0.000000 0.000000 0.000000 0.000000 0.000000 0.045273
#
#
# Mechanical properties :
#
#
# Convention : Reuss Voigt Hill
#
# Bulk Modulus (GPa) = 42.43306 48.30011 45.36659
# Shear Modulus (GPa) = 36.59568 12.22323 24.40945
#
# Velocity S-wave (km/s) = 4.40306 2.54468 3.59599
# Velocity P-wave (km/s) = 6.95188 5.84990 6.42456
#
# Compressibility (1/GPa) = 0.02356653
#
# Stress axis : x y z
#
# Youngs Moduli (GPa) = 56.62821 81.32943 98.34921
#
# Poissons Ratio (x) = 0.13573 0.27148
# Poissons Ratio (y) = 0.09450 0.37853
# Poissons Ratio (z) = 0.15631 0.31302
#
# Static dielectric constant tensor:
#      x y z
#    x 3.526440 0.000000 0.000000 
#    y 0.000000 3.274270 0.000000 
#    z 0.000000 0.000000 3.893210 
# 
# 
# High freq. dielectric constant tensor:
#      x y z
#    x 1.745980 0.000000 0.000000 
#    y 0.000000 1.675500 0.000000 
#    z 0.000000 0.000000 1.742150 
# 
# From -- ./inp_files/24181.got.cif
#   From: 2010.03.12/outbox.cif.g09.slc.cpg/sg51_13_cif.got.tgz:24181.got - 2010.04.16 13:43:02.
