data_PCOD8208069
_publ_section_title
;
Structure prediction by ZEFSAII (Michael W. Deem and Ramdas Pophale) SiO2 
 PCOD8208069
Probable space group: P M M A
;
_chemical_formula_sum "Si O2"
_cell_formula_units_Z 48
_cell_length_a 24.977908
_cell_length_b 9.301921
_cell_length_c 12.444576
_cell_angle_alpha 90.000000
_cell_angle_beta 90.000000
_cell_angle_gamma 90.000000
_cell_volume 2891.404235
_symmetry_space_group_name_H-M "P M M A"
_symmetry_group_IT_number 51
_symmetry_cell_setting 'orthorhombic'
loop_
_space_group_symop_operation_xyz
x,y,z
1/2-x,-y,z
1/2+x,-y,-z
-x,y,-z
-x,-y,-z
1/2+x,y,-z
1/2-x,y,z
x,-y,z
loop_
_atom_site_type_symbol
_atom_site_label
_atom_site_fract_x
_atom_site_fract_y
_atom_site_fract_z
Si Si1 0.394117 0.831874 0.120751
Si Si2 0.498085 0.662552 0.127626
Si Si3 0.101010 0.833476 0.870780
Si Si4 0.810541 0.168320 0.297012
Si Si5 0.187420 0.332994 0.261673
Si Si6 0.813585 0.659005 0.499381
O O1 0.446325 0.750734 0.166690
O O2 0.342159 0.769310 0.178192
O O3 0.400262 0.000000 0.145420
O O4 0.386347 0.802294 0.994666
O O5 0.495300 0.500000 0.172566
O O6 0.551159 0.740200 0.172001
O O7 0.500000 0.663419 0.000000
O O8 0.153179 0.786391 0.803776
O O9 0.086483 0.000000 0.852763
O O10 0.750000 0.222755 0.273863
O O11 0.834698 0.236394 0.406047
O O12 0.811280 0.000000 0.315625
O O13 0.250000 0.302445 0.247870
O O14 0.174605 0.500000 0.238082
O O15 0.167547 0.291432 0.382054
O O16 0.750000 0.656366 0.500588
O O17 0.835916 0.500000 0.474738
#
# Coordination Sequence:
#
# PCOD8208069 Si02
#       6
#     8   8   8   8   8   8
#     4  10  19  30  47  70  95 123 154 188 227 273
#     4   9  17  30  48  67  88 118 157 194 226 267
#     4   9  18  31  46  67  96 125 152 186 228 271
#     4   9  17  29  46  68  94 123 152 184 224 269
#     4   9  18  32  48  67  94 125 154 188 230 271
#     4   8  15  29  47  65  87 118 155 191 225 264
#
# _framework density 16.600930999999999
#
# number of rings (size 3 to 8) (size 9 to 14) (size 15 to 20)
#    0.000    3.000    0.000    2.000    0.000    5.000 
#    0.000    3.333    0.000    3.000    0.000    7.000 
#    0.000    0.000    0.000    0.000    0.000    0.000 
#
# Total GULP energy -595070.992527 kJ/mol
# GULP energy per Si atom -12397.312344 kJ/mol
# Density = 1.656315 g / cm^3
# Si number density = 16.600931 Si / 1000 Ang^3
#
#
#
# Elastic Constant Matrix: (Units=GPa)
#
#
# Indices 1 2 3 4 5 6 
#
# 1 88.5598 57.8038 50.1515 0.0000 0.0000 0.0000
# 2 57.8038 88.4061 49.6539 0.0000 0.0000 0.0000
# 3 50.1515 49.6539 76.9273 0.0000 0.0000 0.0000
# 4 0.0000 0.0000 0.0000 27.4910 0.0000 0.0000
# 5 0.0000 0.0000 0.0000 0.0000 4.0688 0.0000
# 6 0.0000 0.0000 0.0000 0.0000 0.0000 29.6792
#
#
#
# Elastic Compliance Matrix: (Units=1/GPa)
#
#
# Indices 1 2 3 4 5 6 
#
# 1 0.022529 -0.010167 -0.008125 0.000000 0.000000 0.000000
# 2 -0.010167 0.022333 -0.007787 0.000000 0.000000 0.000000
# 3 -0.008125 -0.007787 0.023322 0.000000 0.000000 0.000000
# 4 0.000000 0.000000 0.000000 0.036376 0.000000 0.000000
# 5 0.000000 0.000000 0.000000 0.000000 0.245771 0.000000
# 6 0.000000 0.000000 0.000000 0.000000 0.000000 0.033694
#
#
# Mechanical properties :
#
#
# Convention : Reuss Voigt Hill
#
# Bulk Modulus (GPa) = 62.39661 63.23463 62.81562
# Shear Modulus (GPa) = 11.32441 18.66673 14.99557
#
# Velocity S-wave (km/s) = 2.61464 3.35690 3.00875
# Velocity P-wave (km/s) = 6.83981 7.29375 7.07042
#
# Compressibility (1/GPa) = 0.01602651
#
# Stress axis : x y z
#
# Youngs Moduli (GPa) = 44.38688 44.77770 42.87745
#
# Poissons Ratio (x) = 0.45526 0.34838
# Poissons Ratio (y) = 0.45129 0.33387
# Poissons Ratio (z) = 0.36065 0.34867
#
# Static dielectric constant tensor:
#      x y z
#    x 3.057830 0.000000 0.000000 
#    y 0.000000 3.240020 0.000000 
#    z 0.000000 0.000000 3.073110 
# 
# 
# High freq. dielectric constant tensor:
#      x y z
#    x 1.623640 0.000000 0.000000 
#    y 0.000000 1.644300 0.000000 
#    z 0.000000 0.000000 1.620280 
# 
# From -- ./inp_files/12848.got.cif
#   From: 2010.03.12/outbox.cif.g09.slc.cpg/sg51_7_cif.got.tgz:12848.got - 2010.04.16 13:43:02.
