data_PCOD8208340
_publ_section_title
;
Structure prediction by ZEFSAII (Michael W. Deem and Ramdas Pophale) SiO2 
 PCOD8208340
Probable space group: P M M A
;
_chemical_formula_sum "Si O2"
_cell_formula_units_Z 56
_cell_length_a 9.364570
_cell_length_b 14.211990
_cell_length_c 25.554035
_cell_angle_alpha 90.000000
_cell_angle_beta 90.000000
_cell_angle_gamma 90.000000
_cell_volume 3400.965441
_symmetry_space_group_name_H-M "P M M A"
_symmetry_group_IT_number 51
_symmetry_cell_setting 'orthorhombic'
loop_
_space_group_symop_operation_xyz
x,y,z
1/2-x,-y,z
1/2+x,-y,-z
-x,y,-z
-x,-y,-z
1/2+x,y,-z
1/2-x,y,z
x,-y,z
loop_
_atom_site_type_symbol
_atom_site_label
_atom_site_fract_x
_atom_site_fract_y
_atom_site_fract_z
Si Si1 0.916485 0.109274 0.447919
Si Si2 0.414561 0.793254 0.357172
Si Si3 0.583045 0.795066 0.156163
Si Si4 0.915538 0.604198 0.203981
Si Si5 0.585556 0.109175 0.751241
Si Si6 0.586665 0.395531 0.692702
Si Si7 0.083781 0.891247 0.949073
O O1 0.750000 0.132717 0.455301
O O2 0.000000 0.138900 0.500000
O O3 0.979326 0.169436 0.400814
O O4 0.941239 0.000000 0.435139
O O5 0.250000 0.817220 0.371644
O O6 0.457482 0.839423 0.302201
O O7 0.439713 0.680662 0.352928
O O8 0.750000 0.816500 0.161818
O O9 0.549247 0.683281 0.160544
O O10 0.507116 0.852623 0.201436
O O11 0.528093 0.830115 0.099874
O O12 0.750000 0.605590 0.218346
O O13 0.961340 0.500000 0.183473
O O14 0.995746 0.631368 0.256827
O O15 0.750000 0.128273 0.764918
O O16 0.552785 0.000000 0.743299
O O17 0.750000 0.390844 0.711285
O O18 0.547326 0.500000 0.671481
O O19 0.250000 0.874873 0.959737
O O20 0.049680 0.000000 0.936967
O O21 0.000000 0.855827 0.000000
#
# Coordination Sequence:
#
# PCOD8208340 Si02
#       7
#     8   8   8   8   8   8   8
#     4  10  21  36  54  75  98 128 167 206 243 285
#     4  10  19  32  50  72 101 132 161 197 240 285
#     4  10  19  31  48  69  95 125 158 197 240 286
#     4   9  17  29  46  69  96 125 157 194 237 285
#     4  10  20  31  44  68 101 132 159 190 235 288
#     4   9  17  30  49  72  98 129 163 197 235 281
#     4   9  18  32  48  66  88 118 158 200 240 283
#
# _framework density 16.465911999999999
#
# number of rings (size 3 to 8) (size 9 to 14) (size 15 to 20)
#    0.000    2.429    1.429    1.286    0.000    4.000 
#    0.000    1.429    0.000    0.857    0.000    0.000 
#    0.000    0.000    0.000    0.000    0.000    0.000 
#
# Total GULP energy -694364.033287 kJ/mol
# GULP energy per Si atom -12399.357737 kJ/mol
# Density = 1.642843 g / cm^3
# Si number density = 16.465912 Si / 1000 Ang^3
#
#
#
# Elastic Constant Matrix: (Units=GPa)
#
#
# Indices 1 2 3 4 5 6 
#
# 1 61.2999 42.9888 57.2696 0.0000 0.0000 0.0000
# 2 42.9888 98.9719 64.2352 0.0000 0.0000 0.0000
# 3 57.2696 64.2352 119.0323 0.0000 0.0000 0.0000
# 4 0.0000 0.0000 0.0000 16.0261 0.0000 0.0000
# 5 0.0000 0.0000 0.0000 0.0000 31.4004 0.0000
# 6 0.0000 0.0000 0.0000 0.0000 0.0000 21.7600
#
#
#
# Elastic Compliance Matrix: (Units=1/GPa)
#
#
# Indices 1 2 3 4 5 6 
#
# 1 0.031771 -0.005970 -0.012064 0.000000 0.000000 0.000000
# 2 -0.005970 0.016672 -0.006125 0.000000 0.000000 0.000000
# 3 -0.012064 -0.006125 0.017511 0.000000 0.000000 0.000000
# 4 0.000000 0.000000 0.000000 0.062398 0.000000 0.000000
# 5 0.000000 0.000000 0.000000 0.000000 0.031847 0.000000
# 6 0.000000 0.000000 0.000000 0.000000 0.000000 0.045956
#
#
# Mechanical properties :
#
#
# Convention : Reuss Voigt Hill
#
# Bulk Modulus (GPa) = 56.70224 67.58793 62.14508
# Shear Modulus (GPa) = 19.20489 21.49134 20.34811
#
# Velocity S-wave (km/s) = 3.41888 3.61668 3.51917
# Velocity P-wave (km/s) = 7.07784 7.65355 7.37132
#
# Compressibility (1/GPa) = 0.01763599
#
# Stress axis : x y z
#
# Youngs Moduli (GPa) = 31.47548 59.98087 57.10811
#
# Poissons Ratio (x) = 0.35807 0.68896
# Poissons Ratio (y) = 0.18790 0.34977
# Poissons Ratio (z) = 0.37973 0.36737
#
# Static dielectric constant tensor:
#      x y z
#    x 3.040830 0.000000 0.000000 
#    y 0.000000 3.405460 0.000000 
#    z 0.000000 0.000000 2.980650 
# 
# 
# High freq. dielectric constant tensor:
#      x y z
#    x 1.635760 0.000000 0.000000 
#    y 0.000000 1.640130 0.000000 
#    z 0.000000 0.000000 1.612180 
# 
# From -- ./inp_files/32010.got.cif
#   From: 2010.03.12/outbox.cif.g09.slc.cpg/sg51_17_cif.got.tgz:32010.got - 2010.04.16 13:43:02.
