data_PCOD8208213
_publ_section_title
;
Structure prediction by ZEFSAII (Michael W. Deem and Ramdas Pophale) SiO2 
 PCOD8208213
Probable space group: P M M A
;
_chemical_formula_sum "Si O2"
_cell_formula_units_Z 48
_cell_length_a 8.772301
_cell_length_b 23.896549
_cell_length_c 13.833160
_cell_angle_alpha 90.000000
_cell_angle_beta 90.000000
_cell_angle_gamma 90.000000
_cell_volume 2899.813801
_symmetry_space_group_name_H-M "P M M A"
_symmetry_group_IT_number 51
_symmetry_cell_setting 'orthorhombic'
loop_
_space_group_symop_operation_xyz
x,y,z
1/2-x,-y,z
1/2+x,-y,-z
-x,y,-z
-x,-y,-z
1/2+x,y,-z
1/2-x,y,z
x,-y,z
loop_
_atom_site_type_symbol
_atom_site_label
_atom_site_fract_x
_atom_site_fract_y
_atom_site_fract_z
Si Si1 0.429929 0.168382 0.217103
Si Si2 0.570198 0.331617 0.287660
Si Si3 0.071653 0.937719 0.100096
Si Si4 0.431034 0.777515 0.603588
Si Si5 0.431085 0.268126 0.897818
Si Si6 0.430591 0.437710 0.602991
O O1 0.250000 0.178755 0.224255
O O2 0.471240 0.105341 0.185053
O O3 0.507163 0.176672 0.321133
O O4 0.499063 0.209710 0.136826
O O5 0.750000 0.332800 0.294165
O O6 0.511396 0.283550 0.360886
O O7 0.520757 0.316771 0.178342
O O8 0.505794 0.392339 0.319700
O O9 0.250000 0.938240 0.082869
O O10 0.012438 0.000000 0.128444
O O11 0.000000 0.916997 0.000000
O O12 0.500000 0.791199 0.500000
O O13 0.250000 0.781312 0.599530
O O14 0.250000 0.261618 0.904714
O O15 0.500000 0.286166 0.000000
O O16 0.500000 0.422311 0.500000
O O17 0.250000 0.434350 0.593296
O O18 0.481830 0.500000 0.636220
#
# Coordination Sequence:
#
# PCOD8208213 Si02
#       6
#     8   8   8   8   8   8
#     4  10  19  31  48  69  93 120 150 183 222 266
#     4   8  16  29  44  64  89 117 147 181 220 263
#     4   9  18  31  47  68  93 120 148 180 219 263
#     4  10  19  31  47  67  93 121 151 186 224 267
#     4  10  19  31  46  65  91 119 150 186 224 267
#     4   9  16  27  44  65  88 114 144 178 218 263
#
# _framework density 16.552786000000001
#
# number of rings (size 3 to 8) (size 9 to 14) (size 15 to 20)
#    0.000    2.667    0.000    3.500    0.000    2.667 
#    0.000    4.167    0.000    1.000    0.000    0.000 
#    0.000    0.000    0.000    0.000    0.000    0.667 
#
# Total GULP energy -595030.166551 kJ/mol
# GULP energy per Si atom -12396.461803 kJ/mol
# Density = 1.651511 g / cm^3
# Si number density = 16.552786 Si / 1000 Ang^3
#
#
#
# Elastic Constant Matrix: (Units=GPa)
#
#
# Indices 1 2 3 4 5 6 
#
# 1 53.9814 34.7113 40.0602 0.0000 0.0000 0.0000
# 2 34.7113 120.8919 78.6926 0.0000 0.0000 0.0000
# 3 40.0602 78.6926 143.2110 0.0000 0.0000 0.0000
# 4 0.0000 0.0000 0.0000 20.4122 0.0000 0.0000
# 5 0.0000 0.0000 0.0000 0.0000 29.4229 0.0000
# 6 0.0000 0.0000 0.0000 0.0000 0.0000 17.9425
#
#
#
# Elastic Compliance Matrix: (Units=1/GPa)
#
#
# Indices 1 2 3 4 5 6 
#
# 1 0.024571 -0.004018 -0.004665 0.000000 0.000000 0.000000
# 2 -0.004018 0.013535 -0.006313 0.000000 0.000000 0.000000
# 3 -0.004665 -0.006313 0.011757 0.000000 0.000000 0.000000
# 4 0.000000 0.000000 0.000000 0.048990 0.000000 0.000000
# 5 0.000000 0.000000 0.000000 0.000000 0.033987 0.000000
# 6 0.000000 0.000000 0.000000 0.000000 0.000000 0.055734
#
#
# Mechanical properties :
#
#
# Convention : Reuss Voigt Hill
#
# Bulk Modulus (GPa) = 50.32914 69.44583 59.88749
# Shear Modulus (GPa) = 22.20341 24.53020 23.36681
#
# Velocity S-wave (km/s) = 3.66645 3.85377 3.76127
# Velocity P-wave (km/s) = 6.95665 7.86431 7.42436
#
# Compressibility (1/GPa) = 0.01986920
#
# Stress axis : x y z
#
# Youngs Moduli (GPa) = 40.69873 73.88142 85.05687
#
# Poissons Ratio (x) = 0.29687 0.39681
# Poissons Ratio (y) = 0.16354 0.53700
# Poissons Ratio (z) = 0.18987 0.46644
#
# Static dielectric constant tensor:
#      x y z
#    x 3.056320 0.000000 0.000000 
#    y 0.000000 3.486380 0.000000 
#    z 0.000000 0.000000 3.112270 
# 
# 
# High freq. dielectric constant tensor:
#      x y z
#    x 1.634400 0.000000 0.000000 
#    y 0.000000 1.630250 0.000000 
#    z 0.000000 0.000000 1.628830 
# 
# From -- ./inp_files/14452.got.cif
#   From: 2010.03.12/outbox.cif.g09.slc.cpg/sg51_8_cif.got.tgz:14452.got - 2010.04.16 13:43:02.
