data_PCOD8208108
_publ_section_title
;
Structure prediction by ZEFSAII (Michael W. Deem and Ramdas Pophale) SiO2 
 PCOD8208108
Probable space group: P M M A
;
_chemical_formula_sum "Si O2"
_cell_formula_units_Z 64
_cell_length_a 8.835463
_cell_length_b 20.163933
_cell_length_c 19.642764
_cell_angle_alpha 90.000000
_cell_angle_beta 90.000000
_cell_angle_gamma 90.000000
_cell_volume 3499.509341
_symmetry_space_group_name_H-M "P M M A"
_symmetry_group_IT_number 51
_symmetry_cell_setting 'orthorhombic'
loop_
_space_group_symop_operation_xyz
x,y,z
1/2-x,-y,z
1/2+x,-y,-z
-x,y,-z
-x,-y,-z
1/2+x,y,-z
1/2-x,y,z
x,-y,z
loop_
_atom_site_type_symbol
_atom_site_label
_atom_site_fract_x
_atom_site_fract_y
_atom_site_fract_z
Si Si1 0.927584 0.695656 0.160119
Si Si2 0.429209 0.188569 0.073543
Si Si3 0.920383 0.886126 0.432205
Si Si4 0.076834 0.075730 0.842503
Si Si5 0.575918 0.884836 0.705681
Si Si6 0.927223 0.425972 0.069823
Si Si7 0.920586 0.271788 0.432478
Si Si8 0.076190 0.272009 0.295382
O O1 0.750000 0.710633 0.152953
O O2 0.972987 0.624576 0.129135
O O3 0.020583 0.753047 0.123293
O O4 0.975387 0.692361 0.238521
O O5 0.250000 0.188782 0.067008
O O6 0.480612 0.118619 0.104512
O O7 0.500000 0.200241 0.000000
O O8 0.750000 0.913796 0.429055
O O9 0.920361 0.807176 0.434604
O O10 0.000000 0.914648 0.500000
O O11 0.010184 0.911134 0.365828
O O12 0.250000 0.100590 0.843243
O O13 0.014942 0.081003 0.766171
O O14 0.064616 0.000000 0.866888
O O15 0.750000 0.906235 0.710310
O O16 0.556484 0.806391 0.712257
O O17 0.750000 0.426355 0.057935
O O18 0.985644 0.500000 0.088871
O O19 0.000000 0.400468 0.000000
O O20 0.750000 0.299248 0.428312
O O21 0.000000 0.300465 0.500000
O O22 0.015151 0.297184 0.367855
O O23 0.250000 0.293342 0.287787
#
# Coordination Sequence:
#
# PCOD8208108 Si02
#       8
#     8   8   8   8   8   8   8   8
#     4  11  21  34  55  81 111 144 178 220 264 311
#     4  12  25  41  60  82 107 136 170 214 263 318
#     4   9  16  26  43  68  98 131 168 211 256 309
#     4  11  24  41  60  80 102 131 170 216 266 321
#     4  10  19  32  51  74 101 134 170 212 260 314
#     4   9  19  35  54  78 108 144 183 220 261 310
#     4   9  16  26  41  64  97 136 174 214 260 311
#     4  10  19  30  47  73 104 138 175 217 262 312
#
# _framework density 18.288277000000001
#
# number of rings (size 3 to 8) (size 9 to 14) (size 15 to 20)
#    0.000    1.875    1.250    3.750    0.000    7.250 
#    0.000    0.000    0.000    0.375    0.000    0.000 
#    0.000    0.500    0.000    1.375    0.000    2.000 
#
# Total GULP energy -793787.580380 kJ/mol
# GULP energy per Si atom -12402.930943 kJ/mol
# Density = 1.824665 g / cm^3
# Si number density = 18.288277 Si / 1000 Ang^3
#
#
#
# Elastic Constant Matrix: (Units=GPa)
#
#
# Indices 1 2 3 4 5 6 
#
# 1 122.8801 30.6808 45.7441 0.0000 0.0000 0.0000
# 2 30.6808 54.1941 32.3405 0.0000 0.0000 0.0000
# 3 45.7441 32.3405 124.9485 0.0000 0.0000 0.0000
# 4 0.0000 0.0000 0.0000 2.7899 0.0000 0.0000
# 5 0.0000 0.0000 0.0000 0.0000 40.5220 0.0000
# 6 0.0000 0.0000 0.0000 0.0000 0.0000 10.1498
#
#
#
# Elastic Compliance Matrix: (Units=1/GPa)
#
#
# Indices 1 2 3 4 5 6 
#
# 1 0.010164 -0.004179 -0.002639 0.000000 0.000000 0.000000
# 2 -0.004179 0.023541 -0.004563 0.000000 0.000000 0.000000
# 3 -0.002639 -0.004563 0.010151 0.000000 0.000000 0.000000
# 4 0.000000 0.000000 0.000000 0.358432 0.000000 0.000000
# 5 0.000000 0.000000 0.000000 0.000000 0.024678 0.000000
# 6 0.000000 0.000000 0.000000 0.000000 0.000000 0.098524
#
#
# Mechanical properties :
#
#
# Convention : Reuss Voigt Hill
#
# Bulk Modulus (GPa) = 47.41012 57.72814 52.56913
# Shear Modulus (GPa) = 9.00441 23.57619 16.29030
#
# Velocity S-wave (km/s) = 2.22133 3.59436 2.98778
# Velocity P-wave (km/s) = 5.70606 6.99000 6.38041
#
# Compressibility (1/GPa) = 0.02109255
#
# Stress axis : x y z
#
# Youngs Moduli (GPa) = 98.38644 42.47873 98.51549
#
# Poissons Ratio (x) = 0.17752 0.26002
# Poissons Ratio (y) = 0.41116 0.44955
# Poissons Ratio (z) = 0.25968 0.19384
#
# Static dielectric constant tensor:
#      x y z
#    x 3.548290 0.000000 0.000000 
#    y 0.000000 3.109930 0.000000 
#    z 0.000000 0.000000 3.566280 
# 
# 
# High freq. dielectric constant tensor:
#      x y z
#    x 1.726390 0.000000 0.000000 
#    y 0.000000 1.659470 0.000000 
#    z 0.000000 0.000000 1.719800 
# 
# From -- ./inp_files/28388.got.cif
#   From: 2010.03.12/outbox.cif.g09.slc.cpg/sg51_15_cif.got.tgz:28388.got - 2010.04.16 13:43:02.
