data_PCOD8208670
_publ_section_title
;
Structure prediction by ZEFSAII (Michael W. Deem and Ramdas Pophale) SiO2 
 PCOD8208670
Probable space group: P M M A
;
_chemical_formula_sum "Si O2"
_cell_formula_units_Z 64
_cell_length_a 15.861055
_cell_length_b 21.509405
_cell_length_c 9.511662
_cell_angle_alpha 90.000000
_cell_angle_beta 90.000000
_cell_angle_gamma 90.000000
_cell_volume 3245.016259
_symmetry_space_group_name_H-M "P M M A"
_symmetry_group_IT_number 51
_symmetry_cell_setting 'orthorhombic'
loop_
_space_group_symop_operation_xyz
x,y,z
1/2-x,-y,z
1/2+x,-y,-z
-x,y,-z
-x,-y,-z
1/2+x,y,-z
1/2-x,y,z
x,-y,z
loop_
_atom_site_type_symbol
_atom_site_label
_atom_site_fract_x
_atom_site_fract_y
_atom_site_fract_z
Si Si1 0.501674 0.271094 0.334774
Si Si2 0.653165 0.431949 0.539122
Si Si3 0.996623 0.128399 0.667066
Si Si4 0.847458 0.073276 0.164565
Si Si5 0.844365 0.073471 0.843736
Si Si6 0.383606 0.427625 0.911028
Si Si7 0.340053 0.339116 0.690098
Si Si8 0.436059 0.610375 0.198148
O O1 0.500000 0.284153 0.500000
O O2 0.478944 0.200567 0.301041
O O3 0.596314 0.283391 0.276310
O O4 0.440058 0.317611 0.249584
O O5 0.750000 0.417294 0.574372
O O6 0.643721 0.500000 0.468514
O O7 0.617947 0.379687 0.434620
O O8 0.599985 0.432358 0.680104
O O9 0.085746 0.107697 0.734296
O O10 0.000000 0.114513 0.500000
O O11 0.916002 0.095159 0.735620
O O12 0.750000 0.089748 0.205536
O O13 0.862420 0.000000 0.181664
O O14 0.865257 0.094438 0.003692
O O15 0.750000 0.098010 0.801438
O O16 0.842944 0.000000 0.839325
O O17 0.357802 0.500000 0.916001
O O18 0.321109 0.386934 0.816767
O O19 0.475430 0.419166 0.844018
O O20 0.375602 0.396298 0.064248
O O21 0.250000 0.309697 0.647518
#
# Coordination Sequence:
#
# PCOD8208670 Si02
#       8
#     8   8   8   8   8   8   8   8
#     4  10  21  40  57  76 107 152 195 231 271 325
#     4  10  19  31  53  81 102 129 177 230 278 335
#     4  11  23  36  57  89 124 160 203 248 293 342
#     4   9  19  38  63  91 124 160 198 241 291 346
#     4   9  19  39  64  91 125 160 195 239 292 347
#     4  10  20  33  53  79 107 135 167 221 291 352
#     4  10  21  37  55  77 108 142 178 227 284 337
#     4  10  19  36  54  73 105 140 180 222 272 334
#
# _framework density 19.722550999999999
#
# number of rings (size 3 to 8) (size 9 to 14) (size 15 to 20)
#    0.000    2.125    1.250    3.375    0.000    4.250 
#    9.000    5.625    0.000    0.000    0.000    0.000 
#    0.000    0.000    0.000    0.000    0.000    0.000 
#
# Total GULP energy -793101.719786 kJ/mol
# GULP energy per Si atom -12392.214372 kJ/mol
# Density = 1.967766 g / cm^3
# Si number density = 19.722551 Si / 1000 Ang^3
#
#
#
# Elastic Constant Matrix: (Units=GPa)
#
#
# Indices 1 2 3 4 5 6 
#
# 1 83.2232 23.5251 36.3840 0.0000 0.0000 0.0000
# 2 23.5251 63.6210 26.7678 0.0000 0.0000 0.0000
# 3 36.3840 26.7678 103.3424 0.0000 0.0000 0.0000
# 4 0.0000 0.0000 0.0000 29.9174 0.0000 0.0000
# 5 0.0000 0.0000 0.0000 0.0000 27.8536 0.0000
# 6 0.0000 0.0000 0.0000 0.0000 0.0000 9.4316
#
#
#
# Elastic Compliance Matrix: (Units=1/GPa)
#
#
# Indices 1 2 3 4 5 6 
#
# 1 0.014946 -0.003718 -0.004299 0.000000 0.000000 0.000000
# 2 -0.003718 0.018565 -0.003500 0.000000 0.000000 0.000000
# 3 -0.004299 -0.003500 0.012097 0.000000 0.000000 0.000000
# 4 0.000000 0.000000 0.000000 0.033425 0.000000 0.000000
# 5 0.000000 0.000000 0.000000 0.000000 0.035902 0.000000
# 6 0.000000 0.000000 0.000000 0.000000 0.000000 0.106026
#
#
# Mechanical properties :
#
#
# Convention : Reuss Voigt Hill
#
# Bulk Modulus (GPa) = 44.29751 47.06002 45.67876
# Shear Modulus (GPa) = 19.87909 24.34117 22.11013
#
# Velocity S-wave (km/s) = 3.17825 3.51690 3.35185
# Velocity P-wave (km/s) = 5.99812 6.35644 6.17987
#
# Compressibility (1/GPa) = 0.02257463
#
# Stress axis : x y z
#
# Youngs Moduli (GPa) = 66.90581 53.86379 82.66692
#
# Poissons Ratio (x) = 0.20026 0.35540
# Poissons Ratio (y) = 0.24875 0.28932
# Poissons Ratio (z) = 0.28764 0.18851
#
# Static dielectric constant tensor:
#      x y z
#    x 3.756860 0.000000 0.000000 
#    y 0.000000 3.406950 0.000000 
#    z 0.000000 0.000000 3.866260 
# 
# 
# High freq. dielectric constant tensor:
#      x y z
#    x 1.772830 0.000000 0.000000 
#    y 0.000000 1.750500 0.000000 
#    z 0.000000 0.000000 1.771410 
# 
# From -- ./inp_files/10063.got.cif
#   From: 2010.03.12/outbox.cif.g09.slc.cpg/sg51_6_cif.got.tgz:10063.got - 2010.04.16 13:43:02.
