data_PCOD8208274
_publ_section_title
;
Structure prediction by ZEFSAII (Michael W. Deem and Ramdas Pophale) SiO2 
 PCOD8208274
Probable space group: P M M A
;
_chemical_formula_sum "Si O2"
_cell_formula_units_Z 56
_cell_length_a 9.426728
_cell_length_b 19.248247
_cell_length_c 15.246447
_cell_angle_alpha 90.000000
_cell_angle_beta 90.000000
_cell_angle_gamma 90.000000
_cell_volume 2766.437147
_symmetry_space_group_name_H-M "P M M A"
_symmetry_group_IT_number 51
_symmetry_cell_setting 'orthorhombic'
loop_
_space_group_symop_operation_xyz
x,y,z
1/2-x,-y,z
1/2+x,-y,-z
-x,y,-z
-x,-y,-z
1/2+x,y,-z
1/2-x,y,z
x,-y,z
loop_
_atom_site_type_symbol
_atom_site_label
_atom_site_fract_x
_atom_site_fract_y
_atom_site_fract_z
Si Si1 0.906739 0.183107 0.080551
Si Si2 0.906391 0.422966 0.605291
Si Si3 0.095251 0.653883 0.923895
Si Si4 0.083800 0.711973 0.580797
Si Si5 0.413493 0.918001 0.413906
Si Si6 0.595897 0.576330 0.810148
Si Si7 0.582631 0.172083 0.281342
O O1 0.750000 0.149500 0.073252
O O2 0.894572 0.264478 0.065936
O O3 0.967544 0.171431 0.179160
O O4 0.000000 0.151128 0.000000
O O5 0.750000 0.401346 0.567931
O O6 0.949441 0.500000 0.570253
O O7 0.893024 0.426740 0.707792
O O8 0.027452 0.367364 0.581767
O O9 0.250000 0.620065 0.927403
O O10 0.022115 0.633313 0.832991
O O11 0.000000 0.620174 0.000000
O O12 0.250000 0.711706 0.560630
O O13 0.052224 0.753574 0.671326
O O14 0.000000 0.749604 0.500000
O O15 0.500000 0.894626 0.500000
O O16 0.250000 0.892430 0.421724
O O17 0.489618 0.886204 0.328854
O O18 0.419158 0.000000 0.401779
O O19 0.750000 0.598675 0.848616
O O20 0.553873 0.500000 0.846548
O O21 0.750000 0.154651 0.287890
#
# Coordination Sequence:
#
# PCOD8208274 Si02
#       7
#     8   8   8   8   8   8   8
#     4   9  19  35  54  79 109 140 178 224 272 323
#     4   9  19  36  55  73  96 131 176 224 274 329
#     4  10  19  31  47  67  93 125 163 209 263 323
#     4  11  23  37  54  79 110 143 182 229 279 332
#     4  10  21  37  59  89 123 158 195 231 270 323
#     4   9  18  32  48  66  89 118 157 208 264 322
#     4  10  21  37  58  85 117 150 186 231 280 329
#
# _framework density 20.242643000000001
#
# number of rings (size 3 to 8) (size 9 to 14) (size 15 to 20)
#    0.000    2.286    0.000    3.429    0.000    7.143 
#    0.000    1.429    0.000    0.429    0.000    0.000 
#    0.000    0.000    0.000    0.000    0.000    0.000 
#
# Total GULP energy -693885.042517 kJ/mol
# GULP energy per Si atom -12390.804331 kJ/mol
# Density = 2.019657 g / cm^3
# Si number density = 20.242643 Si / 1000 Ang^3
#
#
#
# Elastic Constant Matrix: (Units=GPa)
#
#
# Indices 1 2 3 4 5 6 
#
# 1 140.7752 33.5507 69.8248 0.0000 0.0000 0.0000
# 2 33.5507 42.0808 26.2927 0.0000 0.0000 0.0000
# 3 69.8248 26.2927 141.8551 0.0000 0.0000 0.0000
# 4 0.0000 0.0000 0.0000 22.2157 0.0000 0.0000
# 5 0.0000 0.0000 0.0000 0.0000 36.4348 0.0000
# 6 0.0000 0.0000 0.0000 0.0000 0.0000 29.2457
#
#
#
# Elastic Compliance Matrix: (Units=1/GPa)
#
#
# Indices 1 2 3 4 5 6 
#
# 1 0.010527 -0.005831 -0.004101 0.000000 0.000000 0.000000
# 2 -0.005831 0.030106 -0.002710 0.000000 0.000000 0.000000
# 3 -0.004101 -0.002710 0.009570 0.000000 0.000000 0.000000
# 4 0.000000 0.000000 0.000000 0.045013 0.000000 0.000000
# 5 0.000000 0.000000 0.000000 0.000000 0.027446 0.000000
# 6 0.000000 0.000000 0.000000 0.000000 0.000000 0.034193
#
#
# Mechanical properties :
#
#
# Convention : Reuss Voigt Hill
#
# Bulk Modulus (GPa) = 40.12884 64.89417 52.51150
# Shear Modulus (GPa) = 26.25402 30.58208 28.41805
#
# Velocity S-wave (km/s) = 3.60525 3.89109 3.75089
# Velocity P-wave (km/s) = 6.09896 7.23292 6.69001
#
# Compressibility (1/GPa) = 0.02491973
#
# Stress axis : x y z
#
# Youngs Moduli (GPa) = 94.99064 33.21597 104.48893
#
# Poissons Ratio (x) = 0.19368 0.42852
# Poissons Ratio (y) = 0.55389 0.28316
# Poissons Ratio (z) = 0.38956 0.09001
#
# Static dielectric constant tensor:
#      x y z
#    x 4.431060 0.000000 0.000000 
#    y 0.000000 3.440530 0.000000 
#    z 0.000000 0.000000 3.843280 
# 
# 
# High freq. dielectric constant tensor:
#      x y z
#    x 1.797310 0.000000 0.000000 
#    y 0.000000 1.758150 0.000000 
#    z 0.000000 0.000000 1.797850 
# 
# From -- ./inp_files/21797.got.cif
#   From: 2010.03.12/outbox.cif.g09.slc.cpg/sg51_11_cif.got.tgz:21797.got - 2010.04.16 13:43:02.
