data_PCOD8208839
_publ_section_title
;
Structure prediction by ZEFSAII (Michael W. Deem and Ramdas Pophale) SiO2 
 PCOD8208839
Probable space group: P M M A
;
_chemical_formula_sum "Si O2"
_cell_formula_units_Z 64
_cell_length_a 8.644158
_cell_length_b 19.932182
_cell_length_c 20.327219
_cell_angle_alpha 90.000000
_cell_angle_beta 90.000000
_cell_angle_gamma 90.000000
_cell_volume 3502.317439
_symmetry_space_group_name_H-M "P M M A"
_symmetry_group_IT_number 51
_symmetry_cell_setting 'orthorhombic'
loop_
_space_group_symop_operation_xyz
x,y,z
1/2-x,-y,z
1/2+x,-y,-z
-x,y,-z
-x,-y,-z
1/2+x,y,-z
1/2-x,y,z
x,-y,z
loop_
_atom_site_type_symbol
_atom_site_label
_atom_site_fract_x
_atom_site_fract_y
_atom_site_fract_z
Si Si1 0.066116 0.425604 0.680013
Si Si2 0.933389 0.825467 0.431131
Si Si3 0.566089 0.074997 0.321042
Si Si4 0.072326 0.421449 0.827701
Si Si5 0.068872 0.324827 0.069576
Si Si6 0.566653 0.673358 0.431073
Si Si7 0.566048 0.182497 0.070762
Si Si8 0.433920 0.074866 0.825535
O O1 0.250000 0.427299 0.677048
O O2 0.001538 0.500000 0.663580
O O3 0.016757 0.404222 0.753610
O O4 0.998640 0.372892 0.627343
O O5 0.750000 0.829888 0.434013
O O6 0.002491 0.872064 0.373261
O O7 0.988843 0.749378 0.417681
O O8 0.000000 0.851934 0.500000
O O9 0.750000 0.078058 0.322208
O O10 0.506703 0.093592 0.247796
O O11 0.510307 0.000000 0.339945
O O12 0.250000 0.399458 0.838397
O O13 0.052952 0.500000 0.841684
O O14 0.962568 0.381695 0.876958
O O15 0.250000 0.313158 0.061048
O O16 0.991284 0.255578 0.092969
O O17 0.000000 0.348637 0.000000
O O18 0.500000 0.646736 0.500000
O O19 0.750000 0.668647 0.433898
O O20 0.750000 0.182220 0.068098
O O21 0.499821 0.128531 0.122784
O O22 0.500000 0.162471 0.000000
O O23 0.250000 0.076492 0.826306
O O24 0.491611 0.000000 0.844600
#
# Coordination Sequence:
#
# PCOD8208839 Si02
#       8
#     8   8   8   8   8   8   8   8
#     4   8  15  29  49  71  94 121 154 192 232 278
#     4   9  17  28  43  64  89 118 150 187 229 271
#     4   8  14  26  44  66  90 115 149 192 231 270
#     4   9  18  34  55  77 100 126 159 200 245 292
#     4  11  22  36  53  73 100 131 164 201 240 285
#     4   9  17  29  45  66  93 123 157 194 232 276
#     4  10  19  32  51  73  99 129 161 198 239 284
#     4   8  15  28  47  72  98 123 156 199 242 284
#
# _framework density 18.273616000000001
#
# number of rings (size 3 to 8) (size 9 to 14) (size 15 to 20)
#    0.000    3.000    0.000    3.750    0.000    2.250 
#    0.000    4.375    0.000    6.375    0.000    3.500 
#    0.000    0.000    0.000    0.000    0.000    0.000 
#
# Total GULP energy -793408.185800 kJ/mol
# GULP energy per Si atom -12397.002903 kJ/mol
# Density = 1.823202 g / cm^3
# Si number density = 18.273616 Si / 1000 Ang^3
#
#
#
# Elastic Constant Matrix: (Units=GPa)
#
#
# Indices 1 2 3 4 5 6 
#
# 1 37.0372 20.5753 24.1426 0.0000 0.0000 0.0000
# 2 20.5753 110.7064 100.0124 0.0000 0.0000 0.0000
# 3 24.1426 100.0124 151.5314 0.0000 0.0000 0.0000
# 4 0.0000 0.0000 0.0000 44.4205 0.0000 0.0000
# 5 0.0000 0.0000 0.0000 0.0000 25.2147 0.0000
# 6 0.0000 0.0000 0.0000 0.0000 0.0000 16.4518
#
#
#
# Elastic Compliance Matrix: (Units=1/GPa)
#
#
# Indices 1 2 3 4 5 6 
#
# 1 0.030573 -0.003174 -0.002776 0.000000 0.000000 0.000000
# 2 -0.003174 0.022702 -0.014478 0.000000 0.000000 0.000000
# 3 -0.002776 -0.014478 0.016597 0.000000 0.000000 0.000000
# 4 0.000000 0.000000 0.000000 0.022512 0.000000 0.000000
# 5 0.000000 0.000000 0.000000 0.000000 0.039659 0.000000
# 6 0.000000 0.000000 0.000000 0.000000 0.000000 0.060784
#
#
# Mechanical properties :
#
#
# Convention : Reuss Voigt Hill
#
# Bulk Modulus (GPa) = 34.46401 65.41507 49.93954
# Shear Modulus (GPa) = 20.54603 27.52038 24.03320
#
# Velocity S-wave (km/s) = 3.35678 3.88495 3.63048
# Velocity P-wave (km/s) = 5.82451 7.48325 6.70537
#
# Compressibility (1/GPa) = 0.02901578
#
# Stress axis : x y z
#
# Youngs Moduli (GPa) = 32.70885 44.04821 60.25096
#
# Poissons Ratio (x) = 0.13983 0.16725
# Poissons Ratio (y) = 0.10383 0.87232
# Poissons Ratio (z) = 0.09079 0.63773
#
# Static dielectric constant tensor:
#      x y z
#    x 2.953640 0.000000 0.000000 
#    y 0.000000 3.600120 0.000000 
#    z 0.000000 0.000000 3.608810 
# 
# 
# High freq. dielectric constant tensor:
#      x y z
#    x 1.669470 0.000000 0.000000 
#    y 0.000000 1.710270 0.000000 
#    z 0.000000 0.000000 1.715380 
# 
# From -- ./inp_files/32598.got.cif
#   From: 2010.03.12/outbox.cif.g09.slc.cpg/sg51_17_cif.got.tgz:32598.got - 2010.04.16 13:43:02.
