data_PCOD8208759
_publ_section_title
;
Structure prediction by ZEFSAII (Michael W. Deem and Ramdas Pophale) SiO2 
 PCOD8208759
Probable space group: P M M A
;
_chemical_formula_sum "Si O2"
_cell_formula_units_Z 52
_cell_length_a 8.621011
_cell_length_b 15.408574
_cell_length_c 22.942486
_cell_angle_alpha 90.000000
_cell_angle_beta 90.000000
_cell_angle_gamma 90.000000
_cell_volume 3047.622162
_symmetry_space_group_name_H-M "P M M A"
_symmetry_group_IT_number 51
_symmetry_cell_setting 'orthorhombic'
loop_
_space_group_symop_operation_xyz
x,y,z
1/2-x,-y,z
1/2+x,-y,-z
-x,y,-z
-x,-y,-z
1/2+x,y,-z
1/2-x,y,z
x,-y,z
loop_
_atom_site_type_symbol
_atom_site_label
_atom_site_fract_x
_atom_site_fract_y
_atom_site_fract_z
Si Si1 0.567663 0.500000 0.063439
Si Si2 0.931065 0.672511 0.892525
Si Si3 0.432458 0.094048 0.816507
Si Si4 0.931968 0.274989 0.226165
Si Si5 0.931481 0.399882 0.679436
Si Si6 0.433025 0.839413 0.940114
Si Si7 0.577545 0.397945 0.442153
O O1 0.750000 0.500000 0.059960
O O2 0.508001 0.419141 0.098884
O O3 0.500000 0.500000 0.000000
O O4 0.750000 0.670829 0.906561
O O5 0.960291 0.691684 0.825183
O O6 0.012646 0.739904 0.936018
O O7 0.250000 0.087784 0.823147
O O8 0.471621 0.170985 0.770070
O O9 0.498156 0.113107 0.881862
O O10 0.498885 0.000000 0.795289
O O11 0.750000 0.287436 0.211725
O O12 0.973799 0.329670 0.283220
O O13 0.750000 0.387919 0.690593
O O14 0.981467 0.500000 0.693669
O O15 0.969703 0.376453 0.612868
O O16 0.250000 0.844766 0.943274
O O17 0.500000 0.880910 0.000000
O O18 0.500000 0.356528 0.500000
O O19 0.750000 0.358413 0.433234
O O20 0.591901 0.500000 0.450863
#
# Coordination Sequence:
#
# PCOD8208759 Si02
#       7
#     4   8   8   8   8   8   8
#     4  12  24  38  52  68  88 114 153 196 237 284
#     4  11  22  36  51  67  90 120 154 193 238 285
#     4   8  16  32  52  72  94 121 154 194 243 296
#     4  10  20  34  52  73  97 126 160 201 244 288
#     4  10  20  32  47  69 100 137 174 208 241 281
#     4  10  19  32  50  71  94 119 148 185 234 289
#     4   9  16  27  44  67  97 133 172 209 245 282
#
# _framework density 17.062481999999999
#
# number of rings (size 3 to 8) (size 9 to 14) (size 15 to 20)
#    0.000    2.154    0.000    5.308    1.077    3.077 
#    0.000    0.000    0.000   16.154    0.000    0.000 
#    0.000    0.615    0.000    1.692    0.000    2.462 
#
# Total GULP energy -644457.511130 kJ/mol
# GULP energy per Si atom -12393.413676 kJ/mol
# Density = 1.702365 g / cm^3
# Si number density = 17.062482 Si / 1000 Ang^3
#
#
#
# Elastic Constant Matrix: (Units=GPa)
#
#
# Indices 1 2 3 4 5 6 
#
# 1 70.2470 23.1086 16.4361 0.0000 0.0000 0.0000
# 2 23.1086 113.9618 39.6398 0.0000 0.0000 0.0000
# 3 16.4361 39.6398 78.4855 0.0000 0.0000 0.0000
# 4 0.0000 0.0000 0.0000 10.4818 0.0000 0.0000
# 5 0.0000 0.0000 0.0000 0.0000 30.2149 0.0000
# 6 0.0000 0.0000 0.0000 0.0000 0.0000 11.7092
#
#
#
# Elastic Compliance Matrix: (Units=1/GPa)
#
#
# Indices 1 2 3 4 5 6 
#
# 1 0.015511 -0.002445 -0.002013 0.000000 0.000000 0.000000
# 2 -0.002445 0.011030 -0.005059 0.000000 0.000000 0.000000
# 3 -0.002013 -0.005059 0.015718 0.000000 0.000000 0.000000
# 4 0.000000 0.000000 0.000000 0.095403 0.000000 0.000000
# 5 0.000000 0.000000 0.000000 0.000000 0.033096 0.000000
# 6 0.000000 0.000000 0.000000 0.000000 0.000000 0.085403
#
#
# Mechanical properties :
#
#
# Convention : Reuss Voigt Hill
#
# Bulk Modulus (GPa) = 43.05785 46.78483 44.92134
# Shear Modulus (GPa) = 17.67173 22.71516 20.19345
#
# Velocity S-wave (km/s) = 3.22173 3.65265 3.44394
# Velocity P-wave (km/s) = 6.25536 6.72818 6.49607
#
# Compressibility (1/GPa) = 0.02322457
#
# Stress axis : x y z
#
# Youngs Moduli (GPa) = 64.47100 90.65928 63.62163
#
# Poissons Ratio (x) = 0.22165 0.12810
# Poissons Ratio (y) = 0.15762 0.32186
# Poissons Ratio (z) = 0.12981 0.45864
#
# Static dielectric constant tensor:
#      x y z
#    x 3.222400 0.000000 0.000000 
#    y 0.000000 3.346400 0.000000 
#    z 0.000000 0.000000 3.108030 
# 
# 
# High freq. dielectric constant tensor:
#      x y z
#    x 1.663230 0.000000 0.000000 
#    y 0.000000 1.636220 0.000000 
#    z 0.000000 0.000000 1.639980 
# 
# From -- ./inp_files/34714.got.cif
#   From: 2010.03.12/outbox.cif.g09.slc.cpg/sg51_18_cif.got.tgz:34714.got - 2010.04.16 13:43:02.
