data_PCOD8208990
_publ_section_title
;
Structure prediction by ZEFSAII (Michael W. Deem and Ramdas Pophale) SiO2 
 PCOD8208990
Probable space group: P M M A
;
_chemical_formula_sum "Si O2"
_cell_formula_units_Z 40
_cell_length_a 17.950936
_cell_length_b 12.713131
_cell_length_c 9.312166
_cell_angle_alpha 90.000000
_cell_angle_beta 90.000000
_cell_angle_gamma 90.000000
_cell_volume 2125.153623
_symmetry_space_group_name_H-M "P M M A"
_symmetry_group_IT_number 51
_symmetry_cell_setting 'orthorhombic'
loop_
_space_group_symop_operation_xyz
x,y,z
1/2-x,-y,z
1/2+x,-y,-z
-x,y,-z
-x,-y,-z
1/2+x,y,-z
1/2-x,y,z
x,-y,z
loop_
_atom_site_type_symbol
_atom_site_label
_atom_site_fract_x
_atom_site_fract_y
_atom_site_fract_z
Si Si1 0.838056 0.196583 0.002171
Si Si2 0.413298 0.621638 0.495548
Si Si3 0.663573 0.619600 0.799760
Si Si4 0.161282 0.202867 0.674795
Si Si5 0.161425 0.000000 0.501612
Si Si6 0.661001 0.000000 0.823032
O O1 0.750000 0.185606 0.008353
O O2 0.869572 0.189785 0.163316
O O3 0.861881 0.307259 0.931511
O O4 0.870443 0.101995 0.905722
O O5 0.500000 0.647614 0.500000
O O6 0.396791 0.500000 0.530697
O O7 0.383207 0.652107 0.339035
O O8 0.371157 0.689209 0.614227
O O9 0.750000 0.637718 0.761197
O O10 0.647833 0.500000 0.846778
O O11 0.250000 0.210256 0.671408
O O12 0.131958 0.103772 0.582850
O O13 0.250000 0.000000 0.502382
O O14 0.129956 0.000000 0.339539
O O15 0.750000 0.000000 0.819387
#
# Coordination Sequence:
#
# PCOD8208990 Si02
#       6
#     8   8   8   8   4   4
#     4   9  17  28  46  74 104 130 159 201 249 295
#     4  10  21  36  52  72 100 134 172 212 253 298
#     4   9  17  31  51  73  97 127 164 204 247 298
#     4  10  19  32  52  78 105 131 165 209 253 296
#     4   9  17  29  50  79 106 133 166 204 246 295
#     4   9  15  25  43  69 102 133 159 192 241 297
#
# _framework density 18.822168999999999
#
# number of rings (size 3 to 8) (size 9 to 14) (size 15 to 20)
#    0.000    2.600    0.000    2.400    0.000    7.600 
#    0.000    3.500    0.000    3.600    0.000    4.200 
#    0.000    0.000    0.000    0.000    0.000    0.000 
#
# Total GULP energy -496034.616080 kJ/mol
# GULP energy per Si atom -12400.865402 kJ/mol
# Density = 1.877933 g / cm^3
# Si number density = 18.822169 Si / 1000 Ang^3
#
#
#
# Elastic Constant Matrix: (Units=GPa)
#
#
# Indices 1 2 3 4 5 6 
#
# 1 27.5546 26.1404 28.1681 0.0000 0.0000 0.0000
# 2 26.1404 131.2445 98.7998 0.0000 0.0000 0.0000
# 3 28.1681 98.7998 187.8122 0.0000 0.0000 0.0000
# 4 0.0000 0.0000 0.0000 36.2651 0.0000 0.0000
# 5 0.0000 0.0000 0.0000 0.0000 5.0222 0.0000
# 6 0.0000 0.0000 0.0000 0.0000 0.0000 11.9855
#
#
#
# Elastic Compliance Matrix: (Units=1/GPa)
#
#
# Indices 1 2 3 4 5 6 
#
# 1 0.046056 -0.006578 -0.003447 0.000000 0.000000 0.000000
# 2 -0.006578 0.013555 -0.006144 0.000000 0.000000 0.000000
# 3 -0.003447 -0.006144 0.009073 0.000000 0.000000 0.000000
# 4 0.000000 0.000000 0.000000 0.027575 0.000000 0.000000
# 5 0.000000 0.000000 0.000000 0.000000 0.199115 0.000000
# 6 0.000000 0.000000 0.000000 0.000000 0.000000 0.083434
#
#
# Mechanical properties :
#
#
# Convention : Reuss Voigt Hill
#
# Bulk Modulus (GPa) = 27.51349 72.53644 50.02497
# Shear Modulus (GPa) = 11.81302 23.55476 17.68389
#
# Velocity S-wave (km/s) = 2.50794 3.54140 3.06849
# Velocity P-wave (km/s) = 4.79955 7.43932 6.26016
#
# Compressibility (1/GPa) = 0.03634581
#
# Stress axis : x y z
#
# Youngs Moduli (GPa) = 21.71274 73.77525 110.21137
#
# Poissons Ratio (x) = 0.48532 0.37989
# Poissons Ratio (y) = 0.14283 0.67713
# Poissons Ratio (z) = 0.07484 0.45327
#
# Static dielectric constant tensor:
#      x y z
#    x 2.963570 0.000000 0.000000 
#    y 0.000000 3.600360 0.000000 
#    z 0.000000 0.000000 3.648030 
# 
# 
# High freq. dielectric constant tensor:
#      x y z
#    x 1.675910 0.000000 0.000000 
#    y 0.000000 1.746140 0.000000 
#    z 0.000000 0.000000 1.739950 
# 
# From -- ./inp_files/10672.got.cif
#   From: 2010.03.12/outbox.cif.g09.slc.cpg/sg51_6_cif.got.tgz:10672.got - 2010.04.16 13:43:02.
