data_PCOD8208095
_publ_section_title
;
Structure prediction by ZEFSAII (Michael W. Deem and Ramdas Pophale) SiO2 
 PCOD8208095
Probable space group: P M M A
;
_chemical_formula_sum "Si O2"
_cell_formula_units_Z 64
_cell_length_a 14.532600
_cell_length_b 9.258087
_cell_length_c 26.338340
_cell_angle_alpha 90.000000
_cell_angle_beta 90.000000
_cell_angle_gamma 90.000000
_cell_volume 3543.667596
_symmetry_space_group_name_H-M "P M M A"
_symmetry_group_IT_number 51
_symmetry_cell_setting 'orthorhombic'
loop_
_space_group_symop_operation_xyz
x,y,z
1/2-x,-y,z
1/2+x,-y,-z
-x,y,-z
-x,-y,-z
1/2+x,y,-z
1/2-x,y,z
x,-y,z
loop_
_atom_site_type_symbol
_atom_site_label
_atom_site_fract_x
_atom_site_fract_y
_atom_site_fract_z
Si Si1 0.354827 0.333642 0.728161
Si Si2 0.010158 0.669459 0.193441
Si Si3 0.641931 0.166383 0.735038
Si Si4 0.488679 0.667802 0.557750
Si Si5 0.352954 0.671951 0.000382
Si Si6 0.498867 0.328546 0.920673
Si Si7 0.854827 0.333961 0.635528
Si Si8 0.357853 0.833469 0.628794
O O1 0.250000 0.294397 0.742355
O O2 0.364609 0.500000 0.711940
O O3 0.415673 0.297306 0.777109
O O4 0.391109 0.240136 0.680997
O O5 0.033680 0.500000 0.193849
O O6 0.998152 0.730963 0.136562
O O7 0.094339 0.753984 0.218237
O O8 0.750000 0.186595 0.742658
O O9 0.609810 0.237670 0.682220
O O10 0.612386 0.000000 0.733995
O O11 0.500000 0.718059 0.500000
O O12 0.461831 0.500000 0.561258
O O13 0.583981 0.700896 0.586550
O O14 0.406399 0.759701 0.581209
O O15 0.250000 0.738640 0.000820
O O16 0.347529 0.500000 0.999717
O O17 0.408505 0.723795 0.050472
O O18 0.408169 0.727367 0.950577
O O19 0.496263 0.500000 0.920093
O O20 0.750000 0.296145 0.620813
O O21 0.864776 0.500000 0.652512
O O22 0.250000 0.810447 0.621152
O O23 0.385727 0.000000 0.631319
#
# Coordination Sequence:
#
# PCOD8208095 Si02
#       8
#     8   8   8   8   8   8   8   8
#     4   9  18  32  49  70  97 129 163 198 240 290
#     4  10  19  30  47  72 101 129 158 198 244 287
#     4  10  21  35  50  70  96 127 162 197 238 289
#     4  10  21  35  53  78 103 128 160 198 243 292
#     4   8  13  23  39  58  86 124 159 193 235 279
#     4   8  15  25  37  61  93 121 154 193 234 282
#     4   9  18  34  54  74  98 128 162 199 238 284
#     4  10  21  36  53  73  98 130 167 204 242 286
#
# _framework density 18.060383999999999
#
# number of rings (size 3 to 8) (size 9 to 14) (size 15 to 20)
#    0.000    2.750    0.000    2.250    0.000    7.250 
#    0.000    5.000    0.000    1.500    0.000    1.750 
#    0.000    1.000    0.000    0.000    0.000    0.000 
#
# Total GULP energy -793632.631330 kJ/mol
# GULP energy per Si atom -12400.509865 kJ/mol
# Density = 1.801928 g / cm^3
# Si number density = 18.060384 Si / 1000 Ang^3
#
#
#
# Elastic Constant Matrix: (Units=GPa)
#
#
# Indices 1 2 3 4 5 6 
#
# 1 102.3666 38.8664 76.0260 0.0000 0.0000 0.0000
# 2 38.8664 59.9197 57.0212 0.0000 0.0000 0.0000
# 3 76.0260 57.0212 180.9899 0.0000 0.0000 0.0000
# 4 0.0000 0.0000 0.0000 0.8406 0.0000 0.0000
# 5 0.0000 0.0000 0.0000 0.0000 21.7091 0.0000
# 6 0.0000 0.0000 0.0000 0.0000 0.0000 20.8161
#
#
#
# Elastic Compliance Matrix: (Units=1/GPa)
#
#
# Indices 1 2 3 4 5 6 
#
# 1 0.015354 -0.005458 -0.004730 0.000000 0.000000 0.000000
# 2 -0.005458 0.025775 -0.005828 0.000000 0.000000 0.000000
# 3 -0.004730 -0.005828 0.009348 0.000000 0.000000 0.000000
# 4 0.000000 0.000000 0.000000 1.189602 0.000000 0.000000
# 5 0.000000 0.000000 0.000000 0.000000 0.046064 0.000000
# 6 0.000000 0.000000 0.000000 0.000000 0.000000 0.048040
#
#
# Mechanical properties :
#
#
# Convention : Reuss Voigt Hill
#
# Bulk Modulus (GPa) = 54.21346 76.34480 65.27913
# Shear Modulus (GPa) = 3.64335 20.09734 11.87034
#
# Velocity S-wave (km/s) = 1.42186 3.33946 2.56649
# Velocity P-wave (km/s) = 5.72526 7.56526 6.70864
#
# Compressibility (1/GPa) = 0.01844560
#
# Stress axis : x y z
#
# Youngs Moduli (GPa) = 65.12962 38.79686 106.97351
#
# Poissons Ratio (x) = 0.21176 0.50598
# Poissons Ratio (y) = 0.35548 0.62343
# Poissons Ratio (z) = 0.30806 0.22610
#
# Static dielectric constant tensor:
#      x y z
#    x 3.497140 0.000000 0.000000 
#    y 0.000000 3.087180 0.000000 
#    z 0.000000 0.000000 3.461880 
# 
# 
# High freq. dielectric constant tensor:
#      x y z
#    x 1.708950 0.000000 0.000000 
#    y 0.000000 1.666400 0.000000 
#    z 0.000000 0.000000 1.698040 
# 
# From -- ./inp_files/35858.got.cif
#   From: 2010.03.12/outbox.cif.g09.slc.cpg/sg51_18_cif.got.tgz:35858.got - 2010.04.16 13:43:02.
