data_PCOD8208979
_publ_section_title
;
Structure prediction by ZEFSAII (Michael W. Deem and Ramdas Pophale) SiO2 
 PCOD8208979
Probable space group: P M M A
;
_chemical_formula_sum "Si O2"
_cell_formula_units_Z 52
_cell_length_a 9.217939
_cell_length_b 22.874405
_cell_length_c 14.132458
_cell_angle_alpha 90.000000
_cell_angle_beta 90.000000
_cell_angle_gamma 90.000000
_cell_volume 2979.897594
_symmetry_space_group_name_H-M "P M M A"
_symmetry_group_IT_number 51
_symmetry_cell_setting 'orthorhombic'
loop_
_space_group_symop_operation_xyz
x,y,z
1/2-x,-y,z
1/2+x,-y,-z
-x,y,-z
-x,-y,-z
1/2+x,y,-z
1/2-x,y,z
x,-y,z
loop_
_atom_site_type_symbol
_atom_site_label
_atom_site_fract_x
_atom_site_fract_y
_atom_site_fract_z
Si Si1 0.418469 0.500000 0.598745
Si Si2 0.918522 0.066171 0.593721
Si Si3 0.420641 0.211389 0.906247
Si Si4 0.419470 0.721024 0.401745
Si Si5 0.417079 0.654038 0.908772
Si Si6 0.417409 0.168818 0.270521
Si Si7 0.580672 0.618332 0.296548
O O1 0.250000 0.500000 0.574294
O O2 0.500000 0.500000 0.500000
O O3 0.461807 0.556033 0.660425
O O4 0.750000 0.071627 0.570216
O O5 0.960518 0.107866 0.680456
O O6 0.000000 0.087351 0.500000
O O7 0.962561 0.000000 0.621383
O O8 0.250000 0.201689 0.916636
O O9 0.461746 0.279009 0.888439
O O10 0.479496 0.173658 0.819541
O O11 0.500000 0.188368 0.000000
O O12 0.500000 0.728656 0.500000
O O13 0.250000 0.710288 0.420201
O O14 0.449189 0.779023 0.342585
O O15 0.482376 0.665945 0.346671
O O16 0.250000 0.649596 0.935052
O O17 0.455367 0.616709 0.815440
O O18 0.500000 0.628473 0.000000
O O19 0.250000 0.169654 0.237989
O O20 0.750000 0.633848 0.312164
#
# Coordination Sequence:
#
# PCOD8208979 Si02
#       7
#     4   8   8   8   8   8   8
#     4  10  22  38  57  74  98 134 175 216 253 302
#     4   9  18  33  52  74 103 140 178 215 255 302
#     4  10  19  32  52  77 105 137 169 208 257 311
#     4  11  22  33  49  74 104 135 166 209 258 304
#     4   9  18  32  52  76 103 132 164 203 252 305
#     4  10  20  33  50  76 106 135 171 212 257 306
#     4  10  20  37  55  75 101 134 172 211 255 305
#
# _framework density 17.450264000000001
#
# number of rings (size 3 to 8) (size 9 to 14) (size 15 to 20)
#    0.000    2.154    1.538    1.846    0.000    4.308 
#    0.000    0.385    0.000    0.462    0.000    0.000 
#    0.000    0.000    0.000    0.000    0.000    0.000 
#
# Total GULP energy -644939.681482 kJ/mol
# GULP energy per Si atom -12402.686182 kJ/mol
# Density = 1.741055 g / cm^3
# Si number density = 17.450264 Si / 1000 Ang^3
#
#
#
# Elastic Constant Matrix: (Units=GPa)
#
#
# Indices 1 2 3 4 5 6 
#
# 1 78.7808 46.0711 72.4803 0.0000 0.0000 0.0000
# 2 46.0711 92.0534 62.4139 0.0000 0.0000 0.0000
# 3 72.4803 62.4139 156.1152 0.0000 0.0000 0.0000
# 4 0.0000 0.0000 0.0000 25.2689 0.0000 0.0000
# 5 0.0000 0.0000 0.0000 0.0000 38.6052 0.0000
# 6 0.0000 0.0000 0.0000 0.0000 0.0000 17.6944
#
#
#
# Elastic Compliance Matrix: (Units=1/GPa)
#
#
# Indices 1 2 3 4 5 6 
#
# 1 0.024525 -0.006248 -0.008888 0.000000 0.000000 0.000000
# 2 -0.006248 0.016495 -0.003694 0.000000 0.000000 0.000000
# 3 -0.008888 -0.003694 0.012009 0.000000 0.000000 0.000000
# 4 0.000000 0.000000 0.000000 0.039574 0.000000 0.000000
# 5 0.000000 0.000000 0.000000 0.000000 0.025903 0.000000
# 6 0.000000 0.000000 0.000000 0.000000 0.000000 0.056515
#
#
# Mechanical properties :
#
#
# Convention : Reuss Voigt Hill
#
# Bulk Modulus (GPa) = 65.06837 76.54223 70.80530
# Shear Modulus (GPa) = 22.95651 26.04599 24.50125
#
# Velocity S-wave (km/s) = 3.63097 3.86759 3.75115
# Velocity P-wave (km/s) = 7.41265 7.99391 7.70876
#
# Compressibility (1/GPa) = 0.01536845
#
# Stress axis : x y z
#
# Youngs Moduli (GPa) = 40.77539 60.62609 83.27130
#
# Poissons Ratio (x) = 0.37877 0.74015
# Poissons Ratio (y) = 0.25475 0.30759
# Poissons Ratio (z) = 0.36243 0.22394
#
# Static dielectric constant tensor:
#      x y z
#    x 3.272600 0.000000 0.000000 
#    y 0.000000 3.277000 0.000000 
#    z 0.000000 0.000000 3.355230 
# 
# 
# High freq. dielectric constant tensor:
#      x y z
#    x 1.677930 0.000000 0.000000 
#    y 0.000000 1.657860 0.000000 
#    z 0.000000 0.000000 1.681420 
# 
# From -- ./inp_files/21542.got.cif
#   From: 2010.03.12/outbox.cif.g09.slc.cpg/sg51_11_cif.got.tgz:21542.got - 2010.04.16 13:43:02.
