data_PCOD8208635
_publ_section_title
;
Structure prediction by ZEFSAII (Michael W. Deem and Ramdas Pophale) SiO2 
 PCOD8208635
Probable space group: P M M A
;
_chemical_formula_sum "Si O2"
_cell_formula_units_Z 52
_cell_length_a 8.993786
_cell_length_b 15.397247
_cell_length_c 20.545342
_cell_angle_alpha 90.000000
_cell_angle_beta 90.000000
_cell_angle_gamma 90.000000
_cell_volume 2845.109602
_symmetry_space_group_name_H-M "P M M A"
_symmetry_group_IT_number 51
_symmetry_cell_setting 'orthorhombic'
loop_
_space_group_symop_operation_xyz
x,y,z
1/2-x,-y,z
1/2+x,-y,-z
-x,y,-z
-x,-y,-z
1/2+x,y,-z
1/2-x,y,z
x,-y,z
loop_
_atom_site_type_symbol
_atom_site_label
_atom_site_fract_x
_atom_site_fract_y
_atom_site_fract_z
Si Si1 0.426835 0.768586 0.677838
Si Si2 0.082422 0.624004 0.840229
Si Si3 0.575375 0.901530 0.433385
Si Si4 0.584196 0.180450 0.179659
Si Si5 0.414580 0.102111 0.062957
Si Si6 0.074939 0.500000 0.068278
Si Si7 0.075825 0.596928 0.294999
O O1 0.250000 0.752376 0.679855
O O2 0.477076 0.836717 0.623145
O O3 0.480129 0.809711 0.746817
O O4 0.506313 0.675880 0.662332
O O5 0.250000 0.586238 0.842405
O O6 0.086366 0.725754 0.853108
O O7 0.979027 0.586024 0.895772
O O8 0.010013 0.597604 0.772514
O O9 0.500000 0.870930 0.500000
O O10 0.750000 0.895708 0.443531
O O11 0.527090 0.000000 0.415168
O O12 0.750000 0.140581 0.183113
O O13 0.487615 0.119734 0.133208
O O14 0.250000 0.143180 0.062938
O O15 0.405769 0.000000 0.054331
O O16 0.500000 0.141842 0.000000
O O17 0.250000 0.500000 0.061719
O O18 0.000000 0.500000 0.000000
O O19 0.250000 0.614910 0.284082
O O20 0.053215 0.500000 0.326607
#
# Coordination Sequence:
#
# PCOD8208635 Si02
#       7
#     8   8   8   8   8   4   8
#     4   9  19  34  53  80 110 142 181 221 265 320
#     4  10  20  35  53  72  97 130 167 209 258 314
#     4   9  18  34  56  82 113 149 186 222 266 323
#     4   9  19  34  53  77 102 131 168 211 262 312
#     4  10  21  36  53  72  95 128 169 212 261 316
#     4  12  24  36  50  70  96 130 171 214 263 316
#     4  10  19  31  51  78 106 137 173 216 266 316
#
# _framework density 18.276975
#
# number of rings (size 3 to 8) (size 9 to 14) (size 15 to 20)
#    0.000    2.308    0.769    3.000    0.000    6.769 
#    0.000    1.538    0.000    2.308    0.000    0.000 
#    0.000    0.000    0.000    0.000    0.000    0.000 
#
# Total GULP energy -644548.913976 kJ/mol
# GULP energy per Si atom -12395.171423 kJ/mol
# Density = 1.823538 g / cm^3
# Si number density = 18.276975 Si / 1000 Ang^3
#
#
#
# Elastic Constant Matrix: (Units=GPa)
#
#
# Indices 1 2 3 4 5 6 
#
# 1 106.1156 38.2652 45.9724 0.0000 0.0000 0.0000
# 2 38.2652 75.3253 55.9327 0.0000 0.0000 0.0000
# 3 45.9724 55.9327 110.9533 0.0000 0.0000 0.0000
# 4 0.0000 0.0000 0.0000 176.3400 0.0000 0.0000
# 5 0.0000 0.0000 0.0000 0.0000 28.0914 0.0000
# 6 0.0000 0.0000 0.0000 0.0000 0.0000 29.2019
#
#
#
# Elastic Compliance Matrix: (Units=1/GPa)
#
#
# Indices 1 2 3 4 5 6 
#
# 1 0.012160 -0.003894 -0.003076 0.000000 0.000000 0.000000
# 2 -0.003894 0.022465 -0.009712 0.000000 0.000000 0.000000
# 3 -0.003076 -0.009712 0.015183 0.000000 0.000000 0.000000
# 4 0.000000 0.000000 0.000000 0.005671 0.000000 0.000000
# 5 0.000000 0.000000 0.000000 0.000000 0.035598 0.000000
# 6 0.000000 0.000000 0.000000 0.000000 0.000000 0.034244
#
#
# Mechanical properties :
#
#
# Convention : Reuss Voigt Hill
#
# Bulk Modulus (GPa) = 60.80334 63.63720 62.22027
# Shear Modulus (GPa) = 30.45715 56.87491 43.66603
#
# Velocity S-wave (km/s) = 4.08661 5.58443 4.89317
# Velocity P-wave (km/s) = 7.45702 8.74500 8.12657
#
# Compressibility (1/GPa) = 0.01644646
#
# Stress axis : x y z
#
# Youngs Moduli (GPa) = 82.23581 44.51376 65.86362
#
# Poissons Ratio (x) = 0.17331 0.20258
# Poissons Ratio (y) = 0.32019 0.63964
# Poissons Ratio (z) = 0.25293 0.43230
#
# Static dielectric constant tensor:
#      x y z
#    x 3.388590 0.000000 0.000000 
#    y 0.000000 3.427660 0.000000 
#    z 0.000000 0.000000 3.184300 
# 
# 
# High freq. dielectric constant tensor:
#      x y z
#    x 1.714240 0.000000 0.000000 
#    y 0.000000 1.708690 0.000000 
#    z 0.000000 0.000000 1.685000 
# 
# From -- ./inp_files/31701.got.cif
#   From: 2010.03.12/outbox.cif.g09.slc.cpg/sg51_16_cif.got.tgz:31701.got - 2010.04.16 13:43:02.
