data_PCOD8208825
_publ_section_title
;
Structure prediction by ZEFSAII (Michael W. Deem and Ramdas Pophale) SiO2 
 PCOD8208825
Probable space group: P M M A
;
_chemical_formula_sum "Si O2"
_cell_formula_units_Z 48
_cell_length_a 13.594316
_cell_length_b 8.880739
_cell_length_c 21.388818
_cell_angle_alpha 90.000000
_cell_angle_beta 90.000000
_cell_angle_gamma 90.000000
_cell_volume 2582.220071
_symmetry_space_group_name_H-M "P M M A"
_symmetry_group_IT_number 51
_symmetry_cell_setting 'orthorhombic'
loop_
_space_group_symop_operation_xyz
x,y,z
1/2-x,-y,z
1/2+x,-y,-z
-x,y,-z
-x,-y,-z
1/2+x,y,-z
1/2-x,y,z
x,-y,z
loop_
_atom_site_type_symbol
_atom_site_label
_atom_site_fract_x
_atom_site_fract_y
_atom_site_fract_z
Si Si1 0.960706 0.320277 0.410087
Si Si2 0.047343 0.324427 0.844292
Si Si3 0.861236 0.679085 0.282707
Si Si4 0.140000 0.324842 0.086132
Si Si5 0.862757 0.176790 0.527479
Si Si6 0.634051 0.167346 0.037730
O O1 0.967233 0.500000 0.415437
O O2 0.919625 0.265127 0.343569
O O3 0.886524 0.258427 0.462342
O O4 0.068896 0.248457 0.418624
O O5 0.069635 0.500000 0.844121
O O6 0.082348 0.255382 0.778182
O O7 0.110242 0.257878 0.900278
O O8 0.931163 0.291139 0.854935
O O9 0.750000 0.742655 0.283797
O O10 0.859320 0.500000 0.281710
O O11 0.250000 0.267959 0.103168
O O12 0.141565 0.500000 0.069406
O O13 0.092422 0.242576 0.025843
O O14 0.750000 0.207362 0.545787
O O15 0.884898 0.000000 0.520747
O O16 0.750000 0.165618 0.029936
O O17 0.590237 0.000000 0.043308
#
# Coordination Sequence:
#
# PCOD8208825 Si02
#       6
#     8   8   8   8   8   8
#     4  10  19  32  53  79 105 134 170 210 250 293
#     4  10  19  32  51  72  95 127 164 199 240 291
#     4   9  18  32  50  74 103 131 159 196 244 294
#     4   9  18  32  49  69  93 123 161 202 243 289
#     4  10  20  34  53  77 106 138 170 206 249 295
#     4  10  20  32  47  70  98 125 156 199 250 296
#
# _framework density 18.588657000000001
#
# number of rings (size 3 to 8) (size 9 to 14) (size 15 to 20)
#    0.000    2.333    0.000    4.000    0.000    6.333 
#    0.000    2.500    0.000    7.000    0.000    2.333 
#    0.000    0.000    0.000    0.000    0.000    0.000 
#
# Total GULP energy -595122.065095 kJ/mol
# GULP energy per Si atom -12398.376356 kJ/mol
# Density = 1.854635 g / cm^3
# Si number density = 18.588657 Si / 1000 Ang^3
#
#
#
# Elastic Constant Matrix: (Units=GPa)
#
#
# Indices 1 2 3 4 5 6 
#
# 1 123.9351 39.6122 82.8065 0.0000 0.0000 0.0000
# 2 39.6122 55.6792 34.0543 0.0000 0.0000 0.0000
# 3 82.8065 34.0543 158.5761 0.0000 0.0000 0.0000
# 4 0.0000 0.0000 0.0000 0.1697 0.0000 0.0000
# 5 0.0000 0.0000 0.0000 0.0000 28.9328 0.0000
# 6 0.0000 0.0000 0.0000 0.0000 0.0000 23.2049
#
#
#
# Elastic Compliance Matrix: (Units=1/GPa)
#
#
# Indices 1 2 3 4 5 6 
#
# 1 0.014116 -0.006371 -0.006003 0.000000 0.000000 0.000000
# 2 -0.006371 0.023551 -0.001731 0.000000 0.000000 0.000000
# 3 -0.006003 -0.001731 0.009812 0.000000 0.000000 0.000000
# 4 0.000000 0.000000 0.000000 5.892728 0.000000 0.000000
# 5 0.000000 0.000000 0.000000 0.000000 0.034563 0.000000
# 6 0.000000 0.000000 0.000000 0.000000 0.000000 0.043094
#
#
# Mechanical properties :
#
#
# Convention : Reuss Voigt Hill
#
# Bulk Modulus (GPa) = 51.89406 72.34847 62.12127
# Shear Modulus (GPa) = 0.82611 22.57599 11.70105
#
# Velocity S-wave (km/s) = 0.66737 3.48875 2.51165
# Velocity P-wave (km/s) = 5.34523 7.43194 6.47323
#
# Compressibility (1/GPa) = 0.01927003
#
# Stress axis : x y z
#
# Youngs Moduli (GPa) = 70.84217 42.46078 101.91119
#
# Poissons Ratio (x) = 0.27052 0.61177
# Poissons Ratio (y) = 0.45134 0.17638
# Poissons Ratio (z) = 0.42526 0.07349
#
# Static dielectric constant tensor:
#      x y z
#    x 3.643700 0.000000 0.000000 
#    y 0.000000 3.368320 0.000000 
#    z 0.000000 0.000000 3.450510 
# 
# 
# High freq. dielectric constant tensor:
#      x y z
#    x 1.735040 0.000000 0.000000 
#    y 0.000000 1.708260 0.000000 
#    z 0.000000 0.000000 1.707220 
# 
# From -- ./inp_files/33200.got.cif
#   From: 2010.03.12/outbox.cif.g09.slc.cpg/sg51_17_cif.got.tgz:33200.got - 2010.04.16 13:43:02.
