data_PCOD8208587
_publ_section_title
;
Structure prediction by ZEFSAII (Michael W. Deem and Ramdas Pophale) SiO2 
 PCOD8208587
Probable space group: P M M A
;
_chemical_formula_sum "Si O2"
_cell_formula_units_Z 40
_cell_length_a 10.146411
_cell_length_b 8.988283
_cell_length_c 24.358559
_cell_angle_alpha 90.000000
_cell_angle_beta 90.000000
_cell_angle_gamma 90.000000
_cell_volume 2221.471679
_symmetry_space_group_name_H-M "P M M A"
_symmetry_group_IT_number 51
_symmetry_cell_setting 'orthorhombic'
loop_
_space_group_symop_operation_xyz
x,y,z
1/2-x,-y,z
1/2+x,-y,-z
-x,y,-z
-x,-y,-z
1/2+x,y,-z
1/2-x,y,z
x,-y,z
loop_
_atom_site_type_symbol
_atom_site_label
_atom_site_fract_x
_atom_site_fract_y
_atom_site_fract_z
Si Si1 0.406256 0.835168 0.334762
Si Si2 0.979366 0.827696 0.879845
Si Si3 0.750000 0.675737 0.946152
Si Si4 0.593916 0.329747 0.772252
Si Si5 0.897644 0.177531 0.544398
Si Si6 0.250000 0.831000 0.940008
O O1 0.250000 0.846840 0.333075
O O2 0.456838 0.725336 0.287204
O O3 0.446603 0.772405 0.394856
O O4 0.466472 0.000000 0.325032
O O5 0.879821 0.738255 0.917878
O O6 0.977355 0.768503 0.817960
O O7 0.124511 0.800719 0.902471
O O8 0.938822 0.000000 0.880411
O O9 0.750000 0.500000 0.939321
O O10 0.750000 0.717884 0.009741
O O11 0.750000 0.309411 0.778697
O O12 0.551750 0.500000 0.779397
O O13 0.750000 0.238325 0.531949
O O14 0.000000 0.243601 0.500000
O O15 0.895232 0.000000 0.542438
O O16 0.250000 0.000000 0.962943
#
# Coordination Sequence:
#
# PCOD8208587 Si02
#       6
#     8   8   4   8   8   4
#     4   8  14  25  43  67  94 127 166 205 251 302
#     4  11  22  38  60  81 106 139 175 218 263 307
#     4  12  24  38  58  86 112 138 175 212 253 310
#     4  10  19  31  50  77 105 130 169 218 258 306
#     4   8  13  22  39  64  92 121 157 202 248 294
#     4  10  24  42  58  80 108 140 177 214 259 312
#
# _framework density 18.006083
#
# number of rings (size 3 to 8) (size 9 to 14) (size 15 to 20)
#    0.000    2.400    1.000    3.900    0.000    4.800 
#    0.000    0.000    2.200    0.600    0.000    0.000 
#    0.000    0.000    0.000    0.000    0.000    0.000 
#
# Total GULP energy -495945.235317 kJ/mol
# GULP energy per Si atom -12398.630883 kJ/mol
# Density = 1.796510 g / cm^3
# Si number density = 18.006083 Si / 1000 Ang^3
#
#
#
# Elastic Constant Matrix: (Units=GPa)
#
#
# Indices 1 2 3 4 5 6 
#
# 1 86.4988 45.7126 57.2667 0.0000 0.0000 0.0000
# 2 45.7126 105.3164 65.1649 0.0000 0.0000 0.0000
# 3 57.2667 65.1649 162.2849 0.0000 0.0000 0.0000
# 4 0.0000 0.0000 0.0000 8.6252 0.0000 0.0000
# 5 0.0000 0.0000 0.0000 0.0000 20.4436 0.0000
# 6 0.0000 0.0000 0.0000 0.0000 0.0000 29.1318
#
#
#
# Elastic Compliance Matrix: (Units=1/GPa)
#
#
# Indices 1 2 3 4 5 6 
#
# 1 0.016731 -0.004802 -0.003976 0.000000 0.000000 0.000000
# 2 -0.004802 0.014013 -0.003932 0.000000 0.000000 0.000000
# 3 -0.003976 -0.003932 0.009144 0.000000 0.000000 0.000000
# 4 0.000000 0.000000 0.000000 0.115940 0.000000 0.000000
# 5 0.000000 0.000000 0.000000 0.000000 0.048915 0.000000
# 6 0.000000 0.000000 0.000000 0.000000 0.000000 0.034327
#
#
# Mechanical properties :
#
#
# Convention : Reuss Voigt Hill
#
# Bulk Modulus (GPa) = 69.12069 76.70985 72.91527
# Shear Modulus (GPa) = 18.56590 24.03717 21.30153
#
# Velocity S-wave (km/s) = 3.21454 3.65766 3.44324
# Velocity P-wave (km/s) = 7.22831 7.78027 7.50936
#
# Compressibility (1/GPa) = 0.01446745
#
# Stress axis : x y z
#
# Youngs Moduli (GPa) = 59.77032 71.36455 109.36282
#
# Poissons Ratio (x) = 0.34269 0.43479
# Poissons Ratio (y) = 0.28702 0.43003
# Poissons Ratio (z) = 0.23763 0.28062
#
# Static dielectric constant tensor:
#      x y z
#    x 3.135380 0.000000 0.000000 
#    y 0.000000 3.255220 0.000000 
#    z 0.000000 0.000000 3.695820 
# 
# 
# High freq. dielectric constant tensor:
#      x y z
#    x 1.663470 0.000000 0.000000 
#    y 0.000000 1.680750 0.000000 
#    z 0.000000 0.000000 1.714050 
# 
# From -- ./inp_files/36020.got.cif
#   From: 2010.03.12/outbox.cif.g09.slc.cpg/sg51_19_cif.got.tgz:36020.got - 2010.04.16 13:43:02.
