data_PCOD8208761
_publ_section_title
;
Structure prediction by ZEFSAII (Michael W. Deem and Ramdas Pophale) SiO2 
 PCOD8208761
Probable space group: P M M A
;
_chemical_formula_sum "Si O2"
_cell_formula_units_Z 64
_cell_length_a 8.768768
_cell_length_b 19.875386
_cell_length_c 20.182619
_cell_angle_alpha 90.000000
_cell_angle_beta 90.000000
_cell_angle_gamma 90.000000
_cell_volume 3517.480298
_symmetry_space_group_name_H-M "P M M A"
_symmetry_group_IT_number 51
_symmetry_cell_setting 'orthorhombic'
loop_
_space_group_symop_operation_xyz
x,y,z
1/2-x,-y,z
1/2+x,-y,-z
-x,y,-z
-x,-y,-z
1/2+x,y,-z
1/2-x,y,z
x,-y,z
loop_
_atom_site_type_symbol
_atom_site_label
_atom_site_fract_x
_atom_site_fract_y
_atom_site_fract_z
Si Si1 0.572780 0.283192 0.237828
Si Si2 0.575274 0.395620 0.933631
Si Si3 0.424989 0.246227 0.103635
Si Si4 0.925491 0.842300 0.315530
Si Si5 0.927234 0.572500 0.203029
Si Si6 0.423731 0.924189 0.202173
Si Si7 0.429159 0.075974 0.430752
Si Si8 0.429513 0.886892 0.932614
O O1 0.750000 0.277200 0.216472
O O2 0.467690 0.252647 0.180708
O O3 0.545602 0.238182 0.304082
O O4 0.526377 0.362447 0.248213
O O5 0.750000 0.416096 0.934561
O O6 0.549403 0.315807 0.933715
O O7 0.505782 0.427567 0.868105
O O8 0.500000 0.425620 0.000000
O O9 0.250000 0.221731 0.098869
O O10 0.535900 0.192704 0.069361
O O11 0.750000 0.856880 0.331958
O O12 0.968907 0.879180 0.247768
O O13 0.025039 0.870030 0.375601
O O14 0.750000 0.576861 0.188341
O O15 0.967941 0.500000 0.237625
O O16 0.250000 0.896922 0.203519
O O17 0.488212 0.923432 0.128143
O O18 0.427989 0.000000 0.229575
O O19 0.500000 0.099295 0.500000
O O20 0.250000 0.077494 0.438394
O O21 0.484423 0.000000 0.412226
O O22 0.250000 0.900535 0.930184
O O23 0.500000 0.917433 0.000000
#
# Coordination Sequence:
#
# PCOD8208761 Si02
#       8
#     8   8   8   8   8   8   8   8
#     4   9  18  32  51  76 103 132 169 213 258 305
#     4  10  20  31  45  66  90 120 158 203 256 318
#     4  10  19  32  50  71  94 122 159 207 262 317
#     4  11  21  34  56  84 112 144 179 218 260 308
#     4   9  18  33  51  69  94 129 166 208 259 313
#     4  11  24  40  56  75 100 131 171 218 264 314
#     4  10  21  37  57  83 117 155 190 223 259 304
#     4  12  24  37  53  71  93 124 163 213 271 328
#
# _framework density 18.194842999999999
#
# number of rings (size 3 to 8) (size 9 to 14) (size 15 to 20)
#    0.000    1.750    1.250    3.750    0.000    7.000 
#    0.000    0.000    0.000    0.000    0.000    0.000 
#    0.000    0.500    0.000    0.875    0.000    1.250 
#
# Total GULP energy -793386.320290 kJ/mol
# GULP energy per Si atom -12396.661255 kJ/mol
# Density = 1.815343 g / cm^3
# Si number density = 18.194843 Si / 1000 Ang^3
#
#
#
# Elastic Constant Matrix: (Units=GPa)
#
#
# Indices 1 2 3 4 5 6 
#
# 1 60.2914 19.5720 18.5363 0.0000 0.0000 0.0000
# 2 19.5720 100.2059 39.5464 0.0000 0.0000 0.0000
# 3 18.5363 39.5464 82.5148 0.0000 0.0000 0.0000
# 4 0.0000 0.0000 0.0000 -193.6236 0.0000 0.0000
# 5 0.0000 0.0000 0.0000 0.0000 28.7072 0.0000
# 6 0.0000 0.0000 0.0000 0.0000 0.0000 15.5233
#
#
#
# Elastic Compliance Matrix: (Units=1/GPa)
#
#
# Indices 1 2 3 4 5 6 
#
# 1 0.018274 -0.002404 -0.002953 0.000000 0.000000 0.000000
# 2 -0.002404 0.012623 -0.005510 0.000000 0.000000 0.000000
# 3 -0.002953 -0.005510 0.015423 0.000000 0.000000 0.000000
# 4 0.000000 0.000000 0.000000 -0.005165 0.000000 0.000000
# 5 0.000000 0.000000 0.000000 0.000000 0.034834 0.000000
# 6 0.000000 0.000000 0.000000 0.000000 0.000000 0.064419
#
#
# Mechanical properties :
#
#
# Convention : Reuss Voigt Hill
#
# Bulk Modulus (GPa) = 40.67170 44.25796 42.46483
# Shear Modulus (GPa) = 29.35309 -18.85480 5.24914
#
# Velocity S-wave (km/s) = 4.02090 -3.22261 1.70036
# Velocity P-wave (km/s) = 6.63015 3.24504 5.21963
#
# Compressibility (1/GPa) = 0.02458712
#
# Stress axis : x y z
#
# Youngs Moduli (GPa) = 54.72145 79.21738 64.83756
#
# Poissons Ratio (x) = 0.19043 0.19147
# Poissons Ratio (y) = 0.13154 0.35725
# Poissons Ratio (z) = 0.16160 0.43649
#
# Static dielectric constant tensor:
#      x y z
#    x 3.414360 0.000000 0.000000 
#    y 0.000000 3.714310 0.000000 
#    z 0.000000 0.000000 3.034090 
# 
# 
# High freq. dielectric constant tensor:
#      x y z
#    x 1.716410 0.000000 0.000000 
#    y 0.000000 1.710630 0.000000 
#    z 0.000000 0.000000 1.658750 
# 
# From -- ./inp_files/28425.got.cif
#   From: 2010.03.12/outbox.cif.g09.slc.cpg/sg51_15_cif.got.tgz:28425.got - 2010.04.16 13:43:02.
