data_PCOD8208951
_publ_section_title
;
Structure prediction by ZEFSAII (Michael W. Deem and Ramdas Pophale) SiO2 
 PCOD8208951
Probable space group: P M M A
;
_chemical_formula_sum "Si O2"
_cell_formula_units_Z 48
_cell_length_a 26.248164
_cell_length_b 8.568487
_cell_length_c 11.981025
_cell_angle_alpha 90.000000
_cell_angle_beta 90.000000
_cell_angle_gamma 90.000000
_cell_volume 2694.617013
_symmetry_space_group_name_H-M "P M M A"
_symmetry_group_IT_number 51
_symmetry_cell_setting 'orthorhombic'
loop_
_space_group_symop_operation_xyz
x,y,z
1/2-x,-y,z
1/2+x,-y,-z
-x,y,-z
-x,-y,-z
1/2+x,y,-z
1/2-x,y,z
x,-y,z
loop_
_atom_site_type_symbol
_atom_site_label
_atom_site_fract_x
_atom_site_fract_y
_atom_site_fract_z
Si Si1 0.610628 0.318784 0.841469
Si Si2 0.388021 0.319778 0.503261
Si Si3 0.040286 0.819842 0.335711
Si Si4 0.306397 0.684792 0.331011
Si Si5 0.444229 0.182422 0.958561
Si Si6 0.562313 0.320314 0.279117
O O1 0.613850 0.500000 0.873237
O O2 0.563772 0.290366 0.759122
O O3 0.662151 0.260391 0.778840
O O4 0.600240 0.220759 0.953249
O O5 0.397066 0.500000 0.470058
O O6 0.434861 0.219760 0.454413
O O7 0.335329 0.262442 0.445185
O O8 0.388413 0.298856 0.638180
O O9 0.980808 0.783821 0.337069
O O10 0.049469 0.000000 0.304773
O O11 0.250000 0.761072 0.329299
O O12 0.301782 0.500000 0.328671
O O13 0.426014 0.264690 0.845322
O O14 0.447384 0.000000 0.935909
O O15 0.500000 0.243211 0.000000
O O16 0.545469 0.500000 0.276250
#
# Coordination Sequence:
#
# PCOD8208951 Si02
#       6
#     8   8   8   8   8   8
#     4  10  19  32  52  76 101 132 169 209 252 294
#     4   9  19  33  49  73 100 129 166 205 248 297
#     4  11  20  30  46  70 101 136 169 203 245 292
#     4   8  15  31  56  81 101 122 156 208 261 301
#     4  11  22  34  49  71 101 138 176 209 247 297
#     4  11  21  32  48  69  99 137 174 206 243 295
#
# _framework density 17.813293000000002
#
# number of rings (size 3 to 8) (size 9 to 14) (size 15 to 20)
#    0.000    2.000    1.667    4.500    0.000    4.000 
#    0.000    0.000    0.000   13.500    0.000    4.667 
#    0.000    0.000    0.000    0.000    0.000    0.000 
#
# Total GULP energy -594935.458008 kJ/mol
# GULP energy per Si atom -12394.488709 kJ/mol
# Density = 1.777275 g / cm^3
# Si number density = 17.813293 Si / 1000 Ang^3
#
#
#
# Elastic Constant Matrix: (Units=GPa)
#
#
# Indices 1 2 3 4 5 6 
#
# 1 103.5759 13.9686 60.7394 0.0000 0.0000 0.0000
# 2 13.9686 40.3119 18.7211 0.0000 0.0000 0.0000
# 3 60.7394 18.7211 138.2031 0.0000 0.0000 0.0000
# 4 0.0000 0.0000 0.0000 15.5004 0.0000 0.0000
# 5 0.0000 0.0000 0.0000 0.0000 14.1247 0.0000
# 6 0.0000 0.0000 0.0000 0.0000 0.0000 7.9131
#
#
#
# Elastic Compliance Matrix: (Units=1/GPa)
#
#
# Indices 1 2 3 4 5 6 
#
# 1 0.013156 -0.001999 -0.005511 0.000000 0.000000 0.000000
# 2 -0.001999 0.026776 -0.002748 0.000000 0.000000 0.000000
# 3 -0.005511 -0.002748 0.010030 0.000000 0.000000 0.000000
# 4 0.000000 0.000000 0.000000 0.064514 0.000000 0.000000
# 5 0.000000 0.000000 0.000000 0.000000 0.070798 0.000000
# 6 0.000000 0.000000 0.000000 0.000000 0.000000 0.126373
#
#
# Mechanical properties :
#
#
# Convention : Reuss Voigt Hill
#
# Bulk Modulus (GPa) = 33.96249 52.10543 43.03396
# Shear Modulus (GPa) = 14.62072 20.08509 17.35291
#
# Velocity S-wave (km/s) = 2.86803 3.36152 3.12453
# Velocity P-wave (km/s) = 5.48404 6.66189 6.10145
#
# Compressibility (1/GPa) = 0.02944425
#
# Stress axis : x y z
#
# Youngs Moduli (GPa) = 76.00886 37.34726 99.69890
#
# Poissons Ratio (x) = 0.07467 0.54947
# Poissons Ratio (y) = 0.15197 0.27401
# Poissons Ratio (z) = 0.41891 0.10264
#
# Static dielectric constant tensor:
#      x y z
#    x 3.313640 0.000000 0.000000 
#    y 0.000000 3.164080 0.000000 
#    z 0.000000 0.000000 3.406210 
# 
# 
# High freq. dielectric constant tensor:
#      x y z
#    x 1.649370 0.000000 0.000000 
#    y 0.000000 1.681250 0.000000 
#    z 0.000000 0.000000 1.693320 
# 
# From -- ./inp_files/18583.got.cif
#   From: 2010.03.12/outbox.cif.g09.slc.cpg/sg51_10_cif.got.tgz:18583.got - 2010.04.16 13:43:02.
