data_PCOD8208996
_publ_section_title
;
Structure prediction by ZEFSAII (Michael W. Deem and Ramdas Pophale) SiO2 
 PCOD8208996
Probable space group: P M M A
;
_chemical_formula_sum "Si O2"
_cell_formula_units_Z 44
_cell_length_a 8.734053
_cell_length_b 28.317250
_cell_length_c 9.504426
_cell_angle_alpha 90.000000
_cell_angle_beta 90.000000
_cell_angle_gamma 90.000000
_cell_volume 2350.676100
_symmetry_space_group_name_H-M "P M M A"
_symmetry_group_IT_number 51
_symmetry_cell_setting 'orthorhombic'
loop_
_space_group_symop_operation_xyz
x,y,z
1/2-x,-y,z
1/2+x,-y,-z
-x,y,-z
-x,-y,-z
1/2+x,y,-z
1/2-x,y,z
x,-y,z
loop_
_atom_site_type_symbol
_atom_site_label
_atom_site_fract_x
_atom_site_fract_y
_atom_site_fract_z
Si Si1 0.067875 0.000000 0.345812
Si Si2 0.570872 0.450226 0.848192
Si Si3 0.068876 0.267130 0.653577
Si Si4 0.570887 0.184804 0.145508
Si Si5 0.568439 0.652451 0.844621
Si Si6 0.431674 0.922666 0.851108
O O1 0.000000 0.000000 0.500000
O O2 0.008167 0.953212 0.269877
O O3 0.250000 0.000000 0.350544
O O4 0.750000 0.449653 0.869777
O O5 0.523352 0.500000 0.767823
O O6 0.524608 0.399778 0.779970
O O7 0.500000 0.451897 0.000000
O O8 0.250000 0.270889 0.644222
O O9 0.015519 0.218811 0.729466
O O10 0.000000 0.266840 0.500000
O O11 0.006194 0.311324 0.738439
O O12 0.750000 0.187867 0.124540
O O13 0.520578 0.131362 0.180310
O O14 0.500000 0.202933 0.000000
O O15 0.750000 0.660429 0.852160
O O16 0.500000 0.659501 0.000000
O O17 0.250000 0.930338 0.852232
O O18 0.500000 0.939186 0.000000
#
# Coordination Sequence:
#
# PCOD8208996 Si02
#       6
#     4   8   8   8   8   8
#     4  12  25  40  57  82 114 150 186 224 269 316
#     4   8  14  25  43  69 100 131 165 208 257 306
#     4  11  23  38  54  76 106 141 178 219 267 318
#     4   9  20  37  59  84 109 138 176 219 264 314
#     4  10  19  32  52  78 106 138 175 216 261 312
#     4  10  20  38  61  86 113 144 181 221 264 313
#
# _framework density 18.718017
#
# number of rings (size 3 to 8) (size 9 to 14) (size 15 to 20)
#    0.000    2.182    0.000    3.273    0.000    5.091 
#    0.000    1.818    0.000    0.545    0.000    0.000 
#    0.000    0.000    0.000    0.000    0.000    0.000 
#
# Total GULP energy -545249.368610 kJ/mol
# GULP energy per Si atom -12392.031105 kJ/mol
# Density = 1.867541 g / cm^3
# Si number density = 18.718017 Si / 1000 Ang^3
#
#
#
# Elastic Constant Matrix: (Units=GPa)
#
#
# Indices 1 2 3 4 5 6 
#
# 1 77.4444 55.5870 52.7461 0.0000 0.0000 0.0000
# 2 55.5870 160.6954 94.8869 0.0000 0.0000 0.0000
# 3 52.7461 94.8869 141.7318 0.0000 0.0000 0.0000
# 4 0.0000 0.0000 0.0000 33.5313 0.0000 0.0000
# 5 0.0000 0.0000 0.0000 0.0000 31.6428 0.0000
# 6 0.0000 0.0000 0.0000 0.0000 0.0000 25.4776
#
#
#
# Elastic Compliance Matrix: (Units=1/GPa)
#
#
# Indices 1 2 3 4 5 6 
#
# 1 0.018662 -0.003894 -0.004338 0.000000 0.000000 0.000000
# 2 -0.003894 0.011104 -0.005985 0.000000 0.000000 0.000000
# 3 -0.004338 -0.005985 0.012677 0.000000 0.000000 0.000000
# 4 0.000000 0.000000 0.000000 0.029823 0.000000 0.000000
# 5 0.000000 0.000000 0.000000 0.000000 0.031603 0.000000
# 6 0.000000 0.000000 0.000000 0.000000 0.000000 0.039250
#
#
# Mechanical properties :
#
#
# Convention : Reuss Voigt Hill
#
# Bulk Modulus (GPa) = 71.38299 87.36798 79.37549
# Shear Modulus (GPa) = 28.37340 29.90712 29.14026
#
# Velocity S-wave (km/s) = 3.89759 4.00155 3.94991
# Velocity P-wave (km/s) = 7.64681 8.25391 7.95616
#
# Compressibility (1/GPa) = 0.01400894
#
# Stress axis : x y z
#
# Youngs Moduli (GPa) = 53.58451 90.06046 78.88497
#
# Poissons Ratio (x) = 0.35068 0.34223
# Poissons Ratio (y) = 0.20865 0.47209
# Poissons Ratio (z) = 0.23247 0.53898
#
# Static dielectric constant tensor:
#      x y z
#    x 3.533860 0.000000 0.000000 
#    y 0.000000 4.245220 0.000000 
#    z 0.000000 0.000000 3.233880 
# 
# 
# High freq. dielectric constant tensor:
#      x y z
#    x 1.736480 0.000000 0.000000 
#    y 0.000000 1.756640 0.000000 
#    z 0.000000 0.000000 1.694340 
# 
# From -- ./inp_files/5862.got.cif
#   From: 2010.03.12/outbox.cif.g09.slc.cpg/sg51_3_cif.got.tgz:5862.got - 2010.04.16 13:43:02.
