data_PCOD8208027
_publ_section_title
;
Structure prediction by ZEFSAII (Michael W. Deem and Ramdas Pophale) SiO2 
 PCOD8208027
Probable space group: P M M A
;
_chemical_formula_sum "Si O2"
_cell_formula_units_Z 64
_cell_length_a 18.961777
_cell_length_b 9.333203
_cell_length_c 19.916279
_cell_angle_alpha 90.000000
_cell_angle_beta 90.000000
_cell_angle_gamma 90.000000
_cell_volume 3524.665830
_symmetry_space_group_name_H-M "P M M A"
_symmetry_group_IT_number 51
_symmetry_cell_setting 'orthorhombic'
loop_
_space_group_symop_operation_xyz
x,y,z
1/2-x,-y,z
1/2+x,-y,-z
-x,y,-z
-x,-y,-z
1/2+x,y,-z
1/2-x,y,z
x,-y,z
loop_
_atom_site_type_symbol
_atom_site_label
_atom_site_fract_x
_atom_site_fract_y
_atom_site_fract_z
Si Si1 0.329270 0.670706 0.531025
Si Si2 0.063484 0.165502 0.142480
Si Si3 0.329445 0.666010 0.789320
Si Si4 0.328618 0.670164 0.382125
Si Si5 0.670145 0.829779 0.969317
Si Si6 0.946552 0.328636 0.719050
Si Si7 0.590725 0.834928 0.100275
Si Si8 0.090851 0.666583 0.657568
O O1 0.250000 0.726370 0.545188
O O2 0.329512 0.500000 0.535886
O O3 0.353189 0.720794 0.456544
O O4 0.382713 0.735379 0.587033
O O5 0.129539 0.218947 0.097884
O O6 0.060794 0.263477 0.207580
O O7 0.993581 0.184290 0.096751
O O8 0.072009 0.000000 0.164238
O O9 0.250000 0.718535 0.802062
O O10 0.338547 0.500000 0.807366
O O11 0.382701 0.753509 0.834562
O O12 0.348178 0.694183 0.711929
O O13 0.250000 0.728605 0.366393
O O14 0.327968 0.500000 0.380847
O O15 0.381769 0.728350 0.325971
O O16 0.750000 0.768338 0.968458
O O17 0.670702 0.000000 0.972611
O O18 0.628006 0.769784 0.034043
O O19 0.948152 0.500000 0.726237
O O20 0.017121 0.267605 0.683407
O O21 0.611786 0.000000 0.108479
O O22 0.077336 0.500000 0.646067
#
# Coordination Sequence:
#
# PCOD8208027 Si02
#       8
#     8   8   8   8   8   8   8   8
#     4   8  13  23  40  63  93 126 158 195 239 282
#     4  10  20  34  52  73  97 127 161 196 237 287
#     4  10  19  30  46  70 101 132 159 190 232 283
#     4   8  15  27  43  66  95 125 158 199 245 284
#     4   9  18  33  53  75  96 120 158 205 243 277
#     4  10  19  31  48  70  98 128 158 196 239 284
#     4  10  19  33  53  74  96 124 157 196 239 285
#     4   9  16  26  41  64  95 128 159 190 231 281
#
# _framework density 18.157748999999999
#
# number of rings (size 3 to 8) (size 9 to 14) (size 15 to 20)
#    0.000    2.750    1.250    1.875    0.000    4.750 
#    0.000    3.125    0.000    2.250    0.000    2.625 
#    0.000    2.000    0.000    0.000    0.000    0.000 
#
# Total GULP energy -793312.630380 kJ/mol
# GULP energy per Si atom -12395.509850 kJ/mol
# Density = 1.811642 g / cm^3
# Si number density = 18.157749 Si / 1000 Ang^3
#
#
#
# Elastic Constant Matrix: (Units=GPa)
#
#
# Indices 1 2 3 4 5 6 
#
# 1 117.6188 20.6931 71.3880 0.0000 0.0000 0.0000
# 2 20.6931 19.2401 22.8426 0.0000 0.0000 0.0000
# 3 71.3880 22.8426 126.8539 0.0000 0.0000 0.0000
# 4 0.0000 0.0000 0.0000 -16.4909 0.0000 0.0000
# 5 0.0000 0.0000 0.0000 0.0000 39.6762 0.0000
# 6 0.0000 0.0000 0.0000 0.0000 0.0000 14.4890
#
#
#
# Elastic Compliance Matrix: (Units=1/GPa)
#
#
# Indices 1 2 3 4 5 6 
#
# 1 0.013627 -0.007061 -0.006397 0.000000 0.000000 0.000000
# 2 -0.007061 0.069766 -0.008589 0.000000 0.000000 0.000000
# 3 -0.006397 -0.008589 0.013030 0.000000 0.000000 0.000000
# 4 0.000000 0.000000 0.000000 -0.060639 0.000000 0.000000
# 5 0.000000 0.000000 0.000000 0.000000 0.025204 0.000000
# 6 0.000000 0.000000 0.000000 0.000000 0.000000 0.069018
#
#
# Mechanical properties :
#
#
# Convention : Reuss Voigt Hill
#
# Bulk Modulus (GPa) = 19.11011 54.84003 36.97507
# Shear Modulus (GPa) = 26.10366 17.45412 21.77889
#
# Velocity S-wave (km/s) = 3.79569 3.10377 3.46703
# Velocity P-wave (km/s) = 5.45500 6.56598 6.03610
#
# Compressibility (1/GPa) = 0.05232833
#
# Stress axis : x y z
#
# Youngs Moduli (GPa) = 73.38305 14.33353 76.74692
#
# Poissons Ratio (x) = 0.10121 0.49097
# Poissons Ratio (y) = 0.51817 0.65919
# Poissons Ratio (z) = 0.46945 0.12311
#
# Static dielectric constant tensor:
#      x y z
#    x 3.698440 0.000000 0.000000 
#    y 0.000000 2.777910 0.000000 
#    z 0.000000 0.000000 3.483730 
# 
# 
# High freq. dielectric constant tensor:
#      x y z
#    x 1.715250 0.000000 0.000000 
#    y 0.000000 1.636220 0.000000 
#    z 0.000000 0.000000 1.713160 
# 
# From -- ./inp_files/30662.got.cif
#   From: 2010.03.12/outbox.cif.g09.slc.cpg/sg51_16_cif.got.tgz:30662.got - 2010.04.16 13:43:02.
