data_PCOD8208327
_publ_section_title
;
Structure prediction by ZEFSAII (Michael W. Deem and Ramdas Pophale) SiO2 
 PCOD8208327
Probable space group: P M M A
;
_chemical_formula_sum "Si O2"
_cell_formula_units_Z 64
_cell_length_a 8.872735
_cell_length_b 18.469208
_cell_length_c 22.864294
_cell_angle_alpha 90.000000
_cell_angle_beta 90.000000
_cell_angle_gamma 90.000000
_cell_volume 3746.826463
_symmetry_space_group_name_H-M "P M M A"
_symmetry_group_IT_number 51
_symmetry_cell_setting 'orthorhombic'
loop_
_space_group_symop_operation_xyz
x,y,z
1/2-x,-y,z
1/2+x,-y,-z
-x,y,-z
-x,-y,-z
1/2+x,y,-z
1/2-x,y,z
x,-y,z
loop_
_atom_site_type_symbol
_atom_site_label
_atom_site_fract_x
_atom_site_fract_y
_atom_site_fract_z
Si Si1 0.577083 0.916806 0.318059
Si Si2 0.914877 0.579816 0.744045
Si Si3 0.072791 0.581683 0.937449
Si Si4 0.417139 0.313170 0.150195
Si Si5 0.420380 0.119920 0.440526
Si Si6 0.571894 0.203061 0.754449
Si Si7 0.579436 0.708368 0.557411
Si Si8 0.422900 0.684447 0.672459
O O1 0.750000 0.892558 0.324772
O O2 0.500714 0.905847 0.381207
O O3 0.505461 0.872777 0.263141
O O4 0.561877 0.000000 0.299567
O O5 0.750000 0.581823 0.712805
O O6 0.960326 0.500000 0.763832
O O7 0.904460 0.626634 0.801296
O O8 0.046872 0.606904 0.701577
O O9 0.250000 0.586791 0.944043
O O10 0.028298 0.500000 0.914111
O O11 0.023476 0.650893 0.898413
O O12 0.000000 0.593955 0.000000
O O13 0.250000 0.297766 0.123954
O O14 0.479356 0.238977 0.182587
O O15 0.500000 0.090211 0.500000
O O16 0.250000 0.089824 0.440076
O O17 0.421737 0.205631 0.441183
O O18 0.750000 0.191803 0.755368
O O19 0.531240 0.256936 0.702110
O O20 0.500000 0.678072 0.500000
O O21 0.750000 0.678984 0.562877
O O22 0.470422 0.676727 0.606162
O O23 0.250000 0.707836 0.679233
#
# Coordination Sequence:
#
# PCOD8208327 Si02
#       8
#     8   8   8   8   8   8   8   8
#     4  11  23  36  51  72  99 129 161 202 252 303
#     4   9  18  32  49  69  95 127 161 198 240 286
#     4  10  20  32  48  73 107 146 183 214 246 286
#     4   9  18  32  51  73  99 131 169 209 246 282
#     4  10  20  33  51  70  93 124 158 198 242 297
#     4  10  20  35  52  71  95 127 166 204 244 293
#     4  10  19  31  48  69  90 114 149 191 235 289
#     4  11  20  30  48  70  94 121 150 193 241 287
#
# _framework density 17.081121
#
# number of rings (size 3 to 8) (size 9 to 14) (size 15 to 20)
#    0.000    2.000    1.250    4.125    0.000    6.250 
#    0.000    0.000    0.000    0.375    0.000    0.000 
#    0.000    0.500    0.000    1.625    0.000    2.375 
#
# Total GULP energy -792972.444408 kJ/mol
# GULP energy per Si atom -12390.194444 kJ/mol
# Density = 1.704224 g / cm^3
# Si number density = 17.081121 Si / 1000 Ang^3
#
#
#
# Elastic Constant Matrix: (Units=GPa)
#
#
# Indices 1 2 3 4 5 6 
#
# 1 106.6138 35.0260 45.2133 0.0000 0.0000 0.0000
# 2 35.0260 64.8899 34.5061 0.0000 0.0000 0.0000
# 3 45.2133 34.5061 84.2893 0.0000 0.0000 0.0000
# 4 0.0000 0.0000 0.0000 16.4026 0.0000 0.0000
# 5 0.0000 0.0000 0.0000 0.0000 29.7234 0.0000
# 6 0.0000 0.0000 0.0000 0.0000 0.0000 21.1444
#
#
#
# Elastic Compliance Matrix: (Units=1/GPa)
#
#
# Indices 1 2 3 4 5 6 
#
# 1 0.012989 -0.004226 -0.005237 0.000000 0.000000 0.000000
# 2 -0.004226 0.021074 -0.006360 0.000000 0.000000 0.000000
# 3 -0.005237 -0.006360 0.017277 0.000000 0.000000 0.000000
# 4 0.000000 0.000000 0.000000 0.060966 0.000000 0.000000
# 5 0.000000 0.000000 0.000000 0.000000 0.033643 0.000000
# 6 0.000000 0.000000 0.000000 0.000000 0.000000 0.047294
#
#
# Mechanical properties :
#
#
# Convention : Reuss Voigt Hill
#
# Bulk Modulus (GPa) = 50.78058 53.92044 52.35051
# Shear Modulus (GPa) = 21.60242 22.85726 22.22984
#
# Velocity S-wave (km/s) = 3.56011 3.66205 3.61144
# Velocity P-wave (km/s) = 6.83321 7.03681 6.93576
#
# Compressibility (1/GPa) = 0.01969257
#
# Stress axis : x y z
#
# Youngs Moduli (GPa) = 76.98719 47.45159 57.88036
#
# Poissons Ratio (x) = 0.20054 0.30314
# Poissons Ratio (y) = 0.32536 0.36814
# Poissons Ratio (z) = 0.40321 0.30181
#
# Static dielectric constant tensor:
#      x y z
#    x 3.032980 0.000000 0.000000 
#    y 0.000000 3.236470 0.000000 
#    z 0.000000 0.000000 3.018800 
# 
# 
# High freq. dielectric constant tensor:
#      x y z
#    x 1.671490 0.000000 0.000000 
#    y 0.000000 1.635480 0.000000 
#    z 0.000000 0.000000 1.635380 
# 
# From -- ./inp_files/32626.got.cif
#   From: 2010.03.12/outbox.cif.g09.slc.cpg/sg51_17_cif.got.tgz:32626.got - 2010.04.16 13:43:02.
