data_PCOD8208088
_publ_section_title
;
Structure prediction by ZEFSAII (Michael W. Deem and Ramdas Pophale) SiO2 
 PCOD8208088
Probable space group: P M M A
;
_chemical_formula_sum "Si O2"
_cell_formula_units_Z 64
_cell_length_a 23.891617
_cell_length_b 9.056862
_cell_length_c 15.516102
_cell_angle_alpha 90.000000
_cell_angle_beta 90.000000
_cell_angle_gamma 90.000000
_cell_volume 3357.421911
_symmetry_space_group_name_H-M "P M M A"
_symmetry_group_IT_number 51
_symmetry_cell_setting 'orthorhombic'
loop_
_space_group_symop_operation_xyz
x,y,z
1/2-x,-y,z
1/2+x,-y,-z
-x,y,-z
-x,-y,-z
1/2+x,y,-z
1/2-x,y,z
x,-y,z
loop_
_atom_site_type_symbol
_atom_site_label
_atom_site_fract_x
_atom_site_fract_y
_atom_site_fract_z
Si Si1 0.355865 0.826262 0.581555
Si Si2 0.316196 0.665669 0.106098
Si Si3 0.118683 0.172139 0.772961
Si Si4 0.813608 0.329128 0.579582
Si Si5 0.538411 0.658040 0.422543
Si Si6 0.870369 0.828434 0.737056
Si Si7 0.815223 0.827345 0.064398
Si Si8 0.996527 0.831868 0.726444
O O1 0.355110 0.769624 0.681840
O O2 0.314172 0.741841 0.516801
O O3 0.417655 0.783422 0.549651
O O4 0.344638 0.000000 0.574403
O O5 0.250000 0.661741 0.103500
O O6 0.340846 0.500000 0.111101
O O7 0.333404 0.756645 0.189339
O O8 0.338517 0.744426 0.019814
O O9 0.151567 0.241309 0.853845
O O10 0.051859 0.205168 0.784302
O O11 0.130589 0.000000 0.773729
O O12 0.750000 0.315607 0.613979
O O13 0.832043 0.500000 0.573340
O O14 0.855601 0.247066 0.645413
O O15 0.500000 0.618577 0.500000
O O16 0.566162 0.500000 0.393489
O O17 0.496734 0.719102 0.351189
O O18 0.935253 0.808961 0.768103
O O19 0.855018 0.000000 0.727969
O O20 0.750000 0.796958 0.080201
O O21 0.827456 0.000000 0.051192
O O22 0.002838 0.000000 0.693508
#
# Coordination Sequence:
#
# PCOD8208088 Si02
#       8
#     8   8   8   8   8   8   8   8
#     4  10  20  34  53  76 104 139 178 219 261 310
#     4  10  21  37  56  79 108 139 171 214 270 326
#     4   8  16  33  55  79 109 141 173 216 266 311
#     4  11  24  39  53  74 108 145 179 221 275 330
#     4  10  19  30  47  71  99 134 175 217 261 309
#     4  11  22  36  57  81 104 137 182 227 268 316
#     4   9  17  32  57  84 105 131 172 217 259 310
#     4   9  19  34  51  74 104 138 177 219 265 316
#
# _framework density 19.062245000000001
#
# number of rings (size 3 to 8) (size 9 to 14) (size 15 to 20)
#    0.000    2.250    0.000    3.750    0.000    7.750 
#    0.000    5.000    0.000    5.250    0.000    0.000 
#    0.000    0.000    0.000    0.000    0.000    0.000 
#
# Total GULP energy -792954.677459 kJ/mol
# GULP energy per Si atom -12389.916835 kJ/mol
# Density = 1.901886 g / cm^3
# Si number density = 19.062245 Si / 1000 Ang^3
#
#
#
# Elastic Constant Matrix: (Units=GPa)
#
#
# Indices 1 2 3 4 5 6 
#
# 1 50.5283 24.3686 27.6492 0.0000 0.0000 0.0000
# 2 24.3686 95.8669 41.4021 0.0000 0.0000 0.0000
# 3 27.6492 41.4021 102.8084 0.0000 0.0000 0.0000
# 4 0.0000 0.0000 0.0000 34.5503 0.0000 0.0000
# 5 0.0000 0.0000 0.0000 0.0000 26.3117 0.0000
# 6 0.0000 0.0000 0.0000 0.0000 0.0000 22.0206
#
#
#
# Elastic Compliance Matrix: (Units=1/GPa)
#
#
# Indices 1 2 3 4 5 6 
#
# 1 0.024461 -0.004088 -0.004932 0.000000 0.000000 0.000000
# 2 -0.004088 0.013310 -0.004261 0.000000 0.000000 0.000000
# 3 -0.004932 -0.004261 0.012769 0.000000 0.000000 0.000000
# 4 0.000000 0.000000 0.000000 0.028943 0.000000 0.000000
# 5 0.000000 0.000000 0.000000 0.000000 0.038006 0.000000
# 6 0.000000 0.000000 0.000000 0.000000 0.000000 0.045412
#
#
# Mechanical properties :
#
#
# Convention : Reuss Voigt Hill
#
# Bulk Modulus (GPa) = 41.70335 48.44926 45.07631
# Shear Modulus (GPa) = 25.32195 26.96210 26.14202
#
# Velocity S-wave (km/s) = 3.64865 3.76496 3.70726
# Velocity P-wave (km/s) = 6.29882 6.66119 6.48254
#
# Compressibility (1/GPa) = 0.02397889
#
# Stress axis : x y z
#
# Youngs Moduli (GPa) = 40.88086 75.12962 78.31305
#
# Poissons Ratio (x) = 0.30711 0.38628
# Poissons Ratio (y) = 0.16711 0.33368
# Poissons Ratio (z) = 0.20164 0.32012
#
# Static dielectric constant tensor:
#      x y z
#    x 3.525910 0.000000 0.000000 
#    y 0.000000 3.580980 0.000000 
#    z 0.000000 0.000000 3.587720 
# 
# 
# High freq. dielectric constant tensor:
#      x y z
#    x 1.732680 0.000000 0.000000 
#    y 0.000000 1.742450 0.000000 
#    z 0.000000 0.000000 1.729360 
# 
# From -- ./inp_files/26277.got.cif
#   From: 2010.03.12/outbox.cif.g09.slc.cpg/sg51_14_cif.got.tgz:26277.got - 2010.04.16 13:43:02.
