data_PCOD8208029
_publ_section_title
;
Structure prediction by ZEFSAII (Michael W. Deem and Ramdas Pophale) SiO2 
 PCOD8208029
Probable space group: P M M A
;
_chemical_formula_sum "Si O2"
_cell_formula_units_Z 64
_cell_length_a 9.264081
_cell_length_b 20.005548
_cell_length_c 17.843043
_cell_angle_alpha 90.000000
_cell_angle_beta 90.000000
_cell_angle_gamma 90.000000
_cell_volume 3306.904994
_symmetry_space_group_name_H-M "P M M A"
_symmetry_group_IT_number 51
_symmetry_cell_setting 'orthorhombic'
loop_
_space_group_symop_operation_xyz
x,y,z
1/2-x,-y,z
1/2+x,-y,-z
-x,y,-z
-x,-y,-z
1/2+x,y,-z
1/2-x,y,z
x,-y,z
loop_
_atom_site_type_symbol
_atom_site_label
_atom_site_fract_x
_atom_site_fract_y
_atom_site_fract_z
Si Si1 0.415432 0.883378 0.573325
Si Si2 0.080585 0.388769 0.428611
Si Si3 0.907830 0.923512 0.713641
Si Si4 0.081899 0.700381 0.786860
Si Si5 0.082738 0.211400 0.926741
Si Si6 0.412653 0.733485 0.620602
Si Si7 0.916105 0.923872 0.145584
Si Si8 0.917450 0.425459 0.736991
O O1 0.500000 0.906915 0.500000
O O2 0.250000 0.907510 0.568293
O O3 0.492108 0.918495 0.641981
O O4 0.426361 0.804553 0.582590
O O5 0.250000 0.391071 0.444254
O O6 0.038484 0.425134 0.351067
O O7 0.000000 0.422697 0.500000
O O8 0.027063 0.312505 0.422044
O O9 0.750000 0.888216 0.703219
O O10 0.990961 0.895144 0.785564
O O11 0.880492 0.000000 0.730921
O O12 0.250000 0.686004 0.796575
O O13 0.025111 0.746776 0.854808
O O14 0.048861 0.738869 0.708988
O O15 0.004413 0.628105 0.786234
O O16 0.250000 0.226667 0.938717
O O17 0.056783 0.131205 0.918767
O O18 0.000000 0.236928 0.000000
O O19 0.250000 0.704674 0.611128
O O20 0.750000 0.922307 0.171586
O O21 0.957424 0.000000 0.119552
O O22 0.750000 0.406894 0.744228
O O23 0.949702 0.500000 0.767833
#
# Coordination Sequence:
#
# PCOD8208029 Si02
#       8
#     8   8   8   8   8   8   8   8
#     4  11  22  34  49  69  95 129 169 216 268 316
#     4  10  19  30  46  70 102 138 172 209 256 306
#     4  10  21  36  53  73  96 125 166 214 261 311
#     4   9  18  34  55  78 105 136 172 214 257 307
#     4  10  21  36  55  83 116 145 174 210 253 304
#     4   9  18  33  52  72  95 127 168 211 255 304
#     4   9  18  35  58  81 108 144 180 212 251 301
#     4   9  19  35  53  75 103 135 175 222 268 313
#
# _framework density 19.353445000000001
#
# number of rings (size 3 to 8) (size 9 to 14) (size 15 to 20)
#    0.000    2.375    0.000    2.250    0.000    7.250 
#    0.000    2.500    0.000    0.375    0.000    0.000 
#    0.000    0.000    0.000    0.000    0.000    0.000 
#
# Total GULP energy -793357.345634 kJ/mol
# GULP energy per Si atom -12396.208526 kJ/mol
# Density = 1.930940 g / cm^3
# Si number density = 19.353445 Si / 1000 Ang^3
#
#
#
# Elastic Constant Matrix: (Units=GPa)
#
#
# Indices 1 2 3 4 5 6 
#
# 1 84.0213 23.9363 40.7647 0.0000 0.0000 0.0000
# 2 23.9363 66.1330 25.8734 0.0000 0.0000 0.0000
# 3 40.7647 25.8734 89.0802 0.0000 0.0000 0.0000
# 4 0.0000 0.0000 0.0000 9.5081 0.0000 0.0000
# 5 0.0000 0.0000 0.0000 0.0000 34.2051 0.0000
# 6 0.0000 0.0000 0.0000 0.0000 0.0000 23.9663
#
#
#
# Elastic Compliance Matrix: (Units=1/GPa)
#
#
# Indices 1 2 3 4 5 6 
#
# 1 0.015906 -0.003282 -0.006325 0.000000 0.000000 0.000000
# 2 -0.003282 0.017737 -0.003650 0.000000 0.000000 0.000000
# 3 -0.006325 -0.003650 0.015180 0.000000 0.000000 0.000000
# 4 0.000000 0.000000 0.000000 0.105173 0.000000 0.000000
# 5 0.000000 0.000000 0.000000 0.000000 0.029235 0.000000
# 6 0.000000 0.000000 0.000000 0.000000 0.000000 0.041725
#
#
# Mechanical properties :
#
#
# Convention : Reuss Voigt Hill
#
# Bulk Modulus (GPa) = 44.82602 46.70925 45.76763
# Shear Modulus (GPa) = 19.31193 23.44661 21.37927
#
# Velocity S-wave (km/s) = 3.16231 3.48443 3.32727
# Velocity P-wave (km/s) = 6.04530 6.35418 6.20166
#
# Compressibility (1/GPa) = 0.02230847
#
# Stress axis : x y z
#
# Youngs Moduli (GPa) = 62.87064 56.37962 65.87400
#
# Poissons Ratio (x) = 0.18505 0.41668
# Poissons Ratio (y) = 0.20636 0.24042
# Poissons Ratio (z) = 0.39768 0.20577
#
# Static dielectric constant tensor:
#      x y z
#    x 3.729010 0.000000 0.000000 
#    y 0.000000 3.442590 0.000000 
#    z 0.000000 0.000000 3.394170 
# 
# 
# High freq. dielectric constant tensor:
#      x y z
#    x 1.755660 0.000000 0.000000 
#    y 0.000000 1.740620 0.000000 
#    z 0.000000 0.000000 1.735240 
# 
# From -- ./inp_files/28442.got.cif
#   From: 2010.03.12/outbox.cif.g09.slc.cpg/sg51_15_cif.got.tgz:28442.got - 2010.04.16 13:43:02.
