data_PCOD8208224
_publ_section_title
;
Structure prediction by ZEFSAII (Michael W. Deem and Ramdas Pophale) SiO2 
 PCOD8208224
Probable space group: P M M A
;
_chemical_formula_sum "Si O2"
_cell_formula_units_Z 64
_cell_length_a 21.419087
_cell_length_b 9.890334
_cell_length_c 17.531985
_cell_angle_alpha 90.000000
_cell_angle_beta 90.000000
_cell_angle_gamma 90.000000
_cell_volume 3714.009441
_symmetry_space_group_name_H-M "P M M A"
_symmetry_group_IT_number 51
_symmetry_cell_setting 'orthorhombic'
loop_
_space_group_symop_operation_xyz
x,y,z
1/2-x,-y,z
1/2+x,-y,-z
-x,y,-z
-x,-y,-z
1/2+x,y,-z
1/2-x,y,z
x,-y,z
loop_
_atom_site_type_symbol
_atom_site_label
_atom_site_fract_x
_atom_site_fract_y
_atom_site_fract_z
Si Si1 0.177715 0.844523 0.996577
Si Si2 0.362106 0.851375 0.748921
Si Si3 0.595932 0.347576 0.487286
Si Si4 0.494967 0.846015 0.229575
Si Si5 0.046808 0.842681 0.066213
Si Si6 0.679327 0.647987 0.135956
Si Si7 0.986954 0.345769 0.628154
Si Si8 0.320503 0.150726 0.584159
O O1 0.250000 0.812688 0.024845
O O2 0.154199 0.748728 0.928524
O O3 0.175435 0.000000 0.968667
O O4 0.121900 0.818122 0.056862
O O5 0.431271 0.844432 0.781165
O O6 0.324363 0.726607 0.784174
O O7 0.363004 0.830630 0.658634
O O8 0.332584 0.000000 0.768161
O O9 0.616302 0.500000 0.469678
O O10 0.545066 0.301629 0.424468
O O11 0.573004 0.334571 0.573798
O O12 0.655985 0.252034 0.480708
O O13 0.468246 0.783665 0.150396
O O14 0.475425 0.751692 0.300205
O O15 0.471321 0.000000 0.244911
O O16 0.031234 0.000000 0.069056
O O17 0.000000 0.781030 0.000000
O O18 0.750000 0.617290 0.116969
O O19 0.644807 0.500000 0.137781
O O20 0.995427 0.500000 0.657291
O O21 0.250000 0.185332 0.606957
O O22 0.326487 0.000000 0.550936
#
# Coordination Sequence:
#
# PCOD8208224 Si02
#       8
#     8   8   8   8   8   8   8   8
#     4   9  17  31  51  70  90 123 164 203 250 305
#     4  10  19  31  46  66  95 131 165 197 240 295
#     4   9  18  33  52  72  97 131 168 200 241 297
#     4  10  19  31  51  76  98 126 167 208 251 297
#     4   9  17  30  49  74 102 130 164 209 252 296
#     4  10  20  31  44  65  92 124 164 206 243 287
#     4   9  18  33  52  74  99 127 161 207 253 292
#     4  10  20  32  47  71 102 132 164 205 247 289
#
# _framework density 17.232050000000001
#
# number of rings (size 3 to 8) (size 9 to 14) (size 15 to 20)
#    0.000    2.500    1.250    2.250    0.000    5.000 
#    0.000    1.875    0.000    2.250    0.000    1.750 
#    0.000    0.000    0.000    0.000    0.000    0.000 
#
# Total GULP energy -792887.069064 kJ/mol
# GULP energy per Si atom -12388.860454 kJ/mol
# Density = 1.719283 g / cm^3
# Si number density = 17.232050 Si / 1000 Ang^3
#
#
#
# Elastic Constant Matrix: (Units=GPa)
#
#
# Indices 1 2 3 4 5 6 
#
# 1 67.6243 29.8157 30.4388 0.0000 0.0000 0.0000
# 2 29.8157 93.1539 52.5159 0.0000 0.0000 0.0000
# 3 30.4388 52.5159 96.3538 0.0000 0.0000 0.0000
# 4 0.0000 0.0000 0.0000 327.7950 0.0000 0.0000
# 5 0.0000 0.0000 0.0000 0.0000 24.3632 0.0000
# 6 0.0000 0.0000 0.0000 0.0000 0.0000 20.7785
#
#
#
# Elastic Compliance Matrix: (Units=1/GPa)
#
#
# Indices 1 2 3 4 5 6 
#
# 1 0.018084 -0.003706 -0.003693 0.000000 0.000000 0.000000
# 2 -0.003706 0.016256 -0.007689 0.000000 0.000000 0.000000
# 3 -0.003693 -0.007689 0.015736 0.000000 0.000000 0.000000
# 4 0.000000 0.000000 0.000000 0.003051 0.000000 0.000000
# 5 0.000000 0.000000 0.000000 0.000000 0.041046 0.000000
# 6 0.000000 0.000000 0.000000 0.000000 0.000000 0.048127
#
#
# Mechanical properties :
#
#
# Convention : Reuss Voigt Hill
#
# Bulk Modulus (GPa) = 50.25326 53.63033 51.94179
# Shear Modulus (GPa) = 27.91609 84.21143 56.06376
#
# Velocity S-wave (km/s) = 4.02930 6.99823 5.71010
# Velocity P-wave (km/s) = 7.13253 9.82294 8.58380
#
# Compressibility (1/GPa) = 0.01989921
#
# Stress axis : x y z
#
# Youngs Moduli (GPa) = 55.29794 61.51570 63.54917
#
# Poissons Ratio (x) = 0.22799 0.23467
# Poissons Ratio (y) = 0.20495 0.48864
# Poissons Ratio (z) = 0.20420 0.47301
#
# Static dielectric constant tensor:
#      x y z
#    x 3.083180 0.000000 0.000000 
#    y 0.000000 3.432480 0.000000 
#    z 0.000000 0.000000 3.063960 
# 
# 
# High freq. dielectric constant tensor:
#      x y z
#    x 1.648350 0.000000 0.000000 
#    y 0.000000 1.660240 0.000000 
#    z 0.000000 0.000000 1.644450 
# 
# From -- ./inp_files/30820.got.cif
#   From: 2010.03.12/outbox.cif.g09.slc.cpg/sg51_16_cif.got.tgz:30820.got - 2010.04.16 13:43:02.
