data_PCOD8208386
_publ_section_title
;
Structure prediction by ZEFSAII (Michael W. Deem and Ramdas Pophale) SiO2 
 PCOD8208386
Probable space group: P M M A
;
_chemical_formula_sum "Si O2"
_cell_formula_units_Z 64
_cell_length_a 19.441517
_cell_length_b 8.994771
_cell_length_c 19.831495
_cell_angle_alpha 90.000000
_cell_angle_beta 90.000000
_cell_angle_gamma 90.000000
_cell_volume 3467.973061
_symmetry_space_group_name_H-M "P M M A"
_symmetry_group_IT_number 51
_symmetry_cell_setting 'orthorhombic'
loop_
_space_group_symop_operation_xyz
x,y,z
1/2-x,-y,z
1/2+x,-y,-z
-x,y,-z
-x,-y,-z
1/2+x,y,-z
1/2-x,y,z
x,-y,z
loop_
_atom_site_type_symbol
_atom_site_label
_atom_site_fract_x
_atom_site_fract_y
_atom_site_fract_z
Si Si1 0.422288 0.168117 0.525265
Si Si2 0.672484 0.831722 0.722896
Si Si3 0.960726 0.327693 0.346037
Si Si4 0.329287 0.826449 0.027254
Si Si5 0.114304 0.670995 0.397225
Si Si6 0.061171 0.175832 0.796319
Si Si7 0.329923 0.672664 0.888177
Si Si8 0.585893 0.175255 0.846036
O O1 0.500000 0.173068 0.500000
O O2 0.413770 0.258580 0.594776
O O3 0.375871 0.244510 0.467988
O O4 0.397094 0.000000 0.536956
O O5 0.750000 0.829892 0.750325
O O6 0.669012 0.735475 0.655219
O O7 0.624701 0.758733 0.780645
O O8 0.648400 0.000000 0.706291
O O9 0.941785 0.500000 0.337490
O O10 0.945349 0.241910 0.277728
O O11 0.039700 0.303755 0.365058
O O12 0.250000 0.797788 0.047795
O O13 0.379131 0.762766 0.085848
O O14 0.342421 0.000000 0.013136
O O15 0.349926 0.737305 0.960741
O O16 0.129810 0.500000 0.411166
O O17 0.128183 0.242865 0.830816
O O18 0.994374 0.218248 0.841566
O O19 0.068814 0.000000 0.790055
O O20 0.250000 0.700291 0.872666
O O21 0.349034 0.500000 0.886951
O O22 0.597875 0.000000 0.845325
#
# Coordination Sequence:
#
# PCOD8208386 Si02
#       8
#     8   8   8   8   8   8   8   8
#     4   9  17  29  49  74 100 133 175 220 262 308
#     4  10  19  32  51  74 105 147 190 227 266 316
#     4  10  19  32  50  76 109 141 173 214 268 320
#     4   9  17  33  57  80 104 139 183 224 261 310
#     4  10  19  31  48  72 105 141 178 222 266 314
#     4  11  21  34  56  82 110 141 176 222 269 319
#     4  10  22  40  58  77 104 137 174 218 271 330
#     4   9  18  32  52  80 110 139 177 225 270 310
#
# _framework density 18.454584000000001
#
# number of rings (size 3 to 8) (size 9 to 14) (size 15 to 20)
#    0.000    2.250    1.250    2.250    0.000    5.500 
#    0.000    4.375    0.000    2.250    0.000    0.000 
#    0.000    0.000    0.000    0.000    0.000    0.000 
#
# Total GULP energy -793687.044001 kJ/mol
# GULP energy per Si atom -12401.360063 kJ/mol
# Density = 1.841258 g / cm^3
# Si number density = 18.454584 Si / 1000 Ang^3
#
#
#
# Elastic Constant Matrix: (Units=GPa)
#
#
# Indices 1 2 3 4 5 6 
#
# 1 56.5100 40.1372 42.9857 0.0000 0.0000 0.0000
# 2 40.1372 102.9681 65.5380 0.0000 0.0000 0.0000
# 3 42.9857 65.5380 117.9354 0.0000 0.0000 0.0000
# 4 0.0000 0.0000 0.0000 14.0732 0.0000 0.0000
# 5 0.0000 0.0000 0.0000 0.0000 24.8068 0.0000
# 6 0.0000 0.0000 0.0000 0.0000 0.0000 18.7004
#
#
#
# Elastic Compliance Matrix: (Units=1/GPa)
#
#
# Indices 1 2 3 4 5 6 
#
# 1 0.027119 -0.006622 -0.006205 0.000000 0.000000 0.000000
# 2 -0.006622 0.016644 -0.006835 0.000000 0.000000 0.000000
# 3 -0.006205 -0.006835 0.014539 0.000000 0.000000 0.000000
# 4 0.000000 0.000000 0.000000 0.071057 0.000000 0.000000
# 5 0.000000 0.000000 0.000000 0.000000 0.040312 0.000000
# 6 0.000000 0.000000 0.000000 0.000000 0.000000 0.053475
#
#
# Mechanical properties :
#
#
# Convention : Reuss Voigt Hill
#
# Bulk Modulus (GPa) = 52.69272 63.85948 58.27610
# Shear Modulus (GPa) = 18.60153 20.09959 19.35056
#
# Velocity S-wave (km/s) = 3.17829 3.30379 3.24165
# Velocity P-wave (km/s) = 6.48716 7.01656 6.75705
#
# Compressibility (1/GPa) = 0.01897795
#
# Stress axis : x y z
#
# Youngs Moduli (GPa) = 36.87451 60.08290 68.77920
#
# Poissons Ratio (x) = 0.39786 0.42675
# Poissons Ratio (y) = 0.24418 0.47014
# Poissons Ratio (z) = 0.22879 0.41070
#
# Static dielectric constant tensor:
#      x y z
#    x 3.194040 0.000000 0.000000 
#    y 0.000000 3.355150 0.000000 
#    z 0.000000 0.000000 3.484520 
# 
# 
# High freq. dielectric constant tensor:
#      x y z
#    x 1.687540 0.000000 0.000000 
#    y 0.000000 1.711490 0.000000 
#    z 0.000000 0.000000 1.723600 
# 
# From -- ./inp_files/33837.got.cif
#   From: 2010.03.12/outbox.cif.g09.slc.cpg/sg51_17_cif.got.tgz:33837.got - 2010.04.16 13:43:02.
