data_PCOD8208264
_publ_section_title
;
Structure prediction by ZEFSAII (Michael W. Deem and Ramdas Pophale) SiO2 
 PCOD8208264
Probable space group: P M M A
;
_chemical_formula_sum "Si O2"
_cell_formula_units_Z 64
_cell_length_a 20.666990
_cell_length_b 9.769366
_cell_length_c 20.145891
_cell_angle_alpha 90.000000
_cell_angle_beta 90.000000
_cell_angle_gamma 90.000000
_cell_volume 4067.523676
_symmetry_space_group_name_H-M "P M M A"
_symmetry_group_IT_number 51
_symmetry_cell_setting 'orthorhombic'
loop_
_space_group_symop_operation_xyz
x,y,z
1/2-x,-y,z
1/2+x,-y,-z
-x,y,-z
-x,-y,-z
1/2+x,y,-z
1/2-x,y,z
x,-y,z
loop_
_atom_site_type_symbol
_atom_site_label
_atom_site_fract_x
_atom_site_fract_y
_atom_site_fract_z
Si Si1 0.554300 0.340267 0.946347
Si Si2 0.462803 0.339145 0.566067
Si Si3 0.490765 0.151242 0.685336
Si Si4 0.640330 0.157314 0.144775
Si Si5 0.340673 0.148475 0.709862
Si Si6 0.819582 0.342701 0.405322
Si Si7 0.321714 0.654741 0.972014
Si Si8 0.507216 0.160410 0.831414
O O1 0.546642 0.500000 0.928621
O O2 0.550961 0.252352 0.879253
O O3 0.500000 0.295808 0.000000
O O4 0.624959 0.303236 0.974197
O O5 0.500000 0.293977 0.500000
O O6 0.470411 0.500000 0.579514
O O7 0.498628 0.261283 0.626401
O O8 0.386172 0.297082 0.557388
O O9 0.416995 0.140352 0.705275
O O10 0.526041 0.194990 0.754239
O O11 0.515131 0.000000 0.661772
O O12 0.677567 0.181328 0.214284
O O13 0.675768 0.249376 0.091523
O O14 0.565999 0.201930 0.151864
O O15 0.645420 0.000000 0.122437
O O16 0.311101 0.262951 0.663116
O O17 0.312105 0.000000 0.689322
O O18 0.750000 0.320523 0.444623
O O19 0.827634 0.500000 0.386333
O O20 0.250000 0.667926 0.003929
O O21 0.335410 0.500000 0.948048
O O22 0.519378 0.000000 0.844941
#
# Coordination Sequence:
#
# PCOD8208264 Si02
#       8
#     8   8   8   8   8   8   8   8
#     4  10  19  31  47  67  86 110 149 189 223 265
#     4   9  17  29  45  66  91 118 147 179 213 253
#     4   8  15  28  44  65  91 115 143 176 214 259
#     4   9  17  29  44  62  85 114 147 180 214 254
#     4   8  15  27  41  58  83 114 145 176 206 240
#     4   9  17  28  41  59  84 114 146 177 209 246
#     4  10  21  34  44  58  85 116 144 181 228 271
#     4   9  17  29  47  69  90 113 144 186 227 260
#
# _framework density 15.734387999999999
#
# number of rings (size 3 to 8) (size 9 to 14) (size 15 to 20)
#    0.000    3.000    1.250    1.500    0.000    3.000 
#    0.000    5.000    0.000    0.000    0.000    0.875 
#    0.000    5.000    0.000    0.000    0.000    0.000 
#
# Total GULP energy -792903.477646 kJ/mol
# GULP energy per Si atom -12389.116838 kJ/mol
# Density = 1.569858 g / cm^3
# Si number density = 15.734388 Si / 1000 Ang^3
#
#
#
# Elastic Constant Matrix: (Units=GPa)
#
#
# Indices 1 2 3 4 5 6 
#
# 1 81.4932 32.0056 47.9596 0.0000 0.0000 0.0000
# 2 32.0056 53.9737 50.5213 0.0000 0.0000 0.0000
# 3 47.9596 50.5213 101.9645 0.0000 0.0000 0.0000
# 4 0.0000 0.0000 0.0000 25.1717 0.0000 0.0000
# 5 0.0000 0.0000 0.0000 0.0000 12.1229 0.0000
# 6 0.0000 0.0000 0.0000 0.0000 0.0000 42.8330
#
#
#
# Elastic Compliance Matrix: (Units=1/GPa)
#
#
# Indices 1 2 3 4 5 6 
#
# 1 0.017672 -0.005033 -0.005818 0.000000 0.000000 0.000000
# 2 -0.005033 0.035986 -0.015463 0.000000 0.000000 0.000000
# 3 -0.005818 -0.015463 0.020206 0.000000 0.000000 0.000000
# 4 0.000000 0.000000 0.000000 0.039727 0.000000 0.000000
# 5 0.000000 0.000000 0.000000 0.000000 0.082488 0.000000
# 6 0.000000 0.000000 0.000000 0.000000 0.000000 0.023346
#
#
# Mechanical properties :
#
#
# Convention : Reuss Voigt Hill
#
# Bulk Modulus (GPa) = 47.09258 55.37826 51.23542
# Shear Modulus (GPa) = 17.91267 23.15519 20.53393
#
# Velocity S-wave (km/s) = 3.37774 3.84034 3.61645
# Velocity P-wave (km/s) = 6.72360 7.41191 7.07613
#
# Compressibility (1/GPa) = 0.02123477
#
# Stress axis : x y z
#
# Youngs Moduli (GPa) = 56.58764 27.78864 49.49128
#
# Poissons Ratio (x) = 0.13986 0.28795
# Poissons Ratio (y) = 0.28480 0.76528
# Poissons Ratio (z) = 0.32924 0.42970
#
# Static dielectric constant tensor:
#      x y z
#    x 3.002440 0.000000 0.000000 
#    y 0.000000 3.072010 0.000000 
#    z 0.000000 0.000000 2.912950 
# 
# 
# High freq. dielectric constant tensor:
#      x y z
#    x 1.586160 0.000000 0.000000 
#    y 0.000000 1.608170 0.000000 
#    z 0.000000 0.000000 1.577560 
# 
# From -- ./inp_files/34138.got.cif
#   From: 2010.03.12/outbox.cif.g09.slc.cpg/sg51_18_cif.got.tgz:34138.got - 2010.04.16 13:43:02.
