data_PCOD8208791
_publ_section_title
;
Structure prediction by ZEFSAII (Michael W. Deem and Ramdas Pophale) SiO2 
 PCOD8208791
Probable space group: P M M A
;
_chemical_formula_sum "Si O2"
_cell_formula_units_Z 64
_cell_length_a 22.374923
_cell_length_b 9.244092
_cell_length_c 17.364832
_cell_angle_alpha 90.000000
_cell_angle_beta 90.000000
_cell_angle_gamma 90.000000
_cell_volume 3591.669730
_symmetry_space_group_name_H-M "P M M A"
_symmetry_group_IT_number 51
_symmetry_cell_setting 'orthorhombic'
loop_
_space_group_symop_operation_xyz
x,y,z
1/2-x,-y,z
1/2+x,-y,-z
-x,y,-z
-x,-y,-z
1/2+x,y,-z
1/2-x,y,z
x,-y,z
loop_
_atom_site_type_symbol
_atom_site_label
_atom_site_fract_x
_atom_site_fract_y
_atom_site_fract_z
Si Si1 0.903232 0.836523 0.821514
Si Si2 0.949494 0.168396 0.656976
Si Si3 0.979743 0.164729 0.081625
Si Si4 0.087107 0.171018 0.640417
Si Si5 0.682852 0.671295 0.931245
Si Si6 0.429574 0.336956 0.490017
Si Si7 0.364530 0.333298 0.905655
Si Si8 0.317507 0.666496 0.742325
O O1 0.911738 0.793266 0.732824
O O2 0.967892 0.820786 0.858027
O O3 0.856839 0.731493 0.862161
O O4 0.879475 0.000000 0.830092
O O5 0.916312 0.258969 0.590735
O O6 0.019606 0.209246 0.667505
O O7 0.945201 0.000000 0.635585
O O8 0.925154 0.252798 0.116224
O O9 0.958954 0.000000 0.069575
O O10 0.000000 0.231742 0.000000
O O11 0.100845 0.246516 0.558620
O O12 0.134646 0.230534 0.701607
O O13 0.096159 0.000000 0.631950
O O14 0.750000 0.724673 0.916881
O O15 0.678467 0.500000 0.929751
O O16 0.662506 0.730659 0.014951
O O17 0.500000 0.339210 0.500000
O O18 0.403486 0.500000 0.489428
O O19 0.379972 0.500000 0.917818
O O20 0.319520 0.310131 0.834662
O O21 0.250000 0.704896 0.715663
O O22 0.332911 0.500000 0.722153
#
# Coordination Sequence:
#
# PCOD8208791 Si02
#       8
#     8   8   8   8   8   8   8   8
#     4  10  20  34  51  74 103 136 170 208 255 304
#     4   9  18  32  51  77 108 137 167 207 259 312
#     4  10  19  32  50  73 104 135 166 209 260 309
#     4  10  19  33  54  78 106 138 170 205 253 310
#     4  10  21  36  52  70  95 130 173 218 259 299
#     4   9  17  30  51  79 108 134 163 199 244 300
#     4  10  20  34  53  74  99 133 175 217 258 307
#     4  10  21  36  52  72 102 140 179 219 261 304
#
# _framework density 17.819009999999999
#
# number of rings (size 3 to 8) (size 9 to 14) (size 15 to 20)
#    0.000    2.250    1.250    1.875    0.000    6.750 
#    0.000    0.000    0.000    3.000    0.000    3.500 
#    0.000    0.000    0.000    0.000    0.000    0.000 
#
# Total GULP energy -793603.956548 kJ/mol
# GULP energy per Si atom -12400.061821 kJ/mol
# Density = 1.777845 g / cm^3
# Si number density = 17.819010 Si / 1000 Ang^3
#
#
#
# Elastic Constant Matrix: (Units=GPa)
#
#
# Indices 1 2 3 4 5 6 
#
# 1 72.1074 37.5142 38.9591 0.0000 0.0000 0.0000
# 2 37.5142 71.1269 47.9333 0.0000 0.0000 0.0000
# 3 38.9591 47.9333 114.7791 0.0000 0.0000 0.0000
# 4 0.0000 0.0000 0.0000 32.0016 0.0000 0.0000
# 5 0.0000 0.0000 0.0000 0.0000 18.8814 0.0000
# 6 0.0000 0.0000 0.0000 0.0000 0.0000 5.5101
#
#
#
# Elastic Compliance Matrix: (Units=1/GPa)
#
#
# Indices 1 2 3 4 5 6 
#
# 1 0.019979 -0.008304 -0.003313 0.000000 0.000000 0.000000
# 2 -0.008304 0.023018 -0.006794 0.000000 0.000000 0.000000
# 3 -0.003313 -0.006794 0.012674 0.000000 0.000000 0.000000
# 4 0.000000 0.000000 0.000000 0.031248 0.000000 0.000000
# 5 0.000000 0.000000 0.000000 0.000000 0.052962 0.000000
# 6 0.000000 0.000000 0.000000 0.000000 0.000000 0.181484
#
#
# Mechanical properties :
#
#
# Convention : Reuss Voigt Hill
#
# Bulk Modulus (GPa) = 53.05690 56.31406 54.68548
# Shear Modulus (GPa) = 13.71849 20.18573 16.95211
#
# Velocity S-wave (km/s) = 2.77768 3.36939 3.08774
# Velocity P-wave (km/s) = 6.33462 6.84171 6.59304
#
# Compressibility (1/GPa) = 0.01884769
#
# Stress axis : x y z
#
# Youngs Moduli (GPa) = 50.05306 43.44462 78.90062
#
# Poissons Ratio (x) = 0.36079 0.26142
# Poissons Ratio (y) = 0.41567 0.53603
# Poissons Ratio (z) = 0.16584 0.29515
#
# Static dielectric constant tensor:
#      x y z
#    x 3.068110 0.000000 0.000000 
#    y 0.000000 3.304820 0.000000 
#    z 0.000000 0.000000 3.423310 
# 
# 
# High freq. dielectric constant tensor:
#      x y z
#    x 1.663130 0.000000 0.000000 
#    y 0.000000 1.687390 0.000000 
#    z 0.000000 0.000000 1.695640 
# 
# From -- ./inp_files/30529.got.cif
#   From: 2010.03.12/outbox.cif.g09.slc.cpg/sg51_16_cif.got.tgz:30529.got - 2010.04.16 13:43:02.
