data_PCOD8208919
_publ_section_title
;
Structure prediction by ZEFSAII (Michael W. Deem and Ramdas Pophale) SiO2 
 PCOD8208919
Probable space group: P M M A
;
_chemical_formula_sum "Si O2"
_cell_formula_units_Z 64
_cell_length_a 14.396319
_cell_length_b 8.895945
_cell_length_c 27.906492
_cell_angle_alpha 90.000000
_cell_angle_beta 90.000000
_cell_angle_gamma 90.000000
_cell_volume 3573.952674
_symmetry_space_group_name_H-M "P M M A"
_symmetry_group_IT_number 51
_symmetry_cell_setting 'orthorhombic'
loop_
_space_group_symop_operation_xyz
x,y,z
1/2-x,-y,z
1/2+x,-y,-z
-x,y,-z
-x,-y,-z
1/2+x,y,-z
1/2-x,y,z
x,-y,z
loop_
_atom_site_type_symbol
_atom_site_label
_atom_site_fract_x
_atom_site_fract_y
_atom_site_fract_z
Si Si1 0.457132 0.677273 0.387473
Si Si2 0.856414 0.824119 0.699846
Si Si3 0.143366 0.827349 0.024847
Si Si4 0.897824 0.166910 0.520486
Si Si5 0.143812 0.677050 0.199728
Si Si6 0.643504 0.676318 0.074040
Si Si7 0.526312 0.822572 0.883354
Si Si8 0.850198 0.328883 0.429323
O O1 0.445240 0.500000 0.380516
O O2 0.424730 0.761929 0.340324
O O3 0.394075 0.730886 0.432027
O O4 0.564973 0.726741 0.395956
O O5 0.750000 0.789397 0.685441
O O6 0.883015 0.741481 0.748708
O O7 0.873393 0.000000 0.706722
O O8 0.250000 0.804233 0.039779
O O9 0.082027 0.773272 0.069277
O O10 0.122582 0.000000 0.011251
O O11 0.116281 0.727201 0.979432
O O12 0.836664 0.238265 0.478606
O O13 0.000000 0.158612 0.500000
O O14 0.860765 0.000000 0.533260
O O15 0.250000 0.719825 0.186639
O O16 0.129049 0.500000 0.200347
O O17 0.074823 0.749472 0.161960
O O18 0.750000 0.720704 0.085285
O O19 0.627190 0.500000 0.078468
O O20 0.578654 0.761039 0.112363
O O21 0.525384 0.000000 0.876437
O O22 0.750000 0.314772 0.402233
O O23 0.872276 0.500000 0.443774
#
# Coordination Sequence:
#
# PCOD8208919 Si02
#       8
#     8   8   8   8   8   8   8   8
#     4  10  19  32  52  75 100 132 169 208 250 299
#     4  10  21  37  56  77 102 131 163 203 252 303
#     4   9  18  32  49  72 104 139 173 209 252 304
#     4   9  17  29  45  67  96 129 166 207 247 288
#     4  10  21  37  57  81 107 132 161 202 253 308
#     4  10  21  35  50  71 102 139 178 219 259 299
#     4  11  21  33  53  78 104 137 174 211 254 305
#     4   9  18  32  49  71 101 136 171 206 246 292
#
# _framework density 17.907344999999999
#
# number of rings (size 3 to 8) (size 9 to 14) (size 15 to 20)
#    0.000    2.250    0.000    3.000    0.000    8.000 
#    0.000    1.250    0.000    0.750    0.000    1.750 
#    0.000    0.000    0.000    0.000    0.000    0.000 
#
# Total GULP energy -793596.114905 kJ/mol
# GULP energy per Si atom -12399.939295 kJ/mol
# Density = 1.786659 g / cm^3
# Si number density = 17.907345 Si / 1000 Ang^3
#
#
#
# Elastic Constant Matrix: (Units=GPa)
#
#
# Indices 1 2 3 4 5 6 
#
# 1 102.1291 38.9015 67.0862 0.0000 0.0000 0.0000
# 2 38.9015 70.6532 43.7575 0.0000 0.0000 0.0000
# 3 67.0862 43.7575 107.3093 0.0000 0.0000 0.0000
# 4 0.0000 0.0000 0.0000 18.1625 0.0000 0.0000
# 5 0.0000 0.0000 0.0000 0.0000 23.0996 0.0000
# 6 0.0000 0.0000 0.0000 0.0000 0.0000 23.3318
#
#
#
# Elastic Compliance Matrix: (Units=1/GPa)
#
#
# Indices 1 2 3 4 5 6 
#
# 1 0.017342 -0.003791 -0.009295 0.000000 0.000000 0.000000
# 2 -0.003791 0.019765 -0.005689 0.000000 0.000000 0.000000
# 3 -0.009295 -0.005689 0.017450 0.000000 0.000000 0.000000
# 4 0.000000 0.000000 0.000000 0.055058 0.000000 0.000000
# 5 0.000000 0.000000 0.000000 0.000000 0.043291 0.000000
# 6 0.000000 0.000000 0.000000 0.000000 0.000000 0.042860
#
#
# Mechanical properties :
#
#
# Convention : Reuss Voigt Hill
#
# Bulk Modulus (GPa) = 58.80876 64.39798 61.60337
# Shear Modulus (GPa) = 20.92179 21.60854 21.26516
#
# Velocity S-wave (km/s) = 3.42180 3.47751 3.44977
# Velocity P-wave (km/s) = 6.96588 7.22246 7.09533
#
# Compressibility (1/GPa) = 0.01700427
#
# Stress axis : x y z
#
# Youngs Moduli (GPa) = 57.66477 50.59546 57.30688
#
# Poissons Ratio (x) = 0.19182 0.53269
# Poissons Ratio (y) = 0.21863 0.32603
# Poissons Ratio (z) = 0.53602 0.28785
#
# Static dielectric constant tensor:
#      x y z
#    x 3.408430 0.000000 0.000000 
#    y 0.000000 3.454910 0.000000 
#    z 0.000000 0.000000 3.165800 
# 
# 
# High freq. dielectric constant tensor:
#      x y z
#    x 1.694590 0.000000 0.000000 
#    y 0.000000 1.705160 0.000000 
#    z 0.000000 0.000000 1.669330 
# 
# From -- ./inp_files/35631.got.cif
#   From: 2010.03.12/outbox.cif.g09.slc.cpg/sg51_18_cif.got.tgz:35631.got - 2010.04.16 13:43:02.
