data_PCOD8208173
_publ_section_title
;
Structure prediction by ZEFSAII (Michael W. Deem and Ramdas Pophale) SiO2 
 PCOD8208173
Probable space group: P M M A
;
_chemical_formula_sum "Si O2"
_cell_formula_units_Z 64
_cell_length_a 24.829253
_cell_length_b 9.551455
_cell_length_c 15.057222
_cell_angle_alpha 90.000000
_cell_angle_beta 90.000000
_cell_angle_gamma 90.000000
_cell_volume 3570.902902
_symmetry_space_group_name_H-M "P M M A"
_symmetry_group_IT_number 51
_symmetry_cell_setting 'orthorhombic'
loop_
_space_group_symop_operation_xyz
x,y,z
1/2-x,-y,z
1/2+x,-y,-z
-x,y,-z
-x,-y,-z
1/2+x,y,-z
1/2-x,y,z
x,-y,z
loop_
_atom_site_type_symbol
_atom_site_label
_atom_site_fract_x
_atom_site_fract_y
_atom_site_fract_z
Si Si1 0.810933 0.334153 0.485110
Si Si2 0.525135 0.846699 0.256687
Si Si3 0.098434 0.341129 0.844430
Si Si4 0.689989 0.666158 0.287727
Si Si5 0.593995 0.843840 0.804171
Si Si6 0.122783 0.657390 0.347842
Si Si7 0.059954 0.658856 0.031827
Si Si8 0.999799 0.344306 0.597819
O O1 0.750000 0.284444 0.503676
O O2 0.815002 0.500000 0.485929
O O3 0.828940 0.281569 0.386263
O O4 0.848611 0.275913 0.564626
O O5 0.548099 0.759119 0.174795
O O6 0.461957 0.863630 0.245753
O O7 0.537820 0.757469 0.345111
O O8 0.552331 0.000000 0.263399
O O9 0.085600 0.500000 0.813583
O O10 0.150313 0.281681 0.790943
O O11 0.103300 0.335597 0.950944
O O12 0.750000 0.724927 0.267649
O O13 0.692249 0.500000 0.287183
O O14 0.633506 0.756246 0.738220
O O15 0.618006 0.000000 0.822914
O O16 0.584571 0.762189 0.895671
O O17 0.144898 0.500000 0.328193
O O18 0.059602 0.648030 0.363599
O O19 0.056652 0.500000 0.069996
O O20 0.000000 0.704528 0.000000
O O21 0.025895 0.500000 0.597247
O O22 0.000000 0.280207 0.500000
#
# Coordination Sequence:
#
# PCOD8208173 Si02
#       8
#     8   8   8   8   8   8   8   8
#     4   8  14  26  47  75 100 121 152 198 247 289
#     4  10  20  31  43  64  95 128 162 197 236 282
#     4  10  19  30  50  73  96 126 160 200 245 291
#     4   8  15  28  48  75 102 124 153 197 244 291
#     4  10  20  33  48  66  95 132 164 199 241 286
#     4   9  17  29  47  70  95 124 157 197 240 285
#     4  10  19  31  48  72  98 127 163 204 245 286
#     4   9  18  29  43  64  91 126 164 196 230 281
#
# _framework density 17.922637000000002
#
# number of rings (size 3 to 8) (size 9 to 14) (size 15 to 20)
#    0.000    2.750    1.250    1.500    1.750    2.000 
#    0.000    0.000    0.000    1.500    0.000    5.250 
#    0.000    0.000    0.000    0.000    0.000    0.000 
#
# Total GULP energy -792995.347119 kJ/mol
# GULP energy per Si atom -12390.552299 kJ/mol
# Density = 1.788184 g / cm^3
# Si number density = 17.922637 Si / 1000 Ang^3
#
#
#
# Elastic Constant Matrix: (Units=GPa)
#
#
# Indices 1 2 3 4 5 6 
#
# 1 37.2085 13.2969 26.9680 0.0000 0.0000 0.0000
# 2 13.2969 85.0637 52.3895 0.0000 0.0000 0.0000
# 3 26.9680 52.3895 124.9801 0.0000 0.0000 0.0000
# 4 0.0000 0.0000 0.0000 6.2859 0.0000 0.0000
# 5 0.0000 0.0000 0.0000 0.0000 26.3489 0.0000
# 6 0.0000 0.0000 0.0000 0.0000 0.0000 6.2609
#
#
#
# Elastic Compliance Matrix: (Units=1/GPa)
#
#
# Indices 1 2 3 4 5 6 
#
# 1 0.031922 -0.001008 -0.006466 0.000000 0.000000 0.000000
# 2 -0.001008 0.015879 -0.006439 0.000000 0.000000 0.000000
# 3 -0.006466 -0.006439 0.012095 0.000000 0.000000 0.000000
# 4 0.000000 0.000000 0.000000 0.159085 0.000000 0.000000
# 5 0.000000 0.000000 0.000000 0.000000 0.037952 0.000000
# 6 0.000000 0.000000 0.000000 0.000000 0.000000 0.159721
#
#
# Mechanical properties :
#
#
# Convention : Reuss Voigt Hill
#
# Bulk Modulus (GPa) = 31.17990 48.06232 39.62111
# Shear Modulus (GPa) = 10.98492 18.08569 14.53530
#
# Velocity S-wave (km/s) = 2.47838 3.18008 2.85090
# Velocity P-wave (km/s) = 5.06207 6.35284 5.74383
#
# Compressibility (1/GPa) = 0.03207194
#
# Stress axis : x y z
#
# Youngs Moduli (GPa) = 31.32647 62.97653 82.67612
#
# Poissons Ratio (x) = 0.06347 0.53455
# Poissons Ratio (y) = 0.03157 0.53233
# Poissons Ratio (z) = 0.20254 0.40549
#
# Static dielectric constant tensor:
#      x y z
#    x 3.130520 0.000000 0.000000 
#    y 0.000000 3.353850 0.000000 
#    z 0.000000 0.000000 3.471890 
# 
# 
# High freq. dielectric constant tensor:
#      x y z
#    x 1.651410 0.000000 0.000000 
#    y 0.000000 1.665690 0.000000 
#    z 0.000000 0.000000 1.700030 
# 
# From -- ./inp_files/26665.got.cif
#   From: 2010.03.12/outbox.cif.g09.slc.cpg/sg51_14_cif.got.tgz:26665.got - 2010.04.16 13:43:02.
