data_PCOD8208692
_publ_section_title
;
Structure prediction by ZEFSAII (Michael W. Deem and Ramdas Pophale) SiO2 
 PCOD8208692
Probable space group: P M M A
;
_chemical_formula_sum "Si O2"
_cell_formula_units_Z 40
_cell_length_a 9.959283
_cell_length_b 14.020539
_cell_length_c 15.756708
_cell_angle_alpha 90.000000
_cell_angle_beta 90.000000
_cell_angle_gamma 90.000000
_cell_volume 2200.180291
_symmetry_space_group_name_H-M "P M M A"
_symmetry_group_IT_number 51
_symmetry_cell_setting 'orthorhombic'
loop_
_space_group_symop_operation_xyz
x,y,z
1/2-x,-y,z
1/2+x,-y,-z
-x,y,-z
-x,-y,-z
1/2+x,y,-z
1/2-x,y,z
x,-y,z
loop_
_atom_site_type_symbol
_atom_site_label
_atom_site_fract_x
_atom_site_fract_y
_atom_site_fract_z
Si Si1 0.966387 0.610721 0.806578
Si Si2 0.250000 0.388967 0.058269
Si Si3 0.250000 0.610909 0.874817
Si Si4 0.596390 0.112825 0.574332
Si Si5 0.097064 0.801008 0.253868
Si Si6 0.905220 0.887174 0.921713
O O1 0.941759 0.500000 0.779610
O O2 0.884476 0.638631 0.891370
O O3 0.916825 0.685527 0.735804
O O4 0.120696 0.636939 0.820436
O O5 0.250000 0.500000 0.043565
O O6 0.250000 0.336845 0.966773
O O7 0.250000 0.500000 0.894308
O O8 0.500000 0.151951 0.500000
O O9 0.750000 0.148741 0.559505
O O10 0.532753 0.151855 0.662503
O O11 0.592434 0.000000 0.577911
O O12 0.250000 0.834254 0.253221
O O13 0.035423 0.838646 0.164587
O O14 0.750000 0.854671 0.938739
O O15 0.912472 0.000000 0.908779
O O16 0.000000 0.855110 0.000000
#
# Coordination Sequence:
#
# PCOD8208692 Si02
#       6
#     8   4   4   8   8   8
#     4  10  19  32  47  68  97 133 173 211 254 298
#     4   9  16  28  46  64  88 127 176 218 250 289
#     4   9  18  30  44  64  94 131 172 222 266 287
#     4   9  18  35  59  83 105 127 157 204 259 310
#     4  10  19  33  52  76 100 134 172 205 247 301
#     4   9  18  33  50  69  98 136 173 206 242 290
#
# _framework density 18.180329
#
# number of rings (size 3 to 8) (size 9 to 14) (size 15 to 20)
#    0.000    2.600    1.000    1.200    0.000    6.400 
#    3.600    0.000    0.000    5.400    0.000    0.000 
#    0.000    0.000    0.000    0.000    0.000    0.000 
#
# Total GULP energy -495672.180202 kJ/mol
# GULP energy per Si atom -12391.804505 kJ/mol
# Density = 1.813895 g / cm^3
# Si number density = 18.180329 Si / 1000 Ang^3
#
#
#
# Elastic Constant Matrix: (Units=GPa)
#
#
# Indices 1 2 3 4 5 6 
#
# 1 75.4973 15.9722 44.0320 0.0000 0.0000 0.0000
# 2 15.9722 36.5785 39.2333 0.0000 0.0000 0.0000
# 3 44.0320 39.2333 133.7896 0.0000 0.0000 0.0000
# 4 0.0000 0.0000 0.0000 17.1755 0.0000 0.0000
# 5 0.0000 0.0000 0.0000 0.0000 27.0218 0.0000
# 6 0.0000 0.0000 0.0000 0.0000 0.0000 18.4060
#
#
#
# Elastic Compliance Matrix: (Units=1/GPa)
#
#
# Indices 1 2 3 4 5 6 
#
# 1 0.016493 -0.002013 -0.004838 0.000000 0.000000 0.000000
# 2 -0.002013 0.040129 -0.011105 0.000000 0.000000 0.000000
# 3 -0.004838 -0.011105 0.012323 0.000000 0.000000 0.000000
# 4 0.000000 0.000000 0.000000 0.058223 0.000000 0.000000
# 5 0.000000 0.000000 0.000000 0.000000 0.037007 0.000000
# 6 0.000000 0.000000 0.000000 0.000000 0.000000 0.054330
#
#
# Mechanical properties :
#
#
# Convention : Reuss Voigt Hill
#
# Bulk Modulus (GPa) = 30.27264 49.37116 39.82190
# Shear Modulus (GPa) = 18.83758 22.29582 20.56670
#
# Velocity S-wave (km/s) = 3.22242 3.50576 3.36707
# Velocity P-wave (km/s) = 5.52565 6.60321 6.08832
#
# Compressibility (1/GPa) = 0.03303313
#
# Stress axis : x y z
#
# Youngs Moduli (GPa) = 60.63226 24.91994 81.14811
#
# Poissons Ratio (x) = 0.05016 0.39258
# Poissons Ratio (y) = 0.12204 0.90116
# Poissons Ratio (z) = 0.29333 0.27674
#
# Static dielectric constant tensor:
#      x y z
#    x 3.090250 0.000000 0.000000 
#    y 0.000000 3.316090 0.000000 
#    z 0.000000 0.000000 3.328940 
# 
# 
# High freq. dielectric constant tensor:
#      x y z
#    x 1.695200 0.000000 0.000000 
#    y 0.000000 1.701860 0.000000 
#    z 0.000000 0.000000 1.672440 
# 
# From -- ./inp_files/20538.got.cif
#   From: 2010.03.12/outbox.cif.g09.slc.cpg/sg51_11_cif.got.tgz:20538.got - 2010.04.16 13:43:02.
