data_PCOD8208711
_publ_section_title
;
Structure prediction by ZEFSAII (Michael W. Deem and Ramdas Pophale) SiO2 
 PCOD8208711
Probable space group: P M M A
;
_chemical_formula_sum "Si O2"
_cell_formula_units_Z 52
_cell_length_a 9.143874
_cell_length_b 12.434478
_cell_length_c 30.024064
_cell_angle_alpha 90.000000
_cell_angle_beta 90.000000
_cell_angle_gamma 90.000000
_cell_volume 3413.715063
_symmetry_space_group_name_H-M "P M M A"
_symmetry_group_IT_number 51
_symmetry_cell_setting 'orthorhombic'
loop_
_space_group_symop_operation_xyz
x,y,z
1/2-x,-y,z
1/2+x,-y,-z
-x,y,-z
-x,-y,-z
1/2+x,y,-z
1/2-x,y,z
x,-y,z
loop_
_atom_site_type_symbol
_atom_site_label
_atom_site_fract_x
_atom_site_fract_y
_atom_site_fract_z
Si Si1 0.079174 0.791283 0.398110
Si Si2 0.920017 0.375027 0.455082
Si Si3 0.584920 0.128134 0.216061
Si Si4 0.418764 0.876056 0.302574
Si Si5 0.584606 0.871748 0.870032
Si Si6 0.921963 0.000000 0.546945
Si Si7 0.084480 0.871812 0.956677
O O1 0.250000 0.768544 0.405472
O O2 0.043256 0.807774 0.346238
O O3 0.986339 0.689102 0.413643
O O4 0.028760 0.895693 0.425525
O O5 0.750000 0.348439 0.460490
O O6 0.948474 0.500000 0.445740
O O7 0.000000 0.336929 0.500000
O O8 0.750000 0.171444 0.212885
O O9 0.513587 0.170350 0.261813
O O10 0.494397 0.173419 0.174114
O O11 0.580681 0.000000 0.215445
O O12 0.250000 0.864503 0.289141
O O13 0.456461 0.000000 0.312758
O O14 0.750000 0.827734 0.871409
O O15 0.497926 0.827949 0.912976
O O16 0.584259 0.000000 0.869896
O O17 0.000000 0.000000 0.500000
O O18 0.750000 0.000000 0.539039
O O19 0.250000 0.827513 0.956979
O O20 0.085306 0.000000 0.956744
O O21 0.000000 0.827827 0.000000
#
# Coordination Sequence:
#
# PCOD8208711 Si02
#       7
#     8   8   8   8   8   4   8
#     4  10  19  32  49  67  89 113 138 166 200 241
#     4  10  21  36  52  69  88 110 138 171 204 238
#     4   9  16  24  34  49  68  90 118 152 185 223
#     4   9  16  28  43  58  79 106 130 155 190 234
#     4   9  15  22  31  42  56  78 109 143 182 228
#     4  10  20  32  44  64  90 114 136 162 195 236
#     4   9  15  21  28  38  53  73  99 136 182 230
#
# _framework density 15.232670000000001
#
# number of rings (size 3 to 8) (size 9 to 14) (size 15 to 20)
#    0.000    2.615    0.769    2.308    0.000    8.923 
#    0.000    0.000    0.000    0.000    0.000    0.000 
#    0.000    0.000    0.000    0.000    0.000    0.000 
#
# Total GULP energy -644817.909686 kJ/mol
# GULP energy per Si atom -12400.344417 kJ/mol
# Density = 1.519800 g / cm^3
# Si number density = 15.232670 Si / 1000 Ang^3
#
#
#
# Elastic Constant Matrix: (Units=GPa)
#
#
# Indices 1 2 3 4 5 6 
#
# 1 120.7209 25.5268 80.2199 0.0000 0.0000 0.0000
# 2 25.5268 28.4254 28.3432 0.0000 0.0000 0.0000
# 3 80.2199 28.3432 142.6113 0.0000 0.0000 0.0000
# 4 0.0000 0.0000 0.0000 6.1298 0.0000 0.0000
# 5 0.0000 0.0000 0.0000 0.0000 34.6365 0.0000
# 6 0.0000 0.0000 0.0000 0.0000 0.0000 14.0428
#
#
#
# Elastic Compliance Matrix: (Units=1/GPa)
#
#
# Indices 1 2 3 4 5 6 
#
# 1 0.013973 -0.005875 -0.006692 0.000000 0.000000 0.000000
# 2 -0.005875 0.046345 -0.005906 0.000000 0.000000 0.000000
# 3 -0.006692 -0.005906 0.011950 0.000000 0.000000 0.000000
# 4 0.000000 0.000000 0.000000 0.163137 0.000000 0.000000
# 5 0.000000 0.000000 0.000000 0.000000 0.028871 0.000000
# 6 0.000000 0.000000 0.000000 0.000000 0.000000 0.071211
#
#
# Mechanical properties :
#
#
# Convention : Reuss Voigt Hill
#
# Bulk Modulus (GPa) = 28.31154 62.21526 45.26340
# Shear Modulus (GPa) = 13.01381 21.47301 17.24341
#
# Velocity S-wave (km/s) = 2.92607 3.75863 3.36817
# Velocity P-wave (km/s) = 5.48108 7.73100 6.70114
#
# Compressibility (1/GPa) = 0.03532128
#
# Stress axis : x y z
#
# Youngs Moduli (GPa) = 71.56710 21.57740 83.68025
#
# Poissons Ratio (x) = 0.12677 0.56000
# Poissons Ratio (y) = 0.42047 0.49421
# Poissons Ratio (z) = 0.47894 0.12743
#
# Static dielectric constant tensor:
#      x y z
#    x 3.064070 0.000000 0.000000 
#    y 0.000000 2.343430 0.000000 
#    z 0.000000 0.000000 3.088810 
# 
# 
# High freq. dielectric constant tensor:
#      x y z
#    x 1.598110 0.000000 0.000000 
#    y 0.000000 1.500890 0.000000 
#    z 0.000000 0.000000 1.597180 
# 
# From -- ./inp_files/37331.got.cif
#   From: 2010.03.12/outbox.cif.g09.slc.cpg/sg51_19_cif.got.tgz:37331.got - 2010.04.16 13:43:02.
