data_PCOD8208217
_publ_section_title
;
Structure prediction by ZEFSAII (Michael W. Deem and Ramdas Pophale) SiO2 
 PCOD8208217
Probable space group: P M M A
;
_chemical_formula_sum "Si O2"
_cell_formula_units_Z 44
_cell_length_a 9.534613
_cell_length_b 16.985193
_cell_length_c 18.901270
_cell_angle_alpha 90.000000
_cell_angle_beta 90.000000
_cell_angle_gamma 90.000000
_cell_volume 3061.008547
_symmetry_space_group_name_H-M "P M M A"
_symmetry_group_IT_number 51
_symmetry_cell_setting 'orthorhombic'
loop_
_space_group_symop_operation_xyz
x,y,z
1/2-x,-y,z
1/2+x,-y,-z
-x,y,-z
-x,-y,-z
1/2+x,y,-z
1/2-x,y,z
x,-y,z
loop_
_atom_site_type_symbol
_atom_site_label
_atom_site_fract_x
_atom_site_fract_y
_atom_site_fract_z
Si Si1 0.250000 0.913854 0.921992
Si Si2 0.590399 0.500000 0.069579
Si Si3 0.503328 0.805883 0.083716
Si Si4 0.910869 0.406776 0.433906
Si Si5 0.084847 0.592609 0.295719
Si Si6 0.415768 0.349804 0.835530
Si Si7 0.750000 0.088999 0.910691
O O1 0.378598 0.865691 0.893739
O O2 0.250000 0.000000 0.887118
O O3 0.250000 0.922317 0.005839
O O4 0.750000 0.500000 0.044368
O O5 0.555182 0.424057 0.115355
O O6 0.500000 0.500000 0.000000
O O7 0.523469 0.724501 0.123386
O O8 0.375047 0.855467 0.113643
O O9 0.500000 0.787879 0.000000
O O10 0.750000 0.373102 0.431856
O O11 0.900812 0.500000 0.439895
O O12 0.000000 0.372777 0.500000
O O13 0.000556 0.381977 0.365599
O O14 0.250000 0.614913 0.301935
O O15 0.067952 0.500000 0.281200
O O16 0.008965 0.641127 0.234175
O O17 0.250000 0.341711 0.817544
O O18 0.750000 0.000000 0.877020
#
# Coordination Sequence:
#
# PCOD8208217 Si02
#       7
#     4   4   8   8   8   8   4
#     4   9  16  30  48  65  85 107 134 176 229 287
#     4  10  22  36  48  60  79 112 155 200 240 274
#     4  10  19  31  46  66  87 110 145 188 231 281
#     4   9  16  27  45  67  90 114 143 183 223 264
#     4  10  20  32  46  64  85 115 154 192 230 269
#     4  11  21  34  46  61  85 118 155 192 235 272
#     4   9  18  30  48  69  87 107 134 176 233 287
#
# _framework density 14.374347999999999
#
# number of rings (size 3 to 8) (size 9 to 14) (size 15 to 20)
#    0.000    2.182    1.818    2.182    1.273    5.818 
#    0.000    0.000    0.000    0.000    0.000    0.000 
#    0.000    0.000    0.000    0.000    0.000    5.455 
#
# Total GULP energy -545214.249699 kJ/mol
# GULP energy per Si atom -12391.232948 kJ/mol
# Density = 1.434163 g / cm^3
# Si number density = 14.374348 Si / 1000 Ang^3
#
#
#
# Elastic Constant Matrix: (Units=GPa)
#
#
# Indices 1 2 3 4 5 6 
#
# 1 141.7976 54.1006 60.2116 0.0000 0.0000 0.0000
# 2 54.1006 104.7986 41.4402 0.0000 0.0000 0.0000
# 3 60.2116 41.4402 88.9200 0.0000 0.0000 0.0000
# 4 0.0000 0.0000 0.0000 35.9829 0.0000 0.0000
# 5 0.0000 0.0000 0.0000 0.0000 28.0280 0.0000
# 6 0.0000 0.0000 0.0000 0.0000 0.0000 29.5452
#
#
#
# Elastic Compliance Matrix: (Units=1/GPa)
#
#
# Indices 1 2 3 4 5 6 
#
# 1 0.010742 -0.003272 -0.005749 0.000000 0.000000 0.000000
# 2 -0.003272 0.012695 -0.003701 0.000000 0.000000 0.000000
# 3 -0.005749 -0.003701 0.016863 0.000000 0.000000 0.000000
# 4 0.000000 0.000000 0.000000 0.027791 0.000000 0.000000
# 5 0.000000 0.000000 0.000000 0.000000 0.035679 0.000000
# 6 0.000000 0.000000 0.000000 0.000000 0.000000 0.033846
#
#
# Mechanical properties :
#
#
# Convention : Reuss Voigt Hill
#
# Bulk Modulus (GPa) = 67.30838 71.89122 69.59980
# Shear Modulus (GPa) = 29.75993 30.69546 30.22770
#
# Velocity S-wave (km/s) = 4.55505 4.62609 4.59070
# Velocity P-wave (km/s) = 8.63664 8.86884 8.75351
#
# Compressibility (1/GPa) = 0.01485699
#
# Stress axis : x y z
#
# Youngs Moduli (GPa) = 93.09382 78.77401 59.29979
#
# Poissons Ratio (x) = 0.25775 0.34091
# Poissons Ratio (y) = 0.30461 0.21944
# Poissons Ratio (z) = 0.53518 0.29150
#
# Static dielectric constant tensor:
#      x y z
#    x 2.816900 0.000000 0.000000 
#    y 0.000000 2.703020 0.000000 
#    z 0.000000 0.000000 2.631640 
# 
# 
# High freq. dielectric constant tensor:
#      x y z
#    x 1.574580 0.000000 0.000000 
#    y 0.000000 1.521720 0.000000 
#    z 0.000000 0.000000 1.520380 
# 
# From -- ./inp_files/27446.got.cif
#   From: 2010.03.12/outbox.cif.g09.slc.cpg/sg51_14_cif.got.tgz:27446.got - 2010.04.16 13:43:02.
