data_PCOD8208051
_publ_section_title
;
Structure prediction by ZEFSAII (Michael W. Deem and Ramdas Pophale) SiO2 
 PCOD8208051
Probable space group: P M M A
;
_chemical_formula_sum "Si O2"
_cell_formula_units_Z 64
_cell_length_a 24.213338
_cell_length_b 8.811830
_cell_length_c 16.590072
_cell_angle_alpha 90.000000
_cell_angle_beta 90.000000
_cell_angle_gamma 90.000000
_cell_volume 3539.721106
_symmetry_space_group_name_H-M "P M M A"
_symmetry_group_IT_number 51
_symmetry_cell_setting 'orthorhombic'
loop_
_space_group_symop_operation_xyz
x,y,z
1/2-x,-y,z
1/2+x,-y,-z
-x,y,-z
-x,-y,-z
1/2+x,y,-z
1/2-x,y,z
x,-y,z
loop_
_atom_site_type_symbol
_atom_site_label
_atom_site_fract_x
_atom_site_fract_y
_atom_site_fract_z
Si Si1 0.187991 0.327860 0.749474
Si Si2 0.594850 0.673156 0.133121
Si Si3 0.414391 0.679890 0.209364
Si Si4 0.811643 0.180674 0.522980
Si Si5 0.057454 0.677740 0.033324
Si Si6 0.813405 0.822396 0.705097
Si Si7 0.522119 0.179823 0.265482
Si Si8 0.117578 0.177227 0.621437
O O1 0.250000 0.285158 0.769879
O O2 0.181306 0.500000 0.716765
O O3 0.155901 0.306189 0.832920
O O4 0.166174 0.210818 0.683948
O O5 0.573126 0.500000 0.141768
O O6 0.551074 0.775501 0.181421
O O7 0.600205 0.717024 0.038692
O O8 0.417411 0.500000 0.212353
O O9 0.423914 0.747590 0.118960
O O10 0.353805 0.731293 0.236474
O O11 0.461383 0.746517 0.269204
O O12 0.750000 0.240044 0.497978
O O13 0.824975 0.232833 0.613662
O O14 0.860422 0.245428 0.464068
O O15 0.810621 0.000000 0.518365
O O16 0.051343 0.500000 0.048303
O O17 0.000000 0.745749 0.000000
O O18 0.750000 0.786415 0.728850
O O19 0.825620 0.000000 0.713549
O O20 0.559556 0.241655 0.341715
O O21 0.516329 0.000000 0.270065
O O22 0.109933 0.000000 0.611730
#
# Coordination Sequence:
#
# PCOD8208051 Si02
#       8
#     8   8   8   8   8   8   8   8
#     4   9  17  27  41  65  97 130 159 190 238 295
#     4   9  16  30  48  65  92 128 164 203 243 286
#     4  11  21  34  54  76  99 130 166 204 247 296
#     4   8  14  28  52  76  95 123 166 208 244 286
#     4   9  16  29  50  73  94 121 164 207 241 280
#     4   9  19  37  58  77  99 127 160 203 252 295
#     4  10  19  30  46  73 105 131 159 199 247 295
#     4   9  17  29  48  73  98 127 166 205 238 281
#
# _framework density 18.080521000000001
#
# number of rings (size 3 to 8) (size 9 to 14) (size 15 to 20)
#    0.000    2.750    1.250    1.875    0.000    1.500 
#    0.000    3.750    0.000    6.750    0.000    0.000 
#    0.000    0.000    0.000    0.000    0.000    0.000 
#
# Total GULP energy -792996.335948 kJ/mol
# GULP energy per Si atom -12390.567749 kJ/mol
# Density = 1.803937 g / cm^3
# Si number density = 18.080521 Si / 1000 Ang^3
#
#
#
# Elastic Constant Matrix: (Units=GPa)
#
#
# Indices 1 2 3 4 5 6 
#
# 1 112.5074 25.1031 60.0494 0.0000 0.0000 0.0000
# 2 25.1031 30.9109 18.9528 0.0000 0.0000 0.0000
# 3 60.0494 18.9528 112.8041 0.0000 0.0000 0.0000
# 4 0.0000 0.0000 0.0000 19.5824 0.0000 0.0000
# 5 0.0000 0.0000 0.0000 0.0000 28.8039 0.0000
# 6 0.0000 0.0000 0.0000 0.0000 0.0000 24.9512
#
#
#
# Elastic Compliance Matrix: (Units=1/GPa)
#
#
# Indices 1 2 3 4 5 6 
#
# 1 0.013810 -0.007478 -0.006095 0.000000 0.000000 0.000000
# 2 -0.007478 0.040116 -0.002759 0.000000 0.000000 0.000000
# 3 -0.006095 -0.002759 0.012573 0.000000 0.000000 0.000000
# 4 0.000000 0.000000 0.000000 0.051066 0.000000 0.000000
# 5 0.000000 0.000000 0.000000 0.000000 0.034717 0.000000
# 6 0.000000 0.000000 0.000000 0.000000 0.000000 0.040078
#
#
# Mechanical properties :
#
#
# Convention : Reuss Voigt Hill
#
# Bulk Modulus (GPa) = 29.55588 51.60366 40.57977
# Shear Modulus (GPa) = 21.15916 24.80863 22.98390
#
# Velocity S-wave (km/s) = 3.42464 3.70823 3.56925
# Velocity P-wave (km/s) = 5.65861 6.85110 6.28321
#
# Compressibility (1/GPa) = 0.03383422
#
# Stress axis : x y z
#
# Youngs Moduli (GPa) = 72.41106 24.92771 79.53456
#
# Poissons Ratio (x) = 0.18641 0.48477
# Poissons Ratio (y) = 0.54150 0.21946
# Poissons Ratio (z) = 0.44135 0.06878
#
# Static dielectric constant tensor:
#      x y z
#    x 3.445570 0.000000 0.000000 
#    y 0.000000 3.059010 0.000000 
#    z 0.000000 0.000000 3.557040 
# 
# 
# High freq. dielectric constant tensor:
#      x y z
#    x 1.695550 0.000000 0.000000 
#    y 0.000000 1.669410 0.000000 
#    z 0.000000 0.000000 1.694540 
# 
# From -- ./inp_files/30604.got.cif
#   From: 2010.03.12/outbox.cif.g09.slc.cpg/sg51_16_cif.got.tgz:30604.got - 2010.04.16 13:43:02.
