data_PCOD8208875
_publ_section_title
;
Structure prediction by ZEFSAII (Michael W. Deem and Ramdas Pophale) SiO2 
 PCOD8208875
Probable space group: P M M A
;
_chemical_formula_sum "Si O2"
_cell_formula_units_Z 56
_cell_length_a 9.026853
_cell_length_b 20.279996
_cell_length_c 15.474855
_cell_angle_alpha 90.000000
_cell_angle_beta 90.000000
_cell_angle_gamma 90.000000
_cell_volume 2832.897254
_symmetry_space_group_name_H-M "P M M A"
_symmetry_group_IT_number 51
_symmetry_cell_setting 'orthorhombic'
loop_
_space_group_symop_operation_xyz
x,y,z
1/2-x,-y,z
1/2+x,-y,-z
-x,y,-z
-x,-y,-z
1/2+x,y,-z
1/2-x,y,z
x,-y,z
loop_
_atom_site_type_symbol
_atom_site_label
_atom_site_fract_x
_atom_site_fract_y
_atom_site_fract_z
Si Si1 0.921315 0.674007 0.910995
Si Si2 0.925712 0.374173 0.584555
Si Si3 0.584735 0.898654 0.417707
Si Si4 0.076320 0.073474 0.772452
Si Si5 0.922321 0.200486 0.805674
Si Si6 0.418650 0.246011 0.634873
Si Si7 0.925669 0.573562 0.767505
O O1 0.750000 0.657426 0.923285
O O2 0.944510 0.750844 0.886906
O O3 0.988843 0.626179 0.836524
O O4 0.000000 0.657552 0.000000
O O5 0.750000 0.377224 0.574905
O O6 0.983487 0.410356 0.671070
O O7 0.000000 0.407935 0.500000
O O8 0.978524 0.298668 0.587412
O O9 0.500000 0.928564 0.500000
O O10 0.750000 0.926043 0.424610
O O11 0.517574 0.923783 0.326584
O O12 0.578786 0.819713 0.422160
O O13 0.250000 0.092126 0.775226
O O14 0.985687 0.127460 0.828510
O O15 0.047970 0.000000 0.809973
O O16 0.750000 0.195776 0.779745
O O17 0.015421 0.231543 0.728658
O O18 0.250000 0.272062 0.644708
O O19 0.750000 0.579114 0.765507
O O20 0.978017 0.500000 0.793297
#
# Coordination Sequence:
#
# PCOD8208875 Si02
#       7
#     8   8   8   8   8   8   8
#     4  10  21  38  61  91 118 147 185 231 286 347
#     4  11  21  34  53  80 112 151 197 242 288 338
#     4   9  18  29  42  65  97 135 178 225 274 323
#     4   9  19  35  52  73 105 146 189 231 281 340
#     4  10  19  34  56  83 113 143 182 232 284 339
#     4  10  19  32  51  75 105 145 189 235 288 338
#     4   9  19  38  60  81 115 159 194 231 286 343
#
# _framework density 19.767748999999998
#
# number of rings (size 3 to 8) (size 9 to 14) (size 15 to 20)
#    0.000    2.286    1.429    2.571    0.000    6.286 
#    0.000    0.000    0.000    3.429    0.000    0.000 
#    0.000    0.000    0.000    0.000    0.000    0.000 
#
# Total GULP energy -694222.677145 kJ/mol
# GULP energy per Si atom -12396.833520 kJ/mol
# Density = 1.972276 g / cm^3
# Si number density = 19.767749 Si / 1000 Ang^3
#
#
#
# Elastic Constant Matrix: (Units=GPa)
#
#
# Indices 1 2 3 4 5 6 
#
# 1 66.5057 28.4566 37.2550 0.0000 0.0000 0.0000
# 2 28.4566 117.2556 46.9522 0.0000 0.0000 0.0000
# 3 37.2550 46.9522 111.9680 0.0000 0.0000 0.0000
# 4 0.0000 0.0000 0.0000 8.9066 0.0000 0.0000
# 5 0.0000 0.0000 0.0000 0.0000 30.6028 0.0000
# 6 0.0000 0.0000 0.0000 0.0000 0.0000 14.3287
#
#
#
# Elastic Compliance Matrix: (Units=1/GPa)
#
#
# Indices 1 2 3 4 5 6 
#
# 1 0.019076 -0.002509 -0.005295 0.000000 0.000000 0.000000
# 2 -0.002509 0.010579 -0.003601 0.000000 0.000000 0.000000
# 3 -0.005295 -0.003601 0.012203 0.000000 0.000000 0.000000
# 4 0.000000 0.000000 0.000000 0.112277 0.000000 0.000000
# 5 0.000000 0.000000 0.000000 0.000000 0.032677 0.000000
# 6 0.000000 0.000000 0.000000 0.000000 0.000000 0.069790
#
#
# Mechanical properties :
#
#
# Convention : Reuss Voigt Hill
#
# Bulk Modulus (GPa) = 52.50081 57.89521 55.19801
# Shear Modulus (GPa) = 17.49704 22.97197 20.23450
#
# Velocity S-wave (km/s) = 2.97834 3.41265 3.20286
# Velocity P-wave (km/s) = 6.20031 6.69922 6.45459
#
# Compressibility (1/GPa) = 0.01904733
#
# Stress axis : x y z
#
# Youngs Moduli (GPa) = 52.42161 94.52268 81.94640
#
# Poissons Ratio (x) = 0.23719 0.43390
# Poissons Ratio (y) = 0.13154 0.29512
# Poissons Ratio (z) = 0.27757 0.34042
#
# Static dielectric constant tensor:
#      x y z
#    x 3.458230 0.000000 0.000000 
#    y 0.000000 3.770040 0.000000 
#    z 0.000000 0.000000 3.404190 
# 
# 
# High freq. dielectric constant tensor:
#      x y z
#    x 1.753460 0.000000 0.000000 
#    y 0.000000 1.772340 0.000000 
#    z 0.000000 0.000000 1.746300 
# 
# From -- ./inp_files/21829.got.cif
#   From: 2010.03.12/outbox.cif.g09.slc.cpg/sg51_11_cif.got.tgz:21829.got - 2010.04.16 13:43:02.
