data_PCOD8208441
_publ_section_title
;
Structure prediction by ZEFSAII (Michael W. Deem and Ramdas Pophale) SiO2 
 PCOD8208441
Probable space group: P M M A
;
_chemical_formula_sum "Si O2"
_cell_formula_units_Z 48
_cell_length_a 18.078765
_cell_length_b 9.044966
_cell_length_c 16.866353
_cell_angle_alpha 90.000000
_cell_angle_beta 90.000000
_cell_angle_gamma 90.000000
_cell_volume 2758.016651
_symmetry_space_group_name_H-M "P M M A"
_symmetry_group_IT_number 51
_symmetry_cell_setting 'orthorhombic'
loop_
_space_group_symop_operation_xyz
x,y,z
1/2-x,-y,z
1/2+x,-y,-z
-x,y,-z
-x,-y,-z
1/2+x,y,-z
1/2-x,y,z
x,-y,z
loop_
_atom_site_type_symbol
_atom_site_label
_atom_site_fract_x
_atom_site_fract_y
_atom_site_fract_z
Si Si1 0.067951 0.673297 0.169558
Si Si2 0.556013 0.162779 0.427591
Si Si3 0.165386 0.671726 0.018335
Si Si4 0.050723 0.833425 0.923018
Si Si5 0.663726 0.329129 0.528366
Si Si6 0.420055 0.175355 0.331508
O O1 0.058615 0.500000 0.183854
O O2 0.127414 0.709779 0.101773
O O3 0.099003 0.749928 0.248214
O O4 0.988192 0.740571 0.146581
O O5 0.500000 0.151934 0.500000
O O6 0.621871 0.275987 0.448131
O O7 0.505536 0.215802 0.353516
O O8 0.590170 0.000000 0.411255
O O9 0.250000 0.720779 0.024783
O O10 0.156141 0.500000 0.998536
O O11 0.129020 0.760919 0.945672
O O12 0.063569 0.000000 0.892724
O O13 0.000000 0.829426 0.000000
O O14 0.750000 0.302163 0.514808
O O15 0.644995 0.500000 0.543011
O O16 0.637425 0.236813 0.604126
O O17 0.409116 0.000000 0.326530
#
# Coordination Sequence:
#
# PCOD8208441 Si02
#       6
#     8   8   8   8   8   8
#     4  10  19  31  49  72  98 129 161 195 238 285
#     4   8  16  31  49  68  91 122 160 197 233 277
#     4   9  18  32  49  70  97 127 158 194 237 284
#     4   9  17  30  48  69  93 123 161 200 234 277
#     4  10  20  32  48  72  99 126 158 195 235 283
#     4  10  20  33  49  71  98 127 160 198 239 284
#
# _framework density 17.403811000000001
#
# number of rings (size 3 to 8) (size 9 to 14) (size 15 to 20)
#    0.000    2.667    0.000    3.000    0.000    8.667 
#    0.000    1.667    0.000    1.000    0.000    4.667 
#    0.000    0.000    0.000    0.000    0.000    0.000 
#
# Total GULP energy -595115.301285 kJ/mol
# GULP energy per Si atom -12398.235443 kJ/mol
# Density = 1.736420 g / cm^3
# Si number density = 17.403811 Si / 1000 Ang^3
#
#
#
# Elastic Constant Matrix: (Units=GPa)
#
#
# Indices 1 2 3 4 5 6 
#
# 1 105.6710 53.6263 24.4806 0.0000 0.0000 0.0000
# 2 53.6263 96.1017 16.7485 0.0000 0.0000 0.0000
# 3 24.4806 16.7485 14.8185 0.0000 0.0000 0.0000
# 4 0.0000 0.0000 0.0000 29.1883 0.0000 0.0000
# 5 0.0000 0.0000 0.0000 0.0000 18.0628 0.0000
# 6 0.0000 0.0000 0.0000 0.0000 0.0000 24.4304
#
#
#
# Elastic Compliance Matrix: (Units=1/GPa)
#
#
# Indices 1 2 3 4 5 6 
#
# 1 0.017700 -0.005954 -0.022512 0.000000 0.000000 0.000000
# 2 -0.005954 0.014961 -0.007074 0.000000 0.000000 0.000000
# 3 -0.022512 -0.007074 0.112668 0.000000 0.000000 0.000000
# 4 0.000000 0.000000 0.000000 0.034260 0.000000 0.000000
# 5 0.000000 0.000000 0.000000 0.000000 0.055362 0.000000
# 6 0.000000 0.000000 0.000000 0.000000 0.000000 0.040933
#
#
# Mechanical properties :
#
#
# Convention : Reuss Voigt Hill
#
# Bulk Modulus (GPa) = 13.46788 45.14468 29.30628
# Shear Modulus (GPa) = 13.45124 22.45201 17.95162
#
# Velocity S-wave (km/s) = 2.78311 3.59564 3.21515
# Velocity P-wave (km/s) = 4.25239 6.57526 5.53701
#
# Compressibility (1/GPa) = 0.07425076
#
# Stress axis : x y z
#
# Youngs Moduli (GPa) = 56.49737 66.84227 8.87560
#
# Poissons Ratio (x) = 0.39795 0.19981
# Poissons Ratio (y) = 0.33636 0.06278
# Poissons Ratio (z) = 1.27186 0.47282
#
# Static dielectric constant tensor:
#      x y z
#    x 3.241790 0.000000 0.000000 
#    y 0.000000 3.362120 0.000000 
#    z 0.000000 0.000000 3.181490 
# 
# 
# High freq. dielectric constant tensor:
#      x y z
#    x 1.657960 0.000000 0.000000 
#    y 0.000000 1.684400 0.000000 
#    z 0.000000 0.000000 1.648640 
# 
# From -- ./inp_files/29439.got.cif
#   From: 2010.03.12/outbox.cif.g09.slc.cpg/sg51_15_cif.got.tgz:29439.got - 2010.04.16 13:43:02.
