data_PCOD8208832
_publ_section_title
;
Structure prediction by ZEFSAII (Michael W. Deem and Ramdas Pophale) SiO2 
 PCOD8208832
Probable space group: P M M A
;
_chemical_formula_sum "Si O2"
_cell_formula_units_Z 64
_cell_length_a 21.325664
_cell_length_b 9.030920
_cell_length_c 19.031656
_cell_angle_alpha 90.000000
_cell_angle_beta 90.000000
_cell_angle_gamma 90.000000
_cell_volume 3665.313586
_symmetry_space_group_name_H-M "P M M A"
_symmetry_group_IT_number 51
_symmetry_cell_setting 'orthorhombic'
loop_
_space_group_symop_operation_xyz
x,y,z
1/2-x,-y,z
1/2+x,-y,-z
-x,y,-z
-x,-y,-z
1/2+x,y,-z
1/2-x,y,z
x,-y,z
loop_
_atom_site_type_symbol
_atom_site_label
_atom_site_fract_x
_atom_site_fract_y
_atom_site_fract_z
Si Si1 0.492645 0.325034 0.171387
Si Si2 0.483660 0.830267 0.317997
Si Si3 0.108217 0.826140 0.905704
Si Si4 0.626998 0.168655 0.328052
Si Si5 0.179050 0.670156 0.541871
Si Si6 0.941469 0.673170 0.548443
Si Si7 0.179272 0.331744 0.800480
Si Si8 0.931359 0.337616 0.967208
O O1 0.504363 0.500000 0.179223
O O2 0.472758 0.256211 0.245384
O O3 0.554963 0.249915 0.141580
O O4 0.436683 0.293322 0.114982
O O5 0.554175 0.818156 0.347439
O O6 0.440468 0.759116 0.377911
O O7 0.464203 0.000000 0.305639
O O8 0.172356 0.766037 0.871378
O O9 0.101320 0.000000 0.899125
O O10 0.108059 0.781309 0.987980
O O11 0.670059 0.227831 0.390476
O O12 0.635019 0.267815 0.259592
O O13 0.646505 0.000000 0.311663
O O14 0.250000 0.695997 0.512300
O O15 0.170149 0.500000 0.565286
O O16 0.126031 0.712099 0.485265
O O17 0.948364 0.500000 0.564063
O O18 0.000000 0.725801 0.500000
O O19 0.250000 0.320901 0.773613
O O20 0.159457 0.500000 0.816330
O O21 0.899965 0.500000 0.974507
O O22 0.000000 0.343286 0.000000
#
# Coordination Sequence:
#
# PCOD8208832 Si02
#       8
#     8   8   8   8   8   8   8   8
#     4  10  19  32  51  72  99 133 169 206 247 301
#     4  11  22  33  50  77 107 138 171 212 264 313
#     4  11  20  30  47  71  99 132 166 208 258 303
#     4  11  22  34  50  74 104 137 172 214 262 311
#     4  10  21  37  56  77 101 133 176 221 262 309
#     4  10  20  35  55  76 100 135 175 214 260 316
#     4  11  23  36  50  68  95 137 183 221 255 300
#     4   8  16  30  47  69  95 127 163 199 240 290
#
# _framework density 17.460988
#
# number of rings (size 3 to 8) (size 9 to 14) (size 15 to 20)
#    0.000    1.750    2.500    3.750    0.000    7.250 
#    0.000    0.000    0.000    0.000    0.000    0.875 
#    0.000    3.000    0.000    0.000    0.000    0.000 
#
# Total GULP energy -793467.721656 kJ/mol
# GULP energy per Si atom -12397.933151 kJ/mol
# Density = 1.742125 g / cm^3
# Si number density = 17.460988 Si / 1000 Ang^3
#
#
#
# Elastic Constant Matrix: (Units=GPa)
#
#
# Indices 1 2 3 4 5 6 
#
# 1 65.5671 32.5543 39.8305 0.0000 0.0000 0.0000
# 2 32.5543 118.8772 63.2464 0.0000 0.0000 0.0000
# 3 39.8305 63.2464 118.5296 0.0000 0.0000 0.0000
# 4 0.0000 0.0000 0.0000 17.6949 0.0000 0.0000
# 5 0.0000 0.0000 0.0000 0.0000 21.7372 0.0000
# 6 0.0000 0.0000 0.0000 0.0000 0.0000 15.3188
#
#
#
# Elastic Compliance Matrix: (Units=1/GPa)
#
#
# Indices 1 2 3 4 5 6 
#
# 1 0.019731 -0.002619 -0.005233 0.000000 0.000000 0.000000
# 2 -0.002619 0.012095 -0.005573 0.000000 0.000000 0.000000
# 3 -0.005233 -0.005573 0.013169 0.000000 0.000000 0.000000
# 4 0.000000 0.000000 0.000000 0.056513 0.000000 0.000000
# 5 0.000000 0.000000 0.000000 0.000000 0.046004 0.000000
# 6 0.000000 0.000000 0.000000 0.000000 0.000000 0.065279
#
#
# Mechanical properties :
#
#
# Convention : Reuss Voigt Hill
#
# Bulk Modulus (GPa) = 55.11570 63.80404 59.45987
# Shear Modulus (GPa) = 20.35090 22.10637 21.22863
#
# Velocity S-wave (km/s) = 3.41766 3.56201 3.49058
# Velocity P-wave (km/s) = 6.87076 7.31693 7.09735
#
# Compressibility (1/GPa) = 0.01814365
#
# Stress axis : x y z
#
# Youngs Moduli (GPa) = 50.68225 82.68202 75.93600
#
# Poissons Ratio (x) = 0.21657 0.39735
# Poissons Ratio (y) = 0.13275 0.42322
# Poissons Ratio (z) = 0.26520 0.46082
#
# Static dielectric constant tensor:
#      x y z
#    x 3.047160 0.000000 0.000000 
#    y 0.000000 3.321750 0.000000 
#    z 0.000000 0.000000 3.388280 
# 
# 
# High freq. dielectric constant tensor:
#      x y z
#    x 1.634470 0.000000 0.000000 
#    y 0.000000 1.685380 0.000000 
#    z 0.000000 0.000000 1.673020 
# 
# From -- ./inp_files/30866.got.cif
#   From: 2010.03.12/outbox.cif.g09.slc.cpg/sg51_16_cif.got.tgz:30866.got - 2010.04.16 13:43:02.
