data_PCOD8208169
_publ_section_title
;
Structure prediction by ZEFSAII (Michael W. Deem and Ramdas Pophale) SiO2 
 PCOD8208169
Probable space group: P M M A
;
_chemical_formula_sum "Si O2"
_cell_formula_units_Z 44
_cell_length_a 9.589387
_cell_length_b 8.058266
_cell_length_c 30.125893
_cell_angle_alpha 90.000000
_cell_angle_beta 90.000000
_cell_angle_gamma 90.000000
_cell_volume 2327.943171
_symmetry_space_group_name_H-M "P M M A"
_symmetry_group_IT_number 51
_symmetry_cell_setting 'orthorhombic'
loop_
_space_group_symop_operation_xyz
x,y,z
1/2-x,-y,z
1/2+x,-y,-z
-x,y,-z
-x,-y,-z
1/2+x,y,-z
1/2-x,y,z
x,-y,z
loop_
_atom_site_type_symbol
_atom_site_label
_atom_site_fract_x
_atom_site_fract_y
_atom_site_fract_z
Si Si1 0.913909 0.000000 0.544685
Si Si2 0.593569 0.805575 0.039196
Si Si3 0.910332 0.686348 0.604133
Si Si4 0.584053 0.314510 0.226419
Si Si5 0.093697 0.303196 0.868526
Si Si6 0.910585 0.811566 0.319140
O O1 0.957552 0.168696 0.570415
O O2 0.000000 0.000000 0.500000
O O3 0.750000 0.000000 0.533927
O O4 0.750000 0.728003 0.036740
O O5 0.519570 0.765174 0.086887
O O6 0.602264 0.000000 0.032288
O O7 0.500000 0.726051 0.000000
O O8 0.750000 0.715338 0.617122
O O9 0.931783 0.500000 0.583771
O O10 0.999523 0.695585 0.648973
O O11 0.750000 0.316127 0.221715
O O12 0.528619 0.500000 0.235427
O O13 0.524707 0.245641 0.178822
O O14 0.536665 0.203698 0.268210
O O15 0.250000 0.231179 0.870640
O O16 0.093140 0.500000 0.868816
O O17 0.750000 0.754270 0.322639
O O18 0.929838 0.000000 0.334656
#
# Coordination Sequence:
#
# PCOD8208169 Si02
#       6
#     4   8   8   8   8   8
#     4  10  22  40  60  84 114 144 180 226 265 310
#     4   9  17  28  42  60  81 107 141 183 231 284
#     4  10  21  38  59  81 109 148 185 217 262 315
#     4   8  14  25  41  64  95 126 156 197 247 292
#     4   8  14  25  41  61  86 116 150 189 234 283
#     4  10  19  30  49  79 110 138 173 216 259 303
#
# _framework density 18.900804000000001
#
# number of rings (size 3 to 8) (size 9 to 14) (size 15 to 20)
#    0.000    2.909    0.909    1.636    0.000    3.273 
#    0.000    3.636    0.000    1.091    0.000    5.091 
#    0.000    0.000    0.000    0.000    0.000    0.000 
#
# Total GULP energy -545114.784115 kJ/mol
# GULP energy per Si atom -12388.972366 kJ/mol
# Density = 1.885778 g / cm^3
# Si number density = 18.900804 Si / 1000 Ang^3
#
#
#
# Elastic Constant Matrix: (Units=GPa)
#
#
# Indices 1 2 3 4 5 6 
#
# 1 39.9072 22.4206 50.4223 0.0000 0.0000 0.0000
# 2 22.4206 74.1017 49.3592 0.0000 0.0000 0.0000
# 3 50.4223 49.3592 164.0195 0.0000 0.0000 0.0000
# 4 0.0000 0.0000 0.0000 29.2713 0.0000 0.0000
# 5 0.0000 0.0000 0.0000 0.0000 25.1802 0.0000
# 6 0.0000 0.0000 0.0000 0.0000 0.0000 14.8837
#
#
#
# Elastic Compliance Matrix: (Units=1/GPa)
#
#
# Indices 1 2 3 4 5 6 
#
# 1 0.042517 -0.005200 -0.011505 0.000000 0.000000 0.000000
# 2 -0.005200 0.017514 -0.003672 0.000000 0.000000 0.000000
# 3 -0.011505 -0.003672 0.010739 0.000000 0.000000 0.000000
# 4 0.000000 0.000000 0.000000 0.034163 0.000000 0.000000
# 5 0.000000 0.000000 0.000000 0.000000 0.039714 0.000000
# 6 0.000000 0.000000 0.000000 0.000000 0.000000 0.067188
#
#
# Mechanical properties :
#
#
# Convention : Reuss Voigt Hill
#
# Bulk Modulus (GPa) = 33.31738 58.04807 45.68273
# Shear Modulus (GPa) = 19.04076 24.25546 21.64811
#
# Velocity S-wave (km/s) = 3.17741 3.58621 3.38798
# Velocity P-wave (km/s) = 5.57916 6.92290 6.28703
#
# Compressibility (1/GPa) = 0.03001436
#
# Stress axis : x y z
#
# Youngs Moduli (GPa) = 23.52020 57.09607 93.12022
#
# Poissons Ratio (x) = 0.29692 1.07138
# Poissons Ratio (y) = 0.12231 0.34194
# Poissons Ratio (z) = 0.27061 0.20966
#
# Static dielectric constant tensor:
#      x y z
#    x 3.125820 0.000000 0.000000 
#    y 0.000000 3.411910 0.000000 
#    z 0.000000 0.000000 3.749540 
# 
# 
# High freq. dielectric constant tensor:
#      x y z
#    x 1.673310 0.000000 0.000000 
#    y 0.000000 1.729570 0.000000 
#    z 0.000000 0.000000 1.748100 
# 
# From -- ./inp_files/36817.got.cif
#   From: 2010.03.12/outbox.cif.g09.slc.cpg/sg51_19_cif.got.tgz:36817.got - 2010.04.16 13:43:02.
