data_PCOD8208427
_publ_section_title
;
Structure prediction by ZEFSAII (Michael W. Deem and Ramdas Pophale) SiO2 
 PCOD8208427
Probable space group: P M M A
;
_chemical_formula_sum "Si O2"
_cell_formula_units_Z 56
_cell_length_a 9.223747
_cell_length_b 18.963785
_cell_length_c 18.484682
_cell_angle_alpha 90.000000
_cell_angle_beta 90.000000
_cell_angle_gamma 90.000000
_cell_volume 3233.287987
_symmetry_space_group_name_H-M "P M M A"
_symmetry_group_IT_number 51
_symmetry_cell_setting 'orthorhombic'
loop_
_space_group_symop_operation_xyz
x,y,z
1/2-x,-y,z
1/2+x,-y,-z
-x,y,-z
-x,-y,-z
1/2+x,y,-z
1/2-x,y,z
x,-y,z
loop_
_atom_site_type_symbol
_atom_site_label
_atom_site_fract_x
_atom_site_fract_y
_atom_site_fract_z
Si Si1 0.422083 0.576803 0.354328
Si Si2 0.081254 0.420821 0.189485
Si Si3 0.082018 0.715950 0.428807
Si Si4 0.584012 0.156505 0.072125
Si Si5 0.919212 0.710939 0.163776
Si Si6 0.419148 0.203287 0.284464
Si Si7 0.080326 0.081338 0.783125
O O1 0.250000 0.581175 0.352982
O O2 0.472960 0.500000 0.384579
O O3 0.474714 0.584990 0.271932
O O4 0.483882 0.640171 0.403303
O O5 0.250000 0.401111 0.182953
O O6 0.053758 0.500000 0.160018
O O7 0.986703 0.365173 0.143173
O O8 0.250000 0.707818 0.447786
O O9 0.057632 0.774284 0.367263
O O10 0.000000 0.741985 0.500000
O O11 0.750000 0.143151 0.054022
O O12 0.555542 0.237192 0.095997
O O13 0.533133 0.104385 0.136241
O O14 0.500000 0.137195 0.000000
O O15 0.750000 0.704484 0.182239
O O16 0.001638 0.740265 0.233882
O O17 0.250000 0.201814 0.263873
O O18 0.488861 0.125948 0.274961
O O19 0.250000 0.097915 0.771854
O O20 0.043274 0.000000 0.770954
#
# Coordination Sequence:
#
# PCOD8208427 Si02
#       7
#     8   8   8   8   8   8   8
#     4   8  14  27  45  64  92 128 162 200 248 295
#     4   9  16  28  48  71  95 126 166 212 259 302
#     4  10  20  32  47  69  97 131 168 208 252 295
#     4   9  19  33  49  74 105 137 165 194 235 285
#     4  10  19  31  49  72 100 131 166 209 254 294
#     4  10  19  33  52  74  99 128 169 210 243 289
#     4   9  19  36  56  79 107 134 158 192 244 295
#
# _framework density 17.319831000000001
#
# number of rings (size 3 to 8) (size 9 to 14) (size 15 to 20)
#    0.000    2.714    1.429    2.571    0.000    5.143 
#    0.000    0.000    0.000    0.857    0.000    0.000 
#    0.000    0.000    0.000    0.000    0.000    0.000 
#
# Total GULP energy -694242.155675 kJ/mol
# GULP energy per Si atom -12397.181351 kJ/mol
# Density = 1.728041 g / cm^3
# Si number density = 17.319831 Si / 1000 Ang^3
#
#
#
# Elastic Constant Matrix: (Units=GPa)
#
#
# Indices 1 2 3 4 5 6 
#
# 1 69.3105 51.7594 32.1798 0.0000 0.0000 0.0000
# 2 51.7594 125.1400 35.1114 0.0000 0.0000 0.0000
# 3 32.1798 35.1114 59.4617 0.0000 0.0000 0.0000
# 4 0.0000 0.0000 0.0000 16.7488 0.0000 0.0000
# 5 0.0000 0.0000 0.0000 0.0000 27.6241 0.0000
# 6 0.0000 0.0000 0.0000 0.0000 0.0000 29.0083
#
#
#
# Elastic Compliance Matrix: (Units=1/GPa)
#
#
# Indices 1 2 3 4 5 6 
#
# 1 0.024028 -0.007539 -0.008552 0.000000 0.000000 0.000000
# 2 -0.007539 0.011943 -0.002972 0.000000 0.000000 0.000000
# 3 -0.008552 -0.002972 0.023201 0.000000 0.000000 0.000000
# 4 0.000000 0.000000 0.000000 0.059706 0.000000 0.000000
# 5 0.000000 0.000000 0.000000 0.000000 0.036200 0.000000
# 6 0.000000 0.000000 0.000000 0.000000 0.000000 0.034473
#
#
# Mechanical properties :
#
#
# Convention : Reuss Voigt Hill
#
# Bulk Modulus (GPa) = 47.51566 54.66814 51.09190
# Shear Modulus (GPa) = 21.30437 23.66700 22.48569
#
# Velocity S-wave (km/s) = 3.51102 3.70059 3.60705
# Velocity P-wave (km/s) = 6.62798 7.06340 6.84915
#
# Compressibility (1/GPa) = 0.02104569
#
# Stress axis : x y z
#
# Youngs Moduli (GPa) = 41.61766 83.72972 43.10154
#
# Poissons Ratio (x) = 0.63122 0.36861
# Poissons Ratio (y) = 0.31375 0.12812
# Poissons Ratio (z) = 0.35592 0.24888
#
# Static dielectric constant tensor:
#      x y z
#    x 3.095140 0.000000 0.000000 
#    y 0.000000 3.403760 0.000000 
#    z 0.000000 0.000000 2.933830 
# 
# 
# High freq. dielectric constant tensor:
#      x y z
#    x 1.657830 0.000000 0.000000 
#    y 0.000000 1.672510 0.000000 
#    z 0.000000 0.000000 1.636920 
# 
# From -- ./inp_files/28256.got.cif
#   From: 2010.03.12/outbox.cif.g09.slc.cpg/sg51_15_cif.got.tgz:28256.got - 2010.04.16 13:43:02.
