data_PCOD8208668
_publ_section_title
;
Structure prediction by ZEFSAII (Michael W. Deem and Ramdas Pophale) SiO2 
 PCOD8208668
Probable space group: P M M A
;
_chemical_formula_sum "Si O2"
_cell_formula_units_Z 56
_cell_length_a 20.516151
_cell_length_b 14.254021
_cell_length_c 9.176866
_cell_angle_alpha 90.000000
_cell_angle_beta 90.000000
_cell_angle_gamma 90.000000
_cell_volume 2683.661102
_symmetry_space_group_name_H-M "P M M A"
_symmetry_group_IT_number 51
_symmetry_cell_setting 'orthorhombic'
loop_
_space_group_symop_operation_xyz
x,y,z
1/2-x,-y,z
1/2+x,-y,-z
-x,y,-z
-x,-y,-z
1/2+x,y,-z
1/2-x,y,z
x,-y,z
loop_
_atom_site_type_symbol
_atom_site_label
_atom_site_fract_x
_atom_site_fract_y
_atom_site_fract_z
Si Si1 0.378978 0.396118 0.027944
Si Si2 0.175794 0.778962 0.632512
Si Si3 0.822398 0.200406 0.031022
Si Si4 0.099852 0.397583 0.700751
Si Si5 0.452487 0.395179 0.318471
Si Si6 0.557117 0.890564 0.891468
Si Si7 0.067203 0.796944 0.422049
O O1 0.344764 0.500000 0.048700
O O2 0.435282 0.383104 0.148136
O O3 0.329400 0.307931 0.027574
O O4 0.413486 0.392230 0.872753
O O5 0.250000 0.787894 0.576043
O O6 0.168395 0.815787 0.796434
O O7 0.154804 0.670596 0.639624
O O8 0.127806 0.835478 0.520546
O O9 0.750000 0.168984 0.985440
O O10 0.873055 0.129454 0.960770
O O11 0.124373 0.500000 0.654238
O O12 0.027856 0.375697 0.640766
O O13 0.432305 0.500000 0.371584
O O14 0.414884 0.314197 0.406652
O O15 0.557791 0.841063 0.735867
O O16 0.547067 0.000000 0.865450
O O17 0.500000 0.852135 0.000000
O O18 0.000000 0.819799 0.500000
#
# Coordination Sequence:
#
# PCOD8208668 Si02
#       7
#     8   8   8   8   8   8   8
#     4   9  17  30  53  89 126 163 208 257 303 349
#     4  10  22  38  57  88 126 165 207 249 302 366
#     4  10  21  40  67  93 124 166 209 256 307 364
#     4   9  17  30  52  82 120 166 212 255 296 348
#     4  10  19  31  52  87 125 161 208 256 302 357
#     4  11  26  46  70  97 121 150 201 264 320 377
#     4  12  23  39  64  92 125 168 199 248 311 374
#
# _framework density 20.867016
#
# number of rings (size 3 to 8) (size 9 to 14) (size 15 to 20)
#    0.000    1.857    2.857    1.286    2.000    4.286 
#    0.000    3.571    0.000    0.857    0.000    0.000 
#    0.000    0.000    0.000    0.000    0.000    0.000 
#
# Total GULP energy -693772.112965 kJ/mol
# GULP energy per Si atom -12388.787732 kJ/mol
# Density = 2.081952 g / cm^3
# Si number density = 20.867016 Si / 1000 Ang^3
#
#
#
# Elastic Constant Matrix: (Units=GPa)
#
#
# Indices 1 2 3 4 5 6 
#
# 1 133.7893 32.3399 63.9347 0.0000 0.0000 0.0000
# 2 32.3399 47.7364 33.3833 0.0000 0.0000 0.0000
# 3 63.9347 33.3833 107.0885 0.0000 0.0000 0.0000
# 4 0.0000 0.0000 0.0000 8.8695 0.0000 0.0000
# 5 0.0000 0.0000 0.0000 0.0000 33.6804 0.0000
# 6 0.0000 0.0000 0.0000 0.0000 0.0000 16.4706
#
#
#
# Elastic Compliance Matrix: (Units=1/GPa)
#
#
# Indices 1 2 3 4 5 6 
#
# 1 0.010930 -0.003633 -0.005393 0.000000 0.000000 0.000000
# 2 -0.003633 0.027996 -0.006558 0.000000 0.000000 0.000000
# 3 -0.005393 -0.006558 0.014602 0.000000 0.000000 0.000000
# 4 0.000000 0.000000 0.000000 0.112746 0.000000 0.000000
# 5 0.000000 0.000000 0.000000 0.000000 0.029691 0.000000
# 6 0.000000 0.000000 0.000000 0.000000 0.000000 0.060714
#
#
# Mechanical properties :
#
#
# Convention : Reuss Voigt Hill
#
# Bulk Modulus (GPa) = 44.72366 60.88110 52.80238
# Shear Modulus (GPa) = 16.93186 22.40117 19.66651
#
# Velocity S-wave (km/s) = 2.85163 3.28002 3.07330
# Velocity P-wave (km/s) = 5.68521 6.60180 6.16058
#
# Compressibility (1/GPa) = 0.02235953
#
# Stress axis : x y z
#
# Youngs Moduli (GPa) = 91.49357 35.71914 68.48328
#
# Poissons Ratio (x) = 0.12978 0.36931
# Poissons Ratio (y) = 0.33242 0.44913
# Poissons Ratio (z) = 0.49340 0.23426
#
# Static dielectric constant tensor:
#      x y z
#    x 3.591310 0.000000 0.000000 
#    y 0.000000 3.673790 0.000000 
#    z 0.000000 0.000000 4.059150 
# 
# 
# High freq. dielectric constant tensor:
#      x y z
#    x 1.793110 0.000000 0.000000 
#    y 0.000000 1.794420 0.000000 
#    z 0.000000 0.000000 1.839500 
# 
# From -- ./inp_files/11010.got.cif
#   From: 2010.03.12/outbox.cif.g09.slc.cpg/sg51_6_cif.got.tgz:11010.got - 2010.04.16 13:43:02.
