data_PCOD8208468
_publ_section_title
;
Structure prediction by ZEFSAII (Michael W. Deem and Ramdas Pophale) SiO2 
 PCOD8208468
Probable space group: P M M A
;
_chemical_formula_sum "Si O2"
_cell_formula_units_Z 64
_cell_length_a 9.181630
_cell_length_b 24.620502
_cell_length_c 15.038315
_cell_angle_alpha 90.000000
_cell_angle_beta 90.000000
_cell_angle_gamma 90.000000
_cell_volume 3399.506445
_symmetry_space_group_name_H-M "P M M A"
_symmetry_group_IT_number 51
_symmetry_cell_setting 'orthorhombic'
loop_
_space_group_symop_operation_xyz
x,y,z
1/2-x,-y,z
1/2+x,-y,-z
-x,y,-z
-x,-y,-z
1/2+x,y,-z
1/2-x,y,z
x,-y,z
loop_
_atom_site_type_symbol
_atom_site_label
_atom_site_fract_x
_atom_site_fract_y
_atom_site_fract_z
Si Si1 0.077173 0.181916 0.912786
Si Si2 0.086012 0.227406 0.584151
Si Si3 0.583468 0.288541 0.859128
Si Si4 0.919103 0.862294 0.277493
Si Si5 0.084430 0.591983 0.084655
Si Si6 0.416466 0.440811 0.742786
Si Si7 0.916824 0.326382 0.309556
Si Si8 0.081448 0.936183 0.410772
O O1 0.250000 0.185049 0.927127
O O2 0.038407 0.145577 0.826114
O O3 0.016734 0.242741 0.902762
O O4 0.000000 0.155562 0.000000
O O5 0.250000 0.216324 0.557496
O O6 0.044980 0.194218 0.672845
O O7 0.056052 0.291583 0.601091
O O8 0.000000 0.205469 0.500000
O O9 0.750000 0.267753 0.852930
O O10 0.572508 0.342811 0.917495
O O11 0.527754 0.302996 0.761610
O O12 0.750000 0.878136 0.286505
O O13 0.014203 0.909473 0.322267
O O14 0.250000 0.572461 0.079632
O O15 0.017111 0.565983 0.172294
O O16 0.000000 0.568327 0.000000
O O17 0.250000 0.437893 0.775501
O O18 0.448553 0.500000 0.698149
O O19 0.445999 0.390897 0.673946
O O20 0.750000 0.316614 0.276929
O O21 0.250000 0.919978 0.419508
O O22 0.000000 0.915524 0.500000
O O23 0.059954 0.000000 0.399139
#
# Coordination Sequence:
#
# PCOD8208468 Si02
#       8
#     8   8   8   8   8   8   8   8
#     4  11  22  36  53  77 110 148 189 231 274 321
#     4  10  20  34  52  79 110 143 174 211 266 324
#     4  10  19  31  49  73  99 133 177 217 261 316
#     4  10  21  37  56  81 115 151 188 228 274 323
#     4  10  20  31  44  65  92 124 161 206 259 314
#     4   9  18  32  51  70  86 117 165 211 260 316
#     4   9  17  33  52  70 101 135 165 212 265 316
#     4  10  21  37  59  88 120 154 192 232 276 326
#
# _framework density 18.826262
#
# number of rings (size 3 to 8) (size 9 to 14) (size 15 to 20)
#    0.000    2.125    1.250    2.250    0.000    6.750 
#    0.000    0.000    0.000    0.750    0.000    0.000 
#    0.000    0.000    0.000    0.000    0.000    0.000 
#
# Total GULP energy -793335.620714 kJ/mol
# GULP energy per Si atom -12395.869074 kJ/mol
# Density = 1.878341 g / cm^3
# Si number density = 18.826262 Si / 1000 Ang^3
#
#
#
# Elastic Constant Matrix: (Units=GPa)
#
#
# Indices 1 2 3 4 5 6 
#
# 1 98.3855 40.5924 52.3569 0.0000 0.0000 0.0000
# 2 40.5924 73.1556 38.1697 0.0000 0.0000 0.0000
# 3 52.3569 38.1697 103.0238 0.0000 0.0000 0.0000
# 4 0.0000 0.0000 0.0000 9.3722 0.0000 0.0000
# 5 0.0000 0.0000 0.0000 0.0000 28.3352 0.0000
# 6 0.0000 0.0000 0.0000 0.0000 0.0000 23.9563
#
#
#
# Elastic Compliance Matrix: (Units=1/GPa)
#
#
# Indices 1 2 3 4 5 6 
#
# 1 0.015585 -0.005597 -0.005846 0.000000 0.000000 0.000000
# 2 -0.005597 0.018955 -0.004178 0.000000 0.000000 0.000000
# 3 -0.005846 -0.004178 0.014226 0.000000 0.000000 0.000000
# 4 0.000000 0.000000 0.000000 0.106698 0.000000 0.000000
# 5 0.000000 0.000000 0.000000 0.000000 0.035292 0.000000
# 6 0.000000 0.000000 0.000000 0.000000 0.000000 0.041743
#
#
# Mechanical properties :
#
#
# Convention : Reuss Voigt Hill
#
# Bulk Modulus (GPa) = 57.07167 59.64476 58.35821
# Shear Modulus (GPa) = 18.54718 21.89581 20.22149
#
# Velocity S-wave (km/s) = 3.14216 3.41405 3.28092
# Velocity P-wave (km/s) = 6.59886 6.87687 6.73930
#
# Compressibility (1/GPa) = 0.01752183
#
# Stress axis : x y z
#
# Youngs Moduli (GPa) = 64.16573 52.75564 70.29520
#
# Poissons Ratio (x) = 0.29528 0.41098
# Poissons Ratio (y) = 0.35914 0.29372
# Poissons Ratio (z) = 0.37514 0.22043
#
# Static dielectric constant tensor:
#      x y z
#    x 3.527600 0.000000 0.000000 
#    y 0.000000 3.481940 0.000000 
#    z 0.000000 0.000000 3.268470 
# 
# 
# High freq. dielectric constant tensor:
#      x y z
#    x 1.738410 0.000000 0.000000 
#    y 0.000000 1.721010 0.000000 
#    z 0.000000 0.000000 1.705050 
# 
# From -- ./inp_files/22266.got.cif
#   From: 2010.03.12/outbox.cif.g09.slc.cpg/sg51_12_cif.got.tgz:22266.got - 2010.04.16 13:43:02.
