data_PCOD8208454
_publ_section_title
;
Structure prediction by ZEFSAII (Michael W. Deem and Ramdas Pophale) SiO2 
 PCOD8208454
Probable space group: P M M A
;
_chemical_formula_sum "Si O2"
_cell_formula_units_Z 64
_cell_length_a 24.066804
_cell_length_b 9.076570
_cell_length_c 16.263006
_cell_angle_alpha 90.000000
_cell_angle_beta 90.000000
_cell_angle_gamma 90.000000
_cell_volume 3552.556590
_symmetry_space_group_name_H-M "P M M A"
_symmetry_group_IT_number 51
_symmetry_cell_setting 'orthorhombic'
loop_
_space_group_symop_operation_xyz
x,y,z
1/2-x,-y,z
1/2+x,-y,-z
-x,y,-z
-x,-y,-z
1/2+x,y,-z
1/2-x,y,z
x,-y,z
loop_
_atom_site_type_symbol
_atom_site_label
_atom_site_fract_x
_atom_site_fract_y
_atom_site_fract_z
Si Si1 0.558294 0.832026 0.461630
Si Si2 0.313416 0.324509 0.970821
Si Si3 0.900274 0.167216 0.635018
Si Si4 0.311916 0.665446 0.273918
Si Si5 0.686039 0.172466 0.199740
Si Si6 0.613591 0.665210 0.882797
Si Si7 0.906830 0.672209 0.299192
Si Si8 0.525010 0.327042 0.760267
O O1 0.500000 0.781603 0.500000
O O2 0.601288 0.818912 0.536641
O O3 0.577283 0.723091 0.390308
O O4 0.554477 0.000000 0.427813
O O5 0.250000 0.281653 0.995813
O O6 0.318398 0.500000 0.963000
O O7 0.329527 0.251742 0.884902
O O8 0.358468 0.259369 0.036741
O O9 0.841025 0.226648 0.662535
O O10 0.950729 0.255452 0.677443
O O11 0.908033 0.000000 0.663504
O O12 0.250000 0.723498 0.263353
O O13 0.314234 0.500000 0.309369
O O14 0.339076 0.671063 0.185082
O O15 0.750000 0.203438 0.224279
O O16 0.646820 0.237962 0.270302
O O17 0.674575 0.000000 0.190343
O O18 0.598737 0.500000 0.909238
O O19 0.556896 0.736003 0.842701
O O20 0.892376 0.500000 0.301257
O O21 0.958966 0.702470 0.237334
O O22 0.538876 0.500000 0.753982
#
# Coordination Sequence:
#
# PCOD8208454 Si02
#       8
#     8   8   8   8   8   8   8   8
#     4  10  20  35  54  77 106 139 175 211 255 312
#     4   9  16  29  53  80 102 130 175 223 258 296
#     4  10  19  31  49  73 102 136 173 213 253 299
#     4   9  17  30  48  70 102 142 177 211 256 308
#     4  10  22  40  59  77 102 137 173 214 268 322
#     4   8  14  27  49  76 105 136 172 211 252 302
#     4  11  22  35  57  84 106 133 173 221 266 309
#     4   9  18  32  50  76 109 140 170 207 256 311
#
# _framework density 18.015194999999999
#
# number of rings (size 3 to 8) (size 9 to 14) (size 15 to 20)
#    0.000    2.500    1.250    2.250    0.000    4.250 
#    0.000    3.750    0.000    7.500    0.000    0.000 
#    0.000    0.000    0.000    0.000    0.000    0.000 
#
# Total GULP energy -793191.679159 kJ/mol
# GULP energy per Si atom -12393.619987 kJ/mol
# Density = 1.797419 g / cm^3
# Si number density = 18.015195 Si / 1000 Ang^3
#
#
#
# Elastic Constant Matrix: (Units=GPa)
#
#
# Indices 1 2 3 4 5 6 
#
# 1 89.2230 28.7733 41.2250 0.0000 0.0000 0.0000
# 2 28.7733 52.4063 29.9026 0.0000 0.0000 0.0000
# 3 41.2250 29.9026 85.8723 0.0000 0.0000 0.0000
# 4 0.0000 0.0000 0.0000 16.5997 0.0000 0.0000
# 5 0.0000 0.0000 0.0000 0.0000 26.7448 0.0000
# 6 0.0000 0.0000 0.0000 0.0000 0.0000 22.8796
#
#
#
# Elastic Compliance Matrix: (Units=1/GPa)
#
#
# Indices 1 2 3 4 5 6 
#
# 1 0.015508 -0.005325 -0.005591 0.000000 0.000000 0.000000
# 2 -0.005325 0.025641 -0.006373 0.000000 0.000000 0.000000
# 3 -0.005591 -0.006373 0.016548 0.000000 0.000000 0.000000
# 4 0.000000 0.000000 0.000000 0.060242 0.000000 0.000000
# 5 0.000000 0.000000 0.000000 0.000000 0.037390 0.000000
# 6 0.000000 0.000000 0.000000 0.000000 0.000000 0.043707
#
#
# Mechanical properties :
#
#
# Convention : Reuss Voigt Hill
#
# Bulk Modulus (GPa) = 43.24977 47.47817 45.36397
# Shear Modulus (GPa) = 20.71927 21.75151 21.23539
#
# Velocity S-wave (km/s) = 3.39499 3.47853 3.43702
# Velocity P-wave (km/s) = 6.27913 6.52268 6.40206
#
# Compressibility (1/GPa) = 0.02312151
#
# Stress axis : x y z
#
# Youngs Moduli (GPa) = 64.48181 38.99963 60.42889
#
# Poissons Ratio (x) = 0.20765 0.33786
# Poissons Ratio (y) = 0.34334 0.38509
# Poissons Ratio (z) = 0.36052 0.24853
#
# Static dielectric constant tensor:
#      x y z
#    x 3.446840 0.000000 0.000000 
#    y 0.000000 3.227520 0.000000 
#    z 0.000000 0.000000 3.275120 
# 
# 
# High freq. dielectric constant tensor:
#      x y z
#    x 1.696130 0.000000 0.000000 
#    y 0.000000 1.683190 0.000000 
#    z 0.000000 0.000000 1.686090 
# 
# From -- ./inp_files/26251.got.cif
#   From: 2010.03.12/outbox.cif.g09.slc.cpg/sg51_14_cif.got.tgz:26251.got - 2010.04.16 13:43:02.
