data_PCOD8208592
_publ_section_title
;
Structure prediction by ZEFSAII (Michael W. Deem and Ramdas Pophale) SiO2 
 PCOD8208592
Probable space group: P M M A
;
_chemical_formula_sum "Si O2"
_cell_formula_units_Z 64
_cell_length_a 8.985824
_cell_length_b 15.155532
_cell_length_c 24.984050
_cell_angle_alpha 90.000000
_cell_angle_beta 90.000000
_cell_angle_gamma 90.000000
_cell_volume 3402.451430
_symmetry_space_group_name_H-M "P M M A"
_symmetry_group_IT_number 51
_symmetry_cell_setting 'orthorhombic'
loop_
_space_group_symop_operation_xyz
x,y,z
1/2-x,-y,z
1/2+x,-y,-z
-x,y,-z
-x,-y,-z
1/2+x,y,-z
1/2-x,y,z
x,-y,z
loop_
_atom_site_type_symbol
_atom_site_label
_atom_site_fract_x
_atom_site_fract_y
_atom_site_fract_z
Si Si1 0.419866 0.099080 0.146175
Si Si2 0.581789 0.369679 0.217048
Si Si3 0.075835 0.899190 0.443211
Si Si4 0.076576 0.401266 0.326007
Si Si5 0.572011 0.772913 0.357343
Si Si6 0.574548 0.228184 0.944788
Si Si7 0.581058 0.596235 0.889512
Si Si8 0.416155 0.828188 0.758642
O O1 0.250000 0.125455 0.154541
O O2 0.489574 0.164441 0.101873
O O3 0.491460 0.104913 0.205067
O O4 0.439894 0.000000 0.124669
O O5 0.750000 0.402927 0.227145
O O6 0.480019 0.402893 0.265266
O O7 0.521621 0.409093 0.162338
O O8 0.578347 0.264871 0.211456
O O9 0.250000 0.877053 0.447487
O O10 0.000000 0.884362 0.500000
O O11 0.997125 0.831979 0.403414
O O12 0.050960 0.000000 0.423702
O O13 0.250000 0.376330 0.326475
O O14 0.051435 0.500000 0.350273
O O15 0.988330 0.327774 0.360689
O O16 0.750000 0.769444 0.361758
O O17 0.519725 0.816978 0.301364
O O18 0.750000 0.216220 0.951365
O O19 0.528042 0.328697 0.930786
O O20 0.500000 0.199956 0.000000
O O21 0.750000 0.617552 0.871270
O O22 0.571325 0.500000 0.917836
O O23 0.250000 0.865805 0.754829
#
# Coordination Sequence:
#
# PCOD8208592 Si02
#       8
#     8   8   8   8   8   8   8   8
#     4  10  21  37  57  79 102 132 171 214 265 323
#     4  10  19  31  50  77 108 141 178 219 265 320
#     4  10  21  38  61  88 118 155 199 245 292 341
#     4  10  20  33  51  78 114 155 195 234 278 331
#     4  10  21  36  56  85 119 155 194 239 286 336
#     4  10  22  39  56  75 100 131 168 217 266 318
#     4  10  20  34  53  76 101 133 171 209 259 321
#     4   9  19  34  52  78 111 144 177 214 264 320
#
# _framework density 18.809967
#
# number of rings (size 3 to 8) (size 9 to 14) (size 15 to 20)
#    0.000    2.125    1.250    2.625    0.000    8.250 
#    0.000    2.500    0.000    0.375    0.000    0.000 
#    0.000    0.000    0.000    0.000    0.000    0.000 
#
# Total GULP energy -793477.717251 kJ/mol
# GULP energy per Si atom -12398.089332 kJ/mol
# Density = 1.876716 g / cm^3
# Si number density = 18.809967 Si / 1000 Ang^3
#
#
#
# Elastic Constant Matrix: (Units=GPa)
#
#
# Indices 1 2 3 4 5 6 
#
# 1 89.2402 48.4015 45.5112 0.0000 0.0000 0.0000
# 2 48.4015 103.3367 58.2565 0.0000 0.0000 0.0000
# 3 45.5112 58.2565 96.0825 0.0000 0.0000 0.0000
# 4 0.0000 0.0000 0.0000 18.8071 0.0000 0.0000
# 5 0.0000 0.0000 0.0000 0.0000 31.9476 0.0000
# 6 0.0000 0.0000 0.0000 0.0000 0.0000 17.8415
#
#
#
# Elastic Compliance Matrix: (Units=1/GPa)
#
#
# Indices 1 2 3 4 5 6 
#
# 1 0.016309 -0.004989 -0.004700 0.000000 0.000000 0.000000
# 2 -0.004989 0.016229 -0.007477 0.000000 0.000000 0.000000
# 3 -0.004700 -0.007477 0.017167 0.000000 0.000000 0.000000
# 4 0.000000 0.000000 0.000000 0.053171 0.000000 0.000000
# 5 0.000000 0.000000 0.000000 0.000000 0.031301 0.000000
# 6 0.000000 0.000000 0.000000 0.000000 0.000000 0.056049
#
#
# Mechanical properties :
#
#
# Convention : Reuss Voigt Hill
#
# Bulk Modulus (GPa) = 65.04792 65.88866 65.46829
# Shear Modulus (GPa) = 21.76920 22.81858 22.29389
#
# Velocity S-wave (km/s) = 3.40564 3.48675 3.44643
# Velocity P-wave (km/s) = 7.07963 7.16342 7.12165
#
# Compressibility (1/GPa) = 0.01537328
#
# Stress axis : x y z
#
# Youngs Moduli (GPa) = 61.31753 61.61816 58.25081
#
# Poissons Ratio (x) = 0.30742 0.27377
# Poissons Ratio (y) = 0.30592 0.43552
# Poissons Ratio (z) = 0.28818 0.46070
#
# Static dielectric constant tensor:
#      x y z
#    x 3.475840 0.000000 0.000000 
#    y 0.000000 3.572090 0.000000 
#    z 0.000000 0.000000 3.197590 
# 
# 
# High freq. dielectric constant tensor:
#      x y z
#    x 1.733120 0.000000 0.000000 
#    y 0.000000 1.739140 0.000000 
#    z 0.000000 0.000000 1.704500 
# 
# From -- ./inp_files/34827.got.cif
#   From: 2010.03.12/outbox.cif.g09.slc.cpg/sg51_18_cif.got.tgz:34827.got - 2010.04.16 13:43:02.
