data_PCOD8208630
_publ_section_title
;
Structure prediction by ZEFSAII (Michael W. Deem and Ramdas Pophale) SiO2 
 PCOD8208630
Probable space group: P M M A
;
_chemical_formula_sum "Si O2"
_cell_formula_units_Z 48
_cell_length_a 17.771216
_cell_length_b 9.344433
_cell_length_c 15.402720
_cell_angle_alpha 90.000000
_cell_angle_beta 90.000000
_cell_angle_gamma 90.000000
_cell_volume 2557.805522
_symmetry_space_group_name_H-M "P M M A"
_symmetry_group_IT_number 51
_symmetry_cell_setting 'orthorhombic'
loop_
_space_group_symop_operation_xyz
x,y,z
1/2-x,-y,z
1/2+x,-y,-z
-x,y,-z
-x,-y,-z
1/2+x,y,-z
1/2-x,y,z
x,-y,z
loop_
_atom_site_type_symbol
_atom_site_label
_atom_site_fract_x
_atom_site_fract_y
_atom_site_fract_z
Si Si1 0.591154 0.169775 0.663939
Si Si2 0.413860 0.667926 0.006849
Si Si3 0.578969 0.170146 0.318331
Si Si4 0.836628 0.336712 0.816200
Si Si5 0.162444 0.166445 0.853334
Si Si6 0.334760 0.170301 0.513983
O O1 0.506450 0.226026 0.677833
O O2 0.645189 0.236422 0.735585
O O3 0.619416 0.222403 0.570108
O O4 0.596180 0.000000 0.672386
O O5 0.404169 0.500000 0.990053
O O6 0.385856 0.712539 0.101905
O O7 0.500000 0.717229 0.000000
O O8 0.363408 0.748730 0.937352
O O9 0.617338 0.225633 0.230114
O O10 0.624276 0.232629 0.400704
O O11 0.581197 0.000000 0.322151
O O12 0.750000 0.317982 0.841995
O O13 0.855123 0.500000 0.790866
O O14 0.250000 0.193730 0.836055
O O15 0.145297 0.000000 0.868725
O O16 0.250000 0.231184 0.510216
O O17 0.333292 0.000000 0.517460
#
# Coordination Sequence:
#
# PCOD8208630 Si02
#       6
#     8   8   8   8   8   8
#     4  10  19  31  51  78 102 127 166 211 247 284
#     4  10  21  37  56  76  99 131 170 209 252 304
#     4   9  17  30  48  72 104 136 163 200 252 300
#     4  10  21  36  52  71  99 134 165 196 245 304
#     4  10  20  33  51  76 103 133 170 209 251 299
#     4   9  16  27  46  73 103 133 166 204 245 292
#
# _framework density 18.766085
#
# number of rings (size 3 to 8) (size 9 to 14) (size 15 to 20)
#    0.000    2.333    0.000    3.000    0.000    7.000 
#    0.000    0.000    0.000    3.000    0.000    0.000 
#    0.000    0.000    0.000    0.000    0.000    0.000 
#
# Total GULP energy -595344.866735 kJ/mol
# GULP energy per Si atom -12403.018057 kJ/mol
# Density = 1.872337 g / cm^3
# Si number density = 18.766085 Si / 1000 Ang^3
#
#
#
# Elastic Constant Matrix: (Units=GPa)
#
#
# Indices 1 2 3 4 5 6 
#
# 1 87.6664 17.4954 25.7148 0.0000 0.0000 0.0000
# 2 17.4954 24.3890 28.6933 0.0000 0.0000 0.0000
# 3 25.7148 28.6933 110.8129 0.0000 0.0000 0.0000
# 4 0.0000 0.0000 0.0000 6.7287 0.0000 0.0000
# 5 0.0000 0.0000 0.0000 0.0000 44.8089 0.0000
# 6 0.0000 0.0000 0.0000 0.0000 0.0000 16.8654
#
#
#
# Elastic Compliance Matrix: (Units=1/GPa)
#
#
# Indices 1 2 3 4 5 6 
#
# 1 0.013374 -0.008546 -0.000891 0.000000 0.000000 0.000000
# 2 -0.008546 0.064425 -0.014699 0.000000 0.000000 0.000000
# 3 -0.000891 -0.014699 0.013037 0.000000 0.000000 0.000000
# 4 0.000000 0.000000 0.000000 0.148617 0.000000 0.000000
# 5 0.000000 0.000000 0.000000 0.000000 0.022317 0.000000
# 6 0.000000 0.000000 0.000000 0.000000 0.000000 0.059293
#
#
# Mechanical properties :
#
#
# Convention : Reuss Voigt Hill
#
# Bulk Modulus (GPa) = 23.49327 40.74171 32.11749
# Shear Modulus (GPa) = 13.03707 23.74491 18.39099
#
# Velocity S-wave (km/s) = 2.63860 3.56098 3.13391
# Velocity P-wave (km/s) = 4.67217 6.21811 5.49973
#
# Compressibility (1/GPa) = 0.04256538
#
# Stress axis : x y z
#
# Youngs Moduli (GPa) = 74.77433 15.52188 76.70503
#
# Poissons Ratio (x) = 0.13264 0.06832
# Poissons Ratio (y) = 0.63900 1.12748
# Poissons Ratio (z) = 0.06660 0.22815
#
# Static dielectric constant tensor:
#      x y z
#    x 3.673240 0.000000 0.000000 
#    y 0.000000 2.996190 0.000000 
#    z 0.000000 0.000000 3.556890 
# 
# 
# High freq. dielectric constant tensor:
#      x y z
#    x 1.748460 0.000000 0.000000 
#    y 0.000000 1.679440 0.000000 
#    z 0.000000 0.000000 1.743750 
# 
# From -- ./inp_files/24725.got.cif
#   From: 2010.03.12/outbox.cif.g09.slc.cpg/sg51_13_cif.got.tgz:24725.got - 2010.04.16 13:43:02.
