data_PCOD8208576
_publ_section_title
;
Structure prediction by ZEFSAII (Michael W. Deem and Ramdas Pophale) SiO2 
 PCOD8208576
Probable space group: P M M A
;
_chemical_formula_sum "Si O2"
_cell_formula_units_Z 64
_cell_length_a 9.058273
_cell_length_b 15.634741
_cell_length_c 23.187582
_cell_angle_alpha 90.000000
_cell_angle_beta 90.000000
_cell_angle_gamma 90.000000
_cell_volume 3283.912369
_symmetry_space_group_name_H-M "P M M A"
_symmetry_group_IT_number 51
_symmetry_cell_setting 'orthorhombic'
loop_
_space_group_symop_operation_xyz
x,y,z
1/2-x,-y,z
1/2+x,-y,-z
-x,y,-z
-x,-y,-z
1/2+x,y,-z
1/2-x,y,z
x,-y,z
loop_
_atom_site_type_symbol
_atom_site_label
_atom_site_fract_x
_atom_site_fract_y
_atom_site_fract_z
Si Si1 0.924808 0.736527 0.058808
Si Si2 0.090420 0.402136 0.737801
Si Si3 0.574746 0.404109 0.387504
Si Si4 0.418787 0.680108 0.168463
Si Si5 0.573529 0.771960 0.440418
Si Si6 0.581965 0.907838 0.113915
Si Si7 0.576505 0.099301 0.647997
Si Si8 0.581213 0.862246 0.776922
O O1 0.750000 0.727727 0.052476
O O2 0.980792 0.833567 0.072402
O O3 0.983008 0.677910 0.110780
O O4 0.000000 0.705757 0.000000
O O5 0.250000 0.356479 0.750993
O O6 0.124720 0.500000 0.728754
O O7 0.022546 0.372590 0.676285
O O8 0.975399 0.394036 0.789901
O O9 0.750000 0.409871 0.387742
O O10 0.511599 0.500000 0.404396
O O11 0.522078 0.326861 0.428968
O O12 0.250000 0.665695 0.150370
O O13 0.442154 0.763585 0.207371
O O14 0.500000 0.800743 0.500000
O O15 0.750000 0.779033 0.443737
O O16 0.516157 0.838259 0.392691
O O17 0.750000 0.884114 0.127396
O O18 0.502953 0.916770 0.175229
O O19 0.566207 0.000000 0.082411
O O20 0.750000 0.120289 0.641857
O O21 0.520977 0.117748 0.713238
O O22 0.544934 0.000000 0.632468
O O23 0.750000 0.890695 0.780497
#
# Coordination Sequence:
#
# PCOD8208576 Si02
#       8
#     8   8   8   8   8   8   8   8
#     4  10  20  34  50  68  94 130 173 215 253 296
#     4   9  17  31  53  80 108 136 165 198 241 297
#     4   8  16  33  57  84 112 141 172 207 254 315
#     4  10  19  31  50  76 105 135 167 206 252 303
#     4  11  23  38  57  79 105 139 179 222 264 310
#     4   9  18  31  47  70 100 131 163 203 251 303
#     4  10  21  37  56  77 104 139 178 223 272 317
#     4   9  18  32  51  76 103 131 165 207 258 311
#
# _framework density 19.488949999999999
#
# number of rings (size 3 to 8) (size 9 to 14) (size 15 to 20)
#    0.000    2.500    0.000    3.000    0.000    3.500 
#    0.000    0.625    0.000    3.000    0.000    0.000 
#    0.000    0.000    0.000    0.000    0.000    0.000 
#
# Total GULP energy -793129.372233 kJ/mol
# GULP energy per Si atom -12392.646441 kJ/mol
# Density = 1.944459 g / cm^3
# Si number density = 19.488950 Si / 1000 Ang^3
#
#
#
# Elastic Constant Matrix: (Units=GPa)
#
#
# Indices 1 2 3 4 5 6 
#
# 1 66.4628 18.7003 34.2835 0.0000 0.0000 0.0000
# 2 18.7003 49.4850 25.6917 0.0000 0.0000 0.0000
# 3 34.2835 25.6917 97.4295 0.0000 0.0000 0.0000
# 4 0.0000 0.0000 0.0000 17.4055 0.0000 0.0000
# 5 0.0000 0.0000 0.0000 0.0000 30.5931 0.0000
# 6 0.0000 0.0000 0.0000 0.0000 0.0000 21.5371
#
#
#
# Elastic Compliance Matrix: (Units=1/GPa)
#
#
# Indices 1 2 3 4 5 6 
#
# 1 0.019152 -0.004332 -0.005597 0.000000 0.000000 0.000000
# 2 -0.004332 0.024393 -0.004908 0.000000 0.000000 0.000000
# 3 -0.005597 -0.004908 0.013528 0.000000 0.000000 0.000000
# 4 0.000000 0.000000 0.000000 0.057453 0.000000 0.000000
# 5 0.000000 0.000000 0.000000 0.000000 0.032687 0.000000
# 6 0.000000 0.000000 0.000000 0.000000 0.000000 0.046432
#
#
# Mechanical properties :
#
#
# Convention : Reuss Voigt Hill
#
# Bulk Modulus (GPa) = 36.49740 41.19203 38.84471
# Shear Modulus (GPa) = 21.50992 22.88726 22.19859
#
# Velocity S-wave (km/s) = 3.32580 3.43063 3.37862
# Velocity P-wave (km/s) = 5.78928 6.07242 5.93254
#
# Compressibility (1/GPa) = 0.02739921
#
# Stress axis : x y z
#
# Youngs Moduli (GPa) = 52.21426 40.99487 73.92325
#
# Poissons Ratio (x) = 0.17758 0.41374
# Poissons Ratio (y) = 0.22617 0.36283
# Poissons Ratio (z) = 0.29224 0.20121
#
# Static dielectric constant tensor:
#      x y z
#    x 3.385180 0.000000 0.000000 
#    y 0.000000 3.541580 0.000000 
#    z 0.000000 0.000000 3.518580 
# 
# 
# High freq. dielectric constant tensor:
#      x y z
#    x 1.745130 0.000000 0.000000 
#    y 0.000000 1.749890 0.000000 
#    z 0.000000 0.000000 1.754690 
# 
# From -- ./inp_files/32346.got.cif
#   From: 2010.03.12/outbox.cif.g09.slc.cpg/sg51_17_cif.got.tgz:32346.got - 2010.04.16 13:43:02.
