data_PCOD8208449
_publ_section_title
;
Structure prediction by ZEFSAII (Michael W. Deem and Ramdas Pophale) SiO2 
 PCOD8208449
Probable space group: P M M A
;
_chemical_formula_sum "Si O2"
_cell_formula_units_Z 48
_cell_length_a 19.054936
_cell_length_b 9.443083
_cell_length_c 14.953633
_cell_angle_alpha 90.000000
_cell_angle_beta 90.000000
_cell_angle_gamma 90.000000
_cell_volume 2690.716978
_symmetry_space_group_name_H-M "P M M A"
_symmetry_group_IT_number 51
_symmetry_cell_setting 'orthorhombic'
loop_
_space_group_symop_operation_xyz
x,y,z
1/2-x,-y,z
1/2+x,-y,-z
-x,y,-z
-x,-y,-z
1/2+x,y,-z
1/2-x,y,z
x,-y,z
loop_
_atom_site_type_symbol
_atom_site_label
_atom_site_fract_x
_atom_site_fract_y
_atom_site_fract_z
Si Si1 0.413883 0.834930 0.360257
Si Si2 0.929662 0.165183 0.311695
Si Si3 0.670462 0.831919 0.468047
Si Si4 0.828351 0.335223 0.779050
Si Si5 0.446947 0.667587 0.866568
Si Si6 0.407797 0.336032 0.054369
O O1 0.497012 0.805219 0.363195
O O2 0.375596 0.774640 0.448734
O O3 0.383458 0.755108 0.275293
O O4 0.397812 0.000000 0.348513
O O5 0.867296 0.216802 0.376931
O O6 0.920611 0.252163 0.221010
O O7 0.923074 0.000000 0.288410
O O8 0.750000 0.770621 0.471882
O O9 0.672091 0.000000 0.472218
O O10 0.750000 0.288574 0.753678
O O11 0.841358 0.500000 0.758339
O O12 0.839547 0.304911 0.885182
O O13 0.442970 0.500000 0.846651
O O14 0.524705 0.723236 0.891990
O O15 0.398963 0.717532 0.952001
O O16 0.424385 0.500000 0.043798
#
# Coordination Sequence:
#
# PCOD8208449 Si02
#       6
#     8   8   8   8   8   8
#     4  10  19  32  51  74  98 126 162 204 245 289
#     4  10  19  31  50  77 100 122 161 210 246 280
#     4   9  18  33  51  69  95 133 168 196 238 297
#     4  10  19  31  49  73 101 130 161 201 247 293
#     4   9  16  30  52  71  93 127 163 197 235 285
#     4   8  15  29  48  69  94 127 163 192 229 287
#
# _framework density 17.839110000000002
#
# number of rings (size 3 to 8) (size 9 to 14) (size 15 to 20)
#    0.000    2.667    1.667    2.000    0.000    3.000 
#    0.000    4.167    0.000    4.500    0.000    0.000 
#    0.000    0.000    0.000    0.000    0.000    0.000 
#
# Total GULP energy -594848.954049 kJ/mol
# GULP energy per Si atom -12392.686543 kJ/mol
# Density = 1.779851 g / cm^3
# Si number density = 17.839110 Si / 1000 Ang^3
#
#
#
# Elastic Constant Matrix: (Units=GPa)
#
#
# Indices 1 2 3 4 5 6 
#
# 1 82.0880 23.7359 50.1314 0.0000 0.0000 0.0000
# 2 23.7359 32.1789 35.7943 0.0000 0.0000 0.0000
# 3 50.1314 35.7943 142.1457 0.0000 0.0000 0.0000
# 4 0.0000 0.0000 0.0000 31.9882 0.0000 0.0000
# 5 0.0000 0.0000 0.0000 0.0000 23.7668 0.0000
# 6 0.0000 0.0000 0.0000 0.0000 0.0000 12.5613
#
#
#
# Elastic Compliance Matrix: (Units=1/GPa)
#
#
# Indices 1 2 3 4 5 6 
#
# 1 0.016927 -0.008120 -0.003925 0.000000 0.000000 0.000000
# 2 -0.008120 0.047063 -0.008987 0.000000 0.000000 0.000000
# 3 -0.003925 -0.008987 0.010682 0.000000 0.000000 0.000000
# 4 0.000000 0.000000 0.000000 0.031262 0.000000 0.000000
# 5 0.000000 0.000000 0.000000 0.000000 0.042075 0.000000
# 6 0.000000 0.000000 0.000000 0.000000 0.000000 0.079610
#
#
# Mechanical properties :
#
#
# Convention : Reuss Voigt Hill
#
# Bulk Modulus (GPa) = 30.66751 52.85954 41.76353
# Shear Modulus (GPa) = 17.82199 23.44666 20.63432
#
# Velocity S-wave (km/s) = 3.16419 3.62932 3.40470
# Velocity P-wave (km/s) = 5.52973 6.87446 6.23843
#
# Compressibility (1/GPa) = 0.03260780
#
# Stress axis : x y z
#
# Youngs Moduli (GPa) = 59.07752 21.24823 93.61117
#
# Poissons Ratio (x) = 0.17253 0.36743
# Poissons Ratio (y) = 0.47969 0.84133
# Poissons Ratio (z) = 0.23188 0.19097
#
# Static dielectric constant tensor:
#      x y z
#    x 3.334740 0.000000 0.000000 
#    y 0.000000 2.911110 0.000000 
#    z 0.000000 0.000000 3.448740 
# 
# 
# High freq. dielectric constant tensor:
#      x y z
#    x 1.680260 0.000000 0.000000 
#    y 0.000000 1.647830 0.000000 
#    z 0.000000 0.000000 1.703080 
# 
# From -- ./inp_files/25443.got.cif
#   From: 2010.03.12/outbox.cif.g09.slc.cpg/sg51_13_cif.got.tgz:25443.got - 2010.04.16 13:43:02.
