data_PCOD8208124
_publ_section_title
;
Structure prediction by ZEFSAII (Michael W. Deem and Ramdas Pophale) SiO2 
 PCOD8208124
Probable space group: P M M A
;
_chemical_formula_sum "Si O2"
_cell_formula_units_Z 56
_cell_length_a 15.797393
_cell_length_b 14.358971
_cell_length_c 14.037429
_cell_angle_alpha 90.000000
_cell_angle_beta 90.000000
_cell_angle_gamma 90.000000
_cell_volume 3184.170493
_symmetry_space_group_name_H-M "P M M A"
_symmetry_group_IT_number 51
_symmetry_cell_setting 'orthorhombic'
loop_
_space_group_symop_operation_xyz
x,y,z
1/2-x,-y,z
1/2+x,-y,-z
-x,y,-z
-x,-y,-z
1/2+x,y,-z
1/2-x,y,z
x,-y,z
loop_
_atom_site_type_symbol
_atom_site_label
_atom_site_fract_x
_atom_site_fract_y
_atom_site_fract_z
Si Si1 0.655933 0.661455 0.360137
Si Si2 0.013202 0.240812 0.392458
Si Si3 0.654527 0.397871 0.152932
Si Si4 0.346907 0.605101 0.429577
Si Si5 0.844157 0.896977 0.929542
Si Si6 0.074319 0.782195 0.923421
Si Si7 0.478126 0.890538 0.225281
O O1 0.750000 0.710024 0.361678
O O2 0.579278 0.733649 0.352690
O O3 0.648728 0.597129 0.267436
O O4 0.644137 0.601653 0.456059
O O5 0.083544 0.323867 0.385588
O O6 0.041982 0.154092 0.328214
O O7 0.000000 0.206212 0.500000
O O8 0.750000 0.373276 0.121659
O O9 0.628476 0.500000 0.114720
O O10 0.592341 0.323440 0.105994
O O11 0.250000 0.634138 0.401207
O O12 0.365974 0.500000 0.392513
O O13 0.750000 0.898303 0.890299
O O14 0.898121 0.864776 0.839379
O O15 0.874526 0.000000 0.962311
O O16 0.847874 0.829425 0.021026
O O17 0.057293 0.842380 0.828275
O O18 0.000000 0.784994 0.000000
O O19 0.494512 0.000000 0.238306
#
# Coordination Sequence:
#
# PCOD8208124 Si02
#       7
#     8   8   8   8   8   8   8
#     4   9  17  31  50  73 103 134 170 213 255 299
#     4  10  20  33  52  78 103 143 179 210 252 311
#     4  10  19  30  48  73 101 133 166 201 247 306
#     4   9  18  32  51  76 105 134 170 218 262 299
#     4   9  18  33  55  79  98 124 167 216 264 312
#     4  10  19  33  52  73 100 131 164 209 260 307
#     4  10  20  35  52  75 104 134 170 217 266 308
#
# _framework density 17.586998000000001
#
# number of rings (size 3 to 8) (size 9 to 14) (size 15 to 20)
#    0.000    2.429    1.429    1.286    0.000    7.714 
#    0.000    0.000    0.000    1.286    0.000   12.000 
#    0.000    0.000    0.000    0.000    0.000    0.000 
#
# Total GULP energy -693877.619969 kJ/mol
# GULP energy per Si atom -12390.671785 kJ/mol
# Density = 1.754697 g / cm^3
# Si number density = 17.586998 Si / 1000 Ang^3
#
#
#
# Elastic Constant Matrix: (Units=GPa)
#
#
# Indices 1 2 3 4 5 6 
#
# 1 75.7000 37.2853 29.0018 0.0000 0.0000 0.0000
# 2 37.2853 115.7324 57.1050 0.0000 0.0000 0.0000
# 3 29.0018 57.1050 80.8752 0.0000 0.0000 0.0000
# 4 0.0000 0.0000 0.0000 23.6835 0.0000 0.0000
# 5 0.0000 0.0000 0.0000 0.0000 9.4755 0.0000
# 6 0.0000 0.0000 0.0000 0.0000 0.0000 22.8498
#
#
#
# Elastic Compliance Matrix: (Units=1/GPa)
#
#
# Indices 1 2 3 4 5 6 
#
# 1 0.016246 -0.003621 -0.003269 0.000000 0.000000 0.000000
# 2 -0.003621 0.014068 -0.008635 0.000000 0.000000 0.000000
# 3 -0.003269 -0.008635 0.019634 0.000000 0.000000 0.000000
# 4 0.000000 0.000000 0.000000 0.042224 0.000000 0.000000
# 5 0.000000 0.000000 0.000000 0.000000 0.105535 0.000000
# 6 0.000000 0.000000 0.000000 0.000000 0.000000 0.043764
#
#
# Mechanical properties :
#
#
# Convention : Reuss Voigt Hill
#
# Bulk Modulus (GPa) = 52.91490 57.67686 55.29588
# Shear Modulus (GPa) = 17.93280 21.12945 19.53113
#
# Velocity S-wave (km/s) = 3.19668 3.46992 3.33610
# Velocity P-wave (km/s) = 6.61648 6.99429 6.80801
#
# Compressibility (1/GPa) = 0.01889827
#
# Stress axis : x y z
#
# Youngs Moduli (GPa) = 61.55397 71.08518 50.93255
#
# Poissons Ratio (x) = 0.25739 0.16651
# Poissons Ratio (y) = 0.22288 0.43978
# Poissons Ratio (z) = 0.20123 0.61379
#
# Static dielectric constant tensor:
#      x y z
#    x 3.390890 0.000000 0.000000 
#    y 0.000000 3.087290 0.000000 
#    z 0.000000 0.000000 3.165090 
# 
# 
# High freq. dielectric constant tensor:
#      x y z
#    x 1.682970 0.000000 0.000000 
#    y 0.000000 1.664080 0.000000 
#    z 0.000000 0.000000 1.667910 
# 
# From -- ./inp_files/24337.got.cif
#   From: 2010.03.12/outbox.cif.g09.slc.cpg/sg51_13_cif.got.tgz:24337.got - 2010.04.16 13:43:02.
