data_PCOD8208967
_publ_section_title
;
Structure prediction by ZEFSAII (Michael W. Deem and Ramdas Pophale) SiO2 
 PCOD8208967
Probable space group: P M M A
;
_chemical_formula_sum "Si O2"
_cell_formula_units_Z 48
_cell_length_a 25.931976
_cell_length_b 10.326714
_cell_length_c 8.989457
_cell_angle_alpha 90.000000
_cell_angle_beta 90.000000
_cell_angle_gamma 90.000000
_cell_volume 2407.305564
_symmetry_space_group_name_H-M "P M M A"
_symmetry_group_IT_number 51
_symmetry_cell_setting 'orthorhombic'
loop_
_space_group_symop_operation_xyz
x,y,z
1/2-x,-y,z
1/2+x,-y,-z
-x,y,-z
-x,-y,-z
1/2+x,y,-z
1/2-x,y,z
x,-y,z
loop_
_atom_site_type_symbol
_atom_site_label
_atom_site_fract_x
_atom_site_fract_y
_atom_site_fract_z
Si Si1 0.806908 0.649388 0.768712
Si Si2 0.054413 0.645310 0.735668
Si Si3 0.477200 0.857644 0.336572
Si Si4 0.307317 0.857949 0.699937
Si Si5 0.847604 0.649903 0.081290
Si Si6 0.380946 0.250031 0.471078
O O1 0.750000 0.716737 0.759585
O O2 0.797321 0.500000 0.790533
O O3 0.839168 0.667918 0.618886
O O4 0.838911 0.698085 0.912679
O O5 0.031036 0.500000 0.738889
O O6 0.092419 0.667172 0.875213
O O7 0.084967 0.659424 0.579471
O O8 0.008325 0.748832 0.755655
O O9 0.500000 0.863900 0.500000
O O10 0.417027 0.822004 0.350927
O O11 0.482755 0.000000 0.260641
O O12 0.250000 0.845528 0.631181
O O13 0.313095 0.742207 0.816662
O O14 0.349767 0.852599 0.569994
O O15 0.314208 0.000000 0.775786
O O16 0.830910 0.500000 0.107193
#
# Coordination Sequence:
#
# PCOD8208967 Si02
#       6
#     8   8   8   8   8   8
#     4  10  20  34  53  79 111 144 177 216 264 315
#     4   9  18  32  53  79 103 131 172 218 261 308
#     4   9  18  32  52  76 102 134 171 213 263 314
#     4  10  20  34  53  77 104 137 179 223 264 310
#     4   9  19  36  56  78 106 141 179 219 264 314
#     4  10  19  32  52  76 107 138 173 214 264 315
#
# _framework density 19.939305999999998
#
# number of rings (size 3 to 8) (size 9 to 14) (size 15 to 20)
#    0.000    2.500    0.000    2.000    0.000    9.333 
#    0.000    2.500    0.000    8.000    0.000    0.000 
#    0.000    0.000    0.000    0.000    0.000    0.000 
#
# Total GULP energy -594880.834301 kJ/mol
# GULP energy per Si atom -12393.350715 kJ/mol
# Density = 1.989392 g / cm^3
# Si number density = 19.939306 Si / 1000 Ang^3
#
#
#
# Elastic Constant Matrix: (Units=GPa)
#
#
# Indices 1 2 3 4 5 6 
#
# 1 74.2117 27.1934 19.5522 0.0000 0.0000 0.0000
# 2 27.1934 94.7951 9.6207 0.0000 0.0000 0.0000
# 3 19.5522 9.6207 60.9874 0.0000 0.0000 0.0000
# 4 0.0000 0.0000 0.0000 11.2523 0.0000 0.0000
# 5 0.0000 0.0000 0.0000 0.0000 14.8766 0.0000
# 6 0.0000 0.0000 0.0000 0.0000 0.0000 24.2951
#
#
#
# Elastic Compliance Matrix: (Units=1/GPa)
#
#
# Indices 1 2 3 4 5 6 
#
# 1 0.016204 -0.004188 -0.004534 0.000000 0.000000 0.000000
# 2 -0.004188 0.011803 -0.000519 0.000000 0.000000 0.000000
# 3 -0.004534 -0.000519 0.017932 0.000000 0.000000 0.000000
# 4 0.000000 0.000000 0.000000 0.088871 0.000000 0.000000
# 5 0.000000 0.000000 0.000000 0.000000 0.067220 0.000000
# 6 0.000000 0.000000 0.000000 0.000000 0.000000 0.041160
#
#
# Mechanical properties :
#
#
# Convention : Reuss Voigt Hill
#
# Bulk Modulus (GPa) = 36.42144 38.08077 37.25111
# Shear Modulus (GPa) = 18.46201 21.66000 20.06100
#
# Velocity S-wave (km/s) = 3.04618 3.29948 3.17535
# Velocity P-wave (km/s) = 5.53878 5.80131 5.67156
#
# Compressibility (1/GPa) = 0.02745635
#
# Stress axis : x y z
#
# Youngs Moduli (GPa) = 61.71195 84.72251 55.76492
#
# Poissons Ratio (x) = 0.35484 0.25286
# Poissons Ratio (y) = 0.25847 0.02895
# Poissons Ratio (z) = 0.27982 0.04399
#
# Static dielectric constant tensor:
#      x y z
#    x 3.822020 0.000000 0.000000 
#    y 0.000000 3.687780 0.000000 
#    z 0.000000 0.000000 3.379280 
# 
# 
# High freq. dielectric constant tensor:
#      x y z
#    x 1.785640 0.000000 0.000000 
#    y 0.000000 1.771910 0.000000 
#    z 0.000000 0.000000 1.742760 
# 
# From -- ./inp_files/11689.got.cif
#   From: 2010.03.12/outbox.cif.g09.slc.cpg/sg51_6_cif.got.tgz:11689.got - 2010.04.16 13:43:02.
