data_PCOD8208712
_publ_section_title
;
Structure prediction by ZEFSAII (Michael W. Deem and Ramdas Pophale) SiO2 
 PCOD8208712
Probable space group: P M M A
;
_chemical_formula_sum "Si O2"
_cell_formula_units_Z 52
_cell_length_a 9.152673
_cell_length_b 10.362621
_cell_length_c 30.461077
_cell_angle_alpha 90.000000
_cell_angle_beta 90.000000
_cell_angle_gamma 90.000000
_cell_volume 2889.101605
_symmetry_space_group_name_H-M "P M M A"
_symmetry_group_IT_number 51
_symmetry_cell_setting 'orthorhombic'
loop_
_space_group_symop_operation_xyz
x,y,z
1/2-x,-y,z
1/2+x,-y,-z
-x,y,-z
-x,-y,-z
1/2+x,y,-z
1/2-x,y,z
x,-y,z
loop_
_atom_site_type_symbol
_atom_site_label
_atom_site_fract_x
_atom_site_fract_y
_atom_site_fract_z
Si Si1 0.078636 0.851524 0.117763
Si Si2 0.585568 0.845684 0.710094
Si Si3 0.913930 0.847163 0.205439
Si Si4 0.089627 0.855069 0.628222
Si Si5 0.578638 0.220976 0.546952
Si Si6 0.413145 0.500000 0.456490
Si Si7 0.920821 0.646339 0.954940
O O1 0.250000 0.838786 0.127067
O O2 0.026512 0.752859 0.080114
O O3 0.995604 0.805428 0.161242
O O4 0.039113 0.000000 0.104898
O O5 0.750000 0.790562 0.710446
O O6 0.501365 0.791891 0.752770
O O7 0.504692 0.788368 0.666832
O O8 0.590102 0.000000 0.709807
O O9 0.750000 0.789920 0.205378
O O10 0.908711 0.000000 0.208727
O O11 0.250000 0.787992 0.622466
O O12 0.001222 0.866043 0.582562
O O13 0.116888 0.000000 0.643911
O O14 0.500000 0.204072 0.500000
O O15 0.750000 0.184469 0.542146
O O16 0.556215 0.365320 0.568178
O O17 0.250000 0.500000 0.473877
O O18 0.500000 0.500000 0.500000
O O19 0.750000 0.660108 0.963539
O O20 0.959345 0.500000 0.939178
O O21 0.000000 0.679845 0.000000
#
# Coordination Sequence:
#
# PCOD8208712 Si02
#       7
#     8   8   8   8   8   4   8
#     4   9  17  29  45  67  94 122 154 193 237 283
#     4   9  16  27  44  65  90 121 154 186 223 270
#     4   9  16  26  42  66  94 120 147 184 229 273
#     4  10  20  32  45  65  94 125 156 188 224 270
#     4  10  19  32  49  68  90 116 149 188 230 275
#     4   8  16  30  48  68  86 106 138 182 224 264
#     4   9  18  32  48  66  91 125 163 199 235 279
#
# _framework density 17.998674999999999
#
# number of rings (size 3 to 8) (size 9 to 14) (size 15 to 20)
#    0.000    2.769    0.000    1.846    0.000    6.462 
#    0.000    0.000    0.000    0.000    2.000    0.000 
#    0.000    0.000    0.000    0.000    0.000    0.000 
#
# Total GULP energy -644326.403531 kJ/mol
# GULP energy per Si atom -12390.892376 kJ/mol
# Density = 1.795771 g / cm^3
# Si number density = 17.998675 Si / 1000 Ang^3
#
#
#
# Elastic Constant Matrix: (Units=GPa)
#
#
# Indices 1 2 3 4 5 6 
#
# 1 126.8710 23.8780 77.3441 0.0000 0.0000 0.0000
# 2 23.8780 42.4304 38.3398 0.0000 0.0000 0.0000
# 3 77.3441 38.3398 155.7156 0.0000 0.0000 0.0000
# 4 0.0000 0.0000 0.0000 4.3863 0.0000 0.0000
# 5 0.0000 0.0000 0.0000 0.0000 37.4893 0.0000
# 6 0.0000 0.0000 0.0000 0.0000 0.0000 13.6291
#
#
#
# Elastic Compliance Matrix: (Units=1/GPa)
#
#
# Indices 1 2 3 4 5 6 
#
# 1 0.011397 -0.001670 -0.005249 0.000000 0.000000 0.000000
# 2 -0.001670 0.030556 -0.006694 0.000000 0.000000 0.000000
# 3 -0.005249 -0.006694 0.010678 0.000000 0.000000 0.000000
# 4 0.000000 0.000000 0.000000 0.227980 0.000000 0.000000
# 5 0.000000 0.000000 0.000000 0.000000 0.026674 0.000000
# 6 0.000000 0.000000 0.000000 0.000000 0.000000 0.073372
#
#
# Mechanical properties :
#
#
# Convention : Reuss Voigt Hill
#
# Bulk Modulus (GPa) = 39.36466 67.12676 53.24571
# Shear Modulus (GPa) = 12.00905 23.46462 17.73683
#
# Velocity S-wave (km/s) = 2.58586 3.61458 3.14260
# Velocity P-wave (km/s) = 5.55283 7.40247 6.54334
#
# Compressibility (1/GPa) = 0.02540350
#
# Stress axis : x y z
#
# Youngs Moduli (GPa) = 87.74560 32.72628 93.65436
#
# Poissons Ratio (x) = 0.05466 0.49164
# Poissons Ratio (y) = 0.14654 0.62692
# Poissons Ratio (z) = 0.46062 0.21907
#
# Static dielectric constant tensor:
#      x y z
#    x 3.574880 0.000000 0.000000 
#    y 0.000000 3.132940 0.000000 
#    z 0.000000 0.000000 3.248690 
# 
# 
# High freq. dielectric constant tensor:
#      x y z
#    x 1.712940 0.000000 0.000000 
#    y 0.000000 1.648000 0.000000 
#    z 0.000000 0.000000 1.692290 
# 
# From -- ./inp_files/36235.got.cif
#   From: 2010.03.12/outbox.cif.g09.slc.cpg/sg51_19_cif.got.tgz:36235.got - 2010.04.16 13:43:02.
