data_PCOD8208235
_publ_section_title
;
Structure prediction by ZEFSAII (Michael W. Deem and Ramdas Pophale) SiO2 
 PCOD8208235
Probable space group: P M M A
;
_chemical_formula_sum "Si O2"
_cell_formula_units_Z 64
_cell_length_a 24.303763
_cell_length_b 9.291797
_cell_length_c 16.802961
_cell_angle_alpha 90.000000
_cell_angle_beta 90.000000
_cell_angle_gamma 90.000000
_cell_volume 3794.539290
_symmetry_space_group_name_H-M "P M M A"
_symmetry_group_IT_number 51
_symmetry_cell_setting 'orthorhombic'
loop_
_space_group_symop_operation_xyz
x,y,z
1/2-x,-y,z
1/2+x,-y,-z
-x,y,-z
-x,-y,-z
1/2+x,y,-z
1/2-x,y,z
x,-y,z
loop_
_atom_site_type_symbol
_atom_site_label
_atom_site_fract_x
_atom_site_fract_y
_atom_site_fract_z
Si Si1 0.686801 0.658466 0.590259
Si Si2 0.563905 0.337943 0.019705
Si Si3 0.549263 0.163204 0.340165
Si Si4 0.186097 0.831705 0.254826
Si Si5 0.123308 0.169151 0.515366
Si Si6 0.407981 0.167925 0.129907
Si Si7 0.536574 0.341027 0.577187
Si Si8 0.967486 0.837104 0.162876
O O1 0.750000 0.633772 0.602190
O O2 0.658225 0.500000 0.584929
O O3 0.665817 0.745573 0.667583
O O4 0.679630 0.748721 0.506717
O O5 0.586670 0.500000 0.025901
O O6 0.569176 0.261102 0.105060
O O7 0.500000 0.334668 0.000000
O O8 0.598515 0.254700 0.952600
O O9 0.601025 0.207530 0.396381
O O10 0.497770 0.266599 0.353195
O O11 0.563534 0.176815 0.247600
O O12 0.532171 0.000000 0.362938
O O13 0.250000 0.796927 0.230822
O O14 0.143264 0.785909 0.185460
O O15 0.179976 0.000000 0.274118
O O16 0.087038 0.237923 0.443819
O O17 0.128935 0.000000 0.503215
O O18 0.467631 0.206057 0.169215
O O19 0.404429 0.000000 0.109877
O O20 0.500000 0.354458 0.500000
O O21 0.555064 0.500000 0.605647
O O22 0.964167 0.000000 0.130980
#
# Coordination Sequence:
#
# PCOD8208235 Si02
#       8
#     8   8   8   8   8   8   8   8
#     4  10  21  35  49  67  91 119 154 196 241 284
#     4   9  17  29  44  65  92 120 151 186 223 267
#     4   9  18  30  44  66  92 122 157 193 229 272
#     4   9  18  32  49  71  96 121 155 195 231 272
#     4  10  19  31  47  64  88 120 156 194 234 278
#     4   9  17  29  47  68  91 124 156 184 226 275
#     4   9  17  28  41  60  88 120 152 186 225 268
#     4   9  17  29  45  66  94 123 155 189 226 274
#
# _framework density 16.866342
#
# number of rings (size 3 to 8) (size 9 to 14) (size 15 to 20)
#    0.000    2.750    0.000    1.500    1.750    5.250 
#    0.000    0.000    0.000    0.000    0.000    0.875 
#    0.000    3.000    0.000    0.000    0.000    0.000 
#
# Total GULP energy -792991.528074 kJ/mol
# GULP energy per Si atom -12390.492626 kJ/mol
# Density = 1.682795 g / cm^3
# Si number density = 16.866342 Si / 1000 Ang^3
#
#
#
# Elastic Constant Matrix: (Units=GPa)
#
#
# Indices 1 2 3 4 5 6 
#
# 1 44.7687 25.9297 38.5970 0.0000 0.0000 0.0000
# 2 25.9297 93.5591 58.4875 0.0000 0.0000 0.0000
# 3 38.5970 58.4875 112.7763 0.0000 0.0000 0.0000
# 4 0.0000 0.0000 0.0000 19.1961 0.0000 0.0000
# 5 0.0000 0.0000 0.0000 0.0000 25.6810 0.0000
# 6 0.0000 0.0000 0.0000 0.0000 0.0000 11.6849
#
#
#
# Elastic Compliance Matrix: (Units=1/GPa)
#
#
# Indices 1 2 3 4 5 6 
#
# 1 0.032252 -0.003016 -0.009474 0.000000 0.000000 0.000000
# 2 -0.003016 0.016098 -0.007317 0.000000 0.000000 0.000000
# 3 -0.009474 -0.007317 0.015904 0.000000 0.000000 0.000000
# 4 0.000000 0.000000 0.000000 0.052094 0.000000 0.000000
# 5 0.000000 0.000000 0.000000 0.000000 0.038939 0.000000
# 6 0.000000 0.000000 0.000000 0.000000 0.000000 0.085581
#
#
# Mechanical properties :
#
#
# Convention : Reuss Voigt Hill
#
# Bulk Modulus (GPa) = 40.58270 55.23696 47.90983
# Shear Modulus (GPa) = 17.31936 19.85172 18.58554
#
# Velocity S-wave (km/s) = 3.20794 3.43447 3.32314
# Velocity P-wave (km/s) = 6.15100 6.96766 6.57203
#
# Compressibility (1/GPa) = 0.02464104
#
# Stress axis : x y z
#
# Youngs Moduli (GPa) = 31.00615 62.11881 62.87762
#
# Poissons Ratio (x) = 0.18735 0.59569
# Poissons Ratio (y) = 0.09352 0.46005
# Poissons Ratio (z) = 0.29374 0.45449
#
# Static dielectric constant tensor:
#      x y z
#    x 3.129880 0.000000 0.000000 
#    y 0.000000 3.490850 0.000000 
#    z 0.000000 0.000000 3.126850 
# 
# 
# High freq. dielectric constant tensor:
#      x y z
#    x 1.615570 0.000000 0.000000 
#    y 0.000000 1.661940 0.000000 
#    z 0.000000 0.000000 1.638160 
# 
# From -- ./inp_files/26292.got.cif
#   From: 2010.03.12/outbox.cif.g09.slc.cpg/sg51_14_cif.got.tgz:26292.got - 2010.04.16 13:43:02.
