data_PCOD8208868
_publ_section_title
;
Structure prediction by ZEFSAII (Michael W. Deem and Ramdas Pophale) SiO2 
 PCOD8208868
Probable space group: P M M A
;
_chemical_formula_sum "Si O2"
_cell_formula_units_Z 56
_cell_length_a 22.541838
_cell_length_b 9.210478
_cell_length_c 14.910874
_cell_angle_alpha 90.000000
_cell_angle_beta 90.000000
_cell_angle_gamma 90.000000
_cell_volume 3095.812106
_symmetry_space_group_name_H-M "P M M A"
_symmetry_group_IT_number 51
_symmetry_cell_setting 'orthorhombic'
loop_
_space_group_symop_operation_xyz
x,y,z
1/2-x,-y,z
1/2+x,-y,-z
-x,y,-z
-x,-y,-z
1/2+x,y,-z
1/2-x,y,z
x,-y,z
loop_
_atom_site_type_symbol
_atom_site_label
_atom_site_fract_x
_atom_site_fract_y
_atom_site_fract_z
Si Si1 0.577528 0.671891 0.580685
Si Si2 0.414055 0.171879 0.790476
Si Si3 0.646749 0.664995 0.890421
Si Si4 0.945782 0.671804 0.381322
Si Si5 0.184481 0.672488 0.301150
Si Si6 0.317186 0.830742 0.932204
Si Si7 0.509199 0.664851 0.898743
O O1 0.580329 0.500000 0.583883
O O2 0.515001 0.720057 0.624618
O O3 0.580625 0.721093 0.477154
O O4 0.633437 0.740212 0.634615
O O5 0.407513 0.244497 0.693096
O O6 0.358995 0.224222 0.851644
O O7 0.474689 0.226853 0.834358
O O8 0.415917 0.000000 0.779715
O O9 0.666477 0.500000 0.909063
O O10 0.677517 0.728244 0.800989
O O11 0.577192 0.674529 0.872022
O O12 0.666154 0.756573 0.975139
O O13 0.939585 0.500000 0.366524
O O14 0.250000 0.718610 0.336116
O O15 0.177381 0.500000 0.300642
O O16 0.250000 0.792988 0.904923
O O17 0.326706 0.000000 0.947932
O O18 0.485159 0.500000 0.887045
O O19 0.500000 0.718151 0.000000
#
# Coordination Sequence:
#
# PCOD8208868 Si02
#       7
#     8   8   8   8   8   8   8
#     4   8  15  30  51  73  97 129 163 197 247 311
#     4  11  22  34  51  75 103 134 169 210 252 297
#     4  10  19  32  52  77 102 130 167 207 251 300
#     4   9  17  32  55  76  97 128 165 205 252 303
#     4   9  16  26  44  73 104 128 155 199 251 301
#     4  10  22  38  51  65  95 140 179 208 244 294
#     4  10  19  32  51  75 102 132 165 207 254 299
#
# _framework density 18.088951999999999
#
# number of rings (size 3 to 8) (size 9 to 14) (size 15 to 20)
#    0.000    2.429    1.429    2.571    0.000    4.571 
#    0.000    2.143    0.000    1.714    0.000    0.000 
#    0.000    0.000    0.000    0.000    0.000    0.000 
#
# Total GULP energy -694307.080628 kJ/mol
# GULP energy per Si atom -12398.340725 kJ/mol
# Density = 1.804778 g / cm^3
# Si number density = 18.088952 Si / 1000 Ang^3
#
#
#
# Elastic Constant Matrix: (Units=GPa)
#
#
# Indices 1 2 3 4 5 6 
#
# 1 109.9761 25.8706 70.8194 0.0000 0.0000 0.0000
# 2 25.8706 34.4549 36.2981 0.0000 0.0000 0.0000
# 3 70.8194 36.2981 142.4091 0.0000 0.0000 0.0000
# 4 0.0000 0.0000 0.0000 13.9632 0.0000 0.0000
# 5 0.0000 0.0000 0.0000 0.0000 25.9294 0.0000
# 6 0.0000 0.0000 0.0000 0.0000 0.0000 7.8909
#
#
#
# Elastic Compliance Matrix: (Units=1/GPa)
#
#
# Indices 1 2 3 4 5 6 
#
# 1 0.013825 -0.004290 -0.005782 0.000000 0.000000 0.000000
# 2 -0.004290 0.041009 -0.008319 0.000000 0.000000 0.000000
# 3 -0.005782 -0.008319 0.012018 0.000000 0.000000 0.000000
# 4 0.000000 0.000000 0.000000 0.071617 0.000000 0.000000
# 5 0.000000 0.000000 0.000000 0.000000 0.038566 0.000000
# 6 0.000000 0.000000 0.000000 0.000000 0.000000 0.126729
#
#
# Mechanical properties :
#
#
# Convention : Reuss Voigt Hill
#
# Bulk Modulus (GPa) = 33.25559 61.42405 47.33982
# Shear Modulus (GPa) = 14.26253 19.81348 17.03801
#
# Velocity S-wave (km/s) = 2.81101 3.31318 3.07237
# Velocity P-wave (km/s) = 5.38146 6.97614 6.23003
#
# Compressibility (1/GPa) = 0.03007013
#
# Stress axis : x y z
#
# Youngs Moduli (GPa) = 72.33169 24.38506 83.20981
#
# Poissons Ratio (x) = 0.10460 0.48111
# Poissons Ratio (y) = 0.31027 0.69225
# Poissons Ratio (z) = 0.41821 0.20287
#
# Static dielectric constant tensor:
#      x y z
#    x 3.583820 0.000000 0.000000 
#    y 0.000000 2.998320 0.000000 
#    z 0.000000 0.000000 3.515610 
# 
# 
# High freq. dielectric constant tensor:
#      x y z
#    x 1.701090 0.000000 0.000000 
#    y 0.000000 1.660640 0.000000 
#    z 0.000000 0.000000 1.707710 
# 
# From -- ./inp_files/25711.got.cif
#   From: 2010.03.12/outbox.cif.g09.slc.cpg/sg51_13_cif.got.tgz:25711.got - 2010.04.16 13:43:02.
