data_PCOD8208752
_publ_section_title
;
Structure prediction by ZEFSAII (Michael W. Deem and Ramdas Pophale) SiO2 
 PCOD8208752
Probable space group: P M M A
;
_chemical_formula_sum "Si O2"
_cell_formula_units_Z 64
_cell_length_a 17.585679
_cell_length_b 9.078353
_cell_length_c 23.088918
_cell_angle_alpha 90.000000
_cell_angle_beta 90.000000
_cell_angle_gamma 90.000000
_cell_volume 3686.122709
_symmetry_space_group_name_H-M "P M M A"
_symmetry_group_IT_number 51
_symmetry_cell_setting 'orthorhombic'
loop_
_space_group_symop_operation_xyz
x,y,z
1/2-x,-y,z
1/2+x,-y,-z
-x,y,-z
-x,-y,-z
1/2+x,y,-z
1/2-x,y,z
x,-y,z
loop_
_atom_site_type_symbol
_atom_site_label
_atom_site_fract_x
_atom_site_fract_y
_atom_site_fract_z
Si Si1 0.972877 0.827027 0.741283
Si Si2 0.573395 0.334794 0.039864
Si Si3 0.448940 0.825850 0.626367
Si Si4 0.089801 0.673079 0.430496
Si Si5 0.978998 0.174445 0.869817
Si Si6 0.165458 0.830845 0.332229
Si Si7 0.336838 0.827978 0.052831
Si Si8 0.336654 0.328859 0.551808
O O1 0.985007 0.758255 0.804800
O O2 0.891010 0.774236 0.717637
O O3 0.036482 0.781019 0.693717
O O4 0.972438 0.000000 0.749955
O O5 0.598596 0.500000 0.056599
O O6 0.550469 0.245292 0.097144
O O7 0.500000 0.336737 0.000000
O O8 0.642846 0.256725 0.006494
O O9 0.512235 0.755902 0.584591
O O10 0.367735 0.762802 0.606701
O O11 0.451584 0.000000 0.618835
O O12 0.077876 0.500000 0.421673
O O13 0.156905 0.730728 0.389042
O O14 0.113523 0.710461 0.495745
O O15 0.896347 0.218101 0.896585
O O16 0.989581 0.000000 0.872085
O O17 0.250000 0.815186 0.307457
O O18 0.146107 0.000000 0.349036
O O19 0.250000 0.788365 0.071473
O O20 0.344721 0.000000 0.039460
O O21 0.250000 0.281843 0.540558
O O22 0.342822 0.500000 0.567027
#
# Coordination Sequence:
#
# PCOD8208752 Si02
#       8
#     8   8   8   8   8   8   8   8
#     4   8  16  30  47  68  93 123 158 193 231 272
#     4   9  17  29  45  66  93 124 155 186 223 265
#     4  10  20  34  51  72  97 124 157 196 237 283
#     4  10  19  32  50  70  94 125 159 193 234 287
#     4   9  16  29  49  69  92 124 160 195 227 265
#     4   9  17  29  45  67  97 129 159 193 232 276
#     4   9  17  28  45  72 100 123 151 187 226 269
#     4  10  21  35  50  70  95 122 154 195 244 293
#
# _framework density 17.362418000000002
#
# number of rings (size 3 to 8) (size 9 to 14) (size 15 to 20)
#    0.000    2.750    0.000    2.625    0.000    5.750 
#    0.000    5.625    0.000    0.750    0.000    7.000 
#    0.000    0.000    0.000    0.000    0.000    0.000 
#
# Total GULP energy -793334.655962 kJ/mol
# GULP energy per Si atom -12395.853999 kJ/mol
# Density = 1.732290 g / cm^3
# Si number density = 17.362418 Si / 1000 Ang^3
#
#
#
# Elastic Constant Matrix: (Units=GPa)
#
#
# Indices 1 2 3 4 5 6 
#
# 1 59.2687 34.8672 47.3039 0.0000 0.0000 0.0000
# 2 34.8672 55.6729 47.5201 0.0000 0.0000 0.0000
# 3 47.3039 47.5201 131.0707 0.0000 0.0000 0.0000
# 4 0.0000 0.0000 0.0000 11.5439 0.0000 0.0000
# 5 0.0000 0.0000 0.0000 0.0000 15.3148 0.0000
# 6 0.0000 0.0000 0.0000 0.0000 0.0000 23.9091
#
#
#
# Elastic Compliance Matrix: (Units=1/GPa)
#
#
# Indices 1 2 3 4 5 6 
#
# 1 0.029384 -0.013542 -0.005695 0.000000 0.000000 0.000000
# 2 -0.013542 0.032252 -0.006806 0.000000 0.000000 0.000000
# 3 -0.005695 -0.006806 0.012152 0.000000 0.000000 0.000000
# 4 0.000000 0.000000 0.000000 0.086626 0.000000 0.000000
# 5 0.000000 0.000000 0.000000 0.000000 0.065296 0.000000
# 6 0.000000 0.000000 0.000000 0.000000 0.000000 0.041825
#
#
# Mechanical properties :
#
#
# Convention : Reuss Voigt Hill
#
# Bulk Modulus (GPa) = 46.07625 56.15497 51.11561
# Shear Modulus (GPa) = 15.29721 17.90829 16.60275
#
# Velocity S-wave (km/s) = 2.97147 3.21509 3.09568
# Velocity P-wave (km/s) = 6.19422 6.79672 6.50245
#
# Compressibility (1/GPa) = 0.02170316
#
# Stress axis : x y z
#
# Youngs Moduli (GPa) = 34.03168 31.00551 82.28795
#
# Poissons Ratio (x) = 0.41987 0.46866
# Poissons Ratio (y) = 0.46085 0.56005
# Poissons Ratio (z) = 0.19382 0.21102
#
# Static dielectric constant tensor:
#      x y z
#    x 3.192990 0.000000 0.000000 
#    y 0.000000 3.197580 0.000000 
#    z 0.000000 0.000000 3.374800 
# 
# 
# High freq. dielectric constant tensor:
#      x y z
#    x 1.657140 0.000000 0.000000 
#    y 0.000000 1.660820 0.000000 
#    z 0.000000 0.000000 1.659410 
# 
# From -- ./inp_files/35917.got.cif
#   From: 2010.03.12/outbox.cif.g09.slc.cpg/sg51_18_cif.got.tgz:35917.got - 2010.04.16 13:43:02.
