data_PCOD8208944
_publ_section_title
;
Structure prediction by ZEFSAII (Michael W. Deem and Ramdas Pophale) SiO2 
 PCOD8208944
Probable space group: P M M A
;
_chemical_formula_sum "Si O2"
_cell_formula_units_Z 64
_cell_length_a 14.543690
_cell_length_b 9.407290
_cell_length_c 25.044998
_cell_angle_alpha 90.000000
_cell_angle_beta 90.000000
_cell_angle_gamma 90.000000
_cell_volume 3426.574216
_symmetry_space_group_name_H-M "P M M A"
_symmetry_group_IT_number 51
_symmetry_cell_setting 'orthorhombic'
loop_
_space_group_symop_operation_xyz
x,y,z
1/2-x,-y,z
1/2+x,-y,-z
-x,y,-z
-x,-y,-z
1/2+x,y,-z
1/2-x,y,z
x,-y,z
loop_
_atom_site_type_symbol
_atom_site_label
_atom_site_fract_x
_atom_site_fract_y
_atom_site_fract_z
Si Si1 0.955968 0.164680 0.118972
Si Si2 0.352266 0.838317 0.077495
Si Si3 0.463395 0.833692 0.672422
Si Si4 0.598477 0.337203 0.520259
Si Si5 0.648419 0.164204 0.623948
Si Si6 0.149950 0.340841 0.594115
Si Si7 0.644695 0.169139 0.225277
Si Si8 0.355321 0.664662 0.971468
O O1 0.908584 0.223238 0.172715
O O2 0.919394 0.255344 0.069982
O O3 0.067380 0.183878 0.121749
O O4 0.929553 0.000000 0.110085
O O5 0.250000 0.809207 0.102181
O O6 0.356986 0.000000 0.055592
O O7 0.371660 0.731762 0.029268
O O8 0.572487 0.797169 0.669445
O O9 0.420414 0.769667 0.618970
O O10 0.413747 0.768738 0.724774
O O11 0.444888 0.000000 0.671400
O O12 0.500000 0.282960 0.500000
O O13 0.593837 0.500000 0.539669
O O14 0.635589 0.248110 0.569368
O O15 0.663785 0.316942 0.469120
O O16 0.750000 0.197294 0.647558
O O17 0.638099 0.000000 0.608574
O O18 0.250000 0.320301 0.620834
O O19 0.111977 0.500000 0.604723
O O20 0.750000 0.226676 0.226187
O O21 0.644982 0.000000 0.226818
O O22 0.250000 0.683290 0.953346
O O23 0.383758 0.500000 0.974171
#
# Coordination Sequence:
#
# PCOD8208944 Si02
#       8
#     8   8   8   8   8   8   8   8
#     4  10  19  32  52  75  99 132 172 211 252 297
#     4   9  18  32  49  72 103 136 170 207 247 293
#     4  10  20  35  54  73  97 130 169 207 247 298
#     4  10  19  33  53  75 101 133 167 202 244 298
#     4  10  21  35  51  74 104 135 168 208 252 297
#     4  10  20  33  50  74 102 129 160 201 248 296
#     4   9  18  33  53  76  99 125 163 210 256 301
#     4  10  20  32  48  74 107 139 170 205 249 301
#
# _framework density 18.677548000000002
#
# number of rings (size 3 to 8) (size 9 to 14) (size 15 to 20)
#    0.000    2.250    1.250    1.875    0.000    5.500 
#    0.000    1.250    0.000    6.000    0.000    0.000 
#    0.000    4.000    0.000    0.000    0.000    0.000 
#
# Total GULP energy -793255.580860 kJ/mol
# GULP energy per Si atom -12394.618451 kJ/mol
# Density = 1.863504 g / cm^3
# Si number density = 18.677548 Si / 1000 Ang^3
#
#
#
# Elastic Constant Matrix: (Units=GPa)
#
#
# Indices 1 2 3 4 5 6 
#
# 1 159.2989 38.6225 69.2794 0.0000 0.0000 0.0000
# 2 38.6225 46.0161 25.2352 0.0000 0.0000 0.0000
# 3 69.2794 25.2352 77.6010 0.0000 0.0000 0.0000
# 4 0.0000 0.0000 0.0000 -2.8302 0.0000 0.0000
# 5 0.0000 0.0000 0.0000 0.0000 29.9674 0.0000
# 6 0.0000 0.0000 0.0000 0.0000 0.0000 18.7303
#
#
#
# Elastic Compliance Matrix: (Units=1/GPa)
#
#
# Indices 1 2 3 4 5 6 
#
# 1 0.011038 -0.004698 -0.008326 0.000000 0.000000 0.000000
# 2 -0.004698 0.028448 -0.005057 0.000000 0.000000 0.000000
# 3 -0.008326 -0.005057 0.021964 0.000000 0.000000 0.000000
# 4 0.000000 0.000000 0.000000 -0.353335 0.000000 0.000000
# 5 0.000000 0.000000 0.000000 0.000000 0.033370 0.000000
# 6 0.000000 0.000000 0.000000 0.000000 0.000000 0.053389
#
#
# Mechanical properties :
#
#
# Convention : Reuss Voigt Hill
#
# Bulk Modulus (GPa) = 39.54505 61.02113 50.28309
# Shear Modulus (GPa) = -31.14580 19.15878 -5.99351
#
# Velocity S-wave (km/s) = -4.08800 3.20623 -1.79329
# Velocity P-wave (km/s) = 1.03143 6.81530 4.76364
#
# Compressibility (1/GPa) = 0.02528761
#
# Stress axis : x y z
#
# Youngs Moduli (GPa) = 90.59874 35.15208 45.52858
#
# Poissons Ratio (x) = 0.16515 0.37908
# Poissons Ratio (y) = 0.42564 0.23022
# Poissons Ratio (z) = 0.75435 0.17775
#
# Static dielectric constant tensor:
#      x y z
#    x 3.900820 0.000000 0.000000 
#    y 0.000000 3.247170 0.000000 
#    z 0.000000 0.000000 3.292170 
# 
# 
# High freq. dielectric constant tensor:
#      x y z
#    x 1.748010 0.000000 0.000000 
#    y 0.000000 1.704480 0.000000 
#    z 0.000000 0.000000 1.695050 
# 
# From -- ./inp_files/35728.got.cif
#   From: 2010.03.12/outbox.cif.g09.slc.cpg/sg51_18_cif.got.tgz:35728.got - 2010.04.16 13:43:02.
