data_PCOD8208881
_publ_section_title
;
Structure prediction by ZEFSAII (Michael W. Deem and Ramdas Pophale) SiO2 
 PCOD8208881
Probable space group: P M M A
;
_chemical_formula_sum "Si O2"
_cell_formula_units_Z 64
_cell_length_a 24.500452
_cell_length_b 9.290252
_cell_length_c 14.863346
_cell_angle_alpha 90.000000
_cell_angle_beta 90.000000
_cell_angle_gamma 90.000000
_cell_volume 3383.126047
_symmetry_space_group_name_H-M "P M M A"
_symmetry_group_IT_number 51
_symmetry_cell_setting 'orthorhombic'
loop_
_space_group_symop_operation_xyz
x,y,z
1/2-x,-y,z
1/2+x,-y,-z
-x,y,-z
-x,-y,-z
1/2+x,y,-z
1/2-x,y,z
x,-y,z
loop_
_atom_site_type_symbol
_atom_site_label
_atom_site_fract_x
_atom_site_fract_y
_atom_site_fract_z
Si Si1 0.186692 0.335964 0.148763
Si Si2 0.650649 0.338950 0.534942
Si Si3 0.311212 0.835963 0.627119
Si Si4 0.509335 0.163252 0.271959
Si Si5 0.885484 0.171972 0.713801
Si Si6 0.459191 0.342696 0.568992
Si Si7 0.688686 0.332949 0.059344
Si Si8 0.120901 0.834386 0.798384
O O1 0.250000 0.311602 0.171932
O O2 0.170037 0.500000 0.173136
O O3 0.151531 0.221684 0.203824
O O4 0.175127 0.304963 0.044624
O O5 0.673652 0.500000 0.559753
O O6 0.689861 0.252839 0.467017
O O7 0.637182 0.248907 0.624585
O O8 0.597727 0.360954 0.476909
O O9 0.250000 0.826325 0.666800
O O10 0.352563 0.775738 0.704219
O O11 0.327315 0.000000 0.602863
O O12 0.447710 0.223285 0.260408
O O13 0.544453 0.242100 0.346632
O O14 0.554136 0.180458 0.192012
O O15 0.502863 0.000000 0.301720
O O16 0.881462 0.000000 0.702334
O O17 0.500000 0.265639 0.500000
O O18 0.482380 0.500000 0.597254
O O19 0.750000 0.278828 0.080911
O O20 0.683829 0.500000 0.082588
O O21 0.644646 0.249654 0.117487
O O22 0.138325 0.000000 0.806922
#
# Coordination Sequence:
#
# PCOD8208881 Si02
#       8
#     8   8   8   8   8   8   8   8
#     4   9  20  41  65  85 108 140 179 227 280 330
#     4  11  22  35  53  77 107 145 186 228 275 324
#     4  10  21  36  53  76 109 148 189 232 276 325
#     4  10  21  35  53  79 113 149 184 222 270 325
#     4  11  23  37  57  85 113 145 185 229 276 326
#     4  10  19  32  51  76 104 137 183 232 270 309
#     4   9  19  37  61  87 111 138 179 229 278 329
#     4  10  20  35  56  82 113 148 183 222 272 328
#
# _framework density 18.917414999999998
#
# number of rings (size 3 to 8) (size 9 to 14) (size 15 to 20)
#    0.000    2.000    2.500    1.875    0.000    4.500 
#    0.000    1.875    0.000    3.750    0.000    0.000 
#    0.000    0.000    0.000    0.000    0.000    0.000 
#
# Total GULP energy -792945.868203 kJ/mol
# GULP energy per Si atom -12389.779191 kJ/mol
# Density = 1.887436 g / cm^3
# Si number density = 18.917415 Si / 1000 Ang^3
#
#
#
# Elastic Constant Matrix: (Units=GPa)
#
#
# Indices 1 2 3 4 5 6 
#
# 1 86.5681 32.2056 45.2222 0.0000 0.0000 0.0000
# 2 32.2056 63.8690 47.5373 0.0000 0.0000 0.0000
# 3 45.2222 47.5373 89.0163 0.0000 0.0000 0.0000
# 4 0.0000 0.0000 0.0000 38.7025 0.0000 0.0000
# 5 0.0000 0.0000 0.0000 0.0000 26.5708 0.0000
# 6 0.0000 0.0000 0.0000 0.0000 0.0000 26.9662
#
#
#
# Elastic Compliance Matrix: (Units=1/GPa)
#
#
# Indices 1 2 3 4 5 6 
#
# 1 0.016153 -0.003381 -0.006400 0.000000 0.000000 0.000000
# 2 -0.003381 0.026694 -0.012537 0.000000 0.000000 0.000000
# 3 -0.006400 -0.012537 0.021181 0.000000 0.000000 0.000000
# 4 0.000000 0.000000 0.000000 0.025838 0.000000 0.000000
# 5 0.000000 0.000000 0.000000 0.000000 0.037635 0.000000
# 6 0.000000 0.000000 0.000000 0.000000 0.000000 0.037084
#
#
# Mechanical properties :
#
#
# Convention : Reuss Voigt Hill
#
# Bulk Modulus (GPa) = 51.57504 54.37596 52.97550
# Shear Modulus (GPa) = 23.18193 26.08044 24.63118
#
# Velocity S-wave (km/s) = 3.50441 3.71704 3.61229
# Velocity P-wave (km/s) = 6.61037 6.87227 6.74259
#
# Compressibility (1/GPa) = 0.01938922
#
# Stress axis : x y z
#
# Youngs Moduli (GPa) = 61.90790 37.46227 47.21282
#
# Poissons Ratio (x) = 0.12667 0.30218
# Poissons Ratio (y) = 0.20933 0.59192
# Poissons Ratio (z) = 0.39623 0.46968
#
# Static dielectric constant tensor:
#      x y z
#    x 3.538140 0.000000 0.000000 
#    y 0.000000 3.666220 0.000000 
#    z 0.000000 0.000000 3.228730 
# 
# 
# High freq. dielectric constant tensor:
#      x y z
#    x 1.742220 0.000000 0.000000 
#    y 0.000000 1.734570 0.000000 
#    z 0.000000 0.000000 1.715580 
# 
# From -- ./inp_files/26319.got.cif
#   From: 2010.03.12/outbox.cif.g09.slc.cpg/sg51_14_cif.got.tgz:26319.got - 2010.04.16 13:43:02.
