data_PCOD8208341
_publ_section_title
;
Structure prediction by ZEFSAII (Michael W. Deem and Ramdas Pophale) SiO2 
 PCOD8208341
Probable space group: P M M A
;
_chemical_formula_sum "Si O2"
_cell_formula_units_Z 40
_cell_length_a 14.586561
_cell_length_b 9.115943
_cell_length_c 15.971612
_cell_angle_alpha 90.000000
_cell_angle_beta 90.000000
_cell_angle_gamma 90.000000
_cell_volume 2123.749379
_symmetry_space_group_name_H-M "P M M A"
_symmetry_group_IT_number 51
_symmetry_cell_setting 'orthorhombic'
loop_
_space_group_symop_operation_xyz
x,y,z
1/2-x,-y,z
1/2+x,-y,-z
-x,y,-z
-x,-y,-z
1/2+x,y,-z
1/2-x,y,z
x,-y,z
loop_
_atom_site_type_symbol
_atom_site_label
_atom_site_fract_x
_atom_site_fract_y
_atom_site_fract_z
Si Si1 0.975942 0.173571 0.869779
Si Si2 0.646872 0.173344 0.024855
Si Si3 0.348690 0.665398 0.608848
Si Si4 0.969718 0.673458 0.696971
Si Si5 0.598156 0.164630 0.543030
O O1 0.948510 0.258817 0.786595
O O2 0.077301 0.224509 0.901498
O O3 0.975071 0.000000 0.853369
O O4 0.898275 0.219392 0.936682
O O5 0.750000 0.241463 0.034836
O O6 0.654087 0.000000 0.028049
O O7 0.250000 0.672809 0.655390
O O8 0.373635 0.500000 0.581111
O O9 0.426499 0.720997 0.672397
O O10 0.336495 0.760079 0.524690
O O11 0.955164 0.500000 0.700033
O O12 0.900826 0.743146 0.629012
O O13 0.500000 0.165119 0.500000
O O14 0.631988 0.000000 0.562662
#
# Coordination Sequence:
#
# PCOD8208341 Si02
#       5
#     8   8   8   8   8
#     4   9  17  30  50  74  96 122 160 201 240 287
#     4   8  15  30  51  72  95 124 157 196 244 293
#     4   9  18  32  48  67  94 127 160 194 237 290
#     4  10  19  31  48  69  96 129 159 191 238 290
#     4   9  17  30  48  68  90 119 157 197 233 272
#
# _framework density 18.834613000000001
#
# number of rings (size 3 to 8) (size 9 to 14) (size 15 to 20)
#    0.000    3.000    0.000    2.400    0.000    4.400 
#    0.000    3.000    0.000    5.400    0.000    0.000 
#    0.000    0.000    0.000    0.000    0.000    0.000 
#
# Total GULP energy -495701.853776 kJ/mol
# GULP energy per Si atom -12392.546344 kJ/mol
# Density = 1.879174 g / cm^3
# Si number density = 18.834613 Si / 1000 Ang^3
#
#
#
# Elastic Constant Matrix: (Units=GPa)
#
#
# Indices 1 2 3 4 5 6 
#
# 1 55.0465 -3.0992 -10.6041 0.0000 0.0000 0.0000
# 2 -3.0992 65.4551 27.0504 0.0000 0.0000 0.0000
# 3 -10.6041 27.0504 84.0897 0.0000 0.0000 0.0000
# 4 0.0000 0.0000 0.0000 21.5388 0.0000 0.0000
# 5 0.0000 0.0000 0.0000 0.0000 15.2566 0.0000
# 6 0.0000 0.0000 0.0000 0.0000 0.0000 11.2214
#
#
#
# Elastic Compliance Matrix: (Units=1/GPa)
#
#
# Indices 1 2 3 4 5 6 
#
# 1 0.018619 -0.000102 0.002381 0.000000 0.000000 0.000000
# 2 -0.000102 0.017621 -0.005681 0.000000 0.000000 0.000000
# 3 0.002381 -0.005681 0.014020 0.000000 0.000000 0.000000
# 4 0.000000 0.000000 0.000000 0.046428 0.000000 0.000000
# 5 0.000000 0.000000 0.000000 0.000000 0.065545 0.000000
# 6 0.000000 0.000000 0.000000 0.000000 0.000000 0.089115
#
#
# Mechanical properties :
#
#
# Convention : Reuss Voigt Hill
#
# Bulk Modulus (GPa) = 23.01254 25.69839 24.35547
# Shear Modulus (GPa) = 18.33932 22.35298 20.34615
#
# Velocity S-wave (km/s) = 3.12381 3.44874 3.29029
# Velocity P-wave (km/s) = 5.02550 5.43436 5.23392
#
# Compressibility (1/GPa) = 0.04345457
#
# Stress axis : x y z
#
# Youngs Moduli (GPa) = 53.70756 56.75153 71.32737
#
# Poissons Ratio (x) = 0.00581 -0.16982
# Poissons Ratio (y) = 0.00550 0.40523
# Poissons Ratio (z) = -0.12787 0.32242
#
# Static dielectric constant tensor:
#      x y z
#    x 3.606840 0.000000 0.000000 
#    y 0.000000 3.289730 0.000000 
#    z 0.000000 0.000000 3.314460 
# 
# 
# High freq. dielectric constant tensor:
#      x y z
#    x 1.724360 0.000000 0.000000 
#    y 0.000000 1.711000 0.000000 
#    z 0.000000 0.000000 1.719760 
# 
# From -- ./inp_files/23697.got.cif
#   From: 2010.03.12/outbox.cif.g09.slc.cpg/sg51_12_cif.got.tgz:23697.got - 2010.04.16 13:43:02.
