data_PCOD8208910
_publ_section_title
;
Structure prediction by ZEFSAII (Michael W. Deem and Ramdas Pophale) SiO2 
 PCOD8208910
Probable space group: P M M A
;
_chemical_formula_sum "Si O2"
_cell_formula_units_Z 56
_cell_length_a 8.985793
_cell_length_b 18.881900
_cell_length_c 18.904874
_cell_angle_alpha 90.000000
_cell_angle_beta 90.000000
_cell_angle_gamma 90.000000
_cell_volume 3207.568134
_symmetry_space_group_name_H-M "P M M A"
_symmetry_group_IT_number 51
_symmetry_cell_setting 'orthorhombic'
loop_
_space_group_symop_operation_xyz
x,y,z
1/2-x,-y,z
1/2+x,-y,-z
-x,y,-z
-x,-y,-z
1/2+x,y,-z
1/2-x,y,z
x,-y,z
loop_
_atom_site_type_symbol
_atom_site_label
_atom_site_fract_x
_atom_site_fract_y
_atom_site_fract_z
Si Si1 0.926324 0.281682 0.206373
Si Si2 0.925750 0.839209 0.712139
Si Si3 0.425176 0.077165 0.150923
Si Si4 0.573582 0.422213 0.280774
Si Si5 0.925316 0.080775 0.571855
Si Si6 0.912533 0.583477 0.434526
Si Si7 0.572726 0.785444 0.926368
O O1 0.750000 0.271291 0.197194
O O2 0.970460 0.362576 0.224391
O O3 0.984478 0.232212 0.270217
O O4 0.010652 0.266504 0.133500
O O5 0.750000 0.822988 0.714882
O O6 0.969718 0.897640 0.770711
O O7 0.977034 0.869289 0.636406
O O8 0.250000 0.070113 0.146099
O O9 0.478789 0.134426 0.092949
O O10 0.498803 0.000000 0.136031
O O11 0.750000 0.426114 0.290299
O O12 0.514571 0.500000 0.255940
O O13 0.508086 0.402262 0.358570
O O14 0.750000 0.084733 0.562368
O O15 0.000000 0.109132 0.500000
O O16 0.975748 0.000000 0.587497
O O17 0.750000 0.618975 0.435648
O O18 0.898935 0.500000 0.446240
O O19 0.000000 0.618713 0.500000
O O20 0.750000 0.778005 0.929926
O O21 0.500000 0.763135 0.000000
#
# Coordination Sequence:
#
# PCOD8208910 Si02
#       7
#     8   8   8   8   8   8   8
#     4  10  19  32  52  74  95 121 155 193 233 282
#     4   9  17  30  47  66  93 127 160 196 238 285
#     4   8  14  26  46  70  93 120 154 189 225 266
#     4   8  15  29  49  71  94 122 156 194 237 283
#     4   9  17  29  46  67  91 124 167 212 254 290
#     4   8  13  23  40  62  88 116 146 180 219 264
#     4  10  20  34  52  73  99 128 156 187 225 273
#
# _framework density 17.45871
#
# number of rings (size 3 to 8) (size 9 to 14) (size 15 to 20)
#    0.000    3.143    0.000    3.000    0.000    2.571 
#    0.000    2.143    0.000   21.000    0.000    0.000 
#    0.000    0.000    0.000    0.000    0.000    0.000 
#
# Total GULP energy -693982.757832 kJ/mol
# GULP energy per Si atom -12392.549247 kJ/mol
# Density = 1.741897 g / cm^3
# Si number density = 17.458710 Si / 1000 Ang^3
#
#
#
# Elastic Constant Matrix: (Units=GPa)
#
#
# Indices 1 2 3 4 5 6 
#
# 1 52.1040 31.8629 42.7209 0.0000 0.0000 0.0000
# 2 31.8629 108.1594 67.0143 0.0000 0.0000 0.0000
# 3 42.7209 67.0143 140.2772 0.0000 0.0000 0.0000
# 4 0.0000 0.0000 0.0000 22.0928 0.0000 0.0000
# 5 0.0000 0.0000 0.0000 0.0000 28.1677 0.0000
# 6 0.0000 0.0000 0.0000 0.0000 0.0000 16.9563
#
#
#
# Elastic Compliance Matrix: (Units=1/GPa)
#
#
# Indices 1 2 3 4 5 6 
#
# 1 0.026759 -0.004025 -0.006226 0.000000 0.000000 0.000000
# 2 -0.004025 0.013738 -0.005337 0.000000 0.000000 0.000000
# 3 -0.006226 -0.005337 0.011575 0.000000 0.000000 0.000000
# 4 0.000000 0.000000 0.000000 0.045264 0.000000 0.000000
# 5 0.000000 0.000000 0.000000 0.000000 0.035502 0.000000
# 6 0.000000 0.000000 0.000000 0.000000 0.000000 0.058975
#
#
# Mechanical properties :
#
#
# Convention : Reuss Voigt Hill
#
# Bulk Modulus (GPa) = 47.86001 64.85965 56.35983
# Shear Modulus (GPa) = 21.74336 24.03952 22.89144
#
# Velocity S-wave (km/s) = 3.53287 3.71473 3.62494
# Velocity P-wave (km/s) = 6.64186 7.45855 7.06202
#
# Compressibility (1/GPa) = 0.02089427
#
# Stress axis : x y z
#
# Youngs Moduli (GPa) = 37.37053 72.78890 86.39481
#
# Poissons Ratio (x) = 0.29299 0.53793
# Poissons Ratio (y) = 0.15042 0.46112
# Poissons Ratio (z) = 0.23268 0.38850
#
# Static dielectric constant tensor:
#      x y z
#    x 3.081140 0.000000 0.000000 
#    y 0.000000 3.303790 0.000000 
#    z 0.000000 0.000000 3.266890 
# 
# 
# High freq. dielectric constant tensor:
#      x y z
#    x 1.649760 0.000000 0.000000 
#    y 0.000000 1.654250 0.000000 
#    z 0.000000 0.000000 1.672910 
# 
# From -- ./inp_files/28185.got.cif
#   From: 2010.03.12/outbox.cif.g09.slc.cpg/sg51_15_cif.got.tgz:28185.got - 2010.04.16 13:43:02.
