data_PCOD8208360
_publ_section_title
;
Structure prediction by ZEFSAII (Michael W. Deem and Ramdas Pophale) SiO2 
 PCOD8208360
Probable space group: P M M A
;
_chemical_formula_sum "Si O2"
_cell_formula_units_Z 48
_cell_length_a 8.968412
_cell_length_b 23.268326
_cell_length_c 13.744794
_cell_angle_alpha 90.000000
_cell_angle_beta 90.000000
_cell_angle_gamma 90.000000
_cell_volume 2868.262706
_symmetry_space_group_name_H-M "P M M A"
_symmetry_group_IT_number 51
_symmetry_cell_setting 'orthorhombic'
loop_
_space_group_symop_operation_xyz
x,y,z
1/2-x,-y,z
1/2+x,-y,-z
-x,y,-z
-x,-y,-z
1/2+x,y,-z
1/2-x,y,z
x,-y,z
loop_
_atom_site_type_symbol
_atom_site_label
_atom_site_fract_x
_atom_site_fract_y
_atom_site_fract_z
Si Si1 0.423929 0.270146 0.603252
Si Si2 0.074458 0.841392 0.725939
Si Si3 0.077525 0.932900 0.399522
Si Si4 0.577251 0.668538 0.770526
Si Si5 0.924356 0.779205 0.896118
Si Si6 0.075159 0.435239 0.100065
O O1 0.500000 0.275895 0.500000
O O2 0.250000 0.278527 0.589313
O O3 0.464019 0.208497 0.648846
O O4 0.482773 0.320381 0.673642
O O5 0.250000 0.848939 0.740642
O O6 0.003225 0.900292 0.688076
O O7 0.999460 0.827594 0.828965
O O8 0.250000 0.914810 0.405874
O O9 0.000000 0.915048 0.500000
O O10 0.058237 0.000000 0.378347
O O11 0.750000 0.668227 0.740973
O O12 0.544769 0.716607 0.851539
O O13 0.524741 0.607403 0.813977
O O14 0.750000 0.792406 0.905468
O O15 0.000000 0.782117 0.000000
O O16 0.250000 0.430093 0.082725
O O17 0.027587 0.500000 0.129225
O O18 0.000000 0.415900 0.000000
#
# Coordination Sequence:
#
# PCOD8208360 Si02
#       6
#     8   8   8   8   8   8
#     4  10  20  32  48  70  95 123 155 193 235 280
#     4  10  20  33  50  72  97 126 159 194 235 281
#     4  10  20  33  50  73 100 129 160 194 233 277
#     4   9  18  31  47  68  95 126 157 192 234 278
#     4  10  19  31  48  70  97 127 159 195 235 280
#     4   9  17  29  46  69  96 125 156 191 232 277
#
# _framework density 16.734869
#
# number of rings (size 3 to 8) (size 9 to 14) (size 15 to 20)
#    0.000    2.333    0.000    3.000    0.000    5.667 
#    0.000    0.000    0.000    1.000    0.000    0.000 
#    0.000    0.000    0.000    0.000    0.000    0.000 
#
# Total GULP energy -595359.347886 kJ/mol
# GULP energy per Si atom -12403.319748 kJ/mol
# Density = 1.669678 g / cm^3
# Si number density = 16.734869 Si / 1000 Ang^3
#
#
#
# Elastic Constant Matrix: (Units=GPa)
#
#
# Indices 1 2 3 4 5 6 
#
# 1 93.5986 43.8118 69.0428 0.0000 0.0000 0.0000
# 2 43.8118 69.4944 51.2129 0.0000 0.0000 0.0000
# 3 69.0428 51.2129 137.2995 0.0000 0.0000 0.0000
# 4 0.0000 0.0000 0.0000 28.0581 0.0000 0.0000
# 5 0.0000 0.0000 0.0000 0.0000 35.9859 0.0000
# 6 0.0000 0.0000 0.0000 0.0000 0.0000 23.0733
#
#
#
# Elastic Compliance Matrix: (Units=1/GPa)
#
#
# Indices 1 2 3 4 5 6 
#
# 1 0.019081 -0.006838 -0.007045 0.000000 0.000000 0.000000
# 2 -0.006838 0.022295 -0.004877 0.000000 0.000000 0.000000
# 3 -0.007045 -0.004877 0.012645 0.000000 0.000000 0.000000
# 4 0.000000 0.000000 0.000000 0.035640 0.000000 0.000000
# 5 0.000000 0.000000 0.000000 0.000000 0.027789 0.000000
# 6 0.000000 0.000000 0.000000 0.000000 0.000000 0.043340
#
#
# Mechanical properties :
#
#
# Convention : Reuss Voigt Hill
#
# Bulk Modulus (GPa) = 60.60227 69.83638 65.21933
# Shear Modulus (GPa) = 24.53259 26.51182 25.52220
#
# Velocity S-wave (km/s) = 3.83293 3.98455 3.90948
# Velocity P-wave (km/s) = 7.47531 7.93666 7.70944
#
# Compressibility (1/GPa) = 0.01650103
#
# Stress axis : x y z
#
# Youngs Moduli (GPa) = 52.40793 44.85321 79.08200
#
# Poissons Ratio (x) = 0.30671 0.55710
# Poissons Ratio (y) = 0.35837 0.38572
# Poissons Ratio (z) = 0.36919 0.21877
#
# Static dielectric constant tensor:
#      x y z
#    x 3.302060 0.000000 0.000000 
#    y 0.000000 3.165560 0.000000 
#    z 0.000000 0.000000 3.012360 
# 
# 
# High freq. dielectric constant tensor:
#      x y z
#    x 1.658280 0.000000 0.000000 
#    y 0.000000 1.633050 0.000000 
#    z 0.000000 0.000000 1.637290 
# 
# From -- ./inp_files/14401.got.cif
#   From: 2010.03.12/outbox.cif.g09.slc.cpg/sg51_8_cif.got.tgz:14401.got - 2010.04.16 13:43:02.
