data_PCOD8208848
_publ_section_title
;
Structure prediction by ZEFSAII (Michael W. Deem and Ramdas Pophale) SiO2 
 PCOD8208848
Probable space group: P M M A
;
_chemical_formula_sum "Si O2"
_cell_formula_units_Z 64
_cell_length_a 17.437928
_cell_length_b 8.829424
_cell_length_c 22.978501
_cell_angle_alpha 90.000000
_cell_angle_beta 90.000000
_cell_angle_gamma 90.000000
_cell_volume 3537.927646
_symmetry_space_group_name_H-M "P M M A"
_symmetry_group_IT_number 51
_symmetry_cell_setting 'orthorhombic'
loop_
_space_group_symop_operation_xyz
x,y,z
1/2-x,-y,z
1/2+x,-y,-z
-x,y,-z
-x,-y,-z
1/2+x,y,-z
1/2-x,y,z
x,-y,z
loop_
_atom_site_type_symbol
_atom_site_label
_atom_site_fract_x
_atom_site_fract_y
_atom_site_fract_z
Si Si1 0.018309 0.677621 0.634341
Si Si2 0.445862 0.677679 0.133624
Si Si3 0.083270 0.175075 0.930918
Si Si4 0.074255 0.168452 0.460666
Si Si5 0.517042 0.180121 0.241937
Si Si6 0.337418 0.322978 0.558002
Si Si7 0.667769 0.175786 0.183335
Si Si8 0.337690 0.177311 0.049552
O O1 0.015825 0.500000 0.645795
O O2 0.001634 0.765406 0.693421
O O3 0.101483 0.726541 0.607808
O O4 0.947393 0.723436 0.593054
O O5 0.446604 0.500000 0.143200
O O6 0.511155 0.725309 0.087815
O O7 0.454830 0.755571 0.196729
O O8 0.365547 0.731188 0.106170
O O9 0.151525 0.199383 0.884889
O O10 0.056746 0.000000 0.931592
O O11 0.113075 0.228016 0.993497
O O12 0.144381 0.238202 0.497512
O O13 0.000000 0.157619 0.500000
O O14 0.097592 0.000000 0.439070
O O15 0.600226 0.246288 0.222522
O O16 0.513978 0.000000 0.238540
O O17 0.250000 0.283078 0.577504
O O18 0.346883 0.500000 0.545655
O O19 0.750000 0.253218 0.197946
O O20 0.672810 0.000000 0.198219
O O21 0.250000 0.220081 0.037733
O O22 0.347757 0.000000 0.061332
#
# Coordination Sequence:
#
# PCOD8208848 Si02
#       8
#     8   8   8   8   8   8   8   8
#     4  10  19  32  51  74 101 134 171 208 248 296
#     4  11  22  35  51  72 101 135 169 207 252 302
#     4   9  17  31  52  75  99 129 166 205 247 300
#     4   9  17  30  49  73 100 131 169 208 241 277
#     4  10  20  34  52  72  96 130 173 215 250 290
#     4   9  18  32  50  75 109 143 168 196 242 296
#     4   8  14  26  45  69  96 126 161 202 246 290
#     4  10  20  34  54  78 101 127 162 206 256 308
#
# _framework density 18.089684999999999
#
# number of rings (size 3 to 8) (size 9 to 14) (size 15 to 20)
#    0.000    2.500    0.000    3.750    0.000    6.500 
#    0.000    0.000    0.000   12.750    0.000    0.000 
#    0.000    0.000    0.000    0.000    0.000    0.000 
#
# Total GULP energy -793409.217546 kJ/mol
# GULP energy per Si atom -12397.019024 kJ/mol
# Density = 1.804851 g / cm^3
# Si number density = 18.089685 Si / 1000 Ang^3
#
#
#
# Elastic Constant Matrix: (Units=GPa)
#
#
# Indices 1 2 3 4 5 6 
#
# 1 45.4638 25.1343 33.8906 0.0000 0.0000 0.0000
# 2 25.1343 75.9596 38.7294 0.0000 0.0000 0.0000
# 3 33.8906 38.7294 112.6343 0.0000 0.0000 0.0000
# 4 0.0000 0.0000 0.0000 27.4128 0.0000 0.0000
# 5 0.0000 0.0000 0.0000 0.0000 15.6582 0.0000
# 6 0.0000 0.0000 0.0000 0.0000 0.0000 14.1990
#
#
#
# Elastic Compliance Matrix: (Units=1/GPa)
#
#
# Indices 1 2 3 4 5 6 
#
# 1 0.030897 -0.006649 -0.007010 0.000000 0.000000 0.000000
# 2 -0.006649 0.017395 -0.003980 0.000000 0.000000 0.000000
# 3 -0.007010 -0.003980 0.012356 0.000000 0.000000 0.000000
# 4 0.000000 0.000000 0.000000 0.036479 0.000000 0.000000
# 5 0.000000 0.000000 0.000000 0.000000 0.063864 0.000000
# 6 0.000000 0.000000 0.000000 0.000000 0.000000 0.070427
#
#
# Mechanical properties :
#
#
# Convention : Reuss Voigt Hill
#
# Bulk Modulus (GPa) = 39.41956 47.72956 43.57456
# Shear Modulus (GPa) = 18.17156 20.54090 19.35623
#
# Velocity S-wave (km/s) = 3.17286 3.37338 3.27466
# Velocity P-wave (km/s) = 5.93812 6.45098 6.19985
#
# Compressibility (1/GPa) = 0.02536812
#
# Stress axis : x y z
#
# Youngs Moduli (GPa) = 32.36525 57.48920 80.93022
#
# Poissons Ratio (x) = 0.38226 0.56735
# Poissons Ratio (y) = 0.21520 0.32214
# Poissons Ratio (z) = 0.22689 0.22883
#
# Static dielectric constant tensor:
#      x y z
#    x 3.396680 0.000000 0.000000 
#    y 0.000000 3.232090 0.000000 
#    z 0.000000 0.000000 3.316110 
# 
# 
# High freq. dielectric constant tensor:
#      x y z
#    x 1.684850 0.000000 0.000000 
#    y 0.000000 1.688790 0.000000 
#    z 0.000000 0.000000 1.692150 
# 
# From -- ./inp_files/33948.got.cif
#   From: 2010.03.12/outbox.cif.g09.slc.cpg/sg51_17_cif.got.tgz:33948.got - 2010.04.16 13:43:02.
