data_PCOD8208201
_publ_section_title
;
Structure prediction by ZEFSAII (Michael W. Deem and Ramdas Pophale) SiO2 
 PCOD8208201
Probable space group: P M M A
;
_chemical_formula_sum "Si O2"
_cell_formula_units_Z 64
_cell_length_a 29.370192
_cell_length_b 9.028690
_cell_length_c 15.079963
_cell_angle_alpha 90.000000
_cell_angle_beta 90.000000
_cell_angle_gamma 90.000000
_cell_volume 3998.819519
_symmetry_space_group_name_H-M "P M M A"
_symmetry_group_IT_number 51
_symmetry_cell_setting 'orthorhombic'
loop_
_space_group_symop_operation_xyz
x,y,z
1/2-x,-y,z
1/2+x,-y,-z
-x,y,-z
-x,-y,-z
1/2+x,y,-z
1/2-x,y,z
x,-y,z
loop_
_atom_site_type_symbol
_atom_site_label
_atom_site_fract_x
_atom_site_fract_y
_atom_site_fract_z
Si Si1 0.032876 0.824972 0.868484
Si Si2 0.698539 0.174697 0.515429
Si Si3 0.561041 0.826726 0.945389
Si Si4 0.698461 0.667924 0.700572
Si Si5 0.889290 0.326148 0.462499
Si Si6 0.561816 0.326979 0.645894
Si Si7 0.622249 0.174005 0.790516
Si Si8 0.540696 0.673541 0.314234
O O1 0.050540 0.749064 0.779642
O O2 0.982783 0.762128 0.893284
O O3 0.033762 0.000000 0.852143
O O4 0.064955 0.775391 0.952003
O O5 0.750000 0.216044 0.482918
O O6 0.690196 0.237633 0.613035
O O7 0.659784 0.245399 0.453100
O O8 0.692070 0.000000 0.518464
O O9 0.606144 0.786367 0.890329
O O10 0.551786 0.000000 0.946951
O O11 0.750000 0.673384 0.733372
O O12 0.682695 0.500000 0.680724
O O13 0.669257 0.738782 0.779118
O O14 0.880235 0.500000 0.457320
O O15 0.915557 0.283894 0.552573
O O16 0.920727 0.270344 0.382001
O O17 0.569153 0.500000 0.667205
O O18 0.584901 0.228149 0.720817
O O19 0.508479 0.285639 0.644549
O O20 0.629860 0.000000 0.777785
O O21 0.544525 0.500000 0.299915
#
# Coordination Sequence:
#
# PCOD8208201 Si02
#       8
#     8   8   8   8   8   8   8   8
#     4   9  16  31  49  65  90 125 160 193 233 279
#     4  10  20  33  49  70  94 119 154 201 241 273
#     4   8  16  29  47  68  92 122 155 191 235 281
#     4  10  20  33  48  67  94 127 157 186 231 289
#     4  10  20  33  48  66  94 132 164 192 235 285
#     4  10  19  31  45  64  95 133 165 191 226 277
#     4  11  19  29  48  72  96 122 158 199 234 273
#     4  10  20  32  46  68  97 128 164 203 236 271
#
# _framework density 16.004724
#
# number of rings (size 3 to 8) (size 9 to 14) (size 15 to 20)
#    0.000    2.250    2.500    2.250    0.000    3.500 
#    0.000    2.500    0.000    2.250    0.000    0.875 
#    0.000    1.000    0.000    0.000    0.000    0.000 
#
# Total GULP energy -793364.754417 kJ/mol
# GULP energy per Si atom -12396.324288 kJ/mol
# Density = 1.596830 g / cm^3
# Si number density = 16.004724 Si / 1000 Ang^3
#
#
#
# Elastic Constant Matrix: (Units=GPa)
#
#
# Indices 1 2 3 4 5 6 
#
# 1 116.8744 42.4349 57.5777 0.0000 0.0000 0.0000
# 2 42.4349 46.2449 31.5835 0.0000 0.0000 0.0000
# 3 57.5777 31.5835 96.2157 0.0000 0.0000 0.0000
# 4 0.0000 0.0000 0.0000 21.4249 0.0000 0.0000
# 5 0.0000 0.0000 0.0000 0.0000 21.7027 0.0000
# 6 0.0000 0.0000 0.0000 0.0000 0.0000 25.1202
#
#
#
# Elastic Compliance Matrix: (Units=1/GPa)
#
#
# Indices 1 2 3 4 5 6 
#
# 1 0.014930 -0.009793 -0.005720 0.000000 0.000000 0.000000
# 2 -0.009793 0.034297 -0.005398 0.000000 0.000000 0.000000
# 3 -0.005720 -0.005398 0.015588 0.000000 0.000000 0.000000
# 4 0.000000 0.000000 0.000000 0.046675 0.000000 0.000000
# 5 0.000000 0.000000 0.000000 0.000000 0.046077 0.000000
# 6 0.000000 0.000000 0.000000 0.000000 0.000000 0.039809
#
#
# Mechanical properties :
#
#
# Convention : Reuss Voigt Hill
#
# Bulk Modulus (GPa) = 43.49090 58.05860 50.77475
# Shear Modulus (GPa) = 20.25435 22.16548 21.20992
#
# Velocity S-wave (km/s) = 3.56128 3.72551 3.64432
# Velocity P-wave (km/s) = 6.64402 7.40679 7.03575
#
# Compressibility (1/GPa) = 0.02299332
#
# Stress axis : x y z
#
# Youngs Moduli (GPa) = 66.98045 29.15712 64.15269
#
# Poissons Ratio (x) = 0.28555 0.36692
# Poissons Ratio (y) = 0.65597 0.34627
# Poissons Ratio (z) = 0.38310 0.15738
#
# Static dielectric constant tensor:
#      x y z
#    x 3.172210 0.000000 0.000000 
#    y 0.000000 2.955160 0.000000 
#    z 0.000000 0.000000 3.091020 
# 
# 
# High freq. dielectric constant tensor:
#      x y z
#    x 1.607300 0.000000 0.000000 
#    y 0.000000 1.610360 0.000000 
#    z 0.000000 0.000000 1.596300 
# 
# From -- ./inp_files/26638.got.cif
#   From: 2010.03.12/outbox.cif.g09.slc.cpg/sg51_14_cif.got.tgz:26638.got - 2010.04.16 13:43:02.
