data_PCOD8208227
_publ_section_title
;
Structure prediction by ZEFSAII (Michael W. Deem and Ramdas Pophale) SiO2 
 PCOD8208227
Probable space group: P M M A
;
_chemical_formula_sum "Si O2"
_cell_formula_units_Z 44
_cell_length_a 8.844475
_cell_length_b 27.906808
_cell_length_c 10.088714
_cell_angle_alpha 90.000000
_cell_angle_beta 90.000000
_cell_angle_gamma 90.000000
_cell_volume 2490.107141
_symmetry_space_group_name_H-M "P M M A"
_symmetry_group_IT_number 51
_symmetry_cell_setting 'orthorhombic'
loop_
_space_group_symop_operation_xyz
x,y,z
1/2-x,-y,z
1/2+x,-y,-z
-x,y,-z
-x,-y,-z
1/2+x,y,-z
1/2-x,y,z
x,-y,z
loop_
_atom_site_type_symbol
_atom_site_label
_atom_site_fract_x
_atom_site_fract_y
_atom_site_fract_z
Si Si1 0.928651 0.102392 0.144688
Si Si2 0.071649 0.381207 0.362946
Si Si3 0.574510 0.000000 0.141389
Si Si4 0.927263 0.271959 0.636253
Si Si5 0.074707 0.444344 0.861687
Si Si6 0.570763 0.802843 0.855207
O O1 0.750000 0.111945 0.137024
O O2 0.965073 0.050558 0.216548
O O3 0.009075 0.147896 0.213626
O O4 0.000000 0.099740 0.000000
O O5 0.250000 0.387208 0.371478
O O6 0.023372 0.326448 0.333922
O O7 0.000000 0.399003 0.500000
O O8 0.008048 0.414216 0.248977
O O9 0.750000 0.000000 0.110156
O O10 0.500000 0.000000 0.000000
O O11 0.750000 0.267503 0.617279
O O12 0.982463 0.240086 0.759820
O O13 0.000000 0.253170 0.500000
O O14 0.250000 0.430645 0.866949
O O15 0.050019 0.500000 0.829413
O O16 0.000000 0.430160 0.000000
O O17 0.750000 0.805439 0.869169
O O18 0.500000 0.794253 0.000000
#
# Coordination Sequence:
#
# PCOD8208227 Si02
#       6
#     8   8   4   8   8   8
#     4   9  15  24  38  59  87 120 154 191 235 281
#     4  10  20  36  56  78 103 132 168 209 250 294
#     4   8  14  22  34  54  83 116 151 188 230 280
#     4   9  20  36  53  73  98 128 164 203 244 290
#     4  10  21  37  56  79 107 138 170 205 247 294
#     4  10  19  31  46  69  98 126 158 197 239 286
#
# _framework density 17.669923000000001
#
# number of rings (size 3 to 8) (size 9 to 14) (size 15 to 20)
#    0.000    2.545    0.000    3.273    0.000    5.091 
#    0.000    1.818    0.000    0.000    0.000    0.636 
#    0.000    0.000    0.000    0.000    0.000    0.000 
#
# Total GULP energy -545235.125534 kJ/mol
# GULP energy per Si atom -12391.707398 kJ/mol
# Density = 1.762971 g / cm^3
# Si number density = 17.669923 Si / 1000 Ang^3
#
#
#
# Elastic Constant Matrix: (Units=GPa)
#
#
# Indices 1 2 3 4 5 6 
#
# 1 80.6496 49.2120 47.0667 0.0000 0.0000 0.0000
# 2 49.2120 108.4724 76.6804 0.0000 0.0000 0.0000
# 3 47.0667 76.6804 101.8798 0.0000 0.0000 0.0000
# 4 0.0000 0.0000 0.0000 -11.8878 0.0000 0.0000
# 5 0.0000 0.0000 0.0000 0.0000 27.8780 0.0000
# 6 0.0000 0.0000 0.0000 0.0000 0.0000 22.6393
#
#
#
# Elastic Compliance Matrix: (Units=1/GPa)
#
#
# Indices 1 2 3 4 5 6 
#
# 1 0.018129 -0.004924 -0.004669 0.000000 0.000000 0.000000
# 2 -0.004924 0.021039 -0.013560 0.000000 0.000000 0.000000
# 3 -0.004669 -0.013560 0.022178 0.000000 0.000000 0.000000
# 4 0.000000 0.000000 0.000000 -0.084120 0.000000 0.000000
# 5 0.000000 0.000000 0.000000 0.000000 0.035871 0.000000
# 6 0.000000 0.000000 0.000000 0.000000 0.000000 0.044171
#
#
# Mechanical properties :
#
#
# Convention : Reuss Voigt Hill
#
# Bulk Modulus (GPa) = 66.49082 70.76888 68.62985
# Shear Modulus (GPa) = 46.04589 15.59540 30.82064
#
# Velocity S-wave (km/s) = 5.11033 2.97407 4.18094
# Velocity P-wave (km/s) = 8.51655 7.20631 7.88868
#
# Compressibility (1/GPa) = 0.01503967
#
# Stress axis : x y z
#
# Youngs Moduli (GPa) = 55.16078 47.53158 45.08877
#
# Poissons Ratio (x) = 0.23405 0.21052
# Poissons Ratio (y) = 0.27162 0.61140
# Poissons Ratio (z) = 0.25755 0.64453
#
# Static dielectric constant tensor:
#      x y z
#    x 3.523750 0.000000 0.000000 
#    y 0.000000 4.013510 0.000000 
#    z 0.000000 0.000000 2.959050 
# 
# 
# High freq. dielectric constant tensor:
#      x y z
#    x 1.697060 0.000000 0.000000 
#    y 0.000000 1.702220 0.000000 
#    z 0.000000 0.000000 1.642150 
# 
# From -- ./inp_files/5800.got.cif
#   From: 2010.03.12/outbox.cif.g09.slc.cpg/sg51_3_cif.got.tgz:5800.got - 2010.04.16 13:43:02.
