data_PCOD8208281
_publ_section_title
;
Structure prediction by ZEFSAII (Michael W. Deem and Ramdas Pophale) SiO2 
 PCOD8208281
Probable space group: P M M A
;
_chemical_formula_sum "Si O2"
_cell_formula_units_Z 36
_cell_length_a 8.702385
_cell_length_b 12.455267
_cell_length_c 19.610164
_cell_angle_alpha 90.000000
_cell_angle_beta 90.000000
_cell_angle_gamma 90.000000
_cell_volume 2125.556044
_symmetry_space_group_name_H-M "P M M A"
_symmetry_group_IT_number 51
_symmetry_cell_setting 'orthorhombic'
loop_
_space_group_symop_operation_xyz
x,y,z
1/2-x,-y,z
1/2+x,-y,-z
-x,y,-z
-x,-y,-z
1/2+x,y,-z
1/2-x,y,z
x,-y,z
loop_
_atom_site_type_symbol
_atom_site_label
_atom_site_fract_x
_atom_site_fract_y
_atom_site_fract_z
Si Si1 0.072452 0.873733 0.292304
Si Si2 0.930209 0.195412 0.156984
Si Si3 0.077213 0.127746 0.568390
Si Si4 0.570834 0.375176 0.928010
Si Si5 0.568695 0.000000 0.925281
O O1 0.250000 0.844871 0.282125
O O2 0.971963 0.812220 0.236436
O O3 0.019340 0.832832 0.366442
O O4 0.042710 0.000000 0.284162
O O5 0.750000 0.180330 0.146715
O O6 0.984032 0.311620 0.131372
O O7 0.017770 0.105129 0.114696
O O8 0.250000 0.172281 0.573930
O O9 0.000000 0.174993 0.500000
O O10 0.077351 0.000000 0.565097
O O11 0.750000 0.346339 0.928305
O O12 0.541245 0.500000 0.913923
O O13 0.500000 0.339561 0.000000
O O14 0.750000 0.000000 0.930877
O O15 0.500000 0.000000 0.000000
#
# Coordination Sequence:
#
# PCOD8208281 Si02
#       5
#     8   8   8   8   4
#     4  10  19  31  47  67  96 132 167 204 246 294
#     4  12  23  35  52  74 101 131 165 205 250 300
#     4   9  16  26  41  62  90 125 166 205 241 286
#     4  10  21  38  58  77  98 126 163 207 254 301
#     4  12  24  38  52  70  97 130 167 204 244 296
#
# _framework density 16.936744999999998
#
# number of rings (size 3 to 8) (size 9 to 14) (size 15 to 20)
#    0.000    1.556    1.111    5.667    0.000    4.889 
#    0.000    0.000    0.000    0.000    0.000    0.000 
#    0.000    0.889    0.000    3.333    0.000    5.111 
#
# Total GULP energy -446558.981350 kJ/mol
# GULP energy per Si atom -12404.416149 kJ/mol
# Density = 1.689820 g / cm^3
# Si number density = 16.936745 Si / 1000 Ang^3
#
#
#
# Elastic Constant Matrix: (Units=GPa)
#
#
# Indices 1 2 3 4 5 6 
#
# 1 134.1194 31.8613 52.3417 0.0000 0.0000 0.0000
# 2 31.8613 45.9377 36.7497 0.0000 0.0000 0.0000
# 3 52.3417 36.7497 135.3522 0.0000 0.0000 0.0000
# 4 0.0000 0.0000 0.0000 25.7373 0.0000 0.0000
# 5 0.0000 0.0000 0.0000 0.0000 37.1825 0.0000
# 6 0.0000 0.0000 0.0000 0.0000 0.0000 21.4418
#
#
#
# Elastic Compliance Matrix: (Units=1/GPa)
#
#
# Indices 1 2 3 4 5 6 
#
# 1 0.009504 -0.004665 -0.002409 0.000000 0.000000 0.000000
# 2 -0.004665 0.030099 -0.006368 0.000000 0.000000 0.000000
# 3 -0.002409 -0.006368 0.010049 0.000000 0.000000 0.000000
# 4 0.000000 0.000000 0.000000 0.038854 0.000000 0.000000
# 5 0.000000 0.000000 0.000000 0.000000 0.026894 0.000000
# 6 0.000000 0.000000 0.000000 0.000000 0.000000 0.046638
#
#
# Mechanical properties :
#
#
# Convention : Reuss Voigt Hill
#
# Bulk Modulus (GPa) = 43.92179 61.92388 52.92284
# Shear Modulus (GPa) = 25.44389 29.83611 27.64000
#
# Velocity S-wave (km/s) = 3.88014 4.20172 4.04413
# Velocity P-wave (km/s) = 6.78698 7.75761 7.28847
#
# Compressibility (1/GPa) = 0.02276774
#
# Stress axis : x y z
#
# Youngs Moduli (GPa) = 105.21538 33.22416 99.51579
#
# Poissons Ratio (x) = 0.15499 0.23971
# Poissons Ratio (y) = 0.49083 0.63373
# Poissons Ratio (z) = 0.25344 0.21158
#
# Static dielectric constant tensor:
#      x y z
#    x 3.388310 0.000000 0.000000 
#    y 0.000000 2.683620 0.000000 
#    z 0.000000 0.000000 3.349810 
# 
# 
# High freq. dielectric constant tensor:
#      x y z
#    x 1.677250 0.000000 0.000000 
#    y 0.000000 1.599410 0.000000 
#    z 0.000000 0.000000 1.663380 
# 
# From -- ./inp_files/26998.got.cif
#   From: 2010.03.12/outbox.cif.g09.slc.cpg/sg51_14_cif.got.tgz:26998.got - 2010.04.16 13:43:02.
