data_PCOD8208472
_publ_section_title
;
Structure prediction by ZEFSAII (Michael W. Deem and Ramdas Pophale) SiO2 
 PCOD8208472
Probable space group: P M M A
;
_chemical_formula_sum "Si O2"
_cell_formula_units_Z 48
_cell_length_a 9.051598
_cell_length_b 18.846556
_cell_length_c 15.525589
_cell_angle_alpha 90.000000
_cell_angle_beta 90.000000
_cell_angle_gamma 90.000000
_cell_volume 2648.532718
_symmetry_space_group_name_H-M "P M M A"
_symmetry_group_IT_number 51
_symmetry_cell_setting 'orthorhombic'
loop_
_space_group_symop_operation_xyz
x,y,z
1/2-x,-y,z
1/2+x,-y,-z
-x,y,-z
-x,-y,-z
1/2+x,y,-z
1/2-x,y,z
x,-y,z
loop_
_atom_site_type_symbol
_atom_site_label
_atom_site_fract_x
_atom_site_fract_y
_atom_site_fract_z
Si Si1 0.084315 0.170926 0.083136
Si Si2 0.920617 0.583517 0.587292
Si Si3 0.576860 0.338278 0.257130
Si Si4 0.578253 0.172992 0.253457
Si Si5 0.576732 0.081248 0.413354
Si Si6 0.082619 0.660148 0.084171
O O1 0.250000 0.141072 0.081842
O O2 0.083019 0.255444 0.080205
O O3 0.005590 0.144072 0.169604
O O4 0.000000 0.140025 0.000000
O O5 0.750000 0.606842 0.583386
O O6 0.937124 0.500000 0.600321
O O7 0.000000 0.608525 0.500000
O O8 0.000828 0.620917 0.665709
O O9 0.750000 0.355447 0.254971
O O10 0.545735 0.255272 0.270529
O O11 0.505207 0.365864 0.168338
O O12 0.750000 0.159016 0.237228
O O13 0.518581 0.129042 0.334878
O O14 0.500000 0.108942 0.500000
O O15 0.750000 0.090608 0.426102
O O16 0.533005 0.000000 0.394217
O O17 0.250000 0.630738 0.086979
O O18 0.000000 0.629335 0.000000
#
# Coordination Sequence:
#
# PCOD8208472 Si02
#       6
#     8   8   8   8   8   8
#     4   9  16  26  43  67  95 127 159 194 236 282
#     4  10  21  37  55  73  95 126 163 200 239 287
#     4  10  19  31  49  74 102 129 159 198 242 286
#     4   9  18  31  47  71 100 127 158 198 241 282
#     4   9  18  33  51  69  92 125 162 198 238 285
#     4   9  16  27  44  68  98 130 163 197 236 283
#
# _framework density 18.123242000000001
#
# number of rings (size 3 to 8) (size 9 to 14) (size 15 to 20)
#    0.000    2.667    0.000    2.000    0.000    7.000 
#    0.000    1.667    0.000    1.000    0.000    0.000 
#    0.000    0.000    0.000    0.000    0.000    0.000 
#
# Total GULP energy -595258.113683 kJ/mol
# GULP energy per Si atom -12401.210702 kJ/mol
# Density = 1.808199 g / cm^3
# Si number density = 18.123242 Si / 1000 Ang^3
#
#
#
# Elastic Constant Matrix: (Units=GPa)
#
#
# Indices 1 2 3 4 5 6 
#
# 1 131.0064 32.4864 98.0433 0.0000 0.0000 0.0000
# 2 32.4864 25.6757 47.3507 0.0000 0.0000 0.0000
# 3 98.0433 47.3507 206.0834 0.0000 0.0000 0.0000
# 4 0.0000 0.0000 0.0000 -10.8386 0.0000 0.0000
# 5 0.0000 0.0000 0.0000 0.0000 43.9399 0.0000
# 6 0.0000 0.0000 0.0000 0.0000 0.0000 17.0389
#
#
#
# Elastic Compliance Matrix: (Units=1/GPa)
#
#
# Indices 1 2 3 4 5 6 
#
# 1 0.012877 -0.008668 -0.004135 0.000000 0.000000 0.000000
# 2 -0.008668 0.073419 -0.012746 0.000000 0.000000 0.000000
# 3 -0.004135 -0.012746 0.009748 0.000000 0.000000 0.000000
# 4 0.000000 0.000000 0.000000 -0.092263 0.000000 0.000000
# 5 0.000000 0.000000 0.000000 0.000000 0.022758 0.000000
# 6 0.000000 0.000000 0.000000 0.000000 0.000000 0.058689
#
#
# Mechanical properties :
#
#
# Convention : Reuss Voigt Hill
#
# Bulk Modulus (GPa) = 22.24766 79.83622 51.04194
# Shear Modulus (GPa) = 33.04526 22.35371 27.69949
#
# Velocity S-wave (km/s) = 4.27472 3.51583 3.91371
# Velocity P-wave (km/s) = 6.05530 7.78646 6.97480
#
# Compressibility (1/GPa) = 0.04494855
#
# Stress axis : x y z
#
# Youngs Moduli (GPa) = 77.65887 13.62039 102.58608
#
# Poissons Ratio (x) = 0.11806 0.42415
# Poissons Ratio (y) = 0.67311 1.30752
# Poissons Ratio (z) = 0.32109 0.17360
#
# Static dielectric constant tensor:
#      x y z
#    x 3.574510 0.000000 0.000000 
#    y 0.000000 2.966780 0.000000 
#    z 0.000000 0.000000 3.566230 
# 
# 
# High freq. dielectric constant tensor:
#      x y z
#    x 1.713890 0.000000 0.000000 
#    y 0.000000 1.653970 0.000000 
#    z 0.000000 0.000000 1.719230 
# 
# From -- ./inp_files/14461.got.cif
#   From: 2010.03.12/outbox.cif.g09.slc.cpg/sg51_8_cif.got.tgz:14461.got - 2010.04.16 13:43:02.
