data_PCOD8208732
_publ_section_title
;
Structure prediction by ZEFSAII (Michael W. Deem and Ramdas Pophale) SiO2 
 PCOD8208732
Probable space group: P M M A
;
_chemical_formula_sum "Si O2"
_cell_formula_units_Z 44
_cell_length_a 9.090913
_cell_length_b 13.982783
_cell_length_c 18.945312
_cell_angle_alpha 90.000000
_cell_angle_beta 90.000000
_cell_angle_gamma 90.000000
_cell_volume 2408.257277
_symmetry_space_group_name_H-M "P M M A"
_symmetry_group_IT_number 51
_symmetry_cell_setting 'orthorhombic'
loop_
_space_group_symop_operation_xyz
x,y,z
1/2-x,-y,z
1/2+x,-y,-z
-x,y,-z
-x,-y,-z
1/2+x,y,-z
1/2-x,y,z
x,-y,z
loop_
_atom_site_type_symbol
_atom_site_label
_atom_site_fract_x
_atom_site_fract_y
_atom_site_fract_z
Si Si1 0.919064 0.108974 0.819183
Si Si2 0.921851 0.775076 0.293154
Si Si3 0.577195 0.292226 0.575692
Si Si4 0.421893 0.273630 0.074416
Si Si5 0.580023 0.391039 0.187160
Si Si6 0.583410 0.500000 0.571277
O O1 0.750000 0.124614 0.796690
O O2 0.958209 0.174015 0.886457
O O3 0.020599 0.136464 0.753064
O O4 0.951416 0.000000 0.840719
O O5 0.750000 0.787540 0.306989
O O6 0.959251 0.675897 0.253419
O O7 0.004725 0.779298 0.368193
O O8 0.500000 0.279304 0.500000
O O9 0.750000 0.270229 0.567437
O O10 0.548111 0.399132 0.609402
O O11 0.250000 0.289162 0.062884
O O12 0.482925 0.362112 0.119860
O O13 0.500000 0.270649 0.000000
O O14 0.750000 0.378694 0.165885
O O15 0.543107 0.500000 0.208470
O O16 0.750000 0.500000 0.547376
O O17 0.500000 0.500000 0.500000
#
# Coordination Sequence:
#
# PCOD8208732 Si02
#       6
#     8   8   8   8   8   4
#     4   9  19  37  58  78 102 133 169 210 258 311
#     4  10  20  33  52  78 105 135 172 215 261 310
#     4  10  19  32  49  72 103 139 177 217 259 304
#     4  10  20  34  53  78 106 135 169 210 255 305
#     4   9  19  35  52  72 101 139 179 215 252 297
#     4   8  16  28  42  64  94 130 169 206 245 290
#
# _framework density 18.270474
#
# number of rings (size 3 to 8) (size 9 to 14) (size 15 to 20)
#    0.000    2.545    0.000    1.636    1.273    3.636 
#    0.000    0.000    0.000    0.545    0.000    0.000 
#    0.000    0.000    0.000    0.000    0.000    0.000 
#
# Total GULP energy -545440.832160 kJ/mol
# GULP energy per Si atom -12396.382549 kJ/mol
# Density = 1.822889 g / cm^3
# Si number density = 18.270474 Si / 1000 Ang^3
#
#
#
# Elastic Constant Matrix: (Units=GPa)
#
#
# Indices 1 2 3 4 5 6 
#
# 1 82.0298 16.7482 51.0594 0.0000 0.0000 0.0000
# 2 16.7482 61.9642 13.6934 0.0000 0.0000 0.0000
# 3 51.0594 13.6934 98.9793 0.0000 0.0000 0.0000
# 4 0.0000 0.0000 0.0000 15.1389 0.0000 0.0000
# 5 0.0000 0.0000 0.0000 0.0000 32.1735 0.0000
# 6 0.0000 0.0000 0.0000 0.0000 0.0000 24.8981
#
#
#
# Elastic Compliance Matrix: (Units=1/GPa)
#
#
# Indices 1 2 3 4 5 6 
#
# 1 0.018474 -0.002978 -0.009118 0.000000 0.000000 0.000000
# 2 -0.002978 0.017127 -0.000833 0.000000 0.000000 0.000000
# 3 -0.009118 -0.000833 0.014922 0.000000 0.000000 0.000000
# 4 0.000000 0.000000 0.000000 0.066055 0.000000 0.000000
# 5 0.000000 0.000000 0.000000 0.000000 0.031081 0.000000
# 6 0.000000 0.000000 0.000000 0.000000 0.000000 0.040164
#
#
# Mechanical properties :
#
#
# Convention : Reuss Voigt Hill
#
# Bulk Modulus (GPa) = 40.54380 45.10837 42.82609
# Shear Modulus (GPa) = 22.53216 25.20691 23.86954
#
# Velocity S-wave (km/s) = 3.51558 3.71840 3.61841
# Velocity P-wave (km/s) = 6.22239 6.57101 6.39907
#
# Compressibility (1/GPa) = 0.02466468
#
# Stress axis : x y z
#
# Youngs Moduli (GPa) = 54.12899 58.38568 67.01488
#
# Poissons Ratio (x) = 0.17390 0.61105
# Poissons Ratio (y) = 0.16122 0.05583
# Poissons Ratio (z) = 0.49356 0.04864
#
# Static dielectric constant tensor:
#      x y z
#    x 3.416220 0.000000 0.000000 
#    y 0.000000 3.343800 0.000000 
#    z 0.000000 0.000000 3.160310 
# 
# 
# High freq. dielectric constant tensor:
#      x y z
#    x 1.719210 0.000000 0.000000 
#    y 0.000000 1.690810 0.000000 
#    z 0.000000 0.000000 1.698480 
# 
# From -- ./inp_files/27397.got.cif
#   From: 2010.03.12/outbox.cif.g09.slc.cpg/sg51_14_cif.got.tgz:27397.got - 2010.04.16 13:43:02.
