data_PCOD8208907
_publ_section_title
;
Structure prediction by ZEFSAII (Michael W. Deem and Ramdas Pophale) SiO2 
 PCOD8208907
Probable space group: P M M A
;
_chemical_formula_sum "Si O2"
_cell_formula_units_Z 48
_cell_length_a 17.403455
_cell_length_b 16.635623
_cell_length_c 9.025874
_cell_angle_alpha 90.000000
_cell_angle_beta 90.000000
_cell_angle_gamma 90.000000
_cell_volume 2613.146818
_symmetry_space_group_name_H-M "P M M A"
_symmetry_group_IT_number 51
_symmetry_cell_setting 'orthorhombic'
loop_
_space_group_symop_operation_xyz
x,y,z
1/2-x,-y,z
1/2+x,-y,-z
-x,y,-z
-x,-y,-z
1/2+x,y,-z
1/2-x,y,z
x,-y,z
loop_
_atom_site_type_symbol
_atom_site_label
_atom_site_fract_x
_atom_site_fract_y
_atom_site_fract_z
Si Si1 0.062425 0.318849 0.282028
Si Si2 0.417471 0.163794 0.479897
Si Si3 0.659845 0.087831 0.782146
Si Si4 0.836039 0.409293 0.501031
Si Si5 0.111107 0.717426 0.723923
Si Si6 0.838889 0.244200 0.951536
O O1 0.072737 0.242009 0.381982
O O2 0.098348 0.392604 0.375304
O O3 0.971871 0.324691 0.249287
O O4 0.110190 0.311387 0.130392
O O5 0.500000 0.120269 0.500000
O O6 0.361316 0.104968 0.390432
O O7 0.387452 0.196755 0.637415
O O8 0.750000 0.084183 0.789843
O O9 0.625751 0.000000 0.826850
O O10 0.630541 0.155884 0.897710
O O11 0.750000 0.399366 0.569421
O O12 0.848798 0.500000 0.444055
O O13 0.839803 0.349384 0.361381
O O14 0.151184 0.742188 0.875640
O O15 0.750000 0.254521 0.906280
#
# Coordination Sequence:
#
# PCOD8208907 Si02
#       6
#     8   8   8   8   8   8
#     4   9  18  33  52  72  98 134 171 201 237 297
#     4   8  16  30  49  71  95 126 164 204 244 291
#     4   9  18  32  49  70  98 133 169 204 247 301
#     4  10  20  34  53  78 106 132 162 203 248 295
#     4  10  19  32  52  77 102 129 166 211 253 293
#     4  10  19  32  52  74 100 134 170 209 251 298
#
# _framework density 18.368658
#
# number of rings (size 3 to 8) (size 9 to 14) (size 15 to 20)
#    0.000    2.667    0.000    3.000    0.000    6.333 
#    0.000    1.667    0.000   20.000    0.000    0.000 
#    0.000    0.000    0.000    0.000    0.000    0.000 
#
# Total GULP energy -594738.083286 kJ/mol
# GULP energy per Si atom -12390.376735 kJ/mol
# Density = 1.832685 g / cm^3
# Si number density = 18.368658 Si / 1000 Ang^3
#
#
#
# Elastic Constant Matrix: (Units=GPa)
#
#
# Indices 1 2 3 4 5 6 
#
# 1 57.7148 22.2522 8.4048 0.0000 0.0000 0.0000
# 2 22.2522 87.1627 34.1523 0.0000 0.0000 0.0000
# 3 8.4048 34.1523 89.4854 0.0000 0.0000 0.0000
# 4 0.0000 0.0000 0.0000 -1.2418 0.0000 0.0000
# 5 0.0000 0.0000 0.0000 0.0000 31.7509 0.0000
# 6 0.0000 0.0000 0.0000 0.0000 0.0000 12.9452
#
#
#
# Elastic Compliance Matrix: (Units=1/GPa)
#
#
# Indices 1 2 3 4 5 6 
#
# 1 0.019219 -0.004938 0.000079 0.000000 0.000000 0.000000
# 2 -0.004938 0.014759 -0.005169 0.000000 0.000000 0.000000
# 3 0.000079 -0.005169 0.013140 0.000000 0.000000 0.000000
# 4 0.000000 0.000000 0.000000 -0.805285 0.000000 0.000000
# 5 0.000000 0.000000 0.000000 0.000000 0.031495 0.000000
# 6 0.000000 0.000000 0.000000 0.000000 0.000000 0.077249
#
#
# Mechanical properties :
#
#
# Convention : Reuss Voigt Hill
#
# Bulk Modulus (GPa) = 36.95027 40.44238 38.69632
# Shear Modulus (GPa) = -8.05999 19.99444 5.96723
#
# Velocity S-wave (km/s) = -2.09701 3.30283 1.80434
# Velocity P-wave (km/s) = 3.78105 6.05060 5.04511
#
# Compressibility (1/GPa) = 0.02706340
#
# Stress axis : x y z
#
# Youngs Moduli (GPa) = 52.03265 67.75708 76.10192
#
# Poissons Ratio (x) = 0.33455 -0.00604
# Poissons Ratio (y) = 0.25691 0.39336
# Poissons Ratio (z) = -0.00413 0.35023
#
# Static dielectric constant tensor:
#      x y z
#    x 3.803370 0.000000 0.000000 
#    y 0.000000 3.508110 0.000000 
#    z 0.000000 0.000000 3.602790 
# 
# 
# High freq. dielectric constant tensor:
#      x y z
#    x 1.717360 0.000000 0.000000 
#    y 0.000000 1.688600 0.000000 
#    z 0.000000 0.000000 1.700460 
# 
# From -- ./inp_files/8227.got.cif
#   From: 2010.03.12/outbox.cif.g09.slc.cpg/sg51_5_cif.got.tgz:8227.got - 2010.04.16 13:43:02.
