data_PCOD8208368
_publ_section_title
;
Structure prediction by ZEFSAII (Michael W. Deem and Ramdas Pophale) SiO2 
 PCOD8208368
Probable space group: P M M A
;
_chemical_formula_sum "Si O2"
_cell_formula_units_Z 40
_cell_length_a 8.639679
_cell_length_b 18.650070
_cell_length_c 13.806176
_cell_angle_alpha 90.000000
_cell_angle_beta 90.000000
_cell_angle_gamma 90.000000
_cell_volume 2224.597673
_symmetry_space_group_name_H-M "P M M A"
_symmetry_group_IT_number 51
_symmetry_cell_setting 'orthorhombic'
loop_
_space_group_symop_operation_xyz
x,y,z
1/2-x,-y,z
1/2+x,-y,-z
-x,y,-z
-x,-y,-z
1/2+x,y,-z
1/2-x,y,z
x,-y,z
loop_
_atom_site_type_symbol
_atom_site_label
_atom_site_fract_x
_atom_site_fract_y
_atom_site_fract_z
Si Si1 0.432472 0.293164 0.283437
Si Si2 0.932655 0.078732 0.212792
Si Si3 0.930446 0.417035 0.396650
Si Si4 0.066368 0.783482 0.896101
Si Si5 0.932590 0.165228 0.397981
O O1 0.250000 0.288112 0.273112
O O2 0.483917 0.372938 0.312565
O O3 0.508438 0.275077 0.180278
O O4 0.490644 0.239905 0.367151
O O5 0.750000 0.073688 0.203217
O O6 0.994799 0.137291 0.135715
O O7 0.977163 0.103864 0.320818
O O8 0.006740 0.000000 0.192935
O O9 0.750000 0.398377 0.397349
O O10 0.961784 0.500000 0.373838
O O11 0.000000 0.395201 0.500000
O O12 0.250000 0.781498 0.898101
O O13 0.000000 0.763366 0.000000
O O14 0.750000 0.177084 0.404099
O O15 0.000000 0.139549 0.500000
#
# Coordination Sequence:
#
# PCOD8208368 Si02
#       5
#     8   8   8   8   8
#     4  11  21  34  53  75 102 134 171 212 252 297
#     4   8  16  31  49  70  98 131 166 207 254 303
#     4  10  20  34  53  79 111 143 173 205 244 292
#     4  10  20  35  55  77 101 129 166 210 257 307
#     4  10  19  31  48  70  99 134 172 211 252 301
#
# _framework density 17.980778999999998
#
# number of rings (size 3 to 8) (size 9 to 14) (size 15 to 20)
#    0.000    2.200    0.000    5.400    0.000    2.000 
#    0.000    0.000    0.000   21.000    0.000    0.000 
#    0.000    0.000    0.000    0.000    0.000    0.000 
#
# Total GULP energy -496034.083623 kJ/mol
# GULP energy per Si atom -12400.852091 kJ/mol
# Density = 1.793985 g / cm^3
# Si number density = 17.980779 Si / 1000 Ang^3
#
#
#
# Elastic Constant Matrix: (Units=GPa)
#
#
# Indices 1 2 3 4 5 6 
#
# 1 95.1502 34.2956 41.4750 0.0000 0.0000 0.0000
# 2 34.2956 98.3779 52.6465 0.0000 0.0000 0.0000
# 3 41.4750 52.6465 127.3250 0.0000 0.0000 0.0000
# 4 0.0000 0.0000 0.0000 28.4509 0.0000 0.0000
# 5 0.0000 0.0000 0.0000 0.0000 31.1692 0.0000
# 6 0.0000 0.0000 0.0000 0.0000 0.0000 19.6778
#
#
#
# Elastic Compliance Matrix: (Units=1/GPa)
#
#
# Indices 1 2 3 4 5 6 
#
# 1 0.012853 -0.002877 -0.002997 0.000000 0.000000 0.000000
# 2 -0.002877 0.013697 -0.004726 0.000000 0.000000 0.000000
# 3 -0.002997 -0.004726 0.010785 0.000000 0.000000 0.000000
# 4 0.000000 0.000000 0.000000 0.035148 0.000000 0.000000
# 5 0.000000 0.000000 0.000000 0.000000 0.032083 0.000000
# 6 0.000000 0.000000 0.000000 0.000000 0.000000 0.050819
#
#
# Mechanical properties :
#
#
# Convention : Reuss Voigt Hill
#
# Bulk Modulus (GPa) = 61.98169 64.18748 63.08458
# Shear Modulus (GPa) = 27.47805 28.68864 28.08334
#
# Velocity S-wave (km/s) = 3.91345 3.99873 3.95632
# Velocity P-wave (km/s) = 7.41391 7.55613 7.48536
#
# Compressibility (1/GPa) = 0.01613380
#
# Stress axis : x y z
#
# Youngs Moduli (GPa) = 77.80241 73.00832 92.72522
#
# Poissons Ratio (x) = 0.21003 0.27793
# Poissons Ratio (y) = 0.22382 0.43826
# Poissons Ratio (z) = 0.23320 0.34507
#
# Static dielectric constant tensor:
#      x y z
#    x 3.266800 0.000000 0.000000 
#    y 0.000000 3.445260 0.000000 
#    z 0.000000 0.000000 3.197940 
# 
# 
# High freq. dielectric constant tensor:
#      x y z
#    x 1.696270 0.000000 0.000000 
#    y 0.000000 1.690000 0.000000 
#    z 0.000000 0.000000 1.688560 
# 
# From -- ./inp_files/14002.got.cif
#   From: 2010.03.12/outbox.cif.g09.slc.cpg/sg51_8_cif.got.tgz:14002.got - 2010.04.16 13:43:02.
