data_PCOD8208062
_publ_section_title
;
Structure prediction by ZEFSAII (Michael W. Deem and Ramdas Pophale) SiO2 
 PCOD8208062
Probable space group: P M M A
;
_chemical_formula_sum "Si O2"
_cell_formula_units_Z 56
_cell_length_a 19.039644
_cell_length_b 9.356803
_cell_length_c 18.124248
_cell_angle_alpha 90.000000
_cell_angle_beta 90.000000
_cell_angle_gamma 90.000000
_cell_volume 3228.838372
_symmetry_space_group_name_H-M "P M M A"
_symmetry_group_IT_number 51
_symmetry_cell_setting 'orthorhombic'
loop_
_space_group_symop_operation_xyz
x,y,z
1/2-x,-y,z
1/2+x,-y,-z
-x,y,-z
-x,-y,-z
1/2+x,y,-z
1/2-x,y,z
x,-y,z
loop_
_atom_site_type_symbol
_atom_site_label
_atom_site_fract_x
_atom_site_fract_y
_atom_site_fract_z
Si Si1 0.171743 0.170210 0.277885
Si Si2 0.666768 0.342626 0.428494
Si Si3 0.833589 0.157960 0.561137
Si Si4 0.832042 0.334047 0.263437
Si Si5 0.920820 0.165833 0.857352
Si Si6 0.414476 0.833475 0.858565
Si Si7 0.083442 0.338084 0.001130
O O1 0.250000 0.227320 0.259017
O O2 0.146997 0.226437 0.358810
O O3 0.117914 0.223769 0.215745
O O4 0.173232 0.000000 0.281985
O O5 0.750000 0.348883 0.436790
O O6 0.634824 0.500000 0.438520
O O7 0.633434 0.246760 0.493342
O O8 0.648274 0.285765 0.346735
O O9 0.750000 0.151196 0.554852
O O10 0.865857 0.000000 0.554231
O O11 0.750000 0.311594 0.247992
O O12 0.852267 0.500000 0.250373
O O13 0.875268 0.230057 0.211382
O O14 0.890740 0.257676 0.925358
O O15 0.003116 0.189596 0.846001
O O16 0.903627 0.000000 0.872974
O O17 0.395964 0.000000 0.868140
O O18 0.387907 0.749122 0.930889
O O19 0.113119 0.500000 0.999470
O O20 0.000000 0.338957 0.000000
#
# Coordination Sequence:
#
# PCOD8208062 Si02
#       7
#     8   8   8   8   8   8   8
#     4   8  14  26  45  68  93 120 148 180 221 264
#     4   8  14  25  41  61  85 113 144 179 220 261
#     4   8  13  22  39  63  87 112 145 181 214 253
#     4   9  18  32  48  66  90 119 149 183 225 271
#     4   9  17  30  48  69  92 117 149 189 227 264
#     4  10  19  30  47  70  92 115 147 187 228 269
#     4   9  17  30  48  67  87 116 154 189 221 263
#
# _framework density 17.343699999999998
#
# number of rings (size 3 to 8) (size 9 to 14) (size 15 to 20)
#    0.000    3.286    0.000    2.571    0.000    3.143 
#    0.000    2.857    0.000    4.714    0.000    6.000 
#    0.000    0.000    0.000    0.000    0.000    0.000 
#
# Total GULP energy -694051.800489 kJ/mol
# GULP energy per Si atom -12393.782152 kJ/mol
# Density = 1.730423 g / cm^3
# Si number density = 17.343700 Si / 1000 Ang^3
#
#
#
# Elastic Constant Matrix: (Units=GPa)
#
#
# Indices 1 2 3 4 5 6 
#
# 1 29.4532 29.2720 42.6244 0.0000 0.0000 0.0000
# 2 29.2720 96.3790 82.8681 0.0000 0.0000 0.0000
# 3 42.6244 82.8681 179.8738 0.0000 0.0000 0.0000
# 4 0.0000 0.0000 0.0000 24.4390 0.0000 0.0000
# 5 0.0000 0.0000 0.0000 0.0000 -7.1276 0.0000
# 6 0.0000 0.0000 0.0000 0.0000 0.0000 14.3086
#
#
#
# Elastic Compliance Matrix: (Units=1/GPa)
#
#
# Indices 1 2 3 4 5 6 
#
# 1 0.056314 -0.009322 -0.009050 0.000000 0.000000 0.000000
# 2 -0.009322 0.018725 -0.006417 0.000000 0.000000 0.000000
# 3 -0.009050 -0.006417 0.010661 0.000000 0.000000 0.000000
# 4 0.000000 0.000000 0.000000 0.040918 0.000000 0.000000
# 5 0.000000 0.000000 0.000000 0.000000 -0.140300 0.000000
# 6 0.000000 0.000000 0.000000 0.000000 0.000000 0.069888
#
#
# Mechanical properties :
#
#
# Convention : Reuss Voigt Hill
#
# Bulk Modulus (GPa) = 27.68547 68.35944 48.02246
# Shear Modulus (GPa) = 42.43579 16.38677 29.41128
#
# Velocity S-wave (km/s) = 4.95184 3.07714 4.12247
# Velocity P-wave (km/s) = 6.97795 7.21977 7.09989
#
# Compressibility (1/GPa) = 0.03612002
#
# Stress axis : x y z
#
# Youngs Moduli (GPa) = 17.75761 53.40477 93.80412
#
# Poissons Ratio (x) = 0.49786 0.84891
# Poissons Ratio (y) = 0.16554 0.60199
# Poissons Ratio (z) = 0.16070 0.34272
#
# Static dielectric constant tensor:
#      x y z
#    x 2.789250 0.000000 0.000000 
#    y 0.000000 3.306940 0.000000 
#    z 0.000000 0.000000 3.563280 
# 
# 
# High freq. dielectric constant tensor:
#      x y z
#    x 1.615420 0.000000 0.000000 
#    y 0.000000 1.658170 0.000000 
#    z 0.000000 0.000000 1.688170 
# 
# From -- ./inp_files/30420.got.cif
#   From: 2010.03.12/outbox.cif.g09.slc.cpg/sg51_16_cif.got.tgz:30420.got - 2010.04.16 13:43:02.
