data_PCOD8208251
_publ_section_title
;
Structure prediction by ZEFSAII (Michael W. Deem and Ramdas Pophale) SiO2 
 PCOD8208251
Probable space group: P M M A
;
_chemical_formula_sum "Si O2"
_cell_formula_units_Z 56
_cell_length_a 9.042410
_cell_length_b 14.551749
_cell_length_c 22.990869
_cell_angle_alpha 90.000000
_cell_angle_beta 90.000000
_cell_angle_gamma 90.000000
_cell_volume 3025.204772
_symmetry_space_group_name_H-M "P M M A"
_symmetry_group_IT_number 51
_symmetry_cell_setting 'orthorhombic'
loop_
_space_group_symop_operation_xyz
x,y,z
1/2-x,-y,z
1/2+x,-y,-z
-x,y,-z
-x,-y,-z
1/2+x,y,-z
1/2-x,y,z
x,-y,z
loop_
_atom_site_type_symbol
_atom_site_label
_atom_site_fract_x
_atom_site_fract_y
_atom_site_fract_z
Si Si1 0.924040 0.104500 0.440594
Si Si2 0.925928 0.773662 0.332715
Si Si3 0.926535 0.709087 0.940265
Si Si4 0.914592 0.648007 0.169211
Si Si5 0.088964 0.148632 0.785623
Si Si6 0.579741 0.602239 0.716798
Si Si7 0.920510 0.900923 0.892159
O O1 0.750000 0.111102 0.449132
O O2 0.977771 0.174961 0.391005
O O3 0.000000 0.136399 0.500000
O O4 0.970536 0.000000 0.424293
O O5 0.750000 0.757962 0.330187
O O6 0.976332 0.839637 0.279388
O O7 0.003274 0.674223 0.327347
O O8 0.750000 0.700177 0.943622
O O9 0.981351 0.815032 0.929314
O O10 0.989297 0.642269 0.889990
O O11 0.000000 0.676204 0.000000
O O12 0.750000 0.604756 0.160204
O O13 0.895423 0.752446 0.186201
O O14 0.001042 0.596775 0.220518
O O15 0.250000 0.100961 0.782475
O O16 0.985635 0.089418 0.827186
O O17 0.750000 0.631523 0.725824
O O18 0.568277 0.500000 0.689143
O O19 0.750000 0.882534 0.882419
O O20 0.950766 0.000000 0.923487
#
# Coordination Sequence:
#
# PCOD8208251 Si02
#       7
#     8   8   8   8   8   8   8
#     4   9  18  33  52  75 105 141 181 222 261 301
#     4   9  18  32  51  75 103 136 173 212 254 301
#     4  10  19  31  47  65  88 120 160 205 250 299
#     4   9  17  31  50  70  93 122 157 195 238 291
#     4   8  15  27  43  64  87 114 151 193 239 290
#     4  10  20  33  52  80 110 136 163 201 251 305
#     4   9  18  30  41  57  85 119 154 196 246 297
#
# _framework density 18.511144000000002
#
# number of rings (size 3 to 8) (size 9 to 14) (size 15 to 20)
#    0.000    2.857    0.000    2.143    0.000    6.857 
#    0.000    1.429    0.000    2.571    0.000    0.000 
#    0.000    0.000    0.000    0.000    0.000    0.000 
#
# Total GULP energy -693956.804920 kJ/mol
# GULP energy per Si atom -12392.085802 kJ/mol
# Density = 1.846901 g / cm^3
# Si number density = 18.511144 Si / 1000 Ang^3
#
#
#
# Elastic Constant Matrix: (Units=GPa)
#
#
# Indices 1 2 3 4 5 6 
#
# 1 70.4667 26.2490 39.1216 0.0000 0.0000 0.0000
# 2 26.2490 66.1605 37.6365 0.0000 0.0000 0.0000
# 3 39.1216 37.6365 125.3522 0.0000 0.0000 0.0000
# 4 0.0000 0.0000 0.0000 16.8536 0.0000 0.0000
# 5 0.0000 0.0000 0.0000 0.0000 30.8048 0.0000
# 6 0.0000 0.0000 0.0000 0.0000 0.0000 16.0433
#
#
#
# Elastic Compliance Matrix: (Units=1/GPa)
#
#
# Indices 1 2 3 4 5 6 
#
# 1 0.018375 -0.004858 -0.004276 0.000000 0.000000 0.000000
# 2 -0.004858 0.019512 -0.004342 0.000000 0.000000 0.000000
# 3 -0.004276 -0.004342 0.010616 0.000000 0.000000 0.000000
# 4 0.000000 0.000000 0.000000 0.059335 0.000000 0.000000
# 5 0.000000 0.000000 0.000000 0.000000 0.032463 0.000000
# 6 0.000000 0.000000 0.000000 0.000000 0.000000 0.062331
#
#
# Mechanical properties :
#
#
# Convention : Reuss Voigt Hill
#
# Bulk Modulus (GPa) = 46.40273 51.99930 49.20102
# Shear Modulus (GPa) = 21.11780 23.33847 22.22813
#
# Velocity S-wave (km/s) = 3.38126 3.55460 3.46901
# Velocity P-wave (km/s) = 6.35341 6.70811 6.53316
#
# Compressibility (1/GPa) = 0.02155045
#
# Stress axis : x y z
#
# Youngs Moduli (GPa) = 54.42308 51.24985 94.19848
#
# Poissons Ratio (x) = 0.24895 0.40281
# Poissons Ratio (y) = 0.26436 0.40905
# Poissons Ratio (z) = 0.23272 0.22255
#
# Static dielectric constant tensor:
#      x y z
#    x 3.541480 0.000000 0.000000 
#    y 0.000000 3.304810 0.000000 
#    z 0.000000 0.000000 3.391190 
# 
# 
# High freq. dielectric constant tensor:
#      x y z
#    x 1.719070 0.000000 0.000000 
#    y 0.000000 1.702690 0.000000 
#    z 0.000000 0.000000 1.697150 
# 
# From -- ./inp_files/32012.got.cif
#   From: 2010.03.12/outbox.cif.g09.slc.cpg/sg51_17_cif.got.tgz:32012.got - 2010.04.16 13:43:02.
