data_PCOD8208899
_publ_section_title
;
Structure prediction by ZEFSAII (Michael W. Deem and Ramdas Pophale) SiO2 
 PCOD8208899
Probable space group: P M M A
;
_chemical_formula_sum "Si O2"
_cell_formula_units_Z 48
_cell_length_a 8.682040
_cell_length_b 30.789516
_cell_length_c 9.129947
_cell_angle_alpha 90.000000
_cell_angle_beta 90.000000
_cell_angle_gamma 90.000000
_cell_volume 2440.579173
_symmetry_space_group_name_H-M "P M M A"
_symmetry_group_IT_number 51
_symmetry_cell_setting 'orthorhombic'
loop_
_space_group_symop_operation_xyz
x,y,z
1/2-x,-y,z
1/2+x,-y,-z
-x,y,-z
-x,-y,-z
1/2+x,y,-z
1/2-x,y,z
x,-y,z
loop_
_atom_site_type_symbol
_atom_site_label
_atom_site_fract_x
_atom_site_fract_y
_atom_site_fract_z
Si Si1 0.569705 0.547009 0.839600
Si Si2 0.931512 0.715700 0.340510
Si Si3 0.567644 0.122687 0.658729
Si Si4 0.067855 0.633194 0.838259
Si Si5 0.929743 0.050529 0.154647
Si Si6 0.067253 0.200422 0.840665
O O1 0.750000 0.556357 0.850785
O O2 0.538750 0.500000 0.760991
O O3 0.488945 0.588138 0.760320
O O4 0.500000 0.544398 0.000000
O O5 0.750000 0.713567 0.352903
O O6 0.995002 0.673155 0.257563
O O7 0.984823 0.758361 0.254320
O O8 0.000000 0.717761 0.500000
O O9 0.500000 0.132942 0.500000
O O10 0.750000 0.124336 0.649651
O O11 0.512855 0.075522 0.713370
O O12 0.506504 0.157613 0.773214
O O13 0.250000 0.633518 0.848275
O O14 0.000000 0.637646 0.000000
O O15 0.750000 0.061710 0.153946
O O16 0.961578 0.000000 0.182083
O O17 0.000000 0.065636 0.000000
O O18 0.250000 0.194998 0.847278
O O19 0.000000 0.208012 0.000000
#
# Coordination Sequence:
#
# PCOD8208899 Si02
#       6
#     8   8   8   8   8   8
#     4   9  16  26  43  70 102 136 174 217 266 317
#     4  10  23  39  57  81 110 144 182 225 274 329
#     4  12  25  41  61  87 120 156 194 237 286 339
#     4  10  19  32  51  78 107 138 178 221 269 323
#     4  10  21  39  63  90 120 156 198 242 288 338
#     4  11  23  41  63  88 116 148 188 231 279 333
#
# _framework density 19.667462
#
# number of rings (size 3 to 8) (size 9 to 14) (size 15 to 20)
#    0.000    1.667    0.000    6.000    0.000    6.333 
#    0.000    0.000    0.000    0.500    0.000    0.000 
#    0.000    0.000    0.000    0.000    0.000    0.000 
#
# Total GULP energy -595214.044075 kJ/mol
# GULP energy per Si atom -12400.292585 kJ/mol
# Density = 1.962270 g / cm^3
# Si number density = 19.667462 Si / 1000 Ang^3
#
#
#
# Elastic Constant Matrix: (Units=GPa)
#
#
# Indices 1 2 3 4 5 6 
#
# 1 108.3419 51.3406 41.1182 0.0000 0.0000 0.0000
# 2 51.3406 134.3970 56.5173 0.0000 0.0000 0.0000
# 3 41.1182 56.5173 108.8722 0.0000 0.0000 0.0000
# 4 0.0000 0.0000 0.0000 12.3439 0.0000 0.0000
# 5 0.0000 0.0000 0.0000 0.0000 32.9360 0.0000
# 6 0.0000 0.0000 0.0000 0.0000 0.0000 10.5577
#
#
#
# Elastic Compliance Matrix: (Units=1/GPa)
#
#
# Indices 1 2 3 4 5 6 
#
# 1 0.011870 -0.003389 -0.002724 0.000000 0.000000 0.000000
# 2 -0.003389 0.010486 -0.004164 0.000000 0.000000 0.000000
# 3 -0.002724 -0.004164 0.012375 0.000000 0.000000 0.000000
# 4 0.000000 0.000000 0.000000 0.081012 0.000000 0.000000
# 5 0.000000 0.000000 0.000000 0.000000 0.030362 0.000000
# 6 0.000000 0.000000 0.000000 0.000000 0.000000 0.094718
#
#
# Mechanical properties :
#
#
# Convention : Reuss Voigt Hill
#
# Bulk Modulus (GPa) = 70.52887 72.17371 71.35129
# Shear Modulus (GPa) = 18.78985 24.67650 21.73318
#
# Velocity S-wave (km/s) = 3.09427 3.54600 3.32781
# Velocity P-wave (km/s) = 6.97887 7.31725 7.15006
#
# Compressibility (1/GPa) = 0.01417859
#
# Stress axis : x y z
#
# Youngs Moduli (GPa) = 84.24849 95.36392 80.80734
#
# Poissons Ratio (x) = 0.32318 0.22009
# Poissons Ratio (y) = 0.28551 0.33645
# Poissons Ratio (z) = 0.22946 0.39706
#
# Static dielectric constant tensor:
#      x y z
#    x 3.673490 0.000000 0.000000 
#    y 0.000000 4.266060 0.000000 
#    z 0.000000 0.000000 3.377290 
# 
# 
# High freq. dielectric constant tensor:
#      x y z
#    x 1.778470 0.000000 0.000000 
#    y 0.000000 1.792660 0.000000 
#    z 0.000000 0.000000 1.742230 
# 
# From -- ./inp_files/5958.got.cif
#   From: 2010.03.12/outbox.cif.g09.slc.cpg/sg51_3_cif.got.tgz:5958.got - 2010.04.16 13:43:02.
