data_PCOD8208798
_publ_section_title
;
Structure prediction by ZEFSAII (Michael W. Deem and Ramdas Pophale) SiO2 
 PCOD8208798
Probable space group: P M M A
;
_chemical_formula_sum "Si O2"
_cell_formula_units_Z 64
_cell_length_a 19.420658
_cell_length_b 9.248800
_cell_length_c 20.694448
_cell_angle_alpha 90.000000
_cell_angle_beta 90.000000
_cell_angle_gamma 90.000000
_cell_volume 3717.090843
_symmetry_space_group_name_H-M "P M M A"
_symmetry_group_IT_number 51
_symmetry_cell_setting 'orthorhombic'
loop_
_space_group_symop_operation_xyz
x,y,z
1/2-x,-y,z
1/2+x,-y,-z
-x,y,-z
-x,-y,-z
1/2+x,y,-z
1/2-x,y,z
x,-y,z
loop_
_atom_site_type_symbol
_atom_site_label
_atom_site_fract_x
_atom_site_fract_y
_atom_site_fract_z
Si Si1 0.454145 0.667563 0.680526
Si Si2 0.455220 0.670453 0.438663
Si Si3 0.827839 0.831434 0.515756
Si Si4 0.033045 0.331781 0.824613
Si Si5 0.328215 0.667783 0.019357
Si Si6 0.043593 0.828657 0.063114
Si Si7 0.176407 0.329361 0.873268
Si Si8 0.827387 0.830771 0.367548
O O1 0.437659 0.500000 0.669552
O O2 0.506724 0.724326 0.626174
O O3 0.489068 0.694138 0.750431
O O4 0.381329 0.748223 0.677181
O O5 0.500000 0.721486 0.500000
O O6 0.444094 0.500000 0.438918
O O7 0.380440 0.743621 0.439586
O O8 0.750000 0.796048 0.538231
O O9 0.837997 0.783115 0.441709
O O10 0.843361 0.000000 0.523567
O O11 0.024713 0.500000 0.844609
O O12 0.112973 0.281017 0.828966
O O13 0.989103 0.232966 0.871656
O O14 0.250000 0.691046 0.043990
O O15 0.349344 0.500000 0.025751
O O16 0.379636 0.764460 0.061456
O O17 0.335952 0.724504 0.946203
O O18 0.047182 0.000000 0.068356
O O19 0.000000 0.779797 0.000000
O O20 0.250000 0.266151 0.847448
O O21 0.182511 0.500000 0.875555
O O22 0.750000 0.790067 0.345322
O O23 0.840102 0.000000 0.360198
#
# Coordination Sequence:
#
# PCOD8208798 Si02
#       8
#     8   8   8   8   8   8   8   8
#     4  10  21  34  49  75 104 134 174 216 256 301
#     4  10  19  32  50  74 105 135 166 209 259 306
#     4   9  18  32  51  76 101 128 171 217 252 298
#     4  10  20  34  53  73 100 137 175 214 251 296
#     4   9  17  31  54  80 101 126 166 210 249 295
#     4  11  22  34  51  77 107 136 168 208 254 304
#     4   8  14  26  46  72  98 126 163 203 242 287
#     4   9  18  32  49  71 102 138 172 207 250 303
#
# _framework density 17.217765
#
# number of rings (size 3 to 8) (size 9 to 14) (size 15 to 20)
#    0.000    2.500    2.500    1.875    0.000    3.000 
#    0.000    2.500    0.000    1.125    0.000    1.750 
#    0.000    0.000    0.000    0.000    0.000    0.000 
#
# Total GULP energy -793446.003510 kJ/mol
# GULP energy per Si atom -12397.593805 kJ/mol
# Density = 1.717858 g / cm^3
# Si number density = 17.217765 Si / 1000 Ang^3
#
#
#
# Elastic Constant Matrix: (Units=GPa)
#
#
# Indices 1 2 3 4 5 6 
#
# 1 104.5918 43.2556 51.0702 0.0000 0.0000 0.0000
# 2 43.2556 51.1704 34.2112 0.0000 0.0000 0.0000
# 3 51.0702 34.2112 92.1318 0.0000 0.0000 0.0000
# 4 0.0000 0.0000 0.0000 19.1827 0.0000 0.0000
# 5 0.0000 0.0000 0.0000 0.0000 25.2848 0.0000
# 6 0.0000 0.0000 0.0000 0.0000 0.0000 30.1534
#
#
#
# Elastic Compliance Matrix: (Units=1/GPa)
#
#
# Indices 1 2 3 4 5 6 
#
# 1 0.016409 -0.010362 -0.005248 0.000000 0.000000 0.000000
# 2 -0.010362 0.032540 -0.006339 0.000000 0.000000 0.000000
# 3 -0.005248 -0.006339 0.016117 0.000000 0.000000 0.000000
# 4 0.000000 0.000000 0.000000 0.052130 0.000000 0.000000
# 5 0.000000 0.000000 0.000000 0.000000 0.039550 0.000000
# 6 0.000000 0.000000 0.000000 0.000000 0.000000 0.033164
#
#
# Mechanical properties :
#
#
# Convention : Reuss Voigt Hill
#
# Bulk Modulus (GPa) = 47.24245 56.10756 51.67501
# Shear Modulus (GPa) = 20.75859 22.88129 21.81994
#
# Velocity S-wave (km/s) = 3.47601 3.64941 3.56377
# Velocity P-wave (km/s) = 6.60363 7.10038 6.85651
#
# Compressibility (1/GPa) = 0.02116740
#
# Stress axis : x y z
#
# Youngs Moduli (GPa) = 60.94257 30.73125 62.04646
#
# Poissons Ratio (x) = 0.31844 0.32562
# Poissons Ratio (y) = 0.63150 0.39332
# Poissons Ratio (z) = 0.31982 0.19481
#
# Static dielectric constant tensor:
#      x y z
#    x 3.925020 0.000000 0.000000 
#    y 0.000000 2.962680 0.000000 
#    z 0.000000 0.000000 3.055820 
# 
# 
# High freq. dielectric constant tensor:
#      x y z
#    x 1.667830 0.000000 0.000000 
#    y 0.000000 1.647470 0.000000 
#    z 0.000000 0.000000 1.641580 
# 
# From -- ./inp_files/33769.got.cif
#   From: 2010.03.12/outbox.cif.g09.slc.cpg/sg51_17_cif.got.tgz:33769.got - 2010.04.16 13:43:02.
