data_PCOD8208045
_publ_section_title
;
Structure prediction by ZEFSAII (Michael W. Deem and Ramdas Pophale) SiO2 
 PCOD8208045
Probable space group: P M M A
;
_chemical_formula_sum "Si O2"
_cell_formula_units_Z 48
_cell_length_a 20.466714
_cell_length_b 9.121640
_cell_length_c 15.050110
_cell_angle_alpha 90.000000
_cell_angle_beta 90.000000
_cell_angle_gamma 90.000000
_cell_volume 2809.704992
_symmetry_space_group_name_H-M "P M M A"
_symmetry_group_IT_number 51
_symmetry_cell_setting 'orthorhombic'
loop_
_space_group_symop_operation_xyz
x,y,z
1/2-x,-y,z
1/2+x,-y,-z
-x,y,-z
-x,-y,-z
1/2+x,y,-z
1/2-x,y,z
x,-y,z
loop_
_atom_site_type_symbol
_atom_site_label
_atom_site_fract_x
_atom_site_fract_y
_atom_site_fract_z
Si Si1 0.450594 0.326329 0.422457
Si Si2 0.449090 0.172028 0.926008
Si Si3 0.154158 0.334260 0.195560
Si Si4 0.992776 0.664046 0.769409
Si Si5 0.676852 0.828473 0.623832
Si Si6 0.679014 0.165724 0.977583
O O1 0.500000 0.279622 0.500000
O O2 0.437571 0.500000 0.419973
O O3 0.484530 0.274035 0.330699
O O4 0.379780 0.249227 0.435235
O O5 0.459007 0.238873 0.828338
O O6 0.457871 0.000000 0.915562
O O7 0.500000 0.232278 0.000000
O O8 0.376251 0.219647 0.954380
O O9 0.179371 0.500000 0.210170
O O10 0.076771 0.332239 0.182633
O O11 0.176904 0.237133 0.277801
O O12 0.184867 0.268783 0.107366
O O13 0.021377 0.500000 0.765614
O O14 0.750000 0.803171 0.583051
O O15 0.660670 0.000000 0.629021
O O16 0.750000 0.170766 0.025467
O O17 0.661919 0.000000 0.946347
#
# Coordination Sequence:
#
# PCOD8208045 Si02
#       6
#     8   8   8   8   8   8
#     4   9  19  36  56  78 103 130 165 208 256 308
#     4  10  19  31  48  69  93 127 169 202 233 286
#     4  10  19  30  46  70  99 130 164 199 242 296
#     4   9  18  31  49  73  97 125 159 201 246 287
#     4  10  20  32  48  73 105 136 165 200 245 300
#     4  10  20  32  45  64  94 129 164 205 249 288
#
# _framework density 17.083642999999999
#
# number of rings (size 3 to 8) (size 9 to 14) (size 15 to 20)
#    0.000    2.333    1.667    2.500    0.000    7.667 
#    0.000    0.000    0.000    1.000    0.000    4.667 
#    0.000    0.000    0.000    0.000    0.000    0.000 
#
# Total GULP energy -595006.028843 kJ/mol
# GULP energy per Si atom -12395.958934 kJ/mol
# Density = 1.704476 g / cm^3
# Si number density = 17.083643 Si / 1000 Ang^3
#
#
#
# Elastic Constant Matrix: (Units=GPa)
#
#
# Indices 1 2 3 4 5 6 
#
# 1 131.0538 47.0816 62.4044 0.0000 0.0000 0.0000
# 2 47.0816 67.7754 32.9007 0.0000 0.0000 0.0000
# 3 62.4044 32.9007 81.5566 0.0000 0.0000 0.0000
# 4 0.0000 0.0000 0.0000 23.3343 0.0000 0.0000
# 5 0.0000 0.0000 0.0000 0.0000 21.3182 0.0000
# 6 0.0000 0.0000 0.0000 0.0000 0.0000 18.7007
#
#
#
# Elastic Compliance Matrix: (Units=1/GPa)
#
#
# Indices 1 2 3 4 5 6 
#
# 1 0.013423 -0.005395 -0.008094 0.000000 0.000000 0.000000
# 2 -0.005395 0.020516 -0.004148 0.000000 0.000000 0.000000
# 3 -0.008094 -0.004148 0.020128 0.000000 0.000000 0.000000
# 4 0.000000 0.000000 0.000000 0.042855 0.000000 0.000000
# 5 0.000000 0.000000 0.000000 0.000000 0.046908 0.000000
# 6 0.000000 0.000000 0.000000 0.000000 0.000000 0.053474
#
#
# Mechanical properties :
#
#
# Convention : Reuss Voigt Hill
#
# Bulk Modulus (GPa) = 53.21398 62.79547 58.00472
# Shear Modulus (GPa) = 20.93410 21.87059 21.40234
#
# Velocity S-wave (km/s) = 3.50435 3.58188 3.54333
# Velocity P-wave (km/s) = 6.89860 7.34465 7.12512
#
# Compressibility (1/GPa) = 0.01879205
#
# Stress axis : x y z
#
# Youngs Moduli (GPa) = 74.49864 48.74183 49.68117
#
# Poissons Ratio (x) = 0.26298 0.40214
# Poissons Ratio (y) = 0.40194 0.20608
# Poissons Ratio (z) = 0.60302 0.20219
#
# Static dielectric constant tensor:
#      x y z
#    x 3.330470 0.000000 0.000000 
#    y 0.000000 3.194790 0.000000 
#    z 0.000000 0.000000 2.937520 
# 
# 
# High freq. dielectric constant tensor:
#      x y z
#    x 1.661360 0.000000 0.000000 
#    y 0.000000 1.660730 0.000000 
#    z 0.000000 0.000000 1.622710 
# 
# From -- ./inp_files/25448.got.cif
#   From: 2010.03.12/outbox.cif.g09.slc.cpg/sg51_13_cif.got.tgz:25448.got - 2010.04.16 13:43:02.
