data_PCOD8208497
_publ_section_title
;
Structure prediction by ZEFSAII (Michael W. Deem and Ramdas Pophale) SiO2 
 PCOD8208497
Probable space group: P M M A
;
_chemical_formula_sum "Si O2"
_cell_formula_units_Z 32
_cell_length_a 8.787855
_cell_length_b 10.246403
_cell_length_c 19.294983
_cell_angle_alpha 90.000000
_cell_angle_beta 90.000000
_cell_angle_gamma 90.000000
_cell_volume 1737.395594
_symmetry_space_group_name_H-M "P M M A"
_symmetry_group_IT_number 51
_symmetry_cell_setting 'orthorhombic'
loop_
_space_group_symop_operation_xyz
x,y,z
1/2-x,-y,z
1/2+x,-y,-z
-x,y,-z
-x,-y,-z
1/2+x,y,-z
1/2-x,y,z
x,-y,z
loop_
_atom_site_type_symbol
_atom_site_label
_atom_site_fract_x
_atom_site_fract_y
_atom_site_fract_z
Si Si1 0.072118 0.652614 0.210600
Si Si2 0.921003 0.344929 0.068858
Si Si3 0.071707 0.000000 0.575538
Si Si4 0.929386 0.260723 0.346118
Si Si5 0.429395 0.500000 0.425048
O O1 0.250000 0.680340 0.218318
O O2 0.035004 0.500000 0.222234
O O3 0.017820 0.699986 0.135214
O O4 0.979453 0.738214 0.266041
O O5 0.750000 0.289381 0.074507
O O6 0.917576 0.500000 0.064352
O O7 0.000000 0.287016 0.000000
O O8 0.019724 0.125405 0.619239
O O9 0.000000 0.000000 0.500000
O O10 0.250000 0.000000 0.564279
O O11 0.750000 0.284824 0.352173
O O12 0.019481 0.372793 0.384894
O O13 0.250000 0.500000 0.431502
O O14 0.500000 0.500000 0.500000
#
# Coordination Sequence:
#
# PCOD8208497 Si02
#       5
#     8   8   4   8   4
#     4  10  19  31  49  76 109 142 181 224 269 321
#     4   9  16  26  42  67 102 143 182 220 268 318
#     4  10  24  42  60  82 107 140 181 226 274 330
#     4  11  22  38  58  81 109 142 180 224 275 326
#     4  12  24  38  56  82 109 138 177 220 270 328
#
# _framework density 18.418374
#
# number of rings (size 3 to 8) (size 9 to 14) (size 15 to 20)
#    0.000    1.750    1.250    4.125    0.000    8.000 
#    0.000    0.000    0.000    0.000    0.000    0.875 
#    0.000    0.000    0.000    0.000    0.000    0.000 
#
# Total GULP energy -396889.456970 kJ/mol
# GULP energy per Si atom -12402.795530 kJ/mol
# Density = 1.837645 g / cm^3
# Si number density = 18.418374 Si / 1000 Ang^3
#
#
#
# Elastic Constant Matrix: (Units=GPa)
#
#
# Indices 1 2 3 4 5 6 
#
# 1 109.3730 41.8728 54.0803 0.0000 0.0000 0.0000
# 2 41.8728 90.8866 54.8773 0.0000 0.0000 0.0000
# 3 54.0803 54.8773 166.2159 0.0000 0.0000 0.0000
# 4 0.0000 0.0000 0.0000 18.2267 0.0000 0.0000
# 5 0.0000 0.0000 0.0000 0.0000 42.7086 0.0000
# 6 0.0000 0.0000 0.0000 0.0000 0.0000 557.8596
#
#
#
# Elastic Compliance Matrix: (Units=1/GPa)
#
#
# Indices 1 2 3 4 5 6 
#
# 1 0.011926 -0.003936 -0.002581 0.000000 0.000000 0.000000
# 2 -0.003936 0.015041 -0.003685 0.000000 0.000000 0.000000
# 3 -0.002581 -0.003685 0.008073 0.000000 0.000000 0.000000
# 4 0.000000 0.000000 0.000000 0.054865 0.000000 0.000000
# 5 0.000000 0.000000 0.000000 0.000000 0.023415 0.000000
# 6 0.000000 0.000000 0.000000 0.000000 0.000000 0.001793
#
#
# Mechanical properties :
#
#
# Convention : Reuss Voigt Hill
#
# Bulk Modulus (GPa) = 68.32676 74.23736 71.28206
# Shear Modulus (GPa) = 35.61384 138.13531 86.87458
#
# Velocity S-wave (km/s) = 4.40205 8.66957 6.87530
# Velocity P-wave (km/s) = 7.93820 11.85786 10.09019
#
# Compressibility (1/GPa) = 0.01463555
#
# Stress axis : x y z
#
# Youngs Moduli (GPa) = 83.85001 66.48307 123.87497
#
# Poissons Ratio (x) = 0.26170 0.31968
# Poissons Ratio (y) = 0.33006 0.45652
# Poissons Ratio (z) = 0.21639 0.24501
#
# Static dielectric constant tensor:
#      x y z
#    x 3.509040 0.000000 0.000000 
#    y 0.000000 3.056130 0.000000 
#    z 0.000000 0.000000 3.669670 
# 
# 
# High freq. dielectric constant tensor:
#      x y z
#    x 1.730910 0.000000 0.000000 
#    y 0.000000 1.662990 0.000000 
#    z 0.000000 0.000000 1.736610 
# 
# From -- ./inp_files/26953.got.cif
#   From: 2010.03.12/outbox.cif.g09.slc.cpg/sg51_14_cif.got.tgz:26953.got - 2010.04.16 13:43:02.
