data_PCOD8208382
_publ_section_title
;
Structure prediction by ZEFSAII (Michael W. Deem and Ramdas Pophale) SiO2 
 PCOD8208382
Probable space group: P M M A
;
_chemical_formula_sum "Si O2"
_cell_formula_units_Z 64
_cell_length_a 23.096605
_cell_length_b 13.460065
_cell_length_c 12.034852
_cell_angle_alpha 90.000000
_cell_angle_beta 90.000000
_cell_angle_gamma 90.000000
_cell_volume 3741.416508
_symmetry_space_group_name_H-M "P M M A"
_symmetry_group_IT_number 51
_symmetry_cell_setting 'orthorhombic'
loop_
_space_group_symop_operation_xyz
x,y,z
1/2-x,-y,z
1/2+x,-y,-z
-x,y,-z
-x,-y,-z
1/2+x,y,-z
1/2-x,y,z
x,-y,z
loop_
_atom_site_type_symbol
_atom_site_label
_atom_site_fract_x
_atom_site_fract_y
_atom_site_fract_z
Si Si1 0.118658 0.884336 0.778160
Si Si2 0.493428 0.772648 0.868109
Si Si3 0.989801 0.615937 0.680823
Si Si4 0.312235 0.113601 0.990986
Si Si5 0.092907 0.615602 0.514637
Si Si6 0.313512 0.886270 0.362753
Si Si7 0.394117 0.117624 0.175039
Si Si8 0.183679 0.230144 0.586045
O O1 0.066662 0.823993 0.835685
O O2 0.171592 0.881218 0.862714
O O3 0.142183 0.825981 0.672192
O O4 0.101623 0.000000 0.751562
O O5 0.506014 0.672792 0.798200
O O6 0.539827 0.852542 0.828334
O O7 0.500000 0.750037 0.000000
O O8 0.986394 0.500000 0.709804
O O9 0.933914 0.647168 0.605714
O O10 0.046714 0.640773 0.609998
O O11 0.250000 0.167095 0.006277
O O12 0.306566 0.000000 0.029415
O O13 0.360782 0.164132 0.068463
O O14 0.107324 0.500000 0.512554
O O15 0.153018 0.669010 0.545026
O O16 0.250000 0.872616 0.307065
O O17 0.362026 0.838014 0.283420
O O18 0.313820 0.840962 0.482690
O O19 0.328883 0.000000 0.380287
O O20 0.391539 0.000000 0.173910
O O21 0.250000 0.251257 0.628575
#
# Coordination Sequence:
#
# PCOD8208382 Si02
#       8
#     8   8   8   8   8   8   8   8
#     4  11  22  35  49  72 108 147 185 218 257 310
#     4  12  22  34  53  77 108 139 175 227 276 315
#     4   9  19  37  60  80 102 135 174 218 266 321
#     4   9  17  30  48  67  92 133 182 220 250 298
#     4   9  18  36  60  82 105 134 171 216 263 317
#     4   9  18  32  49  71 102 139 177 215 257 310
#     4  10  19  31  48  72 102 137 176 217 264 307
#     4  11  21  34  54  80 110 139 172 216 266 319
#
# _framework density 17.105820999999999
#
# number of rings (size 3 to 8) (size 9 to 14) (size 15 to 20)
#    0.000    2.000    2.500    3.000    0.000    3.750 
#    0.000    0.000    0.000    3.000    0.000    0.000 
#    0.000    1.000    0.000    0.000    0.000    0.000 
#
# Total GULP energy -793029.533284 kJ/mol
# GULP energy per Si atom -12391.086458 kJ/mol
# Density = 1.706689 g / cm^3
# Si number density = 17.105821 Si / 1000 Ang^3
#
#
#
# Elastic Constant Matrix: (Units=GPa)
#
#
# Indices 1 2 3 4 5 6 
#
# 1 90.2938 49.7731 31.9420 0.0000 0.0000 0.0000
# 2 49.7731 52.9096 52.1888 0.0000 0.0000 0.0000
# 3 31.9420 52.1888 82.2448 0.0000 0.0000 0.0000
# 4 0.0000 0.0000 0.0000 24.0282 0.0000 0.0000
# 5 0.0000 0.0000 0.0000 0.0000 27.4175 0.0000
# 6 0.0000 0.0000 0.0000 0.0000 0.0000 19.6949
#
#
#
# Elastic Compliance Matrix: (Units=1/GPa)
#
#
# Indices 1 2 3 4 5 6 
#
# 1 0.029491 -0.043961 0.016442 0.000000 0.000000 0.000000
# 2 -0.043961 0.116054 -0.056569 0.000000 0.000000 0.000000
# 3 0.016442 -0.056569 0.041669 0.000000 0.000000 0.000000
# 4 0.000000 0.000000 0.000000 0.041618 0.000000 0.000000
# 5 0.000000 0.000000 0.000000 0.000000 0.036473 0.000000
# 6 0.000000 0.000000 0.000000 0.000000 0.000000 0.050775
#
#
# Mechanical properties :
#
#
# Convention : Reuss Voigt Hill
#
# Bulk Modulus (GPa) = 52.52626 54.80621 53.66624
# Shear Modulus (GPa) = 10.19156 20.33107 15.26132
#
# Velocity S-wave (km/s) = 2.44354 3.45127 2.99016
# Velocity P-wave (km/s) = 6.22370 6.92754 6.58503
#
# Compressibility (1/GPa) = 0.01903810
#
# Stress axis : x y z
#
# Youngs Moduli (GPa) = 33.90811 8.61670 23.99855
#
# Poissons Ratio (x) = 0.37880 -0.39458
# Poissons Ratio (y) = 1.49064 1.35757
# Poissons Ratio (z) = -0.55752 0.48744
#
# Static dielectric constant tensor:
#      x y z
#    x 3.452290 0.000000 0.000000 
#    y 0.000000 2.925480 0.000000 
#    z 0.000000 0.000000 3.283770 
# 
# 
# High freq. dielectric constant tensor:
#      x y z
#    x 1.670970 0.000000 0.000000 
#    y 0.000000 1.628220 0.000000 
#    z 0.000000 0.000000 1.667070 
# 
# From -- ./inp_files/18865.got.cif
#   From: 2010.03.12/outbox.cif.g09.slc.cpg/sg51_10_cif.got.tgz:18865.got - 2010.04.16 13:43:02.
