data_PCOD8208725
_publ_section_title
;
Structure prediction by ZEFSAII (Michael W. Deem and Ramdas Pophale) SiO2 
 PCOD8208725
Probable space group: P M M A
;
_chemical_formula_sum "Si O2"
_cell_formula_units_Z 44
_cell_length_a 8.935782
_cell_length_b 15.271573
_cell_length_c 17.572103
_cell_angle_alpha 90.000000
_cell_angle_beta 90.000000
_cell_angle_gamma 90.000000
_cell_volume 2397.949749
_symmetry_space_group_name_H-M "P M M A"
_symmetry_group_IT_number 51
_symmetry_cell_setting 'orthorhombic'
loop_
_space_group_symop_operation_xyz
x,y,z
1/2-x,-y,z
1/2+x,-y,-z
-x,y,-z
-x,-y,-z
1/2+x,y,-z
1/2-x,y,z
x,-y,z
loop_
_atom_site_type_symbol
_atom_site_label
_atom_site_fract_x
_atom_site_fract_y
_atom_site_fract_z
Si Si1 0.572600 0.000000 0.417940
Si Si2 0.425682 0.597609 0.739110
Si Si3 0.927632 0.336916 0.425010
Si Si4 0.918248 0.240586 0.800418
Si Si5 0.420583 0.829818 0.368315
Si Si6 0.427514 0.900925 0.079897
O O1 0.500000 0.000000 0.500000
O O2 0.515909 0.917298 0.371328
O O3 0.750000 0.000000 0.424356
O O4 0.250000 0.609547 0.744242
O O5 0.475972 0.500000 0.763474
O O6 0.476275 0.611708 0.651370
O O7 0.494646 0.667143 0.798203
O O8 0.750000 0.332917 0.433935
O O9 0.000000 0.382965 0.500000
O O10 0.997608 0.240212 0.421639
O O11 0.750000 0.262673 0.825335
O O12 0.923592 0.197944 0.718441
O O13 0.988567 0.170096 0.859130
O O14 0.250000 0.843220 0.397003
O O15 0.250000 0.895315 0.072843
O O16 0.474891 0.000000 0.104189
O O17 0.500000 0.875495 0.000000
#
# Coordination Sequence:
#
# PCOD8208725 Si02
#       6
#     4   8   8   8   8   8
#     4  12  24  36  48  66  93 128 171 216 259 302
#     4   9  19  35  53  74 102 135 171 215 266 312
#     4  10  19  32  49  69  97 129 167 213 262 312
#     4   9  19  34  55  79 104 136 171 209 254 301
#     4  10  20  34  51  70  94 129 170 210 257 306
#     4   9  18  33  54  81 113 143 170 202 245 298
#
# _framework density 18.349008000000001
#
# number of rings (size 3 to 8) (size 9 to 14) (size 15 to 20)
#    0.000    2.364    0.000    2.455    1.273    2.909 
#    0.000    0.000    0.000    0.545    0.000    0.000 
#    0.000    0.000    0.000    0.000    0.000    0.000 
#
# Total GULP energy -545494.368889 kJ/mol
# GULP energy per Si atom -12397.599293 kJ/mol
# Density = 1.830724 g / cm^3
# Si number density = 18.349008 Si / 1000 Ang^3
#
#
#
# Elastic Constant Matrix: (Units=GPa)
#
#
# Indices 1 2 3 4 5 6 
#
# 1 74.1404 42.9570 24.5993 0.0000 0.0000 0.0000
# 2 42.9570 137.4704 48.8983 0.0000 0.0000 0.0000
# 3 24.5993 48.8983 79.4278 0.0000 0.0000 0.0000
# 4 0.0000 0.0000 0.0000 19.1960 0.0000 0.0000
# 5 0.0000 0.0000 0.0000 0.0000 27.9285 0.0000
# 6 0.0000 0.0000 0.0000 0.0000 0.0000 28.9704
#
#
#
# Elastic Compliance Matrix: (Units=1/GPa)
#
#
# Indices 1 2 3 4 5 6 
#
# 1 0.016859 -0.004367 -0.002533 0.000000 0.000000 0.000000
# 2 -0.004367 0.010445 -0.005078 0.000000 0.000000 0.000000
# 3 -0.002533 -0.005078 0.016501 0.000000 0.000000 0.000000
# 4 0.000000 0.000000 0.000000 0.052094 0.000000 0.000000
# 5 0.000000 0.000000 0.000000 0.000000 0.035806 0.000000
# 6 0.000000 0.000000 0.000000 0.000000 0.000000 0.034518
#
#
# Mechanical properties :
#
#
# Convention : Reuss Voigt Hill
#
# Bulk Modulus (GPa) = 50.38045 58.21642 54.29843
# Shear Modulus (GPa) = 25.40734 26.85793 26.13263
#
# Velocity S-wave (km/s) = 3.72515 3.83002 3.77795
# Velocity P-wave (km/s) = 6.78371 7.16623 6.97759
#
# Compressibility (1/GPa) = 0.01984897
#
# Stress axis : x y z
#
# Youngs Moduli (GPa) = 59.31703 95.73843 60.60421
#
# Poissons Ratio (x) = 0.41810 0.15349
# Poissons Ratio (y) = 0.25904 0.30774
# Poissons Ratio (z) = 0.15023 0.48614
#
# Static dielectric constant tensor:
#      x y z
#    x 3.441330 0.000000 0.000000 
#    y 0.000000 3.463400 0.000000 
#    z 0.000000 0.000000 3.254560 
# 
# 
# High freq. dielectric constant tensor:
#      x y z
#    x 1.711680 0.000000 0.000000 
#    y 0.000000 1.712090 0.000000 
#    z 0.000000 0.000000 1.692000 
# 
# From -- ./inp_files/27337.got.cif
#   From: 2010.03.12/outbox.cif.g09.slc.cpg/sg51_14_cif.got.tgz:27337.got - 2010.04.16 13:43:02.
