data_PCOD8208643
_publ_section_title
;
Structure prediction by ZEFSAII (Michael W. Deem and Ramdas Pophale) SiO2 
 PCOD8208643
Probable space group: P M M A
;
_chemical_formula_sum "Si O2"
_cell_formula_units_Z 28
_cell_length_a 9.110506
_cell_length_b 7.736691
_cell_length_c 19.661892
_cell_angle_alpha 90.000000
_cell_angle_beta 90.000000
_cell_angle_gamma 90.000000
_cell_volume 1385.871796
_symmetry_space_group_name_H-M "P M M A"
_symmetry_group_IT_number 51
_symmetry_cell_setting 'orthorhombic'
loop_
_space_group_symop_operation_xyz
x,y,z
1/2-x,-y,z
1/2+x,-y,-z
-x,y,-z
-x,-y,-z
1/2+x,y,-z
1/2-x,y,z
x,-y,z
loop_
_atom_site_type_symbol
_atom_site_label
_atom_site_fract_x
_atom_site_fract_y
_atom_site_fract_z
Si Si1 0.582426 0.306761 0.831585
Si Si2 0.922507 0.000000 0.928323
Si Si3 0.915771 0.794124 0.565836
Si Si4 0.079779 0.797489 0.699862
O O1 0.750000 0.262274 0.811093
O O2 0.570252 0.500000 0.862438
O O3 0.483081 0.299720 0.764940
O O4 0.526201 0.170481 0.887478
O O5 0.750000 0.000000 0.941009
O O6 0.000000 0.000000 0.000000
O O7 0.750000 0.722753 0.565652
O O8 0.000000 0.720172 0.500000
O O9 0.997461 0.726758 0.633157
O O10 0.917094 0.000000 0.564106
O O11 0.250000 0.753114 0.691683
O O12 0.052039 0.000000 0.709666
#
# Coordination Sequence:
#
# PCOD8208643 Si02
#       4
#     8   4   8   8
#     4  10  21  38  60  85 114 151 192 232 279 335
#     4  10  22  40  62  88 119 150 185 228 276 334
#     4   9  16  26  43  70 106 147 192 241 290 340
#     4  10  19  31  51  79 111 148 191 238 288 340
#
# _framework density 20.203887999999999
#
# number of rings (size 3 to 8) (size 9 to 14) (size 15 to 20)
#    0.000    2.286    1.429    1.714    0.000    6.857 
#    0.000    0.000    0.000    0.857    0.000    0.000 
#    0.000    0.000    0.000    0.000    0.000    0.000 
#
# Total GULP energy -347269.299932 kJ/mol
# GULP energy per Si atom -12402.474998 kJ/mol
# Density = 2.015790 g / cm^3
# Si number density = 20.203888 Si / 1000 Ang^3
#
#
#
# Elastic Constant Matrix: (Units=GPa)
#
#
# Indices 1 2 3 4 5 6 
#
# 1 119.2405 35.9412 72.3994 0.0000 0.0000 0.0000
# 2 35.9412 87.6680 55.4064 0.0000 0.0000 0.0000
# 3 72.3994 55.4064 173.1173 0.0000 0.0000 0.0000
# 4 0.0000 0.0000 0.0000 1.7831 0.0000 0.0000
# 5 0.0000 0.0000 0.0000 0.0000 45.5178 0.0000
# 6 0.0000 0.0000 0.0000 0.0000 0.0000 13.3404
#
#
#
# Elastic Compliance Matrix: (Units=1/GPa)
#
#
# Indices 1 2 3 4 5 6 
#
# 1 0.011543 -0.002108 -0.004153 0.000000 0.000000 0.000000
# 2 -0.002108 0.014684 -0.003818 0.000000 0.000000 0.000000
# 3 -0.004153 -0.003818 0.008735 0.000000 0.000000 0.000000
# 4 0.000000 0.000000 0.000000 0.560831 0.000000 0.000000
# 5 0.000000 0.000000 0.000000 0.000000 0.021969 0.000000
# 6 0.000000 0.000000 0.000000 0.000000 0.000000 0.074960
#
#
# Mechanical properties :
#
#
# Convention : Reuss Voigt Hill
#
# Bulk Modulus (GPa) = 67.54569 78.61329 73.07949
# Shear Modulus (GPa) = 6.96558 26.54684 16.75621
#
# Velocity S-wave (km/s) = 1.85880 3.62877 2.88298
# Velocity P-wave (km/s) = 6.17345 7.52009 6.87980
#
# Compressibility (1/GPa) = 0.01480479
#
# Stress axis : x y z
#
# Youngs Moduli (GPa) = 86.63066 68.10212 114.47909
#
# Poissons Ratio (x) = 0.14354 0.47542
# Poissons Ratio (y) = 0.18259 0.43709
# Poissons Ratio (z) = 0.35977 0.26002
#
# Static dielectric constant tensor:
#      x y z
#    x 3.692290 0.000000 0.000000 
#    y 0.000000 3.505120 0.000000 
#    z 0.000000 0.000000 3.582760 
# 
# 
# High freq. dielectric constant tensor:
#      x y z
#    x 1.791630 0.000000 0.000000 
#    y 0.000000 1.772860 0.000000 
#    z 0.000000 0.000000 1.784010 
# 
# From -- ./inp_files/31054.got.cif
#   From: 2010.03.12/outbox.cif.g09.slc.cpg/sg51_16_cif.got.tgz:31054.got - 2010.04.16 13:43:02.
