data_PCOD8208957
_publ_section_title
;
Structure prediction by ZEFSAII (Michael W. Deem and Ramdas Pophale) SiO2 
 PCOD8208957
Probable space group: P M M A
;
_chemical_formula_sum "Si O2"
_cell_formula_units_Z 64
_cell_length_a 9.275281
_cell_length_b 20.441673
_cell_length_c 18.531403
_cell_angle_alpha 90.000000
_cell_angle_beta 90.000000
_cell_angle_gamma 90.000000
_cell_volume 3513.595912
_symmetry_space_group_name_H-M "P M M A"
_symmetry_group_IT_number 51
_symmetry_cell_setting 'orthorhombic'
loop_
_space_group_symop_operation_xyz
x,y,z
1/2-x,-y,z
1/2+x,-y,-z
-x,y,-z
-x,-y,-z
1/2+x,y,-z
1/2-x,y,z
x,-y,z
loop_
_atom_site_type_symbol
_atom_site_label
_atom_site_fract_x
_atom_site_fract_y
_atom_site_fract_z
Si Si1 0.411661 0.071199 0.676063
Si Si2 0.081135 0.308771 0.426516
Si Si3 0.083569 0.425819 0.812287
Si Si4 0.078996 0.685068 0.925392
Si Si5 0.417208 0.194516 0.320785
Si Si6 0.412218 0.927590 0.847452
Si Si7 0.918162 0.426057 0.670157
Si Si8 0.079957 0.802060 0.153346
O O1 0.250000 0.082280 0.647670
O O2 0.508451 0.129964 0.646105
O O3 0.414737 0.071730 0.761794
O O4 0.468717 0.000000 0.648980
O O5 0.250000 0.304016 0.441851
O O6 0.031295 0.256467 0.366804
O O7 0.037052 0.380161 0.396551
O O8 0.000000 0.294284 0.500000
O O9 0.250000 0.420939 0.791376
O O10 0.040858 0.500000 0.834155
O O11 0.044854 0.378770 0.878082
O O12 0.996572 0.402381 0.742370
O O13 0.250000 0.695861 0.935946
O O14 0.009718 0.748329 0.889172
O O15 0.000000 0.671652 0.000000
O O16 0.250000 0.181560 0.328983
O O17 0.457409 0.207385 0.237578
O O18 0.250000 0.910738 0.874218
O O19 0.525068 0.872967 0.875036
O O20 0.457789 0.000000 0.876091
O O21 0.750000 0.419096 0.686606
O O22 0.962074 0.500000 0.649348
O O23 0.250000 0.795601 0.137624
#
# Coordination Sequence:
#
# PCOD8208957 Si02
#       8
#     8   8   8   8   8   8   8   8
#     4   8  14  25  43  69  98 125 157 200 247 295
#     4  10  21  35  49  70 101 134 170 209 249 294
#     4   9  19  36  57  81 106 131 164 207 251 297
#     4  11  23  37  53  74 103 137 171 208 250 297
#     4   9  18  31  48  71  99 130 164 206 251 296
#     4   8  14  26  45  71 103 134 164 203 251 300
#     4   9  18  34  56  79 103 132 165 203 248 298
#     4  10  19  32  52  76 102 133 170 211 254 301
#
# _framework density 18.214956999999998
#
# number of rings (size 3 to 8) (size 9 to 14) (size 15 to 20)
#    0.000    2.750    0.000    2.250    0.000    4.500 
#    0.000    2.500    0.000    0.750    0.000    0.000 
#    0.000    0.000    0.000    0.000    0.000    0.000 
#
# Total GULP energy -793425.380768 kJ/mol
# GULP energy per Si atom -12397.271575 kJ/mol
# Density = 1.817350 g / cm^3
# Si number density = 18.214957 Si / 1000 Ang^3
#
#
#
# Elastic Constant Matrix: (Units=GPa)
#
#
# Indices 1 2 3 4 5 6 
#
# 1 45.3264 21.4066 13.5801 0.0000 0.0000 0.0000
# 2 21.4066 78.6487 10.1818 0.0000 0.0000 0.0000
# 3 13.5801 10.1818 37.8186 0.0000 0.0000 0.0000
# 4 0.0000 0.0000 0.0000 0.7160 0.0000 0.0000
# 5 0.0000 0.0000 0.0000 0.0000 27.5772 0.0000
# 6 0.0000 0.0000 0.0000 0.0000 0.0000 29.9969
#
#
#
# Elastic Compliance Matrix: (Units=1/GPa)
#
#
# Indices 1 2 3 4 5 6 
#
# 1 0.027549 -0.006442 -0.008158 0.000000 0.000000 0.000000
# 2 -0.006442 0.014680 -0.001639 0.000000 0.000000 0.000000
# 3 -0.008158 -0.001639 0.029813 0.000000 0.000000 0.000000
# 4 0.000000 0.000000 0.000000 1.396647 0.000000 0.000000
# 5 0.000000 0.000000 0.000000 0.000000 0.036262 0.000000
# 6 0.000000 0.000000 0.000000 0.000000 0.000000 0.033337
#
#
# Mechanical properties :
#
#
# Convention : Reuss Voigt Hill
#
# Bulk Modulus (GPa) = 25.27579 28.01452 26.64516
# Shear Modulus (GPa) = 3.15666 19.43305 11.29485
#
# Velocity S-wave (km/s) = 1.31786 3.26985 2.49286
# Velocity P-wave (km/s) = 4.02768 5.44694 4.79017
#
# Compressibility (1/GPa) = 0.03956355
#
# Stress axis : x y z
#
# Youngs Moduli (GPa) = 36.29917 68.11816 33.54268
#
# Poissons Ratio (x) = 0.43882 0.27364
# Poissons Ratio (y) = 0.23384 0.05498
# Poissons Ratio (z) = 0.29613 0.11165
#
# Static dielectric constant tensor:
#      x y z
#    x 3.392670 0.000000 0.000000 
#    y 0.000000 3.812450 0.000000 
#    z 0.000000 0.000000 3.079330 
# 
# 
# High freq. dielectric constant tensor:
#      x y z
#    x 1.704650 0.000000 0.000000 
#    y 0.000000 1.723620 0.000000 
#    z 0.000000 0.000000 1.669380 
# 
# From -- ./inp_files/28422.got.cif
#   From: 2010.03.12/outbox.cif.g09.slc.cpg/sg51_15_cif.got.tgz:28422.got - 2010.04.16 13:43:02.
