data_PCOD8208256
_publ_section_title
;
Structure prediction by ZEFSAII (Michael W. Deem and Ramdas Pophale) SiO2 
 PCOD8208256
Probable space group: P M M A
;
_chemical_formula_sum "Si O2"
_cell_formula_units_Z 48
_cell_length_a 8.778411
_cell_length_b 24.511999
_cell_length_c 13.742459
_cell_angle_alpha 90.000000
_cell_angle_beta 90.000000
_cell_angle_gamma 90.000000
_cell_volume 2957.052877
_symmetry_space_group_name_H-M "P M M A"
_symmetry_group_IT_number 51
_symmetry_cell_setting 'orthorhombic'
loop_
_space_group_symop_operation_xyz
x,y,z
1/2-x,-y,z
1/2+x,-y,-z
-x,y,-z
-x,-y,-z
1/2+x,y,-z
1/2-x,y,z
x,-y,z
loop_
_atom_site_type_symbol
_atom_site_label
_atom_site_fract_x
_atom_site_fract_y
_atom_site_fract_z
Si Si1 0.070315 0.718960 0.709761
Si Si2 0.069186 0.175209 0.606493
Si Si3 0.569035 0.341671 0.101909
Si Si4 0.928907 0.057616 0.394781
Si Si5 0.430262 0.388788 0.603390
Si Si6 0.574062 0.437621 0.787589
O O1 0.250000 0.722859 0.713300
O O2 0.002070 0.777426 0.676596
O O3 0.012510 0.702175 0.817224
O O4 0.020992 0.672772 0.632404
O O5 0.250000 0.180961 0.596588
O O6 0.023127 0.115713 0.653882
O O7 0.000000 0.182375 0.500000
O O8 0.750000 0.344472 0.095306
O O9 0.508248 0.401332 0.130652
O O10 0.500000 0.322421 0.000000
O O11 0.750000 0.058239 0.408639
O O12 0.000000 0.056481 0.500000
O O13 0.976498 0.000000 0.340104
O O14 0.500000 0.404097 0.500000
O O15 0.250000 0.395670 0.600116
O O16 0.496435 0.430277 0.682640
O O17 0.750000 0.420361 0.780373
O O18 0.555618 0.500000 0.820381
#
# Coordination Sequence:
#
# PCOD8208256 Si02
#       6
#     8   8   8   8   8   8
#     4   8  16  29  44  63  85 110 140 175 213 252
#     4   9  15  24  38  57  84 115 145 175 206 241
#     4  10  20  35  53  70  88 109 135 169 214 263
#     4   8  13  20  31  49  75 109 145 176 204 235
#     4  10  19  31  47  66  90 119 149 179 213 252
#     4  10  21  36  52  70  90 112 141 174 208 250
#
# _framework density 16.232378000000001
#
# number of rings (size 3 to 8) (size 9 to 14) (size 15 to 20)
#    0.000    2.833    0.000    3.000    0.000    2.000 
#    0.000    4.167    0.000    0.000    0.000    0.000 
#    0.000    0.667    0.000    0.500    0.000    1.333 
#
# Total GULP energy -594640.133945 kJ/mol
# GULP energy per Si atom -12388.336124 kJ/mol
# Density = 1.619543 g / cm^3
# Si number density = 16.232378 Si / 1000 Ang^3
#
#
#
# Elastic Constant Matrix: (Units=GPa)
#
#
# Indices 1 2 3 4 5 6 
#
# 1 51.7922 25.8086 22.1136 0.0000 0.0000 0.0000
# 2 25.8086 127.2998 37.0664 0.0000 0.0000 0.0000
# 3 22.1136 37.0664 82.3973 0.0000 0.0000 0.0000
# 4 0.0000 0.0000 0.0000 16.0120 0.0000 0.0000
# 5 0.0000 0.0000 0.0000 0.0000 23.6993 0.0000
# 6 0.0000 0.0000 0.0000 0.0000 0.0000 14.7464
#
#
#
# Elastic Compliance Matrix: (Units=1/GPa)
#
#
# Indices 1 2 3 4 5 6 
#
# 1 0.022945 -0.003290 -0.004678 0.000000 0.000000 0.000000
# 2 -0.003290 0.009511 -0.003396 0.000000 0.000000 0.000000
# 3 -0.004678 -0.003396 0.014919 0.000000 0.000000 0.000000
# 4 0.000000 0.000000 0.000000 0.062453 0.000000 0.000000
# 5 0.000000 0.000000 0.000000 0.000000 0.042195 0.000000
# 6 0.000000 0.000000 0.000000 0.000000 0.000000 0.067813
#
#
# Mechanical properties :
#
#
# Convention : Reuss Voigt Hill
#
# Bulk Modulus (GPa) = 40.57059 47.94071 44.25565
# Shear Modulus (GPa) = 19.93783 22.65826 21.29804
#
# Velocity S-wave (km/s) = 3.50848 3.74018 3.62618
# Velocity P-wave (km/s) = 6.43898 6.94623 6.69741
#
# Compressibility (1/GPa) = 0.02464840
#
# Stress axis : x y z
#
# Youngs Moduli (GPa) = 43.58339 105.13973 67.02710
#
# Poissons Ratio (x) = 0.34587 0.31355
# Poissons Ratio (y) = 0.14337 0.22761
# Poissons Ratio (z) = 0.20388 0.35703
#
# Static dielectric constant tensor:
#      x y z
#    x 2.919490 0.000000 0.000000 
#    y 0.000000 3.772280 0.000000 
#    z 0.000000 0.000000 2.882160 
# 
# 
# High freq. dielectric constant tensor:
#      x y z
#    x 1.622300 0.000000 0.000000 
#    y 0.000000 1.632730 0.000000 
#    z 0.000000 0.000000 1.585100 
# 
# From -- ./inp_files/14421.got.cif
#   From: 2010.03.12/outbox.cif.g09.slc.cpg/sg51_8_cif.got.tgz:14421.got - 2010.04.16 13:43:02.
