data_PCOD8208156
_publ_section_title
;
Structure prediction by ZEFSAII (Michael W. Deem and Ramdas Pophale) SiO2 
 PCOD8208156
Probable space group: P M M A
;
_chemical_formula_sum "Si O2"
_cell_formula_units_Z 64
_cell_length_a 18.418563
_cell_length_b 9.126581
_cell_length_c 20.392761
_cell_angle_alpha 90.000000
_cell_angle_beta 90.000000
_cell_angle_gamma 90.000000
_cell_volume 3427.992680
_symmetry_space_group_name_H-M "P M M A"
_symmetry_group_IT_number 51
_symmetry_cell_setting 'orthorhombic'
loop_
_space_group_symop_operation_xyz
x,y,z
1/2-x,-y,z
1/2+x,-y,-z
-x,y,-z
-x,-y,-z
1/2+x,y,-z
1/2-x,y,z
x,-y,z
loop_
_atom_site_type_symbol
_atom_site_label
_atom_site_fract_x
_atom_site_fract_y
_atom_site_fract_z
Si Si1 0.832056 0.325291 0.002468
Si Si2 0.665801 0.669937 0.748361
Si Si3 0.583056 0.674266 0.876354
Si Si4 0.667369 0.830648 0.238417
Si Si5 0.165994 0.828386 0.383549
Si Si6 0.418700 0.326111 0.871320
Si Si7 0.585335 0.330831 0.500339
Si Si8 0.166038 0.167905 0.610224
O O1 0.750000 0.264850 0.002416
O O2 0.832557 0.500000 0.001495
O O3 0.873623 0.262497 0.938895
O O4 0.872273 0.266691 0.067369
O O5 0.750000 0.696087 0.764324
O O6 0.649342 0.500000 0.734945
O O7 0.620591 0.731163 0.809926
O O8 0.640362 0.759276 0.684931
O O9 0.586030 0.500000 0.878305
O O10 0.500730 0.731486 0.879337
O O11 0.750000 0.782989 0.223787
O O12 0.613443 0.733622 0.196011
O O13 0.648528 0.801786 0.314040
O O14 0.656360 0.000000 0.220691
O O15 0.250000 0.791520 0.397109
O O16 0.118993 0.761733 0.441220
O O17 0.151635 0.000000 0.380308
O O18 0.416812 0.500000 0.868088
O O19 0.500000 0.305567 0.500000
O O20 0.605917 0.500000 0.510038
O O21 0.616508 0.276350 0.431319
O O22 0.250000 0.200286 0.594760
O O23 0.148016 0.000000 0.591915
#
# Coordination Sequence:
#
# PCOD8208156 Si02
#       8
#     8   8   8   8   8   8   8   8
#     4   9  16  27  46  72 100 132 173 216 255 300
#     4   9  17  31  52  75  99 132 174 214 251 298
#     4   9  17  29  46  71 104 137 167 207 260 307
#     4   9  19  36  55  74 100 134 168 203 247 301
#     4  10  21  37  57  79 103 134 172 213 257 306
#     4  10  19  30  48  76 106 132 164 211 259 301
#     4  11  24  38  53  78 110 139 169 209 256 305
#     4   9  19  37  59  80 102 133 175 216 253 301
#
# _framework density 18.669817999999999
#
# number of rings (size 3 to 8) (size 9 to 14) (size 15 to 20)
#    0.000    2.500    0.000    3.000    0.000    8.750 
#    0.000    5.625    0.000    2.250    0.000    1.750 
#    0.000    0.000    0.000    0.000    0.000    0.000 
#
# Total GULP energy -793745.110840 kJ/mol
# GULP energy per Si atom -12402.267357 kJ/mol
# Density = 1.862732 g / cm^3
# Si number density = 18.669818 Si / 1000 Ang^3
#
#
#
# Elastic Constant Matrix: (Units=GPa)
#
#
# Indices 1 2 3 4 5 6 
#
# 1 122.7611 37.2863 77.0160 0.0000 0.0000 0.0000
# 2 37.2863 46.2723 43.4682 0.0000 0.0000 0.0000
# 3 77.0160 43.4682 138.3138 0.0000 0.0000 0.0000
# 4 0.0000 0.0000 0.0000 8.8997 0.0000 0.0000
# 5 0.0000 0.0000 0.0000 0.0000 21.0637 0.0000
# 6 0.0000 0.0000 0.0000 0.0000 0.0000 21.1699
#
#
#
# Elastic Compliance Matrix: (Units=1/GPa)
#
#
# Indices 1 2 3 4 5 6 
#
# 1 0.013400 -0.005375 -0.005772 0.000000 0.000000 0.000000
# 2 -0.005375 0.032820 -0.007321 0.000000 0.000000 0.000000
# 3 -0.005772 -0.007321 0.012745 0.000000 0.000000 0.000000
# 4 0.000000 0.000000 0.000000 0.112363 0.000000 0.000000
# 5 0.000000 0.000000 0.000000 0.000000 0.047475 0.000000
# 6 0.000000 0.000000 0.000000 0.000000 0.000000 0.047237
#
#
# Mechanical properties :
#
#
# Convention : Reuss Voigt Hill
#
# Bulk Modulus (GPa) = 45.39778 69.20978 57.30378
# Shear Modulus (GPa) = 16.11241 20.19844 18.15543
#
# Velocity S-wave (km/s) = 2.94091 3.29276 3.12179
# Velocity P-wave (km/s) = 5.99173 7.18382 6.61468
#
# Compressibility (1/GPa) = 0.02202751
#
# Stress axis : x y z
#
# Youngs Moduli (GPa) = 74.62896 30.46881 78.46363
#
# Poissons Ratio (x) = 0.16378 0.45288
# Poissons Ratio (y) = 0.40116 0.57447
# Poissons Ratio (z) = 0.43075 0.22308
#
# Static dielectric constant tensor:
#      x y z
#    x 3.458480 0.000000 0.000000 
#    y 0.000000 3.122100 0.000000 
#    z 0.000000 0.000000 3.555920 
# 
# 
# High freq. dielectric constant tensor:
#      x y z
#    x 1.728400 0.000000 0.000000 
#    y 0.000000 1.692440 0.000000 
#    z 0.000000 0.000000 1.739930 
# 
# From -- ./inp_files/33812.got.cif
#   From: 2010.03.12/outbox.cif.g09.slc.cpg/sg51_17_cif.got.tgz:33812.got - 2010.04.16 13:43:02.
