data_PCOD8208328
_publ_section_title
;
Structure prediction by ZEFSAII (Michael W. Deem and Ramdas Pophale) SiO2 
 PCOD8208328
Probable space group: P M M A
;
_chemical_formula_sum "Si O2"
_cell_formula_units_Z 64
_cell_length_a 18.955541
_cell_length_b 9.281449
_cell_length_c 21.369362
_cell_angle_alpha 90.000000
_cell_angle_beta 90.000000
_cell_angle_gamma 90.000000
_cell_volume 3759.616290
_symmetry_space_group_name_H-M "P M M A"
_symmetry_group_IT_number 51
_symmetry_cell_setting 'orthorhombic'
loop_
_space_group_symop_operation_xyz
x,y,z
1/2-x,-y,z
1/2+x,-y,-z
-x,y,-z
-x,-y,-z
1/2+x,y,-z
1/2-x,y,z
x,-y,z
loop_
_atom_site_type_symbol
_atom_site_label
_atom_site_fract_x
_atom_site_fract_y
_atom_site_fract_z
Si Si1 0.608897 0.161489 0.769589
Si Si2 0.077824 0.330605 0.482996
Si Si3 0.172488 0.835272 0.104203
Si Si4 0.464623 0.331645 0.063474
Si Si5 0.667591 0.333117 0.398956
Si Si6 0.924463 0.838225 0.638087
Si Si7 0.521657 0.667018 0.193536
Si Si8 0.423439 0.168430 0.697061
O O1 0.671758 0.174873 0.819552
O O2 0.630643 0.178665 0.696460
O O3 0.555961 0.290402 0.784243
O O4 0.573320 0.000000 0.775958
O O5 0.078423 0.500000 0.473907
O O6 0.131215 0.280584 0.536903
O O7 0.101683 0.263798 0.417224
O O8 0.000000 0.273627 0.500000
O O9 0.250000 0.778869 0.083113
O O10 0.110401 0.745487 0.072463
O O11 0.162331 0.000000 0.083100
O O12 0.447362 0.500000 0.059758
O O13 0.521399 0.300188 0.118908
O O14 0.500000 0.274145 0.000000
O O15 0.750000 0.305971 0.406324
O O16 0.649590 0.500000 0.386147
O O17 0.639683 0.239781 0.341444
O O18 0.002663 0.796841 0.662786
O O19 0.924754 0.000000 0.611745
O O20 0.536273 0.500000 0.207651
O O21 0.577489 0.762154 0.232954
O O22 0.408706 0.000000 0.703310
#
# Coordination Sequence:
#
# PCOD8208328 Si02
#       8
#     8   8   8   8   8   8   8   8
#     4   8  15  28  43  65  96 125 155 194 240 285
#     4  10  19  31  48  69  91 120 161 202 240 289
#     4   9  17  30  49  72 100 135 172 208 248 297
#     4   9  18  32  50  75 106 137 170 208 247 288
#     4  10  21  36  51  68  93 124 158 200 251 301
#     4   9  17  28  45  69  93 119 153 195 237 279
#     4   9  16  27  47  72  96 122 155 194 235 281
#     4  10  19  31  49  72  96 120 152 197 244 288
#
# _framework density 17.023014
#
# number of rings (size 3 to 8) (size 9 to 14) (size 15 to 20)
#    0.000    2.750    1.250    1.500    0.000    4.000 
#    0.000    0.625    0.000    1.500    0.000    1.750 
#    0.000    0.000    0.000    0.000    0.000    0.000 
#
# Total GULP energy -793083.793187 kJ/mol
# GULP energy per Si atom -12391.934269 kJ/mol
# Density = 1.698427 g / cm^3
# Si number density = 17.023014 Si / 1000 Ang^3
#
#
#
# Elastic Constant Matrix: (Units=GPa)
#
#
# Indices 1 2 3 4 5 6 
#
# 1 82.0628 39.4508 55.0631 0.0000 0.0000 0.0000
# 2 39.4508 66.4095 57.7961 0.0000 0.0000 0.0000
# 3 55.0631 57.7961 135.9907 0.0000 0.0000 0.0000
# 4 0.0000 0.0000 0.0000 26.0327 0.0000 0.0000
# 5 0.0000 0.0000 0.0000 0.0000 19.6569 0.0000
# 6 0.0000 0.0000 0.0000 0.0000 0.0000 19.9068
#
#
#
# Elastic Compliance Matrix: (Units=1/GPa)
#
#
# Indices 1 2 3 4 5 6 
#
# 1 0.018652 -0.007154 -0.004512 0.000000 0.000000 0.000000
# 2 -0.007154 0.026641 -0.008426 0.000000 0.000000 0.000000
# 3 -0.004512 -0.008426 0.012761 0.000000 0.000000 0.000000
# 4 0.000000 0.000000 0.000000 0.038413 0.000000 0.000000
# 5 0.000000 0.000000 0.000000 0.000000 0.050873 0.000000
# 6 0.000000 0.000000 0.000000 0.000000 0.000000 0.050234
#
#
# Mechanical properties :
#
#
# Convention : Reuss Voigt Hill
#
# Bulk Modulus (GPa) = 55.95530 65.45367 60.70449
# Shear Modulus (GPa) = 20.51579 21.92948 21.22263
#
# Velocity S-wave (km/s) = 3.47534 3.59308 3.53470
# Velocity P-wave (km/s) = 7.00326 7.46640 7.23854
#
# Compressibility (1/GPa) = 0.01787141
#
# Stress axis : x y z
#
# Youngs Moduli (GPa) = 53.61238 37.53660 78.36142
#
# Poissons Ratio (x) = 0.26852 0.35358
# Poissons Ratio (y) = 0.38352 0.66026
# Poissons Ratio (z) = 0.24191 0.31627
#
# Static dielectric constant tensor:
#      x y z
#    x 2.879080 0.000000 0.000000 
#    y 0.000000 3.161200 0.000000 
#    z 0.000000 0.000000 3.395060 
# 
# 
# High freq. dielectric constant tensor:
#      x y z
#    x 1.615420 0.000000 0.000000 
#    y 0.000000 1.659090 0.000000 
#    z 0.000000 0.000000 1.658450 
# 
# From -- ./inp_files/33906.got.cif
#   From: 2010.03.12/outbox.cif.g09.slc.cpg/sg51_17_cif.got.tgz:33906.got - 2010.04.16 13:43:02.
