data_PCOD8208674
_publ_section_title
;
Structure prediction by ZEFSAII (Michael W. Deem and Ramdas Pophale) SiO2 
 PCOD8208674
Probable space group: P M M A
;
_chemical_formula_sum "Si O2"
_cell_formula_units_Z 64
_cell_length_a 9.076164
_cell_length_b 14.241380
_cell_length_c 25.917134
_cell_angle_alpha 90.000000
_cell_angle_beta 90.000000
_cell_angle_gamma 90.000000
_cell_volume 3349.973593
_symmetry_space_group_name_H-M "P M M A"
_symmetry_group_IT_number 51
_symmetry_cell_setting 'orthorhombic'
loop_
_space_group_symop_operation_xyz
x,y,z
1/2-x,-y,z
1/2+x,-y,-z
-x,y,-z
-x,-y,-z
1/2+x,y,-z
1/2-x,y,z
x,-y,z
loop_
_atom_site_type_symbol
_atom_site_label
_atom_site_fract_x
_atom_site_fract_y
_atom_site_fract_z
Si Si1 0.422209 0.607581 0.691210
Si Si2 0.575518 0.220586 0.051200
Si Si3 0.911066 0.389152 0.791409
Si Si4 0.582467 0.888354 0.860387
Si Si5 0.924632 0.224572 0.649909
Si Si6 0.422699 0.607544 0.093871
Si Si7 0.076142 0.103903 0.254650
Si Si8 0.576983 0.892536 0.551725
O O1 0.250000 0.622007 0.686067
O O2 0.468771 0.500000 0.680934
O O3 0.470569 0.640112 0.748612
O O4 0.504154 0.671757 0.649067
O O5 0.750000 0.218727 0.045140
O O6 0.529241 0.158021 0.099804
O O7 0.519085 0.327777 0.056488
O O8 0.500000 0.177442 0.000000
O O9 0.750000 0.347970 0.775257
O O10 0.897403 0.500000 0.796406
O O11 0.955459 0.353367 0.848237
O O12 0.750000 0.857094 0.873311
O O13 0.539292 0.854999 0.802244
O O14 0.568462 0.000000 0.863495
O O15 0.750000 0.234052 0.650465
O O16 0.986207 0.171124 0.700633
O O17 0.979296 0.169494 0.599441
O O18 0.250000 0.617682 0.081154
O O19 0.474311 0.500000 0.086679
O O20 0.250000 0.094578 0.261022
O O21 0.006262 0.000000 0.261413
O O22 0.500000 0.854976 0.500000
O O23 0.750000 0.882567 0.544032
O O24 0.531918 0.000000 0.563007
#
# Coordination Sequence:
#
# PCOD8208674 Si02
#       8
#     8   8   8   8   8   8   8   8
#     4  10  21  34  47  70 109 150 185 225 272 319
#     4  12  26  41  58  80 107 140 179 225 272 327
#     4   8  15  30  52  75  99 133 176 216 256 310
#     4   9  19  38  62  84 108 139 175 219 272 328
#     4  10  19  31  53  83 110 144 187 228 267 316
#     4   9  19  37  60  83 108 139 176 220 269 323
#     4   8  15  30  54  83 111 138 170 210 260 319
#     4   9  18  33  54  81 114 149 186 228 273 323
#
# _framework density 19.104628000000002
#
# number of rings (size 3 to 8) (size 9 to 14) (size 15 to 20)
#    0.000    2.625    0.000    3.375    1.750    4.250 
#    0.000    1.250    0.000    2.250    0.000    0.000 
#    0.000    0.000    0.000    0.000    0.000    0.000 
#
# Total GULP energy -793503.441828 kJ/mol
# GULP energy per Si atom -12398.491279 kJ/mol
# Density = 1.906115 g / cm^3
# Si number density = 19.104628 Si / 1000 Ang^3
#
#
#
# Elastic Constant Matrix: (Units=GPa)
#
#
# Indices 1 2 3 4 5 6 
#
# 1 70.7952 36.4164 50.9486 0.0000 0.0000 0.0000
# 2 36.4164 63.3900 56.8882 0.0000 0.0000 0.0000
# 3 50.9486 56.8882 133.6783 0.0000 0.0000 0.0000
# 4 0.0000 0.0000 0.0000 29.2602 0.0000 0.0000
# 5 0.0000 0.0000 0.0000 0.0000 27.8020 0.0000
# 6 0.0000 0.0000 0.0000 0.0000 0.0000 25.2457
#
#
#
# Elastic Compliance Matrix: (Units=1/GPa)
#
#
# Indices 1 2 3 4 5 6 
#
# 1 0.021817 -0.008205 -0.004823 0.000000 0.000000 0.000000
# 2 -0.008205 0.028608 -0.009048 0.000000 0.000000 0.000000
# 3 -0.004823 -0.009048 0.013169 0.000000 0.000000 0.000000
# 4 0.000000 0.000000 0.000000 0.034176 0.000000 0.000000
# 5 0.000000 0.000000 0.000000 0.000000 0.035969 0.000000
# 6 0.000000 0.000000 0.000000 0.000000 0.000000 0.039611
#
#
# Mechanical properties :
#
#
# Convention : Reuss Voigt Hill
#
# Bulk Modulus (GPa) = 51.43194 61.81888 56.62541
# Shear Modulus (GPa) = 22.32318 24.70227 23.51272
#
# Velocity S-wave (km/s) = 3.42200 3.59973 3.51199
# Velocity P-wave (km/s) = 6.52634 7.05023 6.79333
#
# Compressibility (1/GPa) = 0.01944317
#
# Stress axis : x y z
#
# Youngs Moduli (GPa) = 45.83597 34.95483 75.93427
#
# Poissons Ratio (x) = 0.28679 0.36627
# Poissons Ratio (y) = 0.37607 0.68702
# Poissons Ratio (z) = 0.22109 0.31626
#
# Static dielectric constant tensor:
#      x y z
#    x 3.180330 0.000000 0.000000 
#    y 0.000000 3.572830 0.000000 
#    z 0.000000 0.000000 3.557850 
# 
# 
# High freq. dielectric constant tensor:
#      x y z
#    x 1.713850 0.000000 0.000000 
#    y 0.000000 1.745740 0.000000 
#    z 0.000000 0.000000 1.733490 
# 
# From -- ./inp_files/35030.got.cif
#   From: 2010.03.12/outbox.cif.g09.slc.cpg/sg51_18_cif.got.tgz:35030.got - 2010.04.16 13:43:02.
