data_PCOD8208760
_publ_section_title
;
Structure prediction by ZEFSAII (Michael W. Deem and Ramdas Pophale) SiO2 
 PCOD8208760
Probable space group: P M M A
;
_chemical_formula_sum "Si O2"
_cell_formula_units_Z 52
_cell_length_a 8.906727
_cell_length_b 15.124816
_cell_length_c 22.566086
_cell_angle_alpha 90.000000
_cell_angle_beta 90.000000
_cell_angle_gamma 90.000000
_cell_volume 3039.936276
_symmetry_space_group_name_H-M "P M M A"
_symmetry_group_IT_number 51
_symmetry_cell_setting 'orthorhombic'
loop_
_space_group_symop_operation_xyz
x,y,z
1/2-x,-y,z
1/2+x,-y,-z
-x,y,-z
-x,-y,-z
1/2+x,y,-z
1/2-x,y,z
x,-y,z
loop_
_atom_site_type_symbol
_atom_site_label
_atom_site_fract_x
_atom_site_fract_y
_atom_site_fract_z
Si Si1 0.572519 0.000000 0.936076
Si Si2 0.072512 0.659783 0.058204
Si Si3 0.582035 0.236232 0.233911
Si Si4 0.418223 0.895101 0.557912
Si Si5 0.572508 0.898756 0.678788
Si Si6 0.575350 0.599691 0.812577
Si Si7 0.919210 0.171528 0.100948
O O1 0.516807 0.916321 0.899612
O O2 0.750000 0.000000 0.940944
O O3 0.500000 0.000000 0.000000
O O4 0.250000 0.664029 0.050242
O O5 0.026897 0.608619 0.118363
O O6 0.002708 0.757591 0.060113
O O7 0.000000 0.612530 0.000000
O O8 0.750000 0.242242 0.260423
O O9 0.485170 0.167722 0.271511
O O10 0.511009 0.334484 0.231927
O O11 0.585845 0.201687 0.167914
O O12 0.500000 0.855181 0.500000
O O13 0.250000 0.856490 0.561081
O O14 0.507801 0.865839 0.616191
O O15 0.414032 0.000000 0.553097
O O16 0.750000 0.893261 0.675573
O O17 0.520999 0.000000 0.692746
O O18 0.750000 0.622594 0.807092
O O19 0.539326 0.500000 0.792087
O O20 0.750000 0.156254 0.076635
#
# Coordination Sequence:
#
# PCOD8208760 Si02
#       7
#     4   8   8   8   8   8   8
#     4  12  24  36  50  66  86 114 153 196 239 286
#     4  10  19  32  50  71  94 119 148 186 235 292
#     4  10  21  35  52  73  98 127 160 202 247 291
#     4   9  16  27  44  67  98 136 175 213 249 285
#     4  10  20  32  48  72 102 138 176 210 244 288
#     4   9  19  36  55  73  95 124 157 195 243 298
#     4  10  21  36  50  66  89 119 154 194 240 287
#
# _framework density 17.105620999999999
#
# number of rings (size 3 to 8) (size 9 to 14) (size 15 to 20)
#    0.000    2.154    0.000    3.462    1.077    5.846 
#    0.000    0.000    0.000    0.000    0.000    0.000 
#    0.000    0.615    0.000    2.308    0.000    3.538 
#
# Total GULP energy -644748.971914 kJ/mol
# GULP energy per Si atom -12399.018691 kJ/mol
# Density = 1.706669 g / cm^3
# Si number density = 17.105621 Si / 1000 Ang^3
#
#
#
# Elastic Constant Matrix: (Units=GPa)
#
#
# Indices 1 2 3 4 5 6 
#
# 1 110.7953 37.0735 33.1221 0.0000 0.0000 0.0000
# 2 37.0735 81.2738 22.9439 0.0000 0.0000 0.0000
# 3 33.1221 22.9439 67.0554 0.0000 0.0000 0.0000
# 4 0.0000 0.0000 0.0000 7.6183 0.0000 0.0000
# 5 0.0000 0.0000 0.0000 0.0000 32.2255 0.0000
# 6 0.0000 0.0000 0.0000 0.0000 0.0000 21.9901
#
#
#
# Elastic Compliance Matrix: (Units=1/GPa)
#
#
# Indices 1 2 3 4 5 6 
#
# 1 0.011708 -0.004105 -0.004379 0.000000 0.000000 0.000000
# 2 -0.004105 0.015059 -0.003125 0.000000 0.000000 0.000000
# 3 -0.004379 -0.003125 0.018145 0.000000 0.000000 0.000000
# 4 0.000000 0.000000 0.000000 0.131263 0.000000 0.000000
# 5 0.000000 0.000000 0.000000 0.000000 0.031031 0.000000
# 6 0.000000 0.000000 0.000000 0.000000 0.000000 0.045475
#
#
# Mechanical properties :
#
#
# Convention : Reuss Voigt Hill
#
# Bulk Modulus (GPa) = 46.09329 49.48927 47.79128
# Shear Modulus (GPa) = 17.65971 23.43243 20.54607
#
# Velocity S-wave (km/s) = 3.21657 3.70519 3.46949
# Velocity P-wave (km/s) = 6.38748 6.87742 6.63697
#
# Compressibility (1/GPa) = 0.02169513
#
# Stress axis : x y z
#
# Youngs Moduli (GPa) = 85.41068 66.40715 55.11083
#
# Poissons Ratio (x) = 0.27257 0.24132
# Poissons Ratio (y) = 0.35057 0.17222
# Poissons Ratio (z) = 0.37400 0.20752
#
# Static dielectric constant tensor:
#      x y z
#    x 3.492660 0.000000 0.000000 
#    y 0.000000 2.927770 0.000000 
#    z 0.000000 0.000000 3.124200 
# 
# 
# High freq. dielectric constant tensor:
#      x y z
#    x 1.678590 0.000000 0.000000 
#    y 0.000000 1.631840 0.000000 
#    z 0.000000 0.000000 1.642460 
# 
# From -- ./inp_files/31762.got.cif
#   From: 2010.03.12/outbox.cif.g09.slc.cpg/sg51_16_cif.got.tgz:31762.got - 2010.04.16 13:43:02.
