data_PCOD8208808
_publ_section_title
;
Structure prediction by ZEFSAII (Michael W. Deem and Ramdas Pophale) SiO2 
 PCOD8208808
Probable space group: P M M A
;
_chemical_formula_sum "Si O2"
_cell_formula_units_Z 52
_cell_length_a 8.935806
_cell_length_b 23.315521
_cell_length_c 14.380020
_cell_angle_alpha 90.000000
_cell_angle_beta 90.000000
_cell_angle_gamma 90.000000
_cell_volume 2995.976111
_symmetry_space_group_name_H-M "P M M A"
_symmetry_group_IT_number 51
_symmetry_cell_setting 'orthorhombic'
loop_
_space_group_symop_operation_xyz
x,y,z
1/2-x,-y,z
1/2+x,-y,-z
-x,y,-z
-x,-y,-z
1/2+x,y,-z
1/2-x,y,z
x,-y,z
loop_
_atom_site_type_symbol
_atom_site_label
_atom_site_fract_x
_atom_site_fract_y
_atom_site_fract_z
Si Si1 0.920949 0.064120 0.772642
Si Si2 0.920708 0.500000 0.903852
Si Si3 0.926135 0.104900 0.406669
Si Si4 0.073338 0.273420 0.792328
Si Si5 0.926901 0.375488 0.898444
Si Si6 0.576439 0.764623 0.408669
Si Si7 0.927095 0.831293 0.899798
O O1 0.750000 0.076592 0.744098
O O2 0.972926 0.109121 0.850791
O O3 0.021276 0.068556 0.681177
O O4 0.940011 0.000000 0.813804
O O5 0.750000 0.500000 0.931617
O O6 0.957947 0.439296 0.853630
O O7 0.000000 0.500000 0.000000
O O8 0.750000 0.099354 0.415905
O O9 0.980153 0.170449 0.392162
O O10 0.000000 0.079415 0.500000
O O11 0.250000 0.269380 0.811893
O O12 0.037465 0.272191 0.682463
O O13 0.007031 0.332562 0.828826
O O14 0.992588 0.220748 0.841154
O O15 0.750000 0.362171 0.905785
O O16 0.000000 0.369133 0.000000
O O17 0.500000 0.737191 0.500000
O O18 0.750000 0.764813 0.429661
O O19 0.750000 0.823710 0.909175
O O20 0.000000 0.830930 0.000000
#
# Coordination Sequence:
#
# PCOD8208808 Si02
#       7
#     8   4   8   8   8   8   8
#     4  10  22  39  56  75  99 129 168 211 256 309
#     4   8  16  30  48  70 103 140 179 216 251 294
#     4  10  19  34  55  79 103 131 163 203 253 308
#     4  11  21  35  53  78 108 136 169 211 253 302
#     4  10  19  32  50  76 107 144 180 215 254 297
#     4   9  19  33  52  76 103 131 163 203 251 303
#     4  11  23  38  56  75  99 132 168 211 258 305
#
# _framework density 17.356612999999999
#
# number of rings (size 3 to 8) (size 9 to 14) (size 15 to 20)
#    0.000    2.000    1.538    2.308    0.000    4.000 
#    0.000    0.000    0.000    0.000    0.000    0.538 
#    0.000    0.000    0.000    0.000    0.000    0.000 
#
# Total GULP energy -644657.560602 kJ/mol
# GULP energy per Si atom -12397.260781 kJ/mol
# Density = 1.731711 g / cm^3
# Si number density = 17.356613 Si / 1000 Ang^3
#
#
#
# Elastic Constant Matrix: (Units=GPa)
#
#
# Indices 1 2 3 4 5 6 
#
# 1 78.6569 46.9728 51.7736 0.0000 0.0000 0.0000
# 2 46.9728 123.1710 57.3176 0.0000 0.0000 0.0000
# 3 51.7736 57.3176 111.0864 0.0000 0.0000 0.0000
# 4 0.0000 0.0000 0.0000 18.1235 0.0000 0.0000
# 5 0.0000 0.0000 0.0000 0.0000 29.9635 0.0000
# 6 0.0000 0.0000 0.0000 0.0000 0.0000 14.0467
#
#
#
# Elastic Compliance Matrix: (Units=1/GPa)
#
#
# Indices 1 2 3 4 5 6 
#
# 1 0.019943 -0.004317 -0.007068 0.000000 0.000000 0.000000
# 2 -0.004317 0.011619 -0.003983 0.000000 0.000000 0.000000
# 3 -0.007068 -0.003983 0.014351 0.000000 0.000000 0.000000
# 4 0.000000 0.000000 0.000000 0.055177 0.000000 0.000000
# 5 0.000000 0.000000 0.000000 0.000000 0.033374 0.000000
# 6 0.000000 0.000000 0.000000 0.000000 0.000000 0.071191
#
#
# Mechanical properties :
#
#
# Convention : Reuss Voigt Hill
#
# Bulk Modulus (GPa) = 65.88333 69.44915 67.66624
# Shear Modulus (GPa) = 20.70830 22.88343 21.79587
#
# Velocity S-wave (km/s) = 3.45789 3.63495 3.54753
# Velocity P-wave (km/s) = 7.34736 7.59718 7.47331
#
# Compressibility (1/GPa) = 0.01517835
#
# Stress axis : x y z
#
# Youngs Moduli (GPa) = 50.14190 86.06958 69.68120
#
# Poissons Ratio (x) = 0.37154 0.49248
# Poissons Ratio (y) = 0.21645 0.27754
# Poissons Ratio (z) = 0.35438 0.34281
#
# Static dielectric constant tensor:
#      x y z
#    x 3.343850 0.000000 0.000000 
#    y 0.000000 1.810630 0.000000 
#    z 0.000000 0.000000 3.174500 
# 
# 
# High freq. dielectric constant tensor:
#      x y z
#    x 1.683520 0.000000 0.000000 
#    y 0.000000 1.663360 0.000000 
#    z 0.000000 0.000000 1.656480 
# 
# From -- ./inp_files/21506.got.cif
#   From: 2010.03.12/outbox.cif.g09.slc.cpg/sg51_11_cif.got.tgz:21506.got - 2010.04.16 13:43:02.
