data_PCOD8208072
_publ_section_title
;
Structure prediction by ZEFSAII (Michael W. Deem and Ramdas Pophale) SiO2 
 PCOD8208072
Probable space group: P M M A
;
_chemical_formula_sum "Si O2"
_cell_formula_units_Z 48
_cell_length_a 15.969448
_cell_length_b 9.308565
_cell_length_c 18.605298
_cell_angle_alpha 90.000000
_cell_angle_beta 90.000000
_cell_angle_gamma 90.000000
_cell_volume 2765.726754
_symmetry_space_group_name_H-M "P M M A"
_symmetry_group_IT_number 51
_symmetry_cell_setting 'orthorhombic'
loop_
_space_group_symop_operation_xyz
x,y,z
1/2-x,-y,z
1/2+x,-y,-z
-x,y,-z
-x,-y,-z
1/2+x,y,-z
1/2-x,y,z
x,-y,z
loop_
_atom_site_type_symbol
_atom_site_label
_atom_site_fract_x
_atom_site_fract_y
_atom_site_fract_z
Si Si1 0.250000 0.164121 0.036326
Si Si2 0.250000 0.160730 0.207066
Si Si3 0.843228 0.832658 0.404272
Si Si4 0.583055 0.157876 0.546833
Si Si5 0.415866 0.331344 0.040601
Si Si6 0.506606 0.335069 0.341529
Si Si7 0.906527 0.337060 0.795151
O O1 0.250000 0.166477 0.121588
O O2 0.334589 0.245779 0.010136
O O3 0.250000 0.000000 0.007093
O O4 0.167560 0.239051 0.235985
O O5 0.250000 0.000000 0.237298
O O6 0.750000 0.801024 0.376230
O O7 0.847344 0.789342 0.489180
O O8 0.905736 0.743111 0.354606
O O9 0.867225 0.000000 0.396509
O O10 0.500000 0.148089 0.500000
O O11 0.569847 0.268474 0.611950
O O12 0.605573 0.000000 0.578397
O O13 0.398837 0.500000 0.028459
O O14 0.432344 0.293865 0.124159
O O15 0.500000 0.280927 0.000000
O O16 0.515658 0.500000 0.364330
O O17 0.486010 0.317984 0.257135
O O18 0.873421 0.500000 0.794140
#
# Coordination Sequence:
#
# PCOD8208072 Si02
#       7
#     4   4   8   8   8   8   8
#     4   9  17  29  47  73 103 127 152 195 252 297
#     4   9  17  29  47  71  93 121 160 193 228 287
#     4   9  18  33  51  68  89 122 162 199 232 271
#     4   8  15  29  47  65  87 115 150 189 227 268
#     4   9  17  31  53  75  95 129 175 207 235 286
#     4  10  19  30  47  70  97 125 152 189 242 289
#     4   9  18  32  48  69 101 130 154 196 247 285
#
# _framework density 17.355293
#
# number of rings (size 3 to 8) (size 9 to 14) (size 15 to 20)
#    0.000    3.000    0.000    2.000    0.000    7.000 
#    1.500    0.000    1.833    0.000    0.000    0.000 
#    0.000    0.000    0.000    0.000    0.000    0.000 
#
# Total GULP energy -594930.533222 kJ/mol
# GULP energy per Si atom -12394.386109 kJ/mol
# Density = 1.731579 g / cm^3
# Si number density = 17.355293 Si / 1000 Ang^3
#
#
#
# Elastic Constant Matrix: (Units=GPa)
#
#
# Indices 1 2 3 4 5 6 
#
# 1 118.0360 64.5868 45.4621 0.0000 0.0000 0.0000
# 2 64.5868 98.9477 40.1711 0.0000 0.0000 0.0000
# 3 45.4621 40.1711 63.7643 0.0000 0.0000 0.0000
# 4 0.0000 0.0000 0.0000 17.9306 0.0000 0.0000
# 5 0.0000 0.0000 0.0000 0.0000 21.8425 0.0000
# 6 0.0000 0.0000 0.0000 0.0000 0.0000 20.7393
#
#
#
# Elastic Compliance Matrix: (Units=1/GPa)
#
#
# Indices 1 2 3 4 5 6 
#
# 1 0.014689 -0.007170 -0.005956 0.000000 0.000000 0.000000
# 2 -0.007170 0.017080 -0.005648 0.000000 0.000000 0.000000
# 3 -0.005956 -0.005648 0.023487 0.000000 0.000000 0.000000
# 4 0.000000 0.000000 0.000000 0.055771 0.000000 0.000000
# 5 0.000000 0.000000 0.000000 0.000000 0.045782 0.000000
# 6 0.000000 0.000000 0.000000 0.000000 0.000000 0.048218
#
#
# Mechanical properties :
#
#
# Convention : Reuss Voigt Hill
#
# Bulk Modulus (GPa) = 56.47096 64.57645 60.52371
# Shear Modulus (GPa) = 20.12257 20.80435 20.46346
#
# Velocity S-wave (km/s) = 3.40876 3.46603 3.43751
# Velocity P-wave (km/s) = 6.93554 7.30117 7.12070
#
# Compressibility (1/GPa) = 0.01770822
#
# Stress axis : x y z
#
# Youngs Moduli (GPa) = 68.07647 58.54931 42.57637
#
# Poissons Ratio (x) = 0.41982 0.25358
# Poissons Ratio (y) = 0.48813 0.24046
# Poissons Ratio (z) = 0.40545 0.33068
#
# Static dielectric constant tensor:
#      x y z
#    x 3.378640 0.000000 0.000000 
#    y 0.000000 3.315650 0.000000 
#    z 0.000000 0.000000 3.099470 
# 
# 
# High freq. dielectric constant tensor:
#      x y z
#    x 1.661810 0.000000 0.000000 
#    y 0.000000 1.671880 0.000000 
#    z 0.000000 0.000000 1.640820 
# 
# From -- ./inp_files/33649.got.cif
#   From: 2010.03.12/outbox.cif.g09.slc.cpg/sg51_17_cif.got.tgz:33649.got - 2010.04.16 13:43:02.
