data_PCOD8208203
_publ_section_title
;
Structure prediction by ZEFSAII (Michael W. Deem and Ramdas Pophale) SiO2 
 PCOD8208203
Probable space group: P M M A
;
_chemical_formula_sum "Si O2"
_cell_formula_units_Z 48
_cell_length_a 8.625974
_cell_length_b 21.085044
_cell_length_c 19.445902
_cell_angle_alpha 90.000000
_cell_angle_beta 90.000000
_cell_angle_gamma 90.000000
_cell_volume 3536.802014
_symmetry_space_group_name_H-M "P M M A"
_symmetry_group_IT_number 51
_symmetry_cell_setting 'orthorhombic'
loop_
_space_group_symop_operation_xyz
x,y,z
1/2-x,-y,z
1/2+x,-y,-z
-x,y,-z
-x,-y,-z
1/2+x,y,-z
1/2-x,y,z
x,-y,z
loop_
_atom_site_type_symbol
_atom_site_label
_atom_site_fract_x
_atom_site_fract_y
_atom_site_fract_z
Si Si1 0.433325 0.236472 0.076758
Si Si2 0.567555 0.000000 0.924671
Si Si3 0.430221 0.074038 0.289432
Si Si4 0.569352 0.500000 0.074735
Si Si5 0.068157 0.118473 0.845815
Si Si6 0.424033 0.075403 0.569218
Si Si7 0.066653 0.635398 0.924009
O O1 0.250000 0.228785 0.074288
O O2 0.506303 0.184504 0.126073
O O3 0.481255 0.304473 0.110583
O O4 0.500000 0.229082 0.000000
O O5 0.515381 0.062091 0.885149
O O6 0.750000 0.000000 0.929575
O O7 0.500000 0.000000 0.000000
O O8 0.250000 0.087107 0.277359
O O9 0.529130 0.113968 0.234828
O O10 0.476989 0.098005 0.365207
O O11 0.470357 0.000000 0.280383
O O12 0.750000 0.500000 0.061868
O O13 0.526407 0.432995 0.113118
O O14 0.500000 0.500000 0.000000
O O15 0.250000 0.113174 0.858068
O O16 0.500000 0.103801 0.500000
O O17 0.250000 0.101766 0.575990
O O18 0.423637 0.000000 0.564960
O O19 0.250000 0.648662 0.925394
O O20 0.000000 0.630483 0.000000
#
# Coordination Sequence:
#
# PCOD8208203 Si02
#       7
#     8   4   8   4   8   8   8
#     4  11  21  33  45  58  76  99 128 163 202 241
#     4  12  24  38  50  62  75  92 121 162 206 248
#     4  10  19  31  46  62  81 101 124 156 195 236
#     4   8  14  22  36  56  78  98 118 146 181 224
#     4  12  23  35  48  61  76  98 127 162 202 244
#     4   9  16  26  41  61  83 104 126 150 183 226
#     4   9  15  25  39  57  77  98 122 150 187 229
#
# _framework density 13.571583
#
# number of rings (size 3 to 8) (size 9 to 14) (size 15 to 20)
#    0.000    1.833    0.833    6.750    0.000    3.333 
#    0.000    0.000    0.000    0.000    0.000    0.000 
#    0.000    0.000    0.000    0.000    0.000    0.000 
#
# Total GULP energy -594870.355732 kJ/mol
# GULP energy per Si atom -12393.132411 kJ/mol
# Density = 1.354069 g / cm^3
# Si number density = 13.571583 Si / 1000 Ang^3
#
#
#
# Elastic Constant Matrix: (Units=GPa)
#
#
# Indices 1 2 3 4 5 6 
#
# 1 96.0220 29.6526 27.8402 0.0000 0.0000 0.0000
# 2 29.6526 91.7665 33.3280 0.0000 0.0000 0.0000
# 3 27.8402 33.3280 71.5757 0.0000 0.0000 0.0000
# 4 0.0000 0.0000 0.0000 -16.9496 0.0000 0.0000
# 5 0.0000 0.0000 0.0000 0.0000 21.8409 0.0000
# 6 0.0000 0.0000 0.0000 0.0000 0.0000 9.3747
#
#
#
# Elastic Compliance Matrix: (Units=1/GPa)
#
#
# Indices 1 2 3 4 5 6 
#
# 1 0.012264 -0.002684 -0.003520 0.000000 0.000000 0.000000
# 2 -0.002684 0.013703 -0.005336 0.000000 0.000000 0.000000
# 3 -0.003520 -0.005336 0.017825 0.000000 0.000000 0.000000
# 4 0.000000 0.000000 0.000000 -0.058998 0.000000 0.000000
# 5 0.000000 0.000000 0.000000 0.000000 0.045786 0.000000
# 6 0.000000 0.000000 0.000000 0.000000 0.000000 0.106671
#
#
# Mechanical properties :
#
#
# Convention : Reuss Voigt Hill
#
# Bulk Modulus (GPa) = 48.28595 49.00064 48.64329
# Shear Modulus (GPa) = 29.89809 14.08941 21.99375
#
# Velocity S-wave (km/s) = 4.69870 3.22554 4.03000
# Velocity P-wave (km/s) = 8.06802 7.07501 7.58778
#
# Compressibility (1/GPa) = 0.02070996
#
# Stress axis : x y z
#
# Youngs Moduli (GPa) = 81.54028 72.97843 56.10030
#
# Poissons Ratio (x) = 0.19590 0.19749
# Poissons Ratio (y) = 0.21888 0.29937
# Poissons Ratio (z) = 0.28704 0.38944
#
# Static dielectric constant tensor:
#      x y z
#    x 2.848580 0.000000 0.000000 
#    y 0.000000 2.979630 0.000000 
#    z 0.000000 0.000000 2.561180 
# 
# 
# High freq. dielectric constant tensor:
#      x y z
#    x 1.541280 0.000000 0.000000 
#    y 0.000000 1.495930 0.000000 
#    z 0.000000 0.000000 1.478930 
# 
# From -- ./inp_files/28123.got.cif
#   From: 2010.03.12/outbox.cif.g09.slc.cpg/sg51_15_cif.got.tgz:28123.got - 2010.04.16 13:43:02.
