data_PCOD8208355
_publ_section_title
;
Structure prediction by ZEFSAII (Michael W. Deem and Ramdas Pophale) SiO2 
 PCOD8208355
Probable space group: P M M A
;
_chemical_formula_sum "Si O2"
_cell_formula_units_Z 44
_cell_length_a 8.709164
_cell_length_b 15.440464
_cell_length_c 17.793503
_cell_angle_alpha 90.000000
_cell_angle_beta 90.000000
_cell_angle_gamma 90.000000
_cell_volume 2392.755217
_symmetry_space_group_name_H-M "P M M A"
_symmetry_group_IT_number 51
_symmetry_cell_setting 'orthorhombic'
loop_
_space_group_symop_operation_xyz
x,y,z
1/2-x,-y,z
1/2+x,-y,-z
-x,y,-z
-x,-y,-z
1/2+x,y,-z
1/2-x,y,z
x,-y,z
loop_
_atom_site_type_symbol
_atom_site_label
_atom_site_fract_x
_atom_site_fract_y
_atom_site_fract_z
Si Si1 0.569254 0.679021 0.143275
Si Si2 0.430874 0.158743 0.077460
Si Si3 0.570628 0.500000 0.080030
Si Si4 0.430706 0.598012 0.582054
Si Si5 0.431350 0.094270 0.237803
Si Si6 0.431946 0.726589 0.298597
O O1 0.750000 0.695079 0.134694
O O2 0.480662 0.741560 0.085765
O O3 0.514588 0.583165 0.124768
O O4 0.518611 0.687611 0.228421
O O5 0.250000 0.150432 0.071487
O O6 0.494837 0.111439 0.152952
O O7 0.500000 0.119452 0.000000
O O8 0.750000 0.500000 0.070489
O O9 0.500000 0.500000 0.000000
O O10 0.500000 0.606714 0.500000
O O11 0.250000 0.615097 0.579511
O O12 0.464241 0.500000 0.613115
O O13 0.509085 0.674549 0.629452
O O14 0.250000 0.092116 0.230772
O O15 0.476296 0.170019 0.297557
O O16 0.493709 0.000000 0.265367
O O17 0.250000 0.714807 0.290972
#
# Coordination Sequence:
#
# PCOD8208355 Si02
#       6
#     8   8   4   8   8   8
#     4  10  20  34  49  68  96 132 174 217 262 313
#     4  10  19  31  48  70  96 129 171 219 274 325
#     4  10  22  34  46  64  89 126 171 216 260 306
#     4  10  21  37  58  84 115 147 176 210 252 302
#     4   8  16  32  52  74 102 136 175 218 266 318
#     4  10  20  34  55  82 108 138 174 213 259 311
#
# _framework density 18.388843000000001
#
# number of rings (size 3 to 8) (size 9 to 14) (size 15 to 20)
#    0.000    2.364    0.000    3.818    1.273    4.364 
#    0.000    0.000    0.000   19.636    0.000    0.000 
#    0.000    0.000    0.000    0.000    0.000    0.000 
#
# Total GULP energy -545217.424532 kJ/mol
# GULP energy per Si atom -12391.305103 kJ/mol
# Density = 1.834699 g / cm^3
# Si number density = 18.388843 Si / 1000 Ang^3
#
#
#
# Elastic Constant Matrix: (Units=GPa)
#
#
# Indices 1 2 3 4 5 6 
#
# 1 12.4360 12.0437 -9.0574 0.0000 0.0000 0.0000
# 2 12.0437 149.4456 37.9299 0.0000 0.0000 0.0000
# 3 -9.0574 37.9299 52.2940 0.0000 0.0000 0.0000
# 4 0.0000 0.0000 0.0000 21.5233 0.0000 0.0000
# 5 0.0000 0.0000 0.0000 0.0000 33.6994 0.0000
# 6 0.0000 0.0000 0.0000 0.0000 0.0000 19.1792
#
#
#
# Elastic Compliance Matrix: (Units=1/GPa)
#
#
# Indices 1 2 3 4 5 6 
#
# 1 0.124597 -0.019020 0.035376 0.000000 0.000000 0.000000
# 2 -0.019020 0.011104 -0.011349 0.000000 0.000000 0.000000
# 3 0.035376 -0.011349 0.033481 0.000000 0.000000 0.000000
# 4 0.000000 0.000000 0.000000 0.046461 0.000000 0.000000
# 5 0.000000 0.000000 0.000000 0.000000 0.029674 0.000000
# 6 0.000000 0.000000 0.000000 0.000000 0.000000 0.052140
#
#
# Mechanical properties :
#
#
# Convention : Reuss Voigt Hill
#
# Bulk Modulus (GPa) = 5.58043 32.88976 19.23510
# Shear Modulus (GPa) = 14.40196 26.43101 20.41649
#
# Velocity S-wave (km/s) = 2.80159 3.79534 3.33568
# Velocity P-wave (km/s) = 3.67512 6.09349 5.03176
#
# Compressibility (1/GPa) = 0.17919756
#
# Stress axis : x y z
#
# Youngs Moduli (GPa) = 8.02589 90.05378 29.86760
#
# Poissons Ratio (x) = 1.71279 -1.05659
# Poissons Ratio (y) = 0.15265 0.33895
# Poissons Ratio (z) = -0.28392 1.02198
#
# Static dielectric constant tensor:
#      x y z
#    x 3.326810 0.000000 0.000000 
#    y 0.000000 4.053660 0.000000 
#    z 0.000000 0.000000 3.255150 
# 
# 
# High freq. dielectric constant tensor:
#      x y z
#    x 1.708500 0.000000 0.000000 
#    y 0.000000 1.721120 0.000000 
#    z 0.000000 0.000000 1.692780 
# 
# From -- ./inp_files/27386.got.cif
#   From: 2010.03.12/outbox.cif.g09.slc.cpg/sg51_14_cif.got.tgz:27386.got - 2010.04.16 13:43:02.
