data_PCOD8208177
_publ_section_title
;
Structure prediction by ZEFSAII (Michael W. Deem and Ramdas Pophale) SiO2 
 PCOD8208177
Probable space group: P M M A
;
_chemical_formula_sum "Si O2"
_cell_formula_units_Z 48
_cell_length_a 14.025192
_cell_length_b 10.293950
_cell_length_c 17.944101
_cell_angle_alpha 90.000000
_cell_angle_beta 90.000000
_cell_angle_gamma 90.000000
_cell_volume 2590.672856
_symmetry_space_group_name_H-M "P M M A"
_symmetry_group_IT_number 51
_symmetry_cell_setting 'orthorhombic'
loop_
_space_group_symop_operation_xyz
x,y,z
1/2-x,-y,z
1/2+x,-y,-z
-x,y,-z
-x,-y,-z
1/2+x,y,-z
1/2-x,y,z
x,-y,z
loop_
_atom_site_type_symbol
_atom_site_label
_atom_site_fract_x
_atom_site_fract_y
_atom_site_fract_z
Si Si1 0.362743 0.500000 0.204261
Si Si2 0.029083 0.000000 0.915584
Si Si3 0.863170 0.249554 0.139562
Si Si4 0.139639 0.751524 0.295732
Si Si5 0.024410 0.500000 0.913461
Si Si6 0.637562 0.000000 0.800894
Si Si7 0.012377 0.151409 0.416181
Si Si8 0.141977 0.146744 0.703472
O O1 0.250000 0.500000 0.184105
O O2 0.393541 0.376007 0.252385
O O3 0.422727 0.500000 0.128397
O O4 0.092828 0.874548 0.900526
O O5 0.927902 0.000000 0.873123
O O6 0.000000 0.000000 0.000000
O O7 0.750000 0.253650 0.124226
O O8 0.912706 0.376127 0.107029
O O9 0.884131 0.241907 0.228355
O O10 0.250000 0.747915 0.311086
O O11 0.108783 0.874897 0.246993
O O12 0.093465 0.762542 0.377160
O O13 0.000000 0.500000 0.000000
O O14 0.750000 0.000000 0.822902
O O15 0.000000 0.202817 0.500000
O O16 0.916284 0.178442 0.370523
O O17 0.041535 0.000000 0.416344
O O18 0.250000 0.164870 0.678471
O O19 0.122169 0.000000 0.732150
#
# Coordination Sequence:
#
# PCOD8208177 Si02
#       8
#     4   4   8   8   4   4   8   8
#     4  10  22  39  61  84 110 151 198 239 284 343
#     4  12  23  37  58  86 115 147 186 235 292 347
#     4  11  23  40  61  84 113 152 194 235 282 342
#     4  10  20  36  57  80 109 148 192 236 280 334
#     4  12  25  41  60  88 117 151 186 237 298 345
#     4  10  20  35  57  82 110 147 190 239 286 335
#     4  10  19  30  50  82 116 147 180 229 285 334
#     4   9  17  32  54  78 105 144 187 228 270 324
#
# _framework density 18.528003999999999
#
# number of rings (size 3 to 8) (size 9 to 14) (size 15 to 20)
#    0.000    1.667    1.667    4.000    0.000    2.000 
#    0.000    3.750    0.000    0.000    0.000    2.333 
#    0.000    0.000    0.000    0.000    0.000    0.000 
#
# Total GULP energy -595271.760222 kJ/mol
# GULP energy per Si atom -12401.495005 kJ/mol
# Density = 1.848583 g / cm^3
# Si number density = 18.528004 Si / 1000 Ang^3
#
#
#
# Elastic Constant Matrix: (Units=GPa)
#
#
# Indices 1 2 3 4 5 6 
#
# 1 93.2644 53.8077 77.8224 0.0000 0.0000 0.0000
# 2 53.8077 131.8800 67.6221 0.0000 0.0000 0.0000
# 3 77.8224 67.6221 175.5124 0.0000 0.0000 0.0000
# 4 0.0000 0.0000 0.0000 25.9780 0.0000 0.0000
# 5 0.0000 0.0000 0.0000 0.0000 19.6721 0.0000
# 6 0.0000 0.0000 0.0000 0.0000 0.0000 15.9906
#
#
#
# Elastic Compliance Matrix: (Units=1/GPa)
#
#
# Indices 1 2 3 4 5 6 
#
# 1 0.018729 -0.004216 -0.006680 0.000000 0.000000 0.000000
# 2 -0.004216 0.010399 -0.002137 0.000000 0.000000 0.000000
# 3 -0.006680 -0.002137 0.009483 0.000000 0.000000 0.000000
# 4 0.000000 0.000000 0.000000 0.038494 0.000000 0.000000
# 5 0.000000 0.000000 0.000000 0.000000 0.050833 0.000000
# 6 0.000000 0.000000 0.000000 0.000000 0.000000 0.062537
#
#
# Mechanical properties :
#
#
# Convention : Reuss Voigt Hill
#
# Bulk Modulus (GPa) = 79.71961 88.79567 84.25764
# Shear Modulus (GPa) = 22.65299 25.75511 24.20405
#
# Velocity S-wave (km/s) = 3.50041 3.73240 3.61827
# Velocity P-wave (km/s) = 7.71085 8.16110 7.93917
#
# Compressibility (1/GPa) = 0.01254397
#
# Stress axis : x y z
#
# Youngs Moduli (GPa) = 53.39452 96.16658 105.45455
#
# Poissons Ratio (x) = 0.40546 0.70441
# Poissons Ratio (y) = 0.22512 0.22535
# Poissons Ratio (z) = 0.35666 0.20550
#
# Static dielectric constant tensor:
#      x y z
#    x 3.613650 0.000000 0.000000 
#    y 0.000000 3.359080 0.000000 
#    z 0.000000 0.000000 3.360080 
# 
# 
# High freq. dielectric constant tensor:
#      x y z
#    x 1.737100 0.000000 0.000000 
#    y 0.000000 1.709020 0.000000 
#    z 0.000000 0.000000 1.713220 
# 
# From -- ./inp_files/29712.got.cif
#   From: 2010.03.12/outbox.cif.g09.slc.cpg/sg51_15_cif.got.tgz:29712.got - 2010.04.16 13:43:02.
