data_PCOD8208493
_publ_section_title
;
Structure prediction by ZEFSAII (Michael W. Deem and Ramdas Pophale) SiO2 
 PCOD8208493
Probable space group: P M M A
;
_chemical_formula_sum "Si O2"
_cell_formula_units_Z 64
_cell_length_a 8.765769
_cell_length_b 19.964952
_cell_length_c 19.644630
_cell_angle_alpha 90.000000
_cell_angle_beta 90.000000
_cell_angle_gamma 90.000000
_cell_volume 3437.970498
_symmetry_space_group_name_H-M "P M M A"
_symmetry_group_IT_number 51
_symmetry_cell_setting 'orthorhombic'
loop_
_space_group_symop_operation_xyz
x,y,z
1/2-x,-y,z
1/2+x,-y,-z
-x,y,-z
-x,-y,-z
1/2+x,y,-z
1/2-x,y,z
x,-y,z
loop_
_atom_site_type_symbol
_atom_site_label
_atom_site_fract_x
_atom_site_fract_y
_atom_site_fract_z
Si Si1 0.929295 0.688561 0.158695
Si Si2 0.430053 0.191544 0.073964
Si Si3 0.578502 0.884661 0.431966
Si Si4 0.075640 0.076349 0.842895
Si Si5 0.574790 0.883576 0.706340
Si Si6 0.072585 0.422056 0.071520
Si Si7 0.921844 0.274819 0.432043
Si Si8 0.074782 0.274736 0.294111
O O1 0.750000 0.696605 0.148355
O O2 0.014507 0.748949 0.121727
O O3 0.985763 0.617771 0.130139
O O4 0.971096 0.689278 0.238057
O O5 0.250000 0.195034 0.067967
O O6 0.475509 0.120713 0.106348
O O7 0.500000 0.200227 0.000000
O O8 0.500000 0.913698 0.500000
O O9 0.750000 0.912549 0.428041
O O10 0.486858 0.909985 0.365982
O O11 0.578057 0.804922 0.434474
O O12 0.250000 0.101206 0.846301
O O13 0.019705 0.081196 0.765533
O O14 0.060608 0.000000 0.867654
O O15 0.750000 0.904795 0.713038
O O16 0.553532 0.804427 0.713125
O O17 0.250000 0.402799 0.070325
O O18 0.046717 0.500000 0.086398
O O19 0.000000 0.400685 0.000000
O O20 0.750000 0.302458 0.427148
O O21 0.000000 0.303948 0.500000
O O22 0.017887 0.300179 0.367426
O O23 0.250000 0.295778 0.284454
#
# Coordination Sequence:
#
# PCOD8208493 Si02
#       8
#     8   8   8   8   8   8   8   8
#     4  12  23  36  57  84 116 149 184 227 272 323
#     4  12  25  42  62  84 109 139 176 221 271 327
#     4   9  16  26  43  68  99 132 170 214 261 317
#     4  11  24  41  60  81 105 135 174 221 274 331
#     4  10  19  32  52  75 102 136 174 218 267 323
#     4  10  21  38  59  83 114 151 190 229 270 320
#     4   9  16  26  41  65  99 139 178 219 267 320
#     4  10  19  31  49  75 106 141 180 224 271 322
#
# _framework density 18.615632999999999
#
# number of rings (size 3 to 8) (size 9 to 14) (size 15 to 20)
#    0.000    1.625    1.250    4.875    0.000    6.000 
#    0.000    0.000    0.000    0.375    0.000    0.000 
#    0.000    0.500    0.000    1.875    0.000    2.875 
#
# Total GULP energy -793878.435389 kJ/mol
# GULP energy per Si atom -12404.350553 kJ/mol
# Density = 1.857326 g / cm^3
# Si number density = 18.615633 Si / 1000 Ang^3
#
#
#
# Elastic Constant Matrix: (Units=GPa)
#
#
# Indices 1 2 3 4 5 6 
#
# 1 151.0775 32.7573 49.3099 0.0000 0.0000 0.0000
# 2 32.7573 45.9393 29.5169 0.0000 0.0000 0.0000
# 3 49.3099 29.5169 123.2708 0.0000 0.0000 0.0000
# 4 0.0000 0.0000 0.0000 9.8849 0.0000 0.0000
# 5 0.0000 0.0000 0.0000 0.0000 41.8857 0.0000
# 6 0.0000 0.0000 0.0000 0.0000 0.0000 19.7099
#
#
#
# Elastic Compliance Matrix: (Units=1/GPa)
#
#
# Indices 1 2 3 4 5 6 
#
# 1 0.008329 -0.004489 -0.002257 0.000000 0.000000 0.000000
# 2 -0.004489 0.028145 -0.004944 0.000000 0.000000 0.000000
# 3 -0.002257 -0.004944 0.010199 0.000000 0.000000 0.000000
# 4 0.000000 0.000000 0.000000 0.101165 0.000000 0.000000
# 5 0.000000 0.000000 0.000000 0.000000 0.023875 0.000000
# 6 0.000000 0.000000 0.000000 0.000000 0.000000 0.050736
#
#
# Mechanical properties :
#
#
# Convention : Reuss Voigt Hill
#
# Bulk Modulus (GPa) = 42.92960 60.38400 51.65680
# Shear Modulus (GPa) = 19.71674 28.20966 23.96320
#
# Velocity S-wave (km/s) = 3.25799 3.89700 3.59174
# Velocity P-wave (km/s) = 6.10441 7.26337 6.70896
#
# Compressibility (1/GPa) = 0.02329395
#
# Stress axis : x y z
#
# Youngs Moduli (GPa) = 120.06168 35.53011 98.05143
#
# Poissons Ratio (x) = 0.15949 0.22129
# Poissons Ratio (y) = 0.53896 0.48473
# Poissons Ratio (z) = 0.27096 0.17565
#
# Static dielectric constant tensor:
#      x y z
#    x 3.637760 0.000000 0.000000 
#    y 0.000000 3.035190 0.000000 
#    z 0.000000 0.000000 3.607290 
# 
# 
# High freq. dielectric constant tensor:
#      x y z
#    x 1.744400 0.000000 0.000000 
#    y 0.000000 1.672890 0.000000 
#    z 0.000000 0.000000 1.734430 
# 
# From -- ./inp_files/28485.got.cif
#   From: 2010.03.12/outbox.cif.g09.slc.cpg/sg51_15_cif.got.tgz:28485.got - 2010.04.16 13:43:02.
