data_PCOD8208271
_publ_section_title
;
Structure prediction by ZEFSAII (Michael W. Deem and Ramdas Pophale) SiO2 
 PCOD8208271
Probable space group: P M M A
;
_chemical_formula_sum "Si O2"
_cell_formula_units_Z 48
_cell_length_a 8.573285
_cell_length_b 24.262891
_cell_length_c 13.692330
_cell_angle_alpha 90.000000
_cell_angle_beta 90.000000
_cell_angle_gamma 90.000000
_cell_volume 2848.178251
_symmetry_space_group_name_H-M "P M M A"
_symmetry_group_IT_number 51
_symmetry_cell_setting 'orthorhombic'
loop_
_space_group_symop_operation_xyz
x,y,z
1/2-x,-y,z
1/2+x,-y,-z
-x,y,-z
-x,-y,-z
1/2+x,y,-z
1/2-x,y,z
x,-y,z
loop_
_atom_site_type_symbol
_atom_site_label
_atom_site_fract_x
_atom_site_fract_y
_atom_site_fract_z
Si Si1 0.934427 0.560449 0.292205
Si Si2 0.434853 0.331850 0.604420
Si Si3 0.433970 0.275182 0.210443
Si Si4 0.066052 0.376381 0.897588
Si Si5 0.932311 0.059643 0.892935
Si Si6 0.566271 0.170696 0.109391
O O1 0.750000 0.557010 0.299857
O O2 0.007689 0.500000 0.314957
O O3 0.996431 0.606440 0.368241
O O4 0.982267 0.578424 0.182950
O O5 0.500000 0.314289 0.500000
O O6 0.250000 0.330418 0.603666
O O7 0.493604 0.288538 0.684128
O O8 0.250000 0.277819 0.218679
O O9 0.491210 0.317707 0.128264
O O10 0.488296 0.214877 0.180068
O O11 0.250000 0.368222 0.902662
O O12 0.000000 0.397851 0.000000
O O13 0.750000 0.074029 0.898468
O O14 0.022253 0.110973 0.843191
O O15 0.958811 0.000000 0.839244
O O16 0.000000 0.053739 0.000000
O O17 0.750000 0.179535 0.107142
O O18 0.500000 0.176007 0.000000
#
# Coordination Sequence:
#
# PCOD8208271 Si02
#       6
#     8   8   8   8   8   8
#     4   8  16  31  49  69  94 122 152 187 225 270
#     4  10  20  35  54  74  95 119 148 184 232 284
#     4  11  21  34  50  68  92 120 155 196 237 280
#     4  10  19  31  47  67  93 124 157 191 230 275
#     4   9  16  26  40  60  89 126 166 202 234 269
#     4  11  20  30  45  67  96 129 165 200 236 277
#
# _framework density 16.852878
#
# number of rings (size 3 to 8) (size 9 to 14) (size 15 to 20)
#    0.000    2.167    0.000    7.000    0.000    1.667 
#    0.000    0.000    0.000   17.000    0.000    0.000 
#    0.000    0.667    0.000    2.500    0.000    4.167 
#
# Total GULP energy -594981.965853 kJ/mol
# GULP energy per Si atom -12395.457622 kJ/mol
# Density = 1.681452 g / cm^3
# Si number density = 16.852878 Si / 1000 Ang^3
#
#
#
# Elastic Constant Matrix: (Units=GPa)
#
#
# Indices 1 2 3 4 5 6 
#
# 1 87.8058 20.9198 27.1226 0.0000 0.0000 0.0000
# 2 20.9198 114.0039 32.9817 0.0000 0.0000 0.0000
# 3 27.1226 32.9817 84.2412 0.0000 0.0000 0.0000
# 4 0.0000 0.0000 0.0000 17.7592 0.0000 0.0000
# 5 0.0000 0.0000 0.0000 0.0000 23.8169 0.0000
# 6 0.0000 0.0000 0.0000 0.0000 0.0000 21.2625
#
#
#
# Elastic Compliance Matrix: (Units=1/GPa)
#
#
# Indices 1 2 3 4 5 6 
#
# 1 0.012817 -0.001306 -0.003615 0.000000 0.000000 0.000000
# 2 -0.001306 0.010025 -0.003505 0.000000 0.000000 0.000000
# 3 -0.003615 -0.003505 0.014407 0.000000 0.000000 0.000000
# 4 0.000000 0.000000 0.000000 0.056309 0.000000 0.000000
# 5 0.000000 0.000000 0.000000 0.000000 0.041987 0.000000
# 6 0.000000 0.000000 0.000000 0.000000 0.000000 0.047031
#
#
# Mechanical properties :
#
#
# Convention : Reuss Voigt Hill
#
# Bulk Modulus (GPa) = 49.02651 49.78879 49.40765
# Shear Modulus (GPa) = 24.24525 26.23617 25.24071
#
# Velocity S-wave (km/s) = 3.79706 3.94988 3.87422
# Velocity P-wave (km/s) = 6.95540 7.09996 7.02805
#
# Compressibility (1/GPa) = 0.02039713
#
# Stress axis : x y z
#
# Youngs Moduli (GPa) = 78.02366 99.74918 69.41213
#
# Poissons Ratio (x) = 0.13027 0.25094
# Poissons Ratio (y) = 0.10190 0.24326
# Poissons Ratio (z) = 0.28207 0.34957
#
# Static dielectric constant tensor:
#      x y z
#    x 3.191240 0.000000 0.000000 
#    y 0.000000 3.730970 0.000000 
#    z 0.000000 0.000000 2.884090 
# 
# 
# High freq. dielectric constant tensor:
#      x y z
#    x 1.657640 0.000000 0.000000 
#    y 0.000000 1.655450 0.000000 
#    z 0.000000 0.000000 1.609920 
# 
# From -- ./inp_files/14434.got.cif
#   From: 2010.03.12/outbox.cif.g09.slc.cpg/sg51_8_cif.got.tgz:14434.got - 2010.04.16 13:43:02.
