data_PCOD8208406
_publ_section_title
;
Structure prediction by ZEFSAII (Michael W. Deem and Ramdas Pophale) SiO2 
 PCOD8208406
Probable space group: P M M A
;
_chemical_formula_sum "Si O2"
_cell_formula_units_Z 40
_cell_length_a 21.607486
_cell_length_b 8.510022
_cell_length_c 11.709488
_cell_angle_alpha 90.000000
_cell_angle_beta 90.000000
_cell_angle_gamma 90.000000
_cell_volume 2153.142775
_symmetry_space_group_name_H-M "P M M A"
_symmetry_group_IT_number 51
_symmetry_cell_setting 'orthorhombic'
loop_
_space_group_symop_operation_xyz
x,y,z
1/2-x,-y,z
1/2+x,-y,-z
-x,y,-z
-x,-y,-z
1/2+x,y,-z
1/2-x,y,z
x,-y,z
loop_
_atom_site_type_symbol
_atom_site_label
_atom_site_fract_x
_atom_site_fract_y
_atom_site_fract_z
Si Si1 0.681086 0.183586 0.533886
Si Si2 0.679383 0.321603 0.773737
Si Si3 0.030177 0.816779 0.834995
Si Si4 0.443391 0.186729 0.578197
Si Si5 0.585883 0.317099 0.958802
O O1 0.750000 0.256886 0.504885
O O2 0.664234 0.213676 0.665491
O O3 0.623998 0.255080 0.460371
O O4 0.684963 0.000000 0.511668
O O5 0.750000 0.310881 0.809083
O O6 0.659625 0.500000 0.743646
O O7 0.643386 0.258043 0.883926
O O8 0.046803 0.759058 0.708206
O O9 0.974196 0.713093 0.881510
O O10 0.012764 0.000000 0.836052
O O11 0.086442 0.782162 0.923031
O O12 0.500000 0.252488 0.500000
O O13 0.441922 0.000000 0.567111
O O14 0.590379 0.500000 0.989363
#
# Coordination Sequence:
#
# PCOD8208406 Si02
#       5
#     8   8   8   8   8
#     4   9  17  30  49  71  94 121 154 192 232 274
#     4   9  18  32  49  69  93 122 155 190 230 275
#     4  10  19  31  49  70  93 122 155 190 230 279
#     4   9  17  29  46  69  95 121 150 186 229 275
#     4  10  19  32  49  68  94 123 152 192 237 277
#
# _framework density 18.577496
#
# number of rings (size 3 to 8) (size 9 to 14) (size 15 to 20)
#    0.000    2.600    0.000    3.600    0.000    3.200 
#    0.000    3.000    0.000    6.600    0.000    0.000 
#    0.000    0.000    0.000    0.000    0.000    0.000 
#
# Total GULP energy -495753.529220 kJ/mol
# GULP energy per Si atom -12393.838231 kJ/mol
# Density = 1.853521 g / cm^3
# Si number density = 18.577496 Si / 1000 Ang^3
#
#
#
# Elastic Constant Matrix: (Units=GPa)
#
#
# Indices 1 2 3 4 5 6 
#
# 1 106.7261 8.6880 77.7769 0.0000 0.0000 0.0000
# 2 8.6880 15.5944 9.0238 0.0000 0.0000 0.0000
# 3 77.7769 9.0238 154.6817 0.0000 0.0000 0.0000
# 4 0.0000 0.0000 0.0000 13.9043 0.0000 0.0000
# 5 0.0000 0.0000 0.0000 0.0000 36.5213 0.0000
# 6 0.0000 0.0000 0.0000 0.0000 0.0000 13.9219
#
#
#
# Elastic Compliance Matrix: (Units=1/GPa)
#
#
# Indices 1 2 3 4 5 6 
#
# 1 0.015043 -0.004144 -0.007322 0.000000 0.000000 0.000000
# 2 -0.004144 0.067507 -0.001855 0.000000 0.000000 0.000000
# 3 -0.007322 -0.001855 0.010255 0.000000 0.000000 0.000000
# 4 0.000000 0.000000 0.000000 0.071920 0.000000 0.000000
# 5 0.000000 0.000000 0.000000 0.000000 0.027381 0.000000
# 6 0.000000 0.000000 0.000000 0.000000 0.000000 0.071829
#
#
# Mechanical properties :
#
#
# Convention : Reuss Voigt Hill
#
# Bulk Modulus (GPa) = 15.11397 51.99774 33.55585
# Shear Modulus (GPa) = 15.99323 24.97041 20.48182
#
# Velocity S-wave (km/s) = 2.93728 3.67020 3.32400
# Velocity P-wave (km/s) = 4.43360 6.78314 5.73008
#
# Compressibility (1/GPa) = 0.06616395
#
# Stress axis : x y z
#
# Youngs Moduli (GPa) = 66.47500 14.81319 97.51468
#
# Poissons Ratio (x) = 0.06138 0.71403
# Poissons Ratio (y) = 0.27547 0.18085
# Poissons Ratio (z) = 0.48675 0.02747
#
# Static dielectric constant tensor:
#      x y z
#    x 3.774920 0.000000 0.000000 
#    y 0.000000 3.129650 0.000000 
#    z 0.000000 0.000000 3.582110 
# 
# 
# High freq. dielectric constant tensor:
#      x y z
#    x 1.720080 0.000000 0.000000 
#    y 0.000000 1.695770 0.000000 
#    z 0.000000 0.000000 1.717920 
# 
# From -- ./inp_files/17904.got.cif
#   From: 2010.03.12/outbox.cif.g09.slc.cpg/sg51_9_cif.got.tgz:17904.got - 2010.04.16 13:43:02.
