data_PCOD8208119
_publ_section_title
;
Structure prediction by ZEFSAII (Michael W. Deem and Ramdas Pophale) SiO2 
 PCOD8208119
Probable space group: P M M A
;
_chemical_formula_sum "Si O2"
_cell_formula_units_Z 56
_cell_length_a 19.181403
_cell_length_b 9.226202
_cell_length_c 18.083947
_cell_angle_alpha 90.000000
_cell_angle_beta 90.000000
_cell_angle_gamma 90.000000
_cell_volume 3200.343203
_symmetry_space_group_name_H-M "P M M A"
_symmetry_group_IT_number 51
_symmetry_cell_setting 'orthorhombic'
loop_
_space_group_symop_operation_xyz
x,y,z
1/2-x,-y,z
1/2+x,-y,-z
-x,y,-z
-x,-y,-z
1/2+x,y,-z
1/2-x,y,z
x,-y,z
loop_
_atom_site_type_symbol
_atom_site_label
_atom_site_fract_x
_atom_site_fract_y
_atom_site_fract_z
Si Si1 0.330291 0.168713 0.210661
Si Si2 0.928255 0.669812 0.353441
Si Si3 0.572205 0.170482 0.655026
Si Si4 0.833053 0.836324 0.074474
Si Si5 0.830161 0.332496 0.217777
Si Si6 0.417309 0.159631 0.505769
Si Si7 0.666971 0.663702 0.933406
O O1 0.250000 0.206113 0.227059
O O2 0.373861 0.216980 0.281961
O O3 0.359279 0.257933 0.140875
O O4 0.339817 0.000000 0.192335
O O5 0.940624 0.500000 0.362232
O O6 0.873543 0.708487 0.289956
O O7 0.895319 0.728831 0.430256
O O8 0.000869 0.743779 0.332515
O O9 0.608258 0.209982 0.575881
O O10 0.554668 0.000000 0.657249
O O11 0.750000 0.834079 0.072038
O O12 0.859504 0.760647 0.149405
O O13 0.861775 0.000000 0.071920
O O14 0.863265 0.749226 0.004173
O O15 0.750000 0.294453 0.234710
O O16 0.838799 0.500000 0.196048
O O17 0.500000 0.152193 0.500000
O O18 0.387352 0.000000 0.525316
O O19 0.750000 0.665329 0.935904
O O20 0.638116 0.500000 0.934713
#
# Coordination Sequence:
#
# PCOD8208119 Si02
#       7
#     8   8   8   8   8   8   8
#     4   9  17  30  48  69  93 121 154 189 224 267
#     4  10  19  30  48  71  91 117 154 191 226 269
#     4   9  18  32  49  68  92 122 152 187 231 271
#     4   9  16  26  43  67  91 117 153 191 223 262
#     4   9  18  32  47  65  93 124 151 184 229 275
#     4   8  15  29  47  66  89 118 152 188 226 268
#     4   9  16  26  42  65  93 123 152 184 225 268
#
# _framework density 17.498124000000001
#
# number of rings (size 3 to 8) (size 9 to 14) (size 15 to 20)
#    0.000    3.000    0.000    2.143    0.000    7.714 
#    0.000    0.714    0.000    1.714    0.000    6.000 
#    0.000    0.000    0.000    0.000    0.000    0.000 
#
# Total GULP energy -694253.106255 kJ/mol
# GULP energy per Si atom -12397.376897 kJ/mol
# Density = 1.745830 g / cm^3
# Si number density = 17.498124 Si / 1000 Ang^3
#
#
#
# Elastic Constant Matrix: (Units=GPa)
#
#
# Indices 1 2 3 4 5 6 
#
# 1 39.9247 35.4668 52.1223 0.0000 0.0000 0.0000
# 2 35.4668 107.2097 92.1992 0.0000 0.0000 0.0000
# 3 52.1223 92.1992 188.9750 0.0000 0.0000 0.0000
# 4 0.0000 0.0000 0.0000 33.5094 0.0000 0.0000
# 5 0.0000 0.0000 0.0000 0.0000 6.5208 0.0000
# 6 0.0000 0.0000 0.0000 0.0000 0.0000 14.7805
#
#
#
# Elastic Compliance Matrix: (Units=1/GPa)
#
#
# Indices 1 2 3 4 5 6 
#
# 1 0.041789 -0.006740 -0.008238 0.000000 0.000000 0.000000
# 2 -0.006740 0.017158 -0.006512 0.000000 0.000000 0.000000
# 3 -0.008238 -0.006512 0.010741 0.000000 0.000000 0.000000
# 4 0.000000 0.000000 0.000000 0.029842 0.000000 0.000000
# 5 0.000000 0.000000 0.000000 0.000000 0.153356 0.000000
# 6 0.000000 0.000000 0.000000 0.000000 0.000000 0.067657
#
#
# Mechanical properties :
#
#
# Convention : Reuss Voigt Hill
#
# Bulk Modulus (GPa) = 37.44217 77.29846 57.37031
# Shear Modulus (GPa) = 13.42554 21.38354 17.40454
#
# Velocity S-wave (km/s) = 2.77294 3.49957 3.15723
# Velocity P-wave (km/s) = 5.62997 7.78463 6.79327
#
# Compressibility (1/GPa) = 0.02670786
#
# Stress axis : x y z
#
# Youngs Moduli (GPa) = 23.92970 58.28353 93.10249
#
# Poissons Ratio (x) = 0.39285 0.76694
# Poissons Ratio (y) = 0.16129 0.60627
# Poissons Ratio (z) = 0.19712 0.37954
#
# Static dielectric constant tensor:
#      x y z
#    x 2.781590 0.000000 0.000000 
#    y 0.000000 3.341080 0.000000 
#    z 0.000000 0.000000 3.657380 
# 
# 
# High freq. dielectric constant tensor:
#      x y z
#    x 1.618560 0.000000 0.000000 
#    y 0.000000 1.680920 0.000000 
#    z 0.000000 0.000000 1.694430 
# 
# From -- ./inp_files/30421.got.cif
#   From: 2010.03.12/outbox.cif.g09.slc.cpg/sg51_16_cif.got.tgz:30421.got - 2010.04.16 13:43:02.
