data_PCOD8208997
_publ_section_title
;
Structure prediction by ZEFSAII (Michael W. Deem and Ramdas Pophale) SiO2 
 PCOD8208997
Probable space group: P M M A
;
_chemical_formula_sum "Si O2"
_cell_formula_units_Z 40
_cell_length_a 8.951474
_cell_length_b 26.016647
_cell_length_c 9.248040
_cell_angle_alpha 90.000000
_cell_angle_beta 90.000000
_cell_angle_gamma 90.000000
_cell_volume 2153.751428
_symmetry_space_group_name_H-M "P M M A"
_symmetry_group_IT_number 51
_symmetry_cell_setting 'orthorhombic'
loop_
_space_group_symop_operation_xyz
x,y,z
1/2-x,-y,z
1/2+x,-y,-z
-x,y,-z
-x,-y,-z
1/2+x,y,-z
1/2-x,y,z
x,-y,z
loop_
_atom_site_type_symbol
_atom_site_label
_atom_site_fract_x
_atom_site_fract_y
_atom_site_fract_z
Si Si1 0.927306 0.333905 0.842220
Si Si2 0.576673 0.445807 0.847541
Si Si3 0.425644 0.058000 0.649960
Si Si4 0.575606 0.850892 0.152349
Si Si5 0.573571 0.753347 0.345456
O O1 0.750000 0.323740 0.854265
O O2 0.964246 0.391000 0.774619
O O3 0.001688 0.295524 0.730825
O O4 0.000000 0.326742 0.000000
O O5 0.750000 0.445071 0.880424
O O6 0.535198 0.500000 0.762570
O O7 0.500000 0.447636 0.000000
O O8 0.500000 0.074165 0.500000
O O9 0.250000 0.063698 0.627445
O O10 0.483165 0.096414 0.774321
O O11 0.470852 0.000000 0.694723
O O12 0.750000 0.854151 0.124340
O O13 0.533329 0.803622 0.254202
O O14 0.500000 0.842340 0.000000
O O15 0.500000 0.760914 0.500000
O O16 0.750000 0.745140 0.361292
#
# Coordination Sequence:
#
# PCOD8208997 Si02
#       5
#     8   8   8   8   8
#     4  10  19  32  52  78 107 137 171 212 256 303
#     4   8  14  25  43  69 100 132 165 203 248 297
#     4   9  18  34  55  79 107 138 173 211 251 298
#     4  10  22  37  54  78 106 136 170 211 257 304
#     4  11  23  38  55  75 101 134 173 215 261 313
#
# _framework density 18.572244999999999
#
# number of rings (size 3 to 8) (size 9 to 14) (size 15 to 20)
#    0.000    2.400    0.000    2.400    0.000    5.200 
#    0.000    0.000    0.000    0.600    0.000    0.000 
#    0.000    0.000    0.000    0.000    0.000    0.000 
#
# Total GULP energy -495620.227206 kJ/mol
# GULP energy per Si atom -12390.505680 kJ/mol
# Density = 1.852997 g / cm^3
# Si number density = 18.572245 Si / 1000 Ang^3
#
#
#
# Elastic Constant Matrix: (Units=GPa)
#
#
# Indices 1 2 3 4 5 6 
#
# 1 58.6854 62.2733 55.0447 0.0000 0.0000 0.0000
# 2 62.2733 172.9298 86.1903 0.0000 0.0000 0.0000
# 3 55.0447 86.1903 126.4305 0.0000 0.0000 0.0000
# 4 0.0000 0.0000 0.0000 27.8583 0.0000 0.0000
# 5 0.0000 0.0000 0.0000 0.0000 30.8304 0.0000
# 6 0.0000 0.0000 0.0000 0.0000 0.0000 23.5956
#
#
#
# Elastic Compliance Matrix: (Units=1/GPa)
#
#
# Indices 1 2 3 4 5 6 
#
# 1 0.034065 -0.007384 -0.009797 0.000000 0.000000 0.000000
# 2 -0.007384 0.010359 -0.003847 0.000000 0.000000 0.000000
# 3 -0.009797 -0.003847 0.014798 0.000000 0.000000 0.000000
# 4 0.000000 0.000000 0.000000 0.035896 0.000000 0.000000
# 5 0.000000 0.000000 0.000000 0.000000 0.032436 0.000000
# 6 0.000000 0.000000 0.000000 0.000000 0.000000 0.042381
#
#
# Mechanical properties :
#
#
# Convention : Reuss Voigt Hill
#
# Bulk Modulus (GPa) = 58.25850 85.00693 71.63272
# Shear Modulus (GPa) = 22.96605 26.75935 24.86270
#
# Velocity S-wave (km/s) = 3.52032 3.79994 3.66280
# Velocity P-wave (km/s) = 6.92533 8.06988 7.51942
#
# Compressibility (1/GPa) = 0.01716488
#
# Stress axis : x y z
#
# Youngs Moduli (GPa) = 29.35579 96.53188 67.57787
#
# Poissons Ratio (x) = 0.71279 0.66207
# Poissons Ratio (y) = 0.21676 0.25999
# Poissons Ratio (z) = 0.28760 0.37139
#
# Static dielectric constant tensor:
#      x y z
#    x 3.489900 0.000000 0.000000 
#    y 0.000000 4.216380 0.000000 
#    z 0.000000 0.000000 3.037450 
# 
# 
# High freq. dielectric constant tensor:
#      x y z
#    x 1.724170 0.000000 0.000000 
#    y 0.000000 1.752890 0.000000 
#    z 0.000000 0.000000 1.687280 
# 
# From -- ./inp_files/5262.got.cif
#   From: 2010.03.12/outbox.cif.g09.slc.cpg/sg51_3_cif.got.tgz:5262.got - 2010.04.16 13:43:02.
