data_PCOD8208174
_publ_section_title
;
Structure prediction by ZEFSAII (Michael W. Deem and Ramdas Pophale) SiO2 
 PCOD8208174
Probable space group: P M M A
;
_chemical_formula_sum "Si O2"
_cell_formula_units_Z 56
_cell_length_a 19.172341
_cell_length_b 9.817603
_cell_length_c 16.322550
_cell_angle_alpha 90.000000
_cell_angle_beta 90.000000
_cell_angle_gamma 90.000000
_cell_volume 3072.335356
_symmetry_space_group_name_H-M "P M M A"
_symmetry_group_IT_number 51
_symmetry_cell_setting 'orthorhombic'
loop_
_space_group_symop_operation_xyz
x,y,z
1/2-x,-y,z
1/2+x,-y,-z
-x,y,-z
-x,-y,-z
1/2+x,y,-z
1/2-x,y,z
x,-y,z
loop_
_atom_site_type_symbol
_atom_site_label
_atom_site_fract_x
_atom_site_fract_y
_atom_site_fract_z
Si Si1 0.167472 0.847040 0.695556
Si Si2 0.329192 0.338264 0.147472
Si Si3 0.448670 0.344538 0.267145
Si Si4 0.674422 0.839118 0.483257
Si Si5 0.090282 0.652421 0.816920
Si Si6 0.422721 0.341463 0.000544
Si Si7 0.955675 0.159180 0.579869
O O1 0.250000 0.843579 0.704585
O O2 0.146170 0.788953 0.605498
O O3 0.133880 0.755275 0.763781
O O4 0.138799 0.000000 0.707422
O O5 0.250000 0.278418 0.153818
O O6 0.324993 0.500000 0.140433
O O7 0.374676 0.297653 0.227927
O O8 0.369198 0.277636 0.067359
O O9 0.443520 0.500000 0.299161
O O10 0.507078 0.331522 0.196474
O O11 0.474061 0.248462 0.341326
O O12 0.750000 0.774332 0.503431
O O13 0.623669 0.801782 0.557304
O O14 0.681547 0.000000 0.473722
O O15 0.113196 0.500000 0.792489
O O16 0.109782 0.681466 0.910960
O O17 0.431701 0.500000 0.022223
O O18 0.500000 0.273307 0.000000
O O19 0.000000 0.198874 0.500000
O O20 0.965791 0.000000 0.601304
#
# Coordination Sequence:
#
# PCOD8208174 Si02
#       7
#     8   8   8   8   8   8   8
#     4   9  18  33  52  73  99 131 164 202 250 302
#     4   9  17  30  49  73 101 135 174 212 251 299
#     4  10  20  33  49  73 104 135 164 204 258 306
#     4   8  15  30  50  68  89 123 165 203 243 294
#     4  10  19  30  50  76 102 131 164 205 250 295
#     4   9  15  28  49  71  99 134 170 207 247 295
#     4  10  20  33  51  74  97 125 168 214 248 290
#
# _framework density 18.227176
#
# number of rings (size 3 to 8) (size 9 to 14) (size 15 to 20)
#    0.000    2.714    1.429    1.714    0.000    3.429 
#    0.000    2.143    0.000    2.143    0.000    0.000 
#    0.000    0.000    0.000    0.000    0.000    0.000 
#
# Total GULP energy -694026.408447 kJ/mol
# GULP energy per Si atom -12393.328722 kJ/mol
# Density = 1.818569 g / cm^3
# Si number density = 18.227176 Si / 1000 Ang^3
#
#
#
# Elastic Constant Matrix: (Units=GPa)
#
#
# Indices 1 2 3 4 5 6 
#
# 1 52.1454 21.5890 36.7110 0.0000 0.0000 0.0000
# 2 21.5890 43.1356 34.0439 0.0000 0.0000 0.0000
# 3 36.7110 34.0439 90.8491 0.0000 0.0000 0.0000
# 4 0.0000 0.0000 0.0000 5.4933 0.0000 0.0000
# 5 0.0000 0.0000 0.0000 0.0000 24.1624 0.0000
# 6 0.0000 0.0000 0.0000 0.0000 0.0000 18.7288
#
#
#
# Elastic Compliance Matrix: (Units=1/GPa)
#
#
# Indices 1 2 3 4 5 6 
#
# 1 0.028335 -0.007306 -0.008712 0.000000 0.000000 0.000000
# 2 -0.007306 0.034802 -0.010089 0.000000 0.000000 0.000000
# 3 -0.008712 -0.010089 0.018309 0.000000 0.000000 0.000000
# 4 0.000000 0.000000 0.000000 0.182041 0.000000 0.000000
# 5 0.000000 0.000000 0.000000 0.000000 0.041387 0.000000
# 6 0.000000 0.000000 0.000000 0.000000 0.000000 0.053394
#
#
# Mechanical properties :
#
#
# Convention : Reuss Voigt Hill
#
# Bulk Modulus (GPa) = 34.20969 41.20198 37.70583
# Shear Modulus (GPa) = 11.89838 15.92930 13.91384
#
# Velocity S-wave (km/s) = 2.55773 2.95944 2.76589
# Velocity P-wave (km/s) = 5.24709 5.85931 5.56163
#
# Compressibility (1/GPa) = 0.02923149
#
# Stress axis : x y z
#
# Youngs Moduli (GPa) = 35.29155 28.73421 54.61931
#
# Poissons Ratio (x) = 0.20992 0.47586
# Poissons Ratio (y) = 0.25782 0.55106
# Poissons Ratio (z) = 0.30747 0.28990
#
# Static dielectric constant tensor:
#      x y z
#    x 3.794870 0.000000 0.000000 
#    y 0.000000 2.904950 0.000000 
#    z 0.000000 0.000000 3.382840 
# 
# 
# High freq. dielectric constant tensor:
#      x y z
#    x 1.716930 0.000000 0.000000 
#    y 0.000000 1.647800 0.000000 
#    z 0.000000 0.000000 1.709690 
# 
# From -- ./inp_files/25784.got.cif
#   From: 2010.03.12/outbox.cif.g09.slc.cpg/sg51_13_cif.got.tgz:25784.got - 2010.04.16 13:43:02.
