data_PCOD8208362
_publ_section_title
;
Structure prediction by ZEFSAII (Michael W. Deem and Ramdas Pophale) SiO2 
 PCOD8208362
Probable space group: P M M A
;
_chemical_formula_sum "Si O2"
_cell_formula_units_Z 64
_cell_length_a 9.222772
_cell_length_b 17.679578
_cell_length_c 22.936589
_cell_angle_alpha 90.000000
_cell_angle_beta 90.000000
_cell_angle_gamma 90.000000
_cell_volume 3739.919027
_symmetry_space_group_name_H-M "P M M A"
_symmetry_group_IT_number 51
_symmetry_cell_setting 'orthorhombic'
loop_
_space_group_symop_operation_xyz
x,y,z
1/2-x,-y,z
1/2+x,-y,-z
-x,y,-z
-x,-y,-z
1/2+x,y,-z
1/2-x,y,z
x,-y,z
loop_
_atom_site_type_symbol
_atom_site_label
_atom_site_fract_x
_atom_site_fract_y
_atom_site_fract_z
Si Si1 0.918018 0.755381 0.059621
Si Si2 0.919003 0.290117 0.182029
Si Si3 0.917681 0.920680 0.059561
Si Si4 0.418512 0.413343 0.725461
Si Si5 0.416802 0.086040 0.656622
Si Si6 0.414000 0.313511 0.358668
Si Si7 0.079225 0.790936 0.559852
Si Si8 0.412402 0.185178 0.261865
O O1 0.750000 0.749627 0.043423
O O2 0.957291 0.698977 0.113203
O O3 0.959187 0.838970 0.086484
O O4 0.000000 0.734061 0.000000
O O5 0.750000 0.271583 0.189741
O O6 0.961968 0.366274 0.216625
O O7 0.004231 0.217506 0.206121
O O8 0.750000 0.918889 0.044289
O O9 0.952430 0.000000 0.095594
O O10 0.000000 0.926731 0.000000
O O11 0.250000 0.401217 0.710285
O O12 0.455376 0.500000 0.739063
O O13 0.510771 0.387147 0.669473
O O14 0.250000 0.095021 0.674548
O O15 0.452172 0.137126 0.600680
O O16 0.509047 0.110984 0.712902
O O17 0.456459 0.000000 0.640464
O O18 0.250000 0.333546 0.378576
O O19 0.508607 0.285281 0.413500
O O20 0.412816 0.248235 0.311290
O O21 0.250000 0.777387 0.550398
O O22 0.000000 0.810092 0.500000
O O23 0.250000 0.163083 0.243244
#
# Coordination Sequence:
#
# PCOD8208362 Si02
#       8
#     8   8   8   8   8   8   8   8
#     4   9  17  28  43  63  87 118 154 189 227 273
#     4   9  17  30  47  67  92 120 151 188 230 282
#     4   8  13  22  36  53  73  98 131 171 211 249
#     4   9  17  30  50  74  96 119 149 187 232 281
#     4   9  18  32  48  66  92 128 166 203 243 283
#     4   9  17  30  48  70  95 122 153 190 233 279
#     4  10  19  31  48  70  97 130 168 204 236 275
#     4   9  17  29  46  67  89 116 152 195 241 282
#
# _framework density 17.112670000000001
#
# number of rings (size 3 to 8) (size 9 to 14) (size 15 to 20)
#    0.000    3.000    0.000    1.125    0.000    4.750 
#    0.000    0.625    0.000    3.000    0.000    1.750 
#    0.000    0.000    0.000    0.000    0.000    0.000 
#
# Total GULP energy -792927.030117 kJ/mol
# GULP energy per Si atom -12389.484846 kJ/mol
# Density = 1.707372 g / cm^3
# Si number density = 17.112670 Si / 1000 Ang^3
#
#
#
# Elastic Constant Matrix: (Units=GPa)
#
#
# Indices 1 2 3 4 5 6 
#
# 1 85.1885 44.0990 52.8818 0.0000 0.0000 0.0000
# 2 44.0990 91.2695 48.9487 0.0000 0.0000 0.0000
# 3 52.8818 48.9487 90.7334 0.0000 0.0000 0.0000
# 4 0.0000 0.0000 0.0000 19.1612 0.0000 0.0000
# 5 0.0000 0.0000 0.0000 0.0000 25.6766 0.0000
# 6 0.0000 0.0000 0.0000 0.0000 0.0000 17.6978
#
#
#
# Elastic Compliance Matrix: (Units=1/GPa)
#
#
# Indices 1 2 3 4 5 6 
#
# 1 0.019751 -0.004741 -0.008954 0.000000 0.000000 0.000000
# 2 -0.004741 0.016555 -0.006168 0.000000 0.000000 0.000000
# 3 -0.008954 -0.006168 0.019567 0.000000 0.000000 0.000000
# 4 0.000000 0.000000 0.000000 0.052189 0.000000 0.000000
# 5 0.000000 0.000000 0.000000 0.000000 0.038946 0.000000
# 6 0.000000 0.000000 0.000000 0.000000 0.000000 0.056504
#
#
# Mechanical properties :
#
#
# Convention : Reuss Voigt Hill
#
# Bulk Modulus (GPa) = 61.92736 62.11673 62.02205
# Shear Modulus (GPa) = 20.11093 20.59124 20.35109
#
# Velocity S-wave (km/s) = 3.43185 3.47259 3.45228
# Velocity P-wave (km/s) = 7.20902 7.24265 7.22586
#
# Compressibility (1/GPa) = 0.01614795
#
# Stress axis : x y z
#
# Youngs Moduli (GPa) = 50.62985 60.40345 51.10601
#
# Poissons Ratio (x) = 0.28639 0.45759
# Poissons Ratio (y) = 0.24005 0.31522
# Poissons Ratio (z) = 0.45332 0.37256
#
# Static dielectric constant tensor:
#      x y z
#    x 3.322520 0.000000 0.000000 
#    y 0.000000 3.379620 0.000000 
#    z 0.000000 0.000000 3.013500 
# 
# 
# High freq. dielectric constant tensor:
#      x y z
#    x 1.665700 0.000000 0.000000 
#    y 0.000000 1.641300 0.000000 
#    z 0.000000 0.000000 1.637690 
# 
# From -- ./inp_files/35155.got.cif
#   From: 2010.03.12/outbox.cif.g09.slc.cpg/sg51_18_cif.got.tgz:35155.got - 2010.04.16 13:43:02.
