data_PCOD8208434
_publ_section_title
;
Structure prediction by ZEFSAII (Michael W. Deem and Ramdas Pophale) SiO2 
 PCOD8208434
Probable space group: P M M A
;
_chemical_formula_sum "Si O2"
_cell_formula_units_Z 64
_cell_length_a 16.010755
_cell_length_b 9.300054
_cell_length_c 23.377517
_cell_angle_alpha 90.000000
_cell_angle_beta 90.000000
_cell_angle_gamma 90.000000
_cell_volume 3480.932996
_symmetry_space_group_name_H-M "P M M A"
_symmetry_group_IT_number 51
_symmetry_cell_setting 'orthorhombic'
loop_
_space_group_symop_operation_xyz
x,y,z
1/2-x,-y,z
1/2+x,-y,-z
-x,y,-z
-x,-y,-z
1/2+x,y,-z
1/2-x,y,z
x,-y,z
loop_
_atom_site_type_symbol
_atom_site_label
_atom_site_fract_x
_atom_site_fract_y
_atom_site_fract_z
Si Si1 0.416966 0.834701 0.928314
Si Si2 0.998367 0.669380 0.373164
Si Si3 0.341026 0.335883 0.026493
Si Si4 0.556461 0.661596 0.870248
Si Si5 0.155599 0.666092 0.450947
Si Si6 0.511751 0.665337 0.245414
Si Si7 0.343029 0.164302 0.811998
Si Si8 0.845669 0.829915 0.431894
O O1 0.501082 0.781725 0.899546
O O2 0.346073 0.804974 0.880387
O O3 0.425091 0.000000 0.944656
O O4 0.404391 0.752704 0.987725
O O5 0.980152 0.500000 0.379628
O O6 0.083407 0.711351 0.406351
O O7 0.017086 0.717584 0.307820
O O8 0.915422 0.754231 0.392691
O O9 0.250000 0.270784 0.015858
O O10 0.346853 0.500000 0.006197
O O11 0.357103 0.325721 0.095098
O O12 0.519024 0.500000 0.878603
O O13 0.562026 0.693037 0.801844
O O14 0.250000 0.687570 0.425498
O O15 0.143660 0.500000 0.469631
O O16 0.142805 0.768331 0.504823
O O17 0.535403 0.500000 0.249437
O O18 0.596088 0.740792 0.225638
O O19 0.250000 0.197804 0.790628
O O20 0.368385 0.000000 0.800723
O O21 0.750000 0.798389 0.410482
O O22 0.862580 0.000000 0.432711
#
# Coordination Sequence:
#
# PCOD8208434 Si02
#       8
#     8   8   8   8   8   8   8   8
#     4  10  19  31  49  72  95 120 153 194 241 292
#     4  10  20  34  53  77 104 135 171 210 251 294
#     4  10  20  32  47  69  95 122 153 191 238 290
#     4   9  18  34  51  66  91 126 159 193 235 283
#     4   9  18  34  55  78 105 136 169 207 252 298
#     4   9  19  34  50  69  94 126 165 203 237 281
#     4   9  18  32  48  67  94 126 158 196 243 292
#     4  10  21  35  52  78 110 140 169 202 244 296
#
# _framework density 18.385874999999999
#
# number of rings (size 3 to 8) (size 9 to 14) (size 15 to 20)
#    0.000    2.500    0.000    1.875    0.000    7.250 
#    0.000    3.125    0.000    3.750    0.000    0.000 
#    0.000    5.000    0.000    0.000    0.000    0.000 
#
# Total GULP energy -792983.484311 kJ/mol
# GULP energy per Si atom -12390.366942 kJ/mol
# Density = 1.834403 g / cm^3
# Si number density = 18.385875 Si / 1000 Ang^3
#
#
#
# Elastic Constant Matrix: (Units=GPa)
#
#
# Indices 1 2 3 4 5 6 
#
# 1 74.6468 36.2605 51.1345 0.0000 0.0000 0.0000
# 2 36.2605 62.6721 45.0538 0.0000 0.0000 0.0000
# 3 51.1345 45.0538 128.2474 0.0000 0.0000 0.0000
# 4 0.0000 0.0000 0.0000 13.3995 0.0000 0.0000
# 5 0.0000 0.0000 0.0000 0.0000 17.9579 0.0000
# 6 0.0000 0.0000 0.0000 0.0000 0.0000 17.5213
#
#
#
# Elastic Compliance Matrix: (Units=1/GPa)
#
#
# Indices 1 2 3 4 5 6 
#
# 1 0.021226 -0.008291 -0.005551 0.000000 0.000000 0.000000
# 2 -0.008291 0.024585 -0.005331 0.000000 0.000000 0.000000
# 3 -0.005551 -0.005331 0.011883 0.000000 0.000000 0.000000
# 4 0.000000 0.000000 0.000000 0.074630 0.000000 0.000000
# 5 0.000000 0.000000 0.000000 0.000000 0.055686 0.000000
# 6 0.000000 0.000000 0.000000 0.000000 0.000000 0.057074
#
#
# Mechanical properties :
#
#
# Convention : Reuss Voigt Hill
#
# Bulk Modulus (GPa) = 51.68034 58.94044 55.31039
# Shear Modulus (GPa) = 17.24858 18.65023 17.94941
#
# Velocity S-wave (km/s) = 3.06624 3.18839 3.12791
# Velocity P-wave (km/s) = 6.38008 6.75881 6.57217
#
# Compressibility (1/GPa) = 0.01934972
#
# Stress axis : x y z
#
# Youngs Moduli (GPa) = 47.11211 40.67455 84.15030
#
# Poissons Ratio (x) = 0.33721 0.46709
# Poissons Ratio (y) = 0.39059 0.44863
# Poissons Ratio (z) = 0.26150 0.21685
#
# Static dielectric constant tensor:
#      x y z
#    x 3.470080 0.000000 0.000000 
#    y 0.000000 3.376360 0.000000 
#    z 0.000000 0.000000 3.580460 
# 
# 
# High freq. dielectric constant tensor:
#      x y z
#    x 1.700660 0.000000 0.000000 
#    y 0.000000 1.711580 0.000000 
#    z 0.000000 0.000000 1.709760 
# 
# From -- ./inp_files/35870.got.cif
#   From: 2010.03.12/outbox.cif.g09.slc.cpg/sg51_18_cif.got.tgz:35870.got - 2010.04.16 13:43:02.
