data_PCOD8208291
_publ_section_title
;
Structure prediction by ZEFSAII (Michael W. Deem and Ramdas Pophale) SiO2 
 PCOD8208291
Probable space group: P M M A
;
_chemical_formula_sum "Si O2"
_cell_formula_units_Z 52
_cell_length_a 8.690556
_cell_length_b 18.551172
_cell_length_c 18.305864
_cell_angle_alpha 90.000000
_cell_angle_beta 90.000000
_cell_angle_gamma 90.000000
_cell_volume 2951.271378
_symmetry_space_group_name_H-M "P M M A"
_symmetry_group_IT_number 51
_symmetry_cell_setting 'orthorhombic'
loop_
_space_group_symop_operation_xyz
x,y,z
1/2-x,-y,z
1/2+x,-y,-z
-x,y,-z
-x,-y,-z
1/2+x,y,-z
1/2-x,y,z
x,-y,z
loop_
_atom_site_type_symbol
_atom_site_label
_atom_site_fract_x
_atom_site_fract_y
_atom_site_fract_z
Si Si1 0.081000 0.642212 0.785266
Si Si2 0.567442 0.277477 0.077382
Si Si3 0.922226 0.795790 0.290517
Si Si4 0.569810 0.578576 0.654307
Si Si5 0.067150 0.721932 0.421403
Si Si6 0.432278 0.139714 0.154767
Si Si7 0.432343 0.000000 0.919356
O O1 0.250000 0.606445 0.781802
O O2 0.028654 0.654939 0.868957
O O3 0.086690 0.720772 0.750618
O O4 0.965987 0.591634 0.740029
O O5 0.750000 0.263010 0.074812
O O6 0.483188 0.205569 0.103814
O O7 0.500000 0.300750 0.000000
O O8 0.750000 0.825500 0.305311
O O9 0.010421 0.784763 0.367155
O O10 0.015254 0.850854 0.239046
O O11 0.750000 0.577590 0.644896
O O12 0.502397 0.500000 0.630573
O O13 0.501836 0.643256 0.604614
O O14 0.250000 0.721852 0.423349
O O15 0.000000 0.739671 0.500000
O O16 0.250000 0.131714 0.151684
O O17 0.511861 0.069068 0.124430
O O18 0.250000 0.000000 0.924964
O O19 0.500000 0.000000 0.000000
#
# Coordination Sequence:
#
# PCOD8208291 Si02
#       7
#     8   8   8   8   8   8   4
#     4   8  16  29  45  65  88 115 152 196 239 285
#     4  10  19  31  47  69  94 121 156 199 246 291
#     4   9  17  32  51  71  95 125 162 202 242 286
#     4   9  18  31  46  65  91 124 160 195 236 290
#     4  10  19  31  48  72 101 130 160 199 245 290
#     4  11  21  34  51  73 100 132 167 201 240 288
#     4  12  24  38  52  72 105 142 175 208 246 286
#
# _framework density 17.619524999999999
#
# number of rings (size 3 to 8) (size 9 to 14) (size 15 to 20)
#    0.000    2.308    0.000    4.846    0.000    5.538 
#    0.000    0.000    0.000    0.462    0.000    0.538 
#    0.000    0.000    0.000    0.000    0.000    0.000 
#
# Total GULP energy -644567.152690 kJ/mol
# GULP energy per Si atom -12395.522167 kJ/mol
# Density = 1.757942 g / cm^3
# Si number density = 17.619525 Si / 1000 Ang^3
#
#
#
# Elastic Constant Matrix: (Units=GPa)
#
#
# Indices 1 2 3 4 5 6 
#
# 1 99.8071 23.2413 41.9678 0.0000 0.0000 0.0000
# 2 23.2413 45.7574 35.6772 0.0000 0.0000 0.0000
# 3 41.9678 35.6772 142.9361 0.0000 0.0000 0.0000
# 4 0.0000 0.0000 0.0000 19.0427 0.0000 0.0000
# 5 0.0000 0.0000 0.0000 0.0000 33.2258 0.0000
# 6 0.0000 0.0000 0.0000 0.0000 0.0000 21.2813
#
#
#
# Elastic Compliance Matrix: (Units=1/GPa)
#
#
# Indices 1 2 3 4 5 6 
#
# 1 0.012039 -0.004170 -0.002494 0.000000 0.000000 0.000000
# 2 -0.004170 0.028580 -0.005909 0.000000 0.000000 0.000000
# 3 -0.002494 -0.005909 0.009203 0.000000 0.000000 0.000000
# 4 0.000000 0.000000 0.000000 0.052513 0.000000 0.000000
# 5 0.000000 0.000000 0.000000 0.000000 0.030097 0.000000
# 6 0.000000 0.000000 0.000000 0.000000 0.000000 0.046990
#
#
# Mechanical properties :
#
#
# Convention : Reuss Voigt Hill
#
# Bulk Modulus (GPa) = 40.52608 54.47484 47.50046
# Shear Modulus (GPa) = 23.49682 27.21760 25.35721
#
# Velocity S-wave (km/s) = 3.65577 3.93458 3.79773
# Velocity P-wave (km/s) = 6.39297 7.18510 6.80058
#
# Compressibility (1/GPa) = 0.02467547
#
# Stress axis : x y z
#
# Youngs Moduli (GPa) = 83.06255 34.98942 108.65664
#
# Poissons Ratio (x) = 0.14592 0.27098
# Poissons Ratio (y) = 0.34641 0.64207
# Poissons Ratio (z) = 0.20715 0.20676
#
# Static dielectric constant tensor:
#      x y z
#    x 3.397310 0.000000 0.000000 
#    y 0.000000 3.373770 0.000000 
#    z 0.000000 0.000000 3.526230 
# 
# 
# High freq. dielectric constant tensor:
#      x y z
#    x 1.691220 0.000000 0.000000 
#    y 0.000000 1.644070 0.000000 
#    z 0.000000 0.000000 1.681700 
# 
# From -- ./inp_files/27905.got.cif
#   From: 2010.03.12/outbox.cif.g09.slc.cpg/sg51_14_cif.got.tgz:27905.got - 2010.04.16 13:43:02.
