data_PCOD8208005
_publ_section_title
;
Structure prediction by ZEFSAII (Michael W. Deem and Ramdas Pophale) SiO2 
 PCOD8208005
Probable space group: P M M A
;
_chemical_formula_sum "Si O2"
_cell_formula_units_Z 48
_cell_length_a 9.276418
_cell_length_b 13.698587
_cell_length_c 23.675254
_cell_angle_alpha 90.000000
_cell_angle_beta 90.000000
_cell_angle_gamma 90.000000
_cell_volume 3008.504942
_symmetry_space_group_name_H-M "P M M A"
_symmetry_group_IT_number 51
_symmetry_cell_setting 'orthorhombic'
loop_
_space_group_symop_operation_xyz
x,y,z
1/2-x,-y,z
1/2+x,-y,-z
-x,y,-z
-x,-y,-z
1/2+x,y,-z
1/2-x,y,z
x,-y,z
loop_
_atom_site_type_symbol
_atom_site_label
_atom_site_fract_x
_atom_site_fract_y
_atom_site_fract_z
Si Si1 0.584430 0.792998 0.555471
Si Si2 0.912713 0.383780 0.946510
Si Si3 0.583490 0.610168 0.625073
Si Si4 0.919180 0.714643 0.278758
Si Si5 0.583722 0.612050 0.162522
Si Si6 0.918477 0.888605 0.671614
O O1 0.500000 0.824788 0.500000
O O2 0.750000 0.805036 0.539962
O O3 0.546836 0.681504 0.572909
O O4 0.540728 0.863915 0.606939
O O5 0.750000 0.343099 0.948227
O O6 0.913755 0.500000 0.948805
O O7 0.988536 0.347988 0.889143
O O8 0.000000 0.341239 0.000000
O O9 0.750000 0.624440 0.643055
O O10 0.550701 0.500000 0.605588
O O11 0.486279 0.635966 0.678667
O O12 0.750000 0.721681 0.290804
O O13 0.952601 0.678985 0.215853
O O14 0.990566 0.820876 0.286240
O O15 0.750000 0.620795 0.144614
O O16 0.545519 0.500000 0.177397
O O17 0.750000 0.867678 0.681580
O O18 0.959262 0.000000 0.684481
#
# Coordination Sequence:
#
# PCOD8208005 Si02
#       6
#     8   8   8   8   8   8
#     4   9  18  31  46  66  89 112 141 177 217 262
#     4   9  16  25  38  57  83 118 158 193 221 250
#     4   9  18  32  47  62  86 121 153 179 212 258
#     4  10  19  30  46  69  93 114 143 186 228 264
#     4   9  17  28  41  60  90 124 152 180 216 256
#     4   9  19  36  53  66  85 114 143 175 221 274
#
# _framework density 15.954768
#
# number of rings (size 3 to 8) (size 9 to 14) (size 15 to 20)
#    0.000    2.833    0.000    2.500    0.000    8.000 
#    0.000    1.667    0.000    0.000    0.000    0.000 
#    0.000    0.667    0.000    2.167    0.000    3.167 
#
# Total GULP energy -595180.089119 kJ/mol
# GULP energy per Si atom -12399.585190 kJ/mol
# Density = 1.591845 g / cm^3
# Si number density = 15.954768 Si / 1000 Ang^3
#
#
#
# Elastic Constant Matrix: (Units=GPa)
#
#
# Indices 1 2 3 4 5 6 
#
# 1 86.0782 30.0864 63.9640 0.0000 0.0000 0.0000
# 2 30.0864 73.5890 29.8255 0.0000 0.0000 0.0000
# 3 63.9640 29.8255 107.0004 0.0000 0.0000 0.0000
# 4 0.0000 0.0000 0.0000 13.2981 0.0000 0.0000
# 5 0.0000 0.0000 0.0000 0.0000 33.0238 0.0000
# 6 0.0000 0.0000 0.0000 0.0000 0.0000 18.2805
#
#
#
# Elastic Compliance Matrix: (Units=1/GPa)
#
#
# Indices 1 2 3 4 5 6 
#
# 1 0.021959 -0.004123 -0.011978 0.000000 0.000000 0.000000
# 2 -0.004123 0.016094 -0.002021 0.000000 0.000000 0.000000
# 3 -0.011978 -0.002021 0.017069 0.000000 0.000000 0.000000
# 4 0.000000 0.000000 0.000000 0.075199 0.000000 0.000000
# 5 0.000000 0.000000 0.000000 0.000000 0.030281 0.000000
# 6 0.000000 0.000000 0.000000 0.000000 0.000000 0.054703
#
#
# Mechanical properties :
#
#
# Convention : Reuss Voigt Hill
#
# Bulk Modulus (GPa) = 52.97153 57.15772 55.06462
# Shear Modulus (GPa) = 19.39173 22.43992 20.91582
#
# Velocity S-wave (km/s) = 3.49007 3.75436 3.62463
# Velocity P-wave (km/s) = 7.03661 7.39569 7.21839
#
# Compressibility (1/GPa) = 0.01887807
#
# Stress axis : x y z
#
# Youngs Moduli (GPa) = 45.53958 62.13509 58.58504
#
# Poissons Ratio (x) = 0.25620 0.70170
# Poissons Ratio (y) = 0.18777 0.11841
# Poissons Ratio (z) = 0.54545 0.12559
#
# Static dielectric constant tensor:
#      x y z
#    x 3.088960 0.000000 0.000000 
#    y 0.000000 2.917740 0.000000 
#    z 0.000000 0.000000 2.928530 
# 
# 
# High freq. dielectric constant tensor:
#      x y z
#    x 1.620300 0.000000 0.000000 
#    y 0.000000 1.581820 0.000000 
#    z 0.000000 0.000000 1.604280 
# 
# From -- ./inp_files/34645.got.cif
#   From: 2010.03.12/outbox.cif.g09.slc.cpg/sg51_18_cif.got.tgz:34645.got - 2010.04.16 13:43:02.
