data_PCOD8208248
_publ_section_title
;
Structure prediction by ZEFSAII (Michael W. Deem and Ramdas Pophale) SiO2 
 PCOD8208248
Probable space group: P M M A
;
_chemical_formula_sum "Si O2"
_cell_formula_units_Z 56
_cell_length_a 8.971756
_cell_length_b 14.695514
_cell_length_c 22.737399
_cell_angle_alpha 90.000000
_cell_angle_beta 90.000000
_cell_angle_gamma 90.000000
_cell_volume 2997.802501
_symmetry_space_group_name_H-M "P M M A"
_symmetry_group_IT_number 51
_symmetry_cell_setting 'orthorhombic'
loop_
_space_group_symop_operation_xyz
x,y,z
1/2-x,-y,z
1/2+x,-y,-z
-x,y,-z
-x,-y,-z
1/2+x,y,-z
1/2-x,y,z
x,-y,z
loop_
_atom_site_type_symbol
_atom_site_label
_atom_site_fract_x
_atom_site_fract_y
_atom_site_fract_z
Si Si1 0.920638 0.599170 0.217035
Si Si2 0.073920 0.788260 0.835338
Si Si3 0.415838 0.650453 0.328617
Si Si4 0.584166 0.849648 0.723552
Si Si5 0.919893 0.901688 0.385991
Si Si6 0.075093 0.103741 0.062140
Si Si7 0.073928 0.285653 0.560543
O O1 0.750000 0.618862 0.233907
O O2 0.938691 0.500000 0.185239
O O3 0.974266 0.682137 0.175123
O O4 0.009318 0.590264 0.278111
O O5 0.250000 0.799311 0.842588
O O6 0.018301 0.850209 0.781339
O O7 0.993549 0.823487 0.893357
O O8 0.250000 0.613262 0.342345
O O9 0.407766 0.750942 0.303960
O O10 0.513224 0.648581 0.388117
O O11 0.750000 0.884777 0.740059
O O12 0.512405 0.913021 0.674069
O O13 0.750000 0.880515 0.368042
O O14 0.975779 0.819448 0.427328
O O15 0.934063 0.000000 0.418793
O O16 0.250000 0.121432 0.056549
O O17 0.042147 0.000000 0.082735
O O18 0.000000 0.122910 0.000000
O O19 0.250000 0.296729 0.555719
O O20 0.000000 0.317103 0.500000
#
# Coordination Sequence:
#
# PCOD8208248 Si02
#       7
#     8   8   8   8   8   8   8
#     4   9  18  33  54  81 111 140 169 204 251 307
#     4  10  19  32  53  79 107 140 175 212 255 303
#     4   9  17  30  48  70  95 123 158 199 243 293
#     4   9  17  29  45  66  92 122 158 201 247 295
#     4   9  18  31  44  60  86 120 157 200 252 308
#     4  10  21  37  56  78 106 141 181 223 263 302
#     4  10  19  31  47  65  87 119 160 204 251 304
#
# _framework density 18.680351000000002
#
# number of rings (size 3 to 8) (size 9 to 14) (size 15 to 20)
#    0.000    2.571    0.000    2.143    0.000    6.857 
#    0.000    0.000    0.000    0.857    0.000    0.000 
#    0.000    0.000    0.000    0.000    0.000    0.000 
#
# Total GULP energy -694110.772146 kJ/mol
# GULP energy per Si atom -12394.835217 kJ/mol
# Density = 1.863783 g / cm^3
# Si number density = 18.680351 Si / 1000 Ang^3
#
#
#
# Elastic Constant Matrix: (Units=GPa)
#
#
# Indices 1 2 3 4 5 6 
#
# 1 104.6115 30.1398 55.4467 0.0000 0.0000 0.0000
# 2 30.1398 71.0100 40.1276 0.0000 0.0000 0.0000
# 3 55.4467 40.1276 112.0234 0.0000 0.0000 0.0000
# 4 0.0000 0.0000 0.0000 17.9416 0.0000 0.0000
# 5 0.0000 0.0000 0.0000 0.0000 36.1800 0.0000
# 6 0.0000 0.0000 0.0000 0.0000 0.0000 14.3185
#
#
#
# Elastic Compliance Matrix: (Units=1/GPa)
#
#
# Indices 1 2 3 4 5 6 
#
# 1 0.013280 -0.002410 -0.005710 0.000000 0.000000 0.000000
# 2 -0.002410 0.018094 -0.005289 0.000000 0.000000 0.000000
# 3 -0.005710 -0.005289 0.013647 0.000000 0.000000 0.000000
# 4 0.000000 0.000000 0.000000 0.055736 0.000000 0.000000
# 5 0.000000 0.000000 0.000000 0.000000 0.027640 0.000000
# 6 0.000000 0.000000 0.000000 0.000000 0.000000 0.069840
#
#
# Mechanical properties :
#
#
# Convention : Reuss Voigt Hill
#
# Bulk Modulus (GPa) = 54.93148 59.89700 57.41424
# Shear Modulus (GPa) = 21.63367 24.48340 23.05853
#
# Velocity S-wave (km/s) = 3.40678 3.62422 3.51718
# Velocity P-wave (km/s) = 6.70408 7.04607 6.87720
#
# Compressibility (1/GPa) = 0.01820450
#
# Stress axis : x y z
#
# Youngs Moduli (GPa) = 75.30251 55.26697 73.27560
#
# Poissons Ratio (x) = 0.13320 0.41838
# Poissons Ratio (y) = 0.18148 0.38752
# Poissons Ratio (z) = 0.42995 0.29228
#
# Static dielectric constant tensor:
#      x y z
#    x 3.637480 0.000000 0.000000 
#    y 0.000000 3.336730 0.000000 
#    z 0.000000 0.000000 3.271740 
# 
# 
# High freq. dielectric constant tensor:
#      x y z
#    x 1.736540 0.000000 0.000000 
#    y 0.000000 1.712240 0.000000 
#    z 0.000000 0.000000 1.699310 
# 
# From -- ./inp_files/31887.got.cif
#   From: 2010.03.12/outbox.cif.g09.slc.cpg/sg51_16_cif.got.tgz:31887.got - 2010.04.16 13:43:02.
