data_PCOD8208353
_publ_section_title
;
Structure prediction by ZEFSAII (Michael W. Deem and Ramdas Pophale) SiO2 
 PCOD8208353
Probable space group: P M M A
;
_chemical_formula_sum "Si O2"
_cell_formula_units_Z 64
_cell_length_a 8.895541
_cell_length_b 23.472082
_cell_length_c 18.905290
_cell_angle_alpha 90.000000
_cell_angle_beta 90.000000
_cell_angle_gamma 90.000000
_cell_volume 3947.365337
_symmetry_space_group_name_H-M "P M M A"
_symmetry_group_IT_number 51
_symmetry_cell_setting 'orthorhombic'
loop_
_space_group_symop_operation_xyz
x,y,z
1/2-x,-y,z
1/2+x,-y,-z
-x,y,-z
-x,-y,-z
1/2+x,y,-z
1/2-x,y,z
x,-y,z
loop_
_atom_site_type_symbol
_atom_site_label
_atom_site_fract_x
_atom_site_fract_y
_atom_site_fract_z
Si Si1 0.427717 0.831234 0.835789
Si Si2 0.074860 0.743698 0.572981
Si Si3 0.423016 0.565531 0.289485
Si Si4 0.073824 0.063886 0.927245
Si Si5 0.424846 0.389672 0.572694
Si Si6 0.928492 0.768947 0.713705
Si Si7 0.078292 0.273987 0.927369
Si Si8 0.575195 0.662536 0.211258
O O1 0.250000 0.824177 0.822162
O O2 0.472426 0.893685 0.864109
O O3 0.514414 0.821121 0.762408
O O4 0.483592 0.784557 0.893067
O O5 0.250000 0.758865 0.571216
O O6 0.046899 0.676918 0.585808
O O7 0.000000 0.763619 0.500000
O O8 0.993838 0.778555 0.635380
O O9 0.250000 0.584569 0.294109
O O10 0.438825 0.500000 0.267656
O O11 0.499271 0.575195 0.364918
O O12 0.506721 0.601082 0.228386
O O13 0.250000 0.066286 0.939981
O O14 0.020411 0.000000 0.906899
O O15 0.000000 0.084514 0.000000
O O16 0.500000 0.409907 0.500000
O O17 0.250000 0.404602 0.569628
O O18 0.750000 0.767952 0.711402
O O19 0.989438 0.709465 0.743124
O O20 0.250000 0.264908 0.946488
O O21 0.054087 0.325592 0.872099
O O22 0.000000 0.290259 0.000000
O O23 0.750000 0.664861 0.233260
#
# Coordination Sequence:
#
# PCOD8208353 Si02
#       8
#     8   8   8   8   8   8   8   8
#     4   9  18  31  45  66  99 132 164 202 238 280
#     4  10  19  31  48  70  96 126 157 190 230 282
#     4  11  23  36  51  71  93 118 152 193 232 276
#     4   9  17  29  46  68  97 136 176 211 246 283
#     4  10  20  33  51  70  93 124 155 189 228 274
#     4  11  20  30  48  71  95 124 158 197 239 282
#     4   9  18  30  47  70  94 119 149 187 234 280
#     4  10  20  35  51  69  93 121 151 186 232 286
#
# _framework density 16.213346000000001
#
# number of rings (size 3 to 8) (size 9 to 14) (size 15 to 20)
#    0.000    2.125    1.250    3.750    0.000    5.250 
#    0.000    0.000    0.000    0.375    0.000    0.000 
#    0.000    0.500    0.000    1.375    0.000    2.000 
#
# Total GULP energy -793704.881571 kJ/mol
# GULP energy per Si atom -12401.638775 kJ/mol
# Density = 1.617644 g / cm^3
# Si number density = 16.213346 Si / 1000 Ang^3
#
#
#
# Elastic Constant Matrix: (Units=GPa)
#
#
# Indices 1 2 3 4 5 6 
#
# 1 101.5279 40.2483 59.2316 0.0000 0.0000 0.0000
# 2 40.2483 75.4339 48.9783 0.0000 0.0000 0.0000
# 3 59.2316 48.9783 117.2622 0.0000 0.0000 0.0000
# 4 0.0000 0.0000 0.0000 24.3640 0.0000 0.0000
# 5 0.0000 0.0000 0.0000 0.0000 33.3135 0.0000
# 6 0.0000 0.0000 0.0000 0.0000 0.0000 18.9066
#
#
#
# Elastic Compliance Matrix: (Units=1/GPa)
#
#
# Indices 1 2 3 4 5 6 
#
# 1 0.014873 -0.004196 -0.005760 0.000000 0.000000 0.000000
# 2 -0.004196 0.019373 -0.005973 0.000000 0.000000 0.000000
# 3 -0.005760 -0.005973 0.013932 0.000000 0.000000 0.000000
# 4 0.000000 0.000000 0.000000 0.041044 0.000000 0.000000
# 5 0.000000 0.000000 0.000000 0.000000 0.030018 0.000000
# 6 0.000000 0.000000 0.000000 0.000000 0.000000 0.052892
#
#
# Mechanical properties :
#
#
# Convention : Reuss Voigt Hill
#
# Bulk Modulus (GPa) = 61.26846 65.68229 63.47538
# Shear Modulus (GPa) = 23.87430 25.03453 24.45441
#
# Velocity S-wave (km/s) = 3.84149 3.93373 3.88788
# Velocity P-wave (km/s) = 7.58597 7.82505 7.70644
#
# Compressibility (1/GPa) = 0.01632161
#
# Stress axis : x y z
#
# Youngs Moduli (GPa) = 67.23400 51.61786 71.77607
#
# Poissons Ratio (x) = 0.21657 0.41346
# Poissons Ratio (y) = 0.28209 0.42868
# Poissons Ratio (z) = 0.38730 0.30829
#
# Static dielectric constant tensor:
#      x y z
#    x 3.161240 0.000000 0.000000 
#    y 0.000000 2.935490 0.000000 
#    z 0.000000 0.000000 3.142620 
# 
# 
# High freq. dielectric constant tensor:
#      x y z
#    x 1.635490 0.000000 0.000000 
#    y 0.000000 1.589190 0.000000 
#    z 0.000000 0.000000 1.621320 
# 
# From -- ./inp_files/28616.got.cif
#   From: 2010.03.12/outbox.cif.g09.slc.cpg/sg51_15_cif.got.tgz:28616.got - 2010.04.16 13:43:02.
