data_PCOD8208336
_publ_section_title
;
Structure prediction by ZEFSAII (Michael W. Deem and Ramdas Pophale) SiO2 
 PCOD8208336
Probable space group: P M M A
;
_chemical_formula_sum "Si O2"
_cell_formula_units_Z 48
_cell_length_a 20.026485
_cell_length_b 9.080934
_cell_length_c 16.702358
_cell_angle_alpha 90.000000
_cell_angle_beta 90.000000
_cell_angle_gamma 90.000000
_cell_volume 3037.477273
_symmetry_space_group_name_H-M "P M M A"
_symmetry_group_IT_number 51
_symmetry_cell_setting 'orthorhombic'
loop_
_space_group_symop_operation_xyz
x,y,z
1/2-x,-y,z
1/2+x,-y,-z
-x,y,-z
-x,-y,-z
1/2+x,y,-z
1/2-x,y,z
x,-y,z
loop_
_atom_site_type_symbol
_atom_site_label
_atom_site_fract_x
_atom_site_fract_y
_atom_site_fract_z
Si Si1 0.562023 0.172809 0.771644
Si Si2 0.670661 0.665943 0.490776
Si Si3 0.566224 0.332958 0.236258
Si Si4 0.827695 0.827659 0.332195
Si Si5 0.012492 0.666983 0.087859
Si Si6 0.326138 0.171243 0.351854
O O1 0.499456 0.251886 0.726486
O O2 0.567200 0.236374 0.862858
O O3 0.630028 0.211527 0.725487
O O4 0.548370 0.000000 0.774461
O O5 0.750000 0.669022 0.491109
O O6 0.642918 0.500000 0.485710
O O7 0.644742 0.757187 0.414437
O O8 0.644753 0.740688 0.572206
O O9 0.570429 0.500000 0.268713
O O10 0.633043 0.245346 0.258523
O O11 0.556866 0.330940 0.139229
O O12 0.750000 0.792786 0.318982
O O13 0.841917 0.000000 0.335113
O O14 0.039666 0.500000 0.079603
O O15 0.000000 0.735594 0.000000
O O16 0.250000 0.216515 0.332198
O O17 0.331179 0.000000 0.373637
#
# Coordination Sequence:
#
# PCOD8208336 Si02
#       6
#     8   8   8   8   8   8
#     4   9  17  29  47  71  95 120 153 191 231 274
#     4   9  17  28  44  66  91 122 160 194 225 267
#     4   9  18  31  48  69  94 122 152 189 231 275
#     4  10  19  31  48  69  94 123 155 192 231 271
#     4   8  16  31  50  70  92 119 150 186 229 278
#     4   9  17  30  47  67  94 126 157 189 228 272
#
# _framework density 15.802588
#
# number of rings (size 3 to 8) (size 9 to 14) (size 15 to 20)
#    1.000    2.000    0.000    1.500    0.000    4.667 
#    0.000    0.833    0.000    6.000    0.000    4.667 
#    0.000    0.000    0.000    0.000    0.000    0.000 
#
# Total GULP energy -594773.157228 kJ/mol
# GULP energy per Si atom -12391.107442 kJ/mol
# Density = 1.576662 g / cm^3
# Si number density = 15.802588 Si / 1000 Ang^3
#
#
#
# Elastic Constant Matrix: (Units=GPa)
#
#
# Indices 1 2 3 4 5 6 
#
# 1 62.9659 42.9517 44.7326 0.0000 0.0000 0.0000
# 2 42.9517 97.0830 51.4679 0.0000 0.0000 0.0000
# 3 44.7326 51.4679 106.5454 0.0000 0.0000 0.0000
# 4 0.0000 0.0000 0.0000 27.9151 0.0000 0.0000
# 5 0.0000 0.0000 0.0000 0.0000 22.1714 0.0000
# 6 0.0000 0.0000 0.0000 0.0000 0.0000 20.6998
#
#
#
# Elastic Compliance Matrix: (Units=1/GPa)
#
#
# Indices 1 2 3 4 5 6 
#
# 1 0.026401 -0.007802 -0.007315 0.000000 0.000000 0.000000
# 2 -0.007802 0.016152 -0.004527 0.000000 0.000000 0.000000
# 3 -0.007315 -0.004527 0.014644 0.000000 0.000000 0.000000
# 4 0.000000 0.000000 0.000000 0.035823 0.000000 0.000000
# 5 0.000000 0.000000 0.000000 0.000000 0.045103 0.000000
# 6 0.000000 0.000000 0.000000 0.000000 0.000000 0.048310
#
#
# Mechanical properties :
#
#
# Convention : Reuss Voigt Hill
#
# Bulk Modulus (GPa) = 55.84058 60.54429 58.19243
# Shear Modulus (GPa) = 21.58053 22.65338 22.11696
#
# Velocity S-wave (km/s) = 3.69946 3.79030 3.74515
# Velocity P-wave (km/s) = 7.32537 7.58625 7.45695
#
# Compressibility (1/GPa) = 0.01790813
#
# Stress axis : x y z
#
# Youngs Moduli (GPa) = 37.87766 61.91138 68.28869
#
# Poissons Ratio (x) = 0.48304 0.49956
# Poissons Ratio (y) = 0.29552 0.30913
# Poissons Ratio (z) = 0.27709 0.28026
#
# Static dielectric constant tensor:
#      x y z
#    x 2.716470 0.000000 0.000000 
#    y 0.000000 3.107330 0.000000 
#    z 0.000000 0.000000 2.940460 
# 
# 
# High freq. dielectric constant tensor:
#      x y z
#    x 1.571490 0.000000 0.000000 
#    y 0.000000 1.621420 0.000000 
#    z 0.000000 0.000000 1.592890 
# 
# From -- ./inp_files/30331.got.cif
#   From: 2010.03.12/outbox.cif.g09.slc.cpg/sg51_16_cif.got.tgz:30331.got - 2010.04.16 13:43:02.
