data_PCOD8208438
_publ_section_title
;
Structure prediction by ZEFSAII (Michael W. Deem and Ramdas Pophale) SiO2 
 PCOD8208438
Probable space group: P M M A
;
_chemical_formula_sum "Si O2"
_cell_formula_units_Z 64
_cell_length_a 9.532521
_cell_length_b 17.499728
_cell_length_c 20.696408
_cell_angle_alpha 90.000000
_cell_angle_beta 90.000000
_cell_angle_gamma 90.000000
_cell_volume 3452.502855
_symmetry_space_group_name_H-M "P M M A"
_symmetry_group_IT_number 51
_symmetry_cell_setting 'orthorhombic'
loop_
_space_group_symop_operation_xyz
x,y,z
1/2-x,-y,z
1/2+x,-y,-z
-x,y,-z
-x,-y,-z
1/2+x,y,-z
1/2-x,y,z
x,-y,z
loop_
_atom_site_type_symbol
_atom_site_label
_atom_site_fract_x
_atom_site_fract_y
_atom_site_fract_z
Si Si1 0.091374 0.416287 0.104783
Si Si2 0.408242 0.363225 0.783158
Si Si3 0.910248 0.862661 0.561516
Si Si4 0.584468 0.782536 0.796600
Si Si5 0.909116 0.682238 0.559677
Si Si6 0.916048 0.914836 0.700790
Si Si7 0.090739 0.252208 0.058206
Si Si8 0.905125 0.414716 0.356323
O O1 0.250000 0.407680 0.132150
O O2 0.074371 0.500000 0.070247
O O3 0.062603 0.343907 0.058681
O O4 0.981793 0.414069 0.162722
O O5 0.250000 0.341184 0.805066
O O6 0.496395 0.286969 0.767616
O O7 0.404841 0.415885 0.720671
O O8 0.750000 0.889762 0.550745
O O9 0.919203 0.772230 0.567569
O O10 0.973767 0.894891 0.628879
O O11 0.000000 0.892240 0.500000
O O12 0.750000 0.767525 0.786152
O O13 0.532864 0.857807 0.757613
O O14 0.550755 0.787679 0.873455
O O15 0.750000 0.654914 0.550818
O O16 0.000000 0.652067 0.500000
O O17 0.975065 0.643654 0.622354
O O18 0.750000 0.909840 0.696426
O O19 0.966973 0.000000 0.719516
O O20 0.250000 0.233739 0.041017
O O21 0.000000 0.216458 0.000000
O O22 0.750000 0.389062 0.381192
O O23 0.938947 0.500000 0.381180
#
# Coordination Sequence:
#
# PCOD8208438 Si02
#       8
#     8   8   8   8   8   8   8   8
#     4   9  18  32  48  68  98 133 167 206 250 294
#     4  10  19  31  49  72  97 127 164 204 247 296
#     4   9  18  32  51  76 104 132 163 198 236 284
#     4   9  18  34  54  75 100 130 167 210 250 294
#     4  10  20  34  51  68  88 119 159 201 244 291
#     4   9  17  31  54  81 105 131 165 203 241 286
#     4   9  18  31  48  71  98 130 169 212 255 299
#     4  10  21  34  46  64  92 122 155 201 251 295
#
# _framework density 18.537275999999999
#
# number of rings (size 3 to 8) (size 9 to 14) (size 15 to 20)
#    0.000    2.625    0.000    2.625    0.000    6.250 
#    0.000    0.625    0.000    1.500    0.000    0.000 
#    0.000    0.000    0.000    0.000    0.000    0.250 
#
# Total GULP energy -793201.104793 kJ/mol
# GULP energy per Si atom -12393.767262 kJ/mol
# Density = 1.849508 g / cm^3
# Si number density = 18.537276 Si / 1000 Ang^3
#
#
#
# Elastic Constant Matrix: (Units=GPa)
#
#
# Indices 1 2 3 4 5 6 
#
# 1 82.3183 28.4424 40.6602 0.0000 0.0000 0.0000
# 2 28.4424 66.8271 40.5957 0.0000 0.0000 0.0000
# 3 40.6602 40.5957 102.5763 0.0000 0.0000 0.0000
# 4 0.0000 0.0000 0.0000 13.6653 0.0000 0.0000
# 5 0.0000 0.0000 0.0000 0.0000 32.2808 0.0000
# 6 0.0000 0.0000 0.0000 0.0000 0.0000 12.5409
#
#
#
# Elastic Compliance Matrix: (Units=1/GPa)
#
#
# Indices 1 2 3 4 5 6 
#
# 1 0.015824 -0.003850 -0.004749 0.000000 0.000000 0.000000
# 2 -0.003850 0.020637 -0.006641 0.000000 0.000000 0.000000
# 3 -0.004749 -0.006641 0.014259 0.000000 0.000000 0.000000
# 4 0.000000 0.000000 0.000000 0.073178 0.000000 0.000000
# 5 0.000000 0.000000 0.000000 0.000000 0.030978 0.000000
# 6 0.000000 0.000000 0.000000 0.000000 0.000000 0.079739
#
#
# Mechanical properties :
#
#
# Convention : Reuss Voigt Hill
#
# Bulk Modulus (GPa) = 49.40622 52.34649 50.87635
# Shear Modulus (GPa) = 18.39301 21.16562 19.77931
#
# Velocity S-wave (km/s) = 3.15337 3.38270 3.27004
# Velocity P-wave (km/s) = 6.32207 6.59975 6.46240
#
# Compressibility (1/GPa) = 0.02024037
#
# Stress axis : x y z
#
# Youngs Moduli (GPa) = 63.19594 48.45670 70.12873
#
# Poissons Ratio (x) = 0.18656 0.33302
# Poissons Ratio (y) = 0.24331 0.46574
# Poissons Ratio (z) = 0.30010 0.32181
#
# Static dielectric constant tensor:
#      x y z
#    x 3.409760 0.000000 0.000000 
#    y 0.000000 3.289120 0.000000 
#    z 0.000000 0.000000 3.297180 
# 
# 
# High freq. dielectric constant tensor:
#      x y z
#    x 1.709920 0.000000 0.000000 
#    y 0.000000 1.699310 0.000000 
#    z 0.000000 0.000000 1.712140 
# 
# From -- ./inp_files/32375.got.cif
#   From: 2010.03.12/outbox.cif.g09.slc.cpg/sg51_17_cif.got.tgz:32375.got - 2010.04.16 13:43:02.
