data_PCOD8208190
_publ_section_title
;
Structure prediction by ZEFSAII (Michael W. Deem and Ramdas Pophale) SiO2 
 PCOD8208190
Probable space group: P M M A
;
_chemical_formula_sum "Si O2"
_cell_formula_units_Z 64
_cell_length_a 8.872008
_cell_length_b 30.860747
_cell_length_c 15.265007
_cell_angle_alpha 90.000000
_cell_angle_beta 90.000000
_cell_angle_gamma 90.000000
_cell_volume 4179.509981
_symmetry_space_group_name_H-M "P M M A"
_symmetry_group_IT_number 51
_symmetry_cell_setting 'orthorhombic'
loop_
_space_group_symop_operation_xyz
x,y,z
1/2-x,-y,z
1/2+x,-y,-z
-x,y,-z
-x,-y,-z
1/2+x,y,-z
1/2-x,y,z
x,-y,z
loop_
_atom_site_type_symbol
_atom_site_label
_atom_site_fract_x
_atom_site_fract_y
_atom_site_fract_z
Si Si1 0.427352 0.694566 0.766378
Si Si2 0.079407 0.307263 0.412764
Si Si3 0.426167 0.794922 0.760990
Si Si4 0.418243 0.204150 0.414601
Si Si5 0.070588 0.632072 0.096408
Si Si6 0.073578 0.452995 0.905546
Si Si7 0.571986 0.139528 0.094480
Si Si8 0.073572 0.954291 0.906300
O O1 0.250000 0.685210 0.772556
O O2 0.486985 0.677416 0.672660
O O3 0.466044 0.745037 0.778757
O O4 0.515702 0.671362 0.844115
O O5 0.250000 0.325160 0.407258
O O6 0.079203 0.255790 0.417754
O O7 0.000000 0.326356 0.500000
O O8 0.250000 0.801586 0.749030
O O9 0.500447 0.812545 0.672371
O O10 0.490565 0.823577 0.840699
O O11 0.500000 0.184936 0.500000
O O12 0.250000 0.185901 0.414357
O O13 0.250000 0.631986 0.090158
O O14 0.010866 0.587135 0.141741
O O15 0.000000 0.637484 0.000000
O O16 0.250000 0.442088 0.914285
O O17 0.050779 0.500000 0.857670
O O18 0.000000 0.456637 0.000000
O O19 0.750000 0.144236 0.083336
O O20 0.527545 0.092049 0.136567
O O21 0.500000 0.146911 0.000000
O O22 0.250000 0.953694 0.921355
O O23 0.028729 0.000000 0.856001
O O24 0.000000 0.955629 0.000000
#
# Coordination Sequence:
#
# PCOD8208190 Si02
#       8
#     8   8   8   8   8   8   8   8
#     4  10  19  31  44  59  82 112 145 178 210 244
#     4   9  16  27  43  63  83 105 134 169 211 252
#     4   9  18  30  42  57  80 110 141 173 206 241
#     4   9  16  26  42  61  80 102 130 166 206 248
#     4  11  21  32  45  61  84 114 147 180 212 248
#     4   9  16  27  44  64  84 106 134 170 212 254
#     4   9  17  28  40  56  79 107 139 172 204 240
#     4   8  13  22  37  55  74  97 126 162 204 246
#
# _framework density 15.312799999999999
#
# number of rings (size 3 to 8) (size 9 to 14) (size 15 to 20)
#    0.000    2.750    0.000    3.375    0.000    5.250 
#    0.000    1.250    0.000    0.000    0.000    0.000 
#    0.000    1.000    0.000    2.750    0.000    4.625 
#
# Total GULP energy -792856.030501 kJ/mol
# GULP energy per Si atom -12388.375477 kJ/mol
# Density = 1.527795 g / cm^3
# Si number density = 15.312800 Si / 1000 Ang^3
#
#
#
# Elastic Constant Matrix: (Units=GPa)
#
#
# Indices 1 2 3 4 5 6 
#
# 1 85.6143 42.6623 43.8934 0.0000 0.0000 0.0000
# 2 42.6623 80.6234 53.0337 0.0000 0.0000 0.0000
# 3 43.8934 53.0337 94.0774 0.0000 0.0000 0.0000
# 4 0.0000 0.0000 0.0000 1.1274 0.0000 0.0000
# 5 0.0000 0.0000 0.0000 0.0000 25.5975 0.0000
# 6 0.0000 0.0000 0.0000 0.0000 0.0000 14.8863
#
#
#
# Elastic Compliance Matrix: (Units=1/GPa)
#
#
# Indices 1 2 3 4 5 6 
#
# 1 0.017005 -0.006007 -0.004548 0.000000 0.000000 0.000000
# 2 -0.006007 0.021835 -0.009506 0.000000 0.000000 0.000000
# 3 -0.004548 -0.009506 0.018110 0.000000 0.000000 0.000000
# 4 0.000000 0.000000 0.000000 0.887003 0.000000 0.000000
# 5 0.000000 0.000000 0.000000 0.000000 0.039066 0.000000
# 6 0.000000 0.000000 0.000000 0.000000 0.000000 0.067176
#
#
# Mechanical properties :
#
#
# Convention : Reuss Voigt Hill
#
# Bulk Modulus (GPa) = 59.42280 59.94376 59.68328
# Shear Modulus (GPa) = 4.56235 16.37062 10.46648
#
# Velocity S-wave (km/s) = 1.72798 3.27323 2.61724
# Velocity P-wave (km/s) = 6.54763 7.31550 6.94219
#
# Compressibility (1/GPa) = 0.01682856
#
# Stress axis : x y z
#
# Youngs Moduli (GPa) = 58.80555 45.79767 55.21676
#
# Poissons Ratio (x) = 0.27510 0.25112
# Poissons Ratio (y) = 0.35323 0.52491
# Poissons Ratio (z) = 0.26744 0.43537
#
# Static dielectric constant tensor:
#      x y z
#    x 3.040500 0.000000 0.000000 
#    y 0.000000 3.377120 0.000000 
#    z 0.000000 0.000000 2.791840 
# 
# 
# High freq. dielectric constant tensor:
#      x y z
#    x 1.601340 0.000000 0.000000 
#    y 0.000000 1.568200 0.000000 
#    z 0.000000 0.000000 1.553580 
# 
# From -- ./inp_files/22577.got.cif
#   From: 2010.03.12/outbox.cif.g09.slc.cpg/sg51_12_cif.got.tgz:22577.got - 2010.04.16 13:43:02.
