data_PCOD8208747
_publ_section_title
;
Structure prediction by ZEFSAII (Michael W. Deem and Ramdas Pophale) SiO2 
 PCOD8208747
Probable space group: P M M A
;
_chemical_formula_sum "Si O2"
_cell_formula_units_Z 64
_cell_length_a 30.924935
_cell_length_b 9.654237
_cell_length_c 12.093034
_cell_angle_alpha 90.000000
_cell_angle_beta 90.000000
_cell_angle_gamma 90.000000
_cell_volume 3610.455740
_symmetry_space_group_name_H-M "P M M A"
_symmetry_group_IT_number 51
_symmetry_cell_setting 'orthorhombic'
loop_
_space_group_symop_operation_xyz
x,y,z
1/2-x,-y,z
1/2+x,-y,-z
-x,y,-z
-x,-y,-z
1/2+x,y,-z
1/2-x,y,z
x,-y,z
loop_
_atom_site_type_symbol
_atom_site_label
_atom_site_fract_x
_atom_site_fract_y
_atom_site_fract_z
Si Si1 0.505659 0.844021 0.241035
Si Si2 0.628191 0.337203 0.046644
Si Si3 0.799078 0.340627 0.873010
Si Si4 0.608155 0.157307 0.493391
Si Si5 0.351536 0.843792 0.281750
Si Si6 0.463262 0.350850 0.416391
Si Si7 0.575190 0.844841 0.890144
Si Si8 0.393851 0.841475 0.757894
O O1 0.482680 0.734884 0.317565
O O2 0.476581 0.836319 0.129523
O O3 0.555528 0.804319 0.224117
O O4 0.503136 0.000000 0.290943
O O5 0.619070 0.500000 0.061175
O O6 0.633182 0.263562 0.165478
O O7 0.672393 0.307424 0.980808
O O8 0.588144 0.267159 0.982030
O O9 0.750000 0.299942 0.901772
O O10 0.803415 0.500000 0.839344
O O11 0.814928 0.255303 0.766988
O O12 0.645235 0.182452 0.585861
O O13 0.570805 0.264630 0.514594
O O14 0.623433 0.181961 0.367253
O O15 0.590446 0.000000 0.505086
O O16 0.398275 0.814840 0.224219
O O17 0.336577 0.000000 0.257969
O O18 0.500000 0.389402 0.500000
O O19 0.444156 0.500000 0.373883
O O20 0.586850 0.000000 0.932818
O O21 0.385427 0.000000 0.793875
#
# Coordination Sequence:
#
# PCOD8208747 Si02
#       8
#     8   8   8   8   8   8   8   8
#     4  10  19  32  50  69  94 137 186 225 259 298
#     4  10  21  36  53  73 102 134 167 213 263 309
#     4   9  19  37  60  83 104 129 160 196 249 317
#     4  10  19  33  52  72 100 139 177 209 250 305
#     4   9  17  30  52  82 107 128 160 206 256 302
#     4  11  21  29  42  69 102 135 176 226 265 294
#     4   9  17  31  51  72  97 130 174 221 258 299
#     4  10  21  34  51  71  98 141 186 220 248 293
#
# _framework density 17.726292999999998
#
# number of rings (size 3 to 8) (size 9 to 14) (size 15 to 20)
#    0.000    2.250    2.500    0.750    0.000    3.750 
#    0.000    2.500    0.000    0.750    0.000    3.500 
#    0.000    0.000    0.000    0.000    0.000    0.000 
#
# Total GULP energy -793217.211911 kJ/mol
# GULP energy per Si atom -12394.018936 kJ/mol
# Density = 1.768595 g / cm^3
# Si number density = 17.726293 Si / 1000 Ang^3
#
#
#
# Elastic Constant Matrix: (Units=GPa)
#
#
# Indices 1 2 3 4 5 6 
#
# 1 61.5648 39.5546 38.3659 0.0000 0.0000 0.0000
# 2 39.5546 108.0153 66.0045 0.0000 0.0000 0.0000
# 3 38.3659 66.0045 115.4560 0.0000 0.0000 0.0000
# 4 0.0000 0.0000 0.0000 20.3571 0.0000 0.0000
# 5 0.0000 0.0000 0.0000 0.0000 14.4164 0.0000
# 6 0.0000 0.0000 0.0000 0.0000 0.0000 21.8026
#
#
#
# Elastic Compliance Matrix: (Units=1/GPa)
#
#
# Indices 1 2 3 4 5 6 
#
# 1 0.022524 -0.005647 -0.004256 0.000000 0.000000 0.000000
# 2 -0.005647 0.015644 -0.007067 0.000000 0.000000 0.000000
# 3 -0.004256 -0.007067 0.014116 0.000000 0.000000 0.000000
# 4 0.000000 0.000000 0.000000 0.049123 0.000000 0.000000
# 5 0.000000 0.000000 0.000000 0.000000 0.069365 0.000000
# 6 0.000000 0.000000 0.000000 0.000000 0.000000 0.045866
#
#
# Mechanical properties :
#
#
# Convention : Reuss Voigt Hill
#
# Bulk Modulus (GPa) = 54.51712 63.65401 59.08556
# Shear Modulus (GPa) = 19.47850 20.72264 20.10057
#
# Velocity S-wave (km/s) = 3.31848 3.42282 3.37106
# Velocity P-wave (km/s) = 6.74573 7.18389 6.96825
#
# Compressibility (1/GPa) = 0.01834286
#
# Stress axis : x y z
#
# Youngs Moduli (GPa) = 44.39775 63.92050 70.84266
#
# Poissons Ratio (x) = 0.36098 0.30151
# Poissons Ratio (y) = 0.25073 0.50065
# Poissons Ratio (z) = 0.18896 0.45173
#
# Static dielectric constant tensor:
#      x y z
#    x 3.021350 0.000000 0.000000 
#    y 0.000000 3.467700 0.000000 
#    z 0.000000 0.000000 3.279290 
# 
# 
# High freq. dielectric constant tensor:
#      x y z
#    x 1.643880 0.000000 0.000000 
#    y 0.000000 1.696410 0.000000 
#    z 0.000000 0.000000 1.681130 
# 
# From -- ./inp_files/19658.got.cif
#   From: 2010.03.12/outbox.cif.g09.slc.cpg/sg51_10_cif.got.tgz:19658.got - 2010.04.16 13:43:02.
