data_PCOD8208797
_publ_section_title
;
Structure prediction by ZEFSAII (Michael W. Deem and Ramdas Pophale) SiO2 
 PCOD8208797
Probable space group: P M M A
;
_chemical_formula_sum "Si O2"
_cell_formula_units_Z 64
_cell_length_a 19.811857
_cell_length_b 8.688870
_cell_length_c 19.770108
_cell_angle_alpha 90.000000
_cell_angle_beta 90.000000
_cell_angle_gamma 90.000000
_cell_volume 3403.278781
_symmetry_space_group_name_H-M "P M M A"
_symmetry_group_IT_number 51
_symmetry_cell_setting 'orthorhombic'
loop_
_space_group_symop_operation_xyz
x,y,z
1/2-x,-y,z
1/2+x,-y,-z
-x,y,-z
-x,-y,-z
1/2+x,y,-z
1/2-x,y,z
x,-y,z
loop_
_atom_site_type_symbol
_atom_site_label
_atom_site_fract_x
_atom_site_fract_y
_atom_site_fract_z
Si Si1 0.444546 0.818112 0.592965
Si Si2 0.671883 0.680870 0.013435
Si Si3 0.081486 0.181875 0.875484
Si Si4 0.673788 0.674151 0.662767
Si Si5 0.568523 0.174282 0.911018
Si Si6 0.080734 0.323245 0.457178
Si Si7 0.423185 0.828209 0.242576
Si Si8 0.559081 0.678629 0.266639
O O1 0.402254 0.748408 0.530397
O O2 0.521908 0.767741 0.582133
O O3 0.414346 0.755579 0.663909
O O4 0.438796 0.000000 0.592456
O O5 0.750000 0.732545 0.998877
O O6 0.669252 0.500000 0.025147
O O7 0.645141 0.763358 0.080992
O O8 0.620018 0.722180 0.953569
O O9 0.092195 0.248455 0.800321
O O10 0.009874 0.234319 0.910297
O O11 0.079917 0.000000 0.868571
O O12 0.750000 0.721925 0.658501
O O13 0.662333 0.500000 0.688826
O O14 0.647102 0.694283 0.587035
O O15 0.642938 0.793804 0.715177
O O16 0.596851 0.182272 0.835511
O O17 0.570812 0.000000 0.940024
O O18 0.058047 0.500000 0.465336
O O19 0.478848 0.703461 0.263040
O O20 0.450901 0.000000 0.258875
O O21 0.576583 0.500000 0.268705
#
# Coordination Sequence:
#
# PCOD8208797 Si02
#       8
#     8   8   8   8   8   8   8   8
#     4  11  20  31  51  78 108 136 171 223 273 319
#     4  11  24  39  56  82 114 148 188 231 276 333
#     4  10  21  38  60  86 113 144 184 232 283 337
#     4  10  21  35  51  72 104 146 185 221 264 319
#     4   9  20  37  57  82 111 144 184 231 280 331
#     4  10  19  32  50  74 104 139 180 221 269 322
#     4  10  20  34  52  77 108 140 179 224 268 318
#     4  11  20  33  55  82 111 140 172 219 275 330
#
# _framework density 18.805395000000001
#
# number of rings (size 3 to 8) (size 9 to 14) (size 15 to 20)
#    0.000    1.750    1.250    5.625    0.000    6.750 
#    0.000    2.500    0.000    0.750    0.000    1.750 
#    0.000    0.000    0.000    0.000    0.000    0.000 
#
# Total GULP energy -793442.600297 kJ/mol
# GULP energy per Si atom -12397.540630 kJ/mol
# Density = 1.876259 g / cm^3
# Si number density = 18.805395 Si / 1000 Ang^3
#
#
#
# Elastic Constant Matrix: (Units=GPa)
#
#
# Indices 1 2 3 4 5 6 
#
# 1 61.3742 26.5778 30.3665 0.0000 0.0000 0.0000
# 2 26.5778 90.1840 33.2569 0.0000 0.0000 0.0000
# 3 30.3665 33.2569 95.3166 0.0000 0.0000 0.0000
# 4 0.0000 0.0000 0.0000 36.8518 0.0000 0.0000
# 5 0.0000 0.0000 0.0000 0.0000 21.7437 0.0000
# 6 0.0000 0.0000 0.0000 0.0000 0.0000 17.4292
#
#
#
# Elastic Compliance Matrix: (Units=1/GPa)
#
#
# Indices 1 2 3 4 5 6 
#
# 1 0.020640 -0.004198 -0.005111 0.000000 0.000000 0.000000
# 2 -0.004198 0.013580 -0.003401 0.000000 0.000000 0.000000
# 3 -0.005111 -0.003401 0.013306 0.000000 0.000000 0.000000
# 4 0.000000 0.000000 0.000000 0.027136 0.000000 0.000000
# 5 0.000000 0.000000 0.000000 0.000000 0.045990 0.000000
# 6 0.000000 0.000000 0.000000 0.000000 0.000000 0.057375
#
#
# Mechanical properties :
#
#
# Convention : Reuss Voigt Hill
#
# Bulk Modulus (GPa) = 45.23501 47.47524 46.35513
# Shear Modulus (GPa) = 23.71744 25.64985 24.68364
#
# Velocity S-wave (km/s) = 3.55520 3.69719 3.62689
# Velocity P-wave (km/s) = 6.39993 6.59742 6.49942
#
# Compressibility (1/GPa) = 0.02210677
#
# Stress axis : x y z
#
# Youngs Moduli (GPa) = 48.44912 73.63947 75.15327
#
# Poissons Ratio (x) = 0.30914 0.38410
# Poissons Ratio (y) = 0.20339 0.25557
# Poissons Ratio (z) = 0.24762 0.25042
#
# Static dielectric constant tensor:
#      x y z
#    x 3.220270 0.000000 0.000000 
#    y 0.000000 3.492230 0.000000 
#    z 0.000000 0.000000 3.709350 
# 
# 
# High freq. dielectric constant tensor:
#      x y z
#    x 1.689720 0.000000 0.000000 
#    y 0.000000 1.739060 0.000000 
#    z 0.000000 0.000000 1.747750 
# 
# From -- ./inp_files/34160.got.cif
#   From: 2010.03.12/outbox.cif.g09.slc.cpg/sg51_18_cif.got.tgz:34160.got - 2010.04.16 13:43:02.
