data_PCOD8208591
_publ_section_title
;
Structure prediction by ZEFSAII (Michael W. Deem and Ramdas Pophale) SiO2 
 PCOD8208591
Probable space group: P M M A
;
_chemical_formula_sum "Si O2"
_cell_formula_units_Z 64
_cell_length_a 8.970752
_cell_length_b 22.791172
_cell_length_c 16.245806
_cell_angle_alpha 90.000000
_cell_angle_beta 90.000000
_cell_angle_gamma 90.000000
_cell_volume 3321.519237
_symmetry_space_group_name_H-M "P M M A"
_symmetry_group_IT_number 51
_symmetry_cell_setting 'orthorhombic'
loop_
_space_group_symop_operation_xyz
x,y,z
1/2-x,-y,z
1/2+x,-y,-z
-x,y,-z
-x,-y,-z
1/2+x,y,-z
1/2-x,y,z
x,-y,z
loop_
_atom_site_type_symbol
_atom_site_label
_atom_site_fract_x
_atom_site_fract_y
_atom_site_fract_z
Si Si1 0.580182 0.064889 0.268400
Si Si2 0.079037 0.740848 0.078186
Si Si3 0.412839 0.185223 0.800468
Si Si4 0.925622 0.889339 0.577798
Si Si5 0.571124 0.352546 0.585710
Si Si6 0.574318 0.566107 0.737393
Si Si7 0.926758 0.607926 0.915328
Si Si8 0.581545 0.770932 0.382519
O O1 0.750000 0.072901 0.300957
O O2 0.548193 0.115770 0.201914
O O3 0.466390 0.072569 0.342930
O O4 0.557196 0.000000 0.229344
O O5 0.250000 0.739454 0.059256
O O6 0.021609 0.675198 0.094545
O O7 0.045727 0.782880 0.153633
O O8 0.000000 0.769235 0.000000
O O9 0.250000 0.193906 0.842566
O O10 0.408646 0.215701 0.713001
O O11 0.750000 0.885265 0.569228
O O12 0.000000 0.922355 0.500000
O O13 0.995323 0.824442 0.576503
O O14 0.500000 0.376978 0.500000
O O15 0.750000 0.353606 0.578861
O O16 0.514815 0.391598 0.664096
O O17 0.513162 0.287042 0.599962
O O18 0.750000 0.574380 0.742453
O O19 0.528358 0.500000 0.713543
O O20 0.512380 0.578956 0.830188
O O21 0.750000 0.599518 0.923842
O O22 0.000000 0.581816 0.000000
O O23 0.750000 0.764251 0.418400
#
# Coordination Sequence:
#
# PCOD8208591 Si02
#       8
#     8   8   8   8   8   8   8   8
#     4   9  19  36  54  72  98 134 174 213 256 306
#     4  10  19  31  50  77 108 138 167 204 252 309
#     4   9  18  32  52  77 103 132 166 208 257 307
#     4  11  21  33  50  73 102 133 168 211 258 309
#     4  11  22  36  55  78 104 138 182 229 276 322
#     4   9  19  36  56  77 105 143 183 220 262 319
#     4   9  18  33  54  81 110 139 172 210 259 318
#     4  10  20  35  54  77 105 135 169 212 266 323
#
# _framework density 19.268291000000001
#
# number of rings (size 3 to 8) (size 9 to 14) (size 15 to 20)
#    0.000    2.250    0.000    4.125    0.000    5.000 
#    0.000    1.250    0.000    3.000    0.000    0.000 
#    0.000    0.000    0.000    0.000    0.000    0.000 
#
# Total GULP energy -793155.812656 kJ/mol
# GULP energy per Si atom -12393.059573 kJ/mol
# Density = 1.922444 g / cm^3
# Si number density = 19.268291 Si / 1000 Ang^3
#
#
#
# Elastic Constant Matrix: (Units=GPa)
#
#
# Indices 1 2 3 4 5 6 
#
# 1 74.1626 18.9925 22.4572 0.0000 0.0000 0.0000
# 2 18.9925 79.7526 33.3780 0.0000 0.0000 0.0000
# 3 22.4572 33.3780 85.5418 0.0000 0.0000 0.0000
# 4 0.0000 0.0000 0.0000 42.5260 0.0000 0.0000
# 5 0.0000 0.0000 0.0000 0.0000 32.7773 0.0000
# 6 0.0000 0.0000 0.0000 0.0000 0.0000 21.2044
#
#
#
# Elastic Compliance Matrix: (Units=1/GPa)
#
#
# Indices 1 2 3 4 5 6 
#
# 1 0.014993 -0.002298 -0.003039 0.000000 0.000000 0.000000
# 2 -0.002298 0.015338 -0.005382 0.000000 0.000000 0.000000
# 3 -0.003039 -0.005382 0.014588 0.000000 0.000000 0.000000
# 4 0.000000 0.000000 0.000000 0.023515 0.000000 0.000000
# 5 0.000000 0.000000 0.000000 0.000000 0.030509 0.000000
# 6 0.000000 0.000000 0.000000 0.000000 0.000000 0.047160
#
#
# Mechanical properties :
#
#
# Convention : Reuss Voigt Hill
#
# Bulk Modulus (GPa) = 42.58816 43.23472 42.91144
# Shear Modulus (GPa) = 28.51139 30.27683 29.39411
#
# Velocity S-wave (km/s) = 3.85087 3.96830 3.91002
# Velocity P-wave (km/s) = 6.47479 6.59420 6.53477
#
# Compressibility (1/GPa) = 0.02348070
#
# Stress axis : x y z
#
# Youngs Moduli (GPa) = 66.69865 65.19575 68.54983
#
# Poissons Ratio (x) = 0.14985 0.20834
# Poissons Ratio (y) = 0.15330 0.36891
# Poissons Ratio (z) = 0.20271 0.35086
#
# Static dielectric constant tensor:
#      x y z
#    x 3.549820 0.000000 0.000000 
#    y 0.000000 3.546800 0.000000 
#    z 0.000000 0.000000 3.994000 
# 
# 
# High freq. dielectric constant tensor:
#      x y z
#    x 1.740650 0.000000 0.000000 
#    y 0.000000 1.743260 0.000000 
#    z 0.000000 0.000000 1.743430 
# 
# From -- ./inp_files/28411.got.cif
#   From: 2010.03.12/outbox.cif.g09.slc.cpg/sg51_15_cif.got.tgz:28411.got - 2010.04.16 13:43:02.
