data_PCOD8208753
_publ_section_title
;
Structure prediction by ZEFSAII (Michael W. Deem and Ramdas Pophale) SiO2 
 PCOD8208753
Probable space group: P M M A
;
_chemical_formula_sum "Si O2"
_cell_formula_units_Z 48
_cell_length_a 18.323415
_cell_length_b 8.983716
_cell_length_c 16.806270
_cell_angle_alpha 90.000000
_cell_angle_beta 90.000000
_cell_angle_gamma 90.000000
_cell_volume 2766.519709
_symmetry_space_group_name_H-M "P M M A"
_symmetry_group_IT_number 51
_symmetry_cell_setting 'orthorhombic'
loop_
_space_group_symop_operation_xyz
x,y,z
1/2-x,-y,z
1/2+x,-y,-z
-x,y,-z
-x,-y,-z
1/2+x,y,-z
1/2-x,y,z
x,-y,z
loop_
_atom_site_type_symbol
_atom_site_label
_atom_site_fract_x
_atom_site_fract_y
_atom_site_fract_z
Si Si1 0.954349 0.335999 0.080428
Si Si2 0.551255 0.832289 0.423766
Si Si3 0.166301 0.673758 0.479873
Si Si4 0.166430 0.325303 0.031654
Si Si5 0.067209 0.325232 0.330638
Si Si6 0.925920 0.824439 0.833210
O O1 0.952655 0.500000 0.120550
O O2 0.991529 0.221861 0.141676
O O3 0.873308 0.285608 0.052477
O O4 0.000000 0.343189 0.000000
O O5 0.500000 0.829015 0.500000
O O6 0.628709 0.759681 0.446732
O O7 0.512249 0.738372 0.354436
O O8 0.564256 0.000000 0.393352
O O9 0.250000 0.724945 0.474059
O O10 0.158821 0.500000 0.497966
O O11 0.127467 0.714068 0.396925
O O12 0.250000 0.279968 0.021438
O O13 0.155996 0.500000 0.051040
O O14 0.133200 0.231565 0.103699
O O15 0.059764 0.500000 0.317062
O O16 0.094854 0.247745 0.250663
O O17 0.921877 0.000000 0.826130
#
# Coordination Sequence:
#
# PCOD8208753 Si02
#       6
#     8   8   8   8   8   8
#     4   8  15  30  50  69  90 121 161 198 232 277
#     4   9  17  30  48  70  95 123 157 197 239 282
#     4   9  18  32  50  72  96 124 159 195 233 282
#     4   9  18  33  52  72  95 125 160 196 235 283
#     4  10  19  32  50  70  95 129 165 200 236 278
#     4  11  21  31  46  71 101 129 158 196 241 287
#
# _framework density 17.35032
#
# number of rings (size 3 to 8) (size 9 to 14) (size 15 to 20)
#    0.000    2.667    0.000    3.500    0.000    7.000 
#    0.000    1.667    0.000    1.000    0.000    2.333 
#    0.000    0.000    0.000    0.000    0.000    0.000 
#
# Total GULP energy -595089.369155 kJ/mol
# GULP energy per Si atom -12397.695191 kJ/mol
# Density = 1.731083 g / cm^3
# Si number density = 17.350320 Si / 1000 Ang^3
#
#
#
# Elastic Constant Matrix: (Units=GPa)
#
#
# Indices 1 2 3 4 5 6 
#
# 1 131.0900 47.2731 34.9616 0.0000 0.0000 0.0000
# 2 47.2731 88.5538 16.4516 0.0000 0.0000 0.0000
# 3 34.9616 16.4516 18.2045 0.0000 0.0000 0.0000
# 4 0.0000 0.0000 0.0000 23.0989 0.0000 0.0000
# 5 0.0000 0.0000 0.0000 0.0000 17.1002 0.0000
# 6 0.0000 0.0000 0.0000 0.0000 0.0000 17.2328
#
#
#
# Elastic Compliance Matrix: (Units=1/GPa)
#
#
# Indices 1 2 3 4 5 6 
#
# 1 0.016499 -0.003510 -0.028513 0.000000 0.000000 0.000000
# 2 -0.003510 0.014318 -0.006198 0.000000 0.000000 0.000000
# 3 -0.028513 -0.006198 0.115292 0.000000 0.000000 0.000000
# 4 0.000000 0.000000 0.000000 0.043292 0.000000 0.000000
# 5 0.000000 0.000000 0.000000 0.000000 0.058479 0.000000
# 6 0.000000 0.000000 0.000000 0.000000 0.000000 0.058029
#
#
# Mechanical properties :
#
#
# Convention : Reuss Voigt Hill
#
# Bulk Modulus (GPa) = 14.35420 48.35786 31.35603
# Shear Modulus (GPa) = 12.32824 20.76386 16.54605
#
# Velocity S-wave (km/s) = 2.66850 3.46315 3.09146
# Velocity P-wave (km/s) = 4.21731 6.62746 5.55468
#
# Compressibility (1/GPa) = 0.06966601
#
# Stress axis : x y z
#
# Youngs Moduli (GPa) = 60.61080 69.84260 8.67363
#
# Poissons Ratio (x) = 0.24517 0.24731
# Poissons Ratio (y) = 0.21277 0.05376
# Poissons Ratio (z) = 1.72821 0.43286
#
# Static dielectric constant tensor:
#      x y z
#    x 3.484450 0.000000 0.000000 
#    y 0.000000 3.243230 0.000000 
#    z 0.000000 0.000000 3.098940 
# 
# 
# High freq. dielectric constant tensor:
#      x y z
#    x 1.661720 0.000000 0.000000 
#    y 0.000000 1.672230 0.000000 
#    z 0.000000 0.000000 1.645540 
# 
# From -- ./inp_files/30037.got.cif
#   From: 2010.03.12/outbox.cif.g09.slc.cpg/sg51_16_cif.got.tgz:30037.got - 2010.04.16 13:43:02.
