data_PCOD8208175
_publ_section_title
;
Structure prediction by ZEFSAII (Michael W. Deem and Ramdas Pophale) SiO2 
 PCOD8208175
Probable space group: P M M A
;
_chemical_formula_sum "Si O2"
_cell_formula_units_Z 64
_cell_length_a 17.735805
_cell_length_b 13.691915
_cell_length_c 15.078375
_cell_angle_alpha 90.000000
_cell_angle_beta 90.000000
_cell_angle_gamma 90.000000
_cell_volume 3661.589378
_symmetry_space_group_name_H-M "P M M A"
_symmetry_group_IT_number 51
_symmetry_cell_setting 'orthorhombic'
loop_
_space_group_symop_operation_xyz
x,y,z
1/2-x,-y,z
1/2+x,-y,-z
-x,y,-z
-x,-y,-z
1/2+x,y,-z
1/2-x,y,z
x,-y,z
loop_
_atom_site_type_symbol
_atom_site_label
_atom_site_fract_x
_atom_site_fract_y
_atom_site_fract_z
Si Si1 0.908661 0.206475 0.770884
Si Si2 0.083968 0.388541 0.974810
Si Si3 0.660703 0.779925 0.107106
Si Si4 0.430147 0.113429 0.553305
Si Si5 0.665475 0.886373 0.608048
Si Si6 0.338227 0.893057 0.064919
Si Si7 0.433757 0.882808 0.752888
Si Si8 0.837643 0.388835 0.839884
O O1 0.889920 0.172614 0.671629
O O2 0.853694 0.157262 0.841744
O O3 0.892707 0.322503 0.778825
O O4 0.993635 0.173687 0.791866
O O5 0.080989 0.500000 0.941375
O O6 0.118224 0.324774 0.893925
O O7 0.139941 0.376045 0.057816
O O8 0.000000 0.352765 0.000000
O O9 0.750000 0.764935 0.110524
O O10 0.637484 0.846368 0.190637
O O11 0.630469 0.831759 0.017610
O O12 0.500000 0.162196 0.500000
O O13 0.355519 0.132295 0.494790
O O14 0.419869 0.154873 0.652229
O O15 0.448158 0.000000 0.564947
O O16 0.750000 0.849421 0.622751
O O17 0.656482 0.000000 0.631817
O O18 0.250000 0.903777 0.053131
O O19 0.376415 0.000000 0.063469
O O20 0.442674 0.000000 0.760493
O O21 0.750000 0.358152 0.829698
O O22 0.850324 0.500000 0.808649
#
# Coordination Sequence:
#
# PCOD8208175 Si02
#       8
#     8   8   8   8   8   8   8   8
#     4  12  20  32  52  78 108 137 177 222 269 320
#     4  10  20  36  57  80 104 136 184 238 282 317
#     4  11  23  37  52  76 109 149 189 222 261 316
#     4   9  17  34  53  72 102 138 175 218 269 320
#     4  10  19  30  50  80 108 135 172 219 270 326
#     4  10  20  32  46  68 106 149 180 211 254 307
#     4  11  23  36  55  78 106 147 185 221 267 322
#     4  10  20  34  53  76 105 141 177 218 271 324
#
# _framework density 17.478748
#
# number of rings (size 3 to 8) (size 9 to 14) (size 15 to 20)
#    0.000    1.625    2.500    3.750    0.000    3.000 
#    0.000    2.500    0.000    0.000    0.000    2.625 
#    0.000    0.000    0.000    0.000    0.000    0.000 
#
# Total GULP energy -793553.478665 kJ/mol
# GULP energy per Si atom -12399.273104 kJ/mol
# Density = 1.743897 g / cm^3
# Si number density = 17.478748 Si / 1000 Ang^3
#
#
#
# Elastic Constant Matrix: (Units=GPa)
#
#
# Indices 1 2 3 4 5 6 
#
# 1 78.3090 38.4562 23.2010 0.0000 0.0000 0.0000
# 2 38.4562 87.0441 34.7198 0.0000 0.0000 0.0000
# 3 23.2010 34.7198 89.3381 0.0000 0.0000 0.0000
# 4 0.0000 0.0000 0.0000 9.6367 0.0000 0.0000
# 5 0.0000 0.0000 0.0000 0.0000 23.8086 0.0000
# 6 0.0000 0.0000 0.0000 0.0000 0.0000 25.5220
#
#
#
# Elastic Compliance Matrix: (Units=1/GPa)
#
#
# Indices 1 2 3 4 5 6 
#
# 1 0.016529 -0.006616 -0.001721 0.000000 0.000000 0.000000
# 2 -0.006616 0.016244 -0.004595 0.000000 0.000000 0.000000
# 3 -0.001721 -0.004595 0.013426 0.000000 0.000000 0.000000
# 4 0.000000 0.000000 0.000000 0.103770 0.000000 0.000000
# 5 0.000000 0.000000 0.000000 0.000000 0.042002 0.000000
# 6 0.000000 0.000000 0.000000 0.000000 0.000000 0.039182
#
#
# Mechanical properties :
#
#
# Convention : Reuss Voigt Hill
#
# Bulk Modulus (GPa) = 49.17647 49.71616 49.44632
# Shear Modulus (GPa) = 18.95409 22.34774 20.65092
#
# Velocity S-wave (km/s) = 3.29661 3.57958 3.44101
# Velocity P-wave (km/s) = 6.53347 6.75204 6.64366
#
# Compressibility (1/GPa) = 0.02033493
#
# Stress axis : x y z
#
# Youngs Moduli (GPa) = 60.50024 61.56079 74.48120
#
# Poissons Ratio (x) = 0.40728 0.12821
# Poissons Ratio (y) = 0.40026 0.34223
# Poissons Ratio (z) = 0.10414 0.28286
#
# Static dielectric constant tensor:
#      x y z
#    x 3.229550 0.000000 0.000000 
#    y 0.000000 3.328560 0.000000 
#    z 0.000000 0.000000 3.175470 
# 
# 
# High freq. dielectric constant tensor:
#      x y z
#    x 1.680100 0.000000 0.000000 
#    y 0.000000 1.655800 0.000000 
#    z 0.000000 0.000000 1.659170 
# 
# From -- ./inp_files/25390.got.cif
#   From: 2010.03.12/outbox.cif.g09.slc.cpg/sg51_13_cif.got.tgz:25390.got - 2010.04.16 13:43:02.
