data_PCOD8208684
_publ_section_title
;
Structure prediction by ZEFSAII (Michael W. Deem and Ramdas Pophale) SiO2 
 PCOD8208684
Probable space group: P M M A
;
_chemical_formula_sum "Si O2"
_cell_formula_units_Z 44
_cell_length_a 34.269761
_cell_length_b 16.396322
_cell_length_c 5.065150
_cell_angle_alpha 90.000000
_cell_angle_beta 90.000000
_cell_angle_gamma 90.000000
_cell_volume 2846.097838
_symmetry_space_group_name_H-M "P M M A"
_symmetry_group_IT_number 51
_symmetry_cell_setting 'orthorhombic'
loop_
_space_group_symop_operation_xyz
x,y,z
1/2-x,-y,z
1/2+x,-y,-z
-x,y,-z
-x,-y,-z
1/2+x,y,-z
1/2-x,y,z
x,-y,z
loop_
_atom_site_type_symbol
_atom_site_label
_atom_site_fract_x
_atom_site_fract_y
_atom_site_fract_z
Si Si1 0.527291 0.500000 0.752852
Si Si2 0.044555 0.743679 0.597233
Si Si3 0.426643 0.341778 0.111954
Si Si4 0.158321 0.596584 0.075693
Si Si5 0.293442 0.403498 0.572377
Si Si6 0.973405 0.911864 0.248147
O O1 0.500000 0.500000 0.500000
O O2 0.554679 0.421311 0.754950
O O3 0.500000 0.500000 0.000000
O O4 0.071657 0.725867 0.343843
O O5 0.055305 0.835390 0.698605
O O6 0.000000 0.735978 0.500000
O O7 0.050966 0.682817 0.843585
O O8 0.382102 0.357007 0.034648
O O9 0.150476 0.500000 0.075971
O O10 0.187377 0.623541 0.845121
O O11 0.178730 0.628381 0.340813
O O12 0.250000 0.365363 0.550771
O O13 0.290016 0.500000 0.552396
O O14 0.000000 0.922859 0.500000
O O15 0.951888 0.000000 0.198575
O O16 0.000000 0.888251 0.000000
#
# Coordination Sequence:
#
# PCOD8208684 Si02
#       6
#     4   8   8   8   8   8
#     4  12  24  34  44  56  77 116 163 200 222 242
#     4  11  21  33  48  63  86 113 154 195 228 265
#     4  12  22  34  45  62  86 120 154 191 230 256
#     4  10  19  32  45  61  87 113 145 182 223 263
#     4   9  17  29  48  67  82 103 138 182 223 267
#     4   9  17  30  48  67  84 104 136 184 237 279
#
# _framework density 15.459763000000001
#
# number of rings (size 3 to 8) (size 9 to 14) (size 15 to 20)
#    0.000    1.636    0.909    7.091    0.000    2.182 
#    0.000    0.000    0.000    0.000    0.000    0.000 
#    0.000    0.000    0.000    0.000    0.000   63.636 
#
# Total GULP energy -545421.800139 kJ/mol
# GULP energy per Si atom -12395.950003 kJ/mol
# Density = 1.542458 g / cm^3
# Si number density = 15.459763 Si / 1000 Ang^3
#
#
#
# Elastic Constant Matrix: (Units=GPa)
#
#
# Indices 1 2 3 4 5 6 
#
# 1 78.9687 32.0670 24.2431 0.0000 0.0000 0.0000
# 2 32.0670 67.5584 22.8967 0.0000 0.0000 0.0000
# 3 24.2431 22.8967 102.6040 0.0000 0.0000 0.0000
# 4 0.0000 0.0000 0.0000 16.1637 0.0000 0.0000
# 5 0.0000 0.0000 0.0000 0.0000 17.6901 0.0000
# 6 0.0000 0.0000 0.0000 0.0000 0.0000 5.7164
#
#
#
# Elastic Compliance Matrix: (Units=1/GPa)
#
#
# Indices 1 2 3 4 5 6 
#
# 1 0.016165 -0.006900 -0.002280 0.000000 0.000000 0.000000
# 2 -0.006900 0.018959 -0.002600 0.000000 0.000000 0.000000
# 3 -0.002280 -0.002600 0.010865 0.000000 0.000000 0.000000
# 4 0.000000 0.000000 0.000000 0.061867 0.000000 0.000000
# 5 0.000000 0.000000 0.000000 0.000000 0.056529 0.000000
# 6 0.000000 0.000000 0.000000 0.000000 0.000000 0.174935
#
#
# Mechanical properties :
#
#
# Convention : Reuss Voigt Hill
#
# Bulk Modulus (GPa) = 44.58648 45.28275 44.93462
# Shear Modulus (GPa) = 13.50053 19.24235 16.37144
#
# Velocity S-wave (km/s) = 2.95832 3.53182 3.25771
# Velocity P-wave (km/s) = 6.36960 6.78130 6.57867
#
# Compressibility (1/GPa) = 0.02242832
#
# Stress axis : x y z
#
# Youngs Moduli (GPa) = 61.86181 52.74671 92.03762
#
# Poissons Ratio (x) = 0.36396 0.20981
# Poissons Ratio (y) = 0.42686 0.23933
# Poissons Ratio (z) = 0.14102 0.13716
#
# Static dielectric constant tensor:
#      x y z
#    x 2.827210 0.000000 0.000000 
#    y 0.000000 3.199440 0.000000 
#    z 0.000000 0.000000 3.164870 
# 
# 
# High freq. dielectric constant tensor:
#      x y z
#    x 1.561600 0.000000 0.000000 
#    y 0.000000 1.558880 0.000000 
#    z 0.000000 0.000000 1.623640 
# 
# From -- ./inp_files/3939.got.cif
#   From: 2010.03.12/outbox.cif.g09.slc.cpg/sg51_2_cif.got.tgz:3939.got - 2010.04.16 13:43:02.
