data_PCOD8208648
_publ_section_title
;
Structure prediction by ZEFSAII (Michael W. Deem and Ramdas Pophale) SiO2 
 PCOD8208648
Probable space group: P M M A
;
_chemical_formula_sum "Si O2"
_cell_formula_units_Z 56
_cell_length_a 15.589566
_cell_length_b 9.340798
_cell_length_c 19.973069
_cell_angle_alpha 90.000000
_cell_angle_beta 90.000000
_cell_angle_gamma 90.000000
_cell_volume 2908.458073
_symmetry_space_group_name_H-M "P M M A"
_symmetry_group_IT_number 51
_symmetry_cell_setting 'orthorhombic'
loop_
_space_group_symop_operation_xyz
x,y,z
1/2-x,-y,z
1/2+x,-y,-z
-x,y,-z
-x,-y,-z
1/2+x,y,-z
1/2-x,y,z
x,-y,z
loop_
_atom_site_type_symbol
_atom_site_label
_atom_site_fract_x
_atom_site_fract_y
_atom_site_fract_z
Si Si1 0.877336 0.840346 0.264460
Si Si2 0.491876 0.670659 0.074943
Si Si3 0.750000 0.670043 0.505534
Si Si4 0.068403 0.834830 0.295664
Si Si5 0.750000 0.158304 0.379509
Si Si6 0.579719 0.168290 0.548914
Si Si7 0.841461 0.663720 0.144594
Si Si8 0.651665 0.667329 0.820494
O O1 0.837014 0.828137 0.337656
O O2 0.828090 0.733616 0.216457
O O3 0.976393 0.799974 0.265272
O O4 0.863776 0.000000 0.236676
O O5 0.489794 0.500000 0.071801
O O6 0.579067 0.734538 0.106550
O O7 0.409892 0.724264 0.118788
O O8 0.500000 0.733356 0.000000
O O9 0.750000 0.500000 0.517949
O O10 0.750000 0.706667 0.427644
O O11 0.835792 0.740191 0.534640
O O12 0.061642 0.793855 0.373754
O O13 0.134582 0.743224 0.251072
O O14 0.094869 0.000000 0.288112
O O15 0.750000 0.000000 0.414863
O O16 0.500000 0.212898 0.500000
O O17 0.598722 0.000000 0.538723
O O18 0.750000 0.680152 0.105489
O O19 0.864211 0.500000 0.156822
O O20 0.750000 0.697619 0.841753
O O21 0.635147 0.500000 0.808890
#
# Coordination Sequence:
#
# PCOD8208648 Si02
#       8
#     8   8   4   8   4   8   8   8
#     4  10  19  33  56  84 110 143 186 231 279 333
#     4   9  18  34  55  80 113 152 190 229 276 333
#     4  12  26  40  58  88 124 155 190 243 306 359
#     4  10  21  36  59  86 110 144 192 241 287 335
#     4  10  20  36  58  82 112 151 194 233 278 347
#     4  10  22  43  66  85 113 157 208 251 292 355
#     4  10  19  31  51  81 114 144 179 225 278 332
#     4  10  21  36  56  83 113 148 188 233 285 340
#
# _framework density 19.254189
#
# number of rings (size 3 to 8) (size 9 to 14) (size 15 to 20)
#    0.000    2.000    2.143    1.500    1.000    4.571 
#    0.000    4.286    0.000    1.714    0.000    2.000 
#    0.000    0.000    0.000    0.000    0.000    0.000 
#
# Total GULP energy -693902.907701 kJ/mol
# GULP energy per Si atom -12391.123352 kJ/mol
# Density = 1.921037 g / cm^3
# Si number density = 19.254189 Si / 1000 Ang^3
#
#
#
# Elastic Constant Matrix: (Units=GPa)
#
#
# Indices 1 2 3 4 5 6 
#
# 1 139.3294 47.5822 60.6423 0.0000 0.0000 0.0000
# 2 47.5822 51.5276 36.5084 0.0000 0.0000 0.0000
# 3 60.6423 36.5084 125.8183 0.0000 0.0000 0.0000
# 4 0.0000 0.0000 0.0000 7.8654 0.0000 0.0000
# 5 0.0000 0.0000 0.0000 0.0000 353.7320 0.0000
# 6 0.0000 0.0000 0.0000 0.0000 0.0000 19.4205
#
#
#
# Elastic Compliance Matrix: (Units=1/GPa)
#
#
# Indices 1 2 3 4 5 6 
#
# 1 0.011346 -0.008312 -0.003057 0.000000 0.000000 0.000000
# 2 -0.008312 0.030518 -0.004849 0.000000 0.000000 0.000000
# 3 -0.003057 -0.004849 0.010828 0.000000 0.000000 0.000000
# 4 0.000000 0.000000 0.000000 0.127139 0.000000 0.000000
# 5 0.000000 0.000000 0.000000 0.000000 0.002827 0.000000
# 6 0.000000 0.000000 0.000000 0.000000 0.000000 0.051492
#
#
# Mechanical properties :
#
#
# Convention : Reuss Voigt Hill
#
# Bulk Modulus (GPa) = 49.36537 67.34901 58.35719
# Shear Modulus (GPa) = 18.29230 87.66640 52.97935
#
# Velocity S-wave (km/s) = 3.08562 6.75499 5.25124
# Velocity P-wave (km/s) = 6.19590 9.79258 8.19402
#
# Compressibility (1/GPa) = 0.02025712
#
# Stress axis : x y z
#
# Youngs Moduli (GPa) = 88.13517 32.76753 92.34903
#
# Poissons Ratio (x) = 0.27235 0.28231
# Poissons Ratio (y) = 0.73254 0.44783
# Poissons Ratio (z) = 0.26942 0.15890
#
# Static dielectric constant tensor:
#      x y z
#    x 4.805240 0.000000 0.000000 
#    y 0.000000 3.272730 0.000000 
#    z 0.000000 0.000000 3.559700 
# 
# 
# High freq. dielectric constant tensor:
#      x y z
#    x 1.770270 0.000000 0.000000 
#    y 0.000000 1.719010 0.000000 
#    z 0.000000 0.000000 1.743370 
# 
# From -- ./inp_files/33612.got.cif
#   From: 2010.03.12/outbox.cif.g09.slc.cpg/sg51_17_cif.got.tgz:33612.got - 2010.04.16 13:43:02.
