data_PCOD8208666
_publ_section_title
;
Structure prediction by ZEFSAII (Michael W. Deem and Ramdas Pophale) SiO2 
 PCOD8208666
Probable space group: P M M A
;
_chemical_formula_sum "Si O2"
_cell_formula_units_Z 56
_cell_length_a 9.199168
_cell_length_b 14.961034
_cell_length_c 20.104973
_cell_angle_alpha 90.000000
_cell_angle_beta 90.000000
_cell_angle_gamma 90.000000
_cell_volume 2767.028640
_symmetry_space_group_name_H-M "P M M A"
_symmetry_group_IT_number 51
_symmetry_cell_setting 'orthorhombic'
loop_
_space_group_symop_operation_xyz
x,y,z
1/2-x,-y,z
1/2+x,-y,-z
-x,y,-z
-x,-y,-z
1/2+x,y,-z
1/2-x,y,z
x,-y,z
loop_
_atom_site_type_symbol
_atom_site_label
_atom_site_fract_x
_atom_site_fract_y
_atom_site_fract_z
Si Si1 0.581698 0.000000 0.069325
Si Si2 0.415523 0.793999 0.436894
Si Si3 0.920503 0.328759 0.846381
Si Si4 0.579885 0.104330 0.696145
Si Si5 0.078357 0.843473 0.832180
Si Si6 0.420455 0.500000 0.069059
Si Si7 0.411949 0.402272 0.398362
Si Si8 0.088381 0.600376 0.730362
O O1 0.536625 0.082919 0.114298
O O2 0.750000 0.000000 0.051625
O O3 0.500000 0.000000 0.000000
O O4 0.500000 0.835277 0.500000
O O5 0.250000 0.823829 0.445073
O O6 0.473111 0.836111 0.367217
O O7 0.432851 0.685935 0.442760
O O8 0.750000 0.310052 0.849405
O O9 0.968327 0.411964 0.891313
O O10 0.011282 0.242973 0.868697
O O11 0.968587 0.344842 0.770579
O O12 0.750000 0.120432 0.710151
O O13 0.492331 0.136472 0.760683
O O14 0.547398 0.000000 0.681618
O O15 0.250000 0.834101 0.821570
O O16 0.250000 0.500000 0.056581
O O17 0.500000 0.500000 0.000000
O O18 0.250000 0.397646 0.365791
O O19 0.426146 0.500000 0.435786
O O20 0.539513 0.398215 0.345211
O O21 0.250000 0.643154 0.736514
O O22 0.092328 0.500000 0.758105
#
# Coordination Sequence:
#
# PCOD8208666 Si02
#       8
#     4   8   8   8   8   4   8   8
#     4  10  24  44  66  94 131 164 199 246 305 370
#     4  10  22  38  55  81 116 154 202 254 307 368
#     4  11  22  38  59  86 118 159 204 245 295 358
#     4  10  21  39  64  91 120 158 203 251 308 379
#     4  11  23  41  65  97 128 159 203 258 311 362
#     4  10  24  42  60  82 118 164 209 250 295 352
#     4   9  18  33  53  77 111 155 197 243 298 360
#     4  10  19  31  52  84 116 148 191 245 300 349
#
# _framework density 20.238315
#
# number of rings (size 3 to 8) (size 9 to 14) (size 15 to 20)
#    0.000    1.857    1.429    2.143    0.000    6.286 
#    0.000    2.857    0.000    0.000    0.000    0.000 
#    0.000    0.000    0.000    0.000    0.000    0.000 
#
# Total GULP energy -694059.861057 kJ/mol
# GULP energy per Si atom -12393.926090 kJ/mol
# Density = 2.019225 g / cm^3
# Si number density = 20.238315 Si / 1000 Ang^3
#
#
#
# Elastic Constant Matrix: (Units=GPa)
#
#
# Indices 1 2 3 4 5 6 
#
# 1 85.1244 52.4059 64.8169 0.0000 0.0000 0.0000
# 2 52.4059 135.5881 56.7582 0.0000 0.0000 0.0000
# 3 64.8169 56.7582 133.4421 0.0000 0.0000 0.0000
# 4 0.0000 0.0000 0.0000 13.9199 0.0000 0.0000
# 5 0.0000 0.0000 0.0000 0.0000 38.4732 0.0000
# 6 0.0000 0.0000 0.0000 0.0000 0.0000 26.1817
#
#
#
# Elastic Compliance Matrix: (Units=1/GPa)
#
#
# Indices 1 2 3 4 5 6 
#
# 1 0.020788 -0.004633 -0.008127 0.000000 0.000000 0.000000
# 2 -0.004633 0.010005 -0.002005 0.000000 0.000000 0.000000
# 3 -0.008127 -0.002005 0.012294 0.000000 0.000000 0.000000
# 4 0.000000 0.000000 0.000000 0.071839 0.000000 0.000000
# 5 0.000000 0.000000 0.000000 0.000000 0.025992 0.000000
# 6 0.000000 0.000000 0.000000 0.000000 0.000000 0.038195
#
#
# Mechanical properties :
#
#
# Convention : Reuss Voigt Hill
#
# Bulk Modulus (GPa) = 73.75964 78.01297 75.88630
# Shear Modulus (GPa) = 23.45633 27.72653 25.59143
#
# Velocity S-wave (km/s) = 3.40811 3.70537 3.55984
# Velocity P-wave (km/s) = 7.21191 7.54567 7.38068
#
# Compressibility (1/GPa) = 0.01355755
#
# Stress axis : x y z
#
# Youngs Moduli (GPa) = 48.10575 99.94674 81.33874
#
# Poissons Ratio (x) = 0.46302 0.66101
# Poissons Ratio (y) = 0.22286 0.16312
# Poissons Ratio (z) = 0.39094 0.20044
#
# Static dielectric constant tensor:
#      x y z
#    x 3.675960 0.000000 0.000000 
#    y 0.000000 4.104860 0.000000 
#    z 0.000000 0.000000 3.351160 
# 
# 
# High freq. dielectric constant tensor:
#      x y z
#    x 1.792220 0.000000 0.000000 
#    y 0.000000 1.804060 0.000000 
#    z 0.000000 0.000000 1.771370 
# 
# From -- ./inp_files/32081.got.cif
#   From: 2010.03.12/outbox.cif.g09.slc.cpg/sg51_17_cif.got.tgz:32081.got - 2010.04.16 13:43:02.
