data_PCOD8208118
_publ_section_title
;
Structure prediction by ZEFSAII (Michael W. Deem and Ramdas Pophale) SiO2 
 PCOD8208118
Probable space group: P M M A
;
_chemical_formula_sum "Si O2"
_cell_formula_units_Z 64
_cell_length_a 13.988230
_cell_length_b 9.635845
_cell_length_c 28.633638
_cell_angle_alpha 90.000000
_cell_angle_beta 90.000000
_cell_angle_gamma 90.000000
_cell_volume 3859.482713
_symmetry_space_group_name_H-M "P M M A"
_symmetry_group_IT_number 51
_symmetry_cell_setting 'orthorhombic'
loop_
_space_group_symop_operation_xyz
x,y,z
1/2-x,-y,z
1/2+x,-y,-z
-x,y,-z
-x,-y,-z
1/2+x,y,-z
1/2-x,y,z
x,-y,z
loop_
_atom_site_type_symbol
_atom_site_label
_atom_site_fract_x
_atom_site_fract_y
_atom_site_fract_z
Si Si1 0.361460 0.840610 0.431503
Si Si2 0.855282 0.836305 0.744140
Si Si3 0.519201 0.163298 0.659395
Si Si4 0.540816 0.664344 0.927289
Si Si5 0.138768 0.839003 0.150441
Si Si6 0.639535 0.662007 0.380879
Si Si7 0.363316 0.345937 0.514781
Si Si8 0.355692 0.664252 0.979468
O O1 0.250000 0.808016 0.424308
O O2 0.412852 0.798540 0.383826
O O3 0.405886 0.753410 0.474676
O O4 0.378700 0.000000 0.444238
O O5 0.750000 0.771550 0.734828
O O6 0.930432 0.779555 0.706359
O O7 0.889112 0.800163 0.796454
O O8 0.846611 0.000000 0.738149
O O9 0.420168 0.245737 0.655253
O O10 0.497441 0.000000 0.661877
O O11 0.548770 0.500000 0.918630
O O12 0.571644 0.744433 0.881197
O O13 0.431683 0.708927 0.939781
O O14 0.609032 0.713444 0.969617
O O15 0.250000 0.805804 0.141190
O O16 0.117668 0.000000 0.140077
O O17 0.750000 0.695601 0.371832
O O18 0.618701 0.500000 0.372870
O O19 0.608507 0.705969 0.433445
O O20 0.250000 0.347919 0.511839
O O21 0.403831 0.500000 0.505774
O O22 0.250000 0.727089 0.969023
O O23 0.351110 0.500000 0.980418
#
# Coordination Sequence:
#
# PCOD8208118 Si02
#       8
#     8   8   8   8   8   8   8   8
#     4   9  17  28  43  66  94 117 137 170 216 259
#     4   8  15  30  50  69  91 119 146 172 213 273
#     4  10  19  30  48  71  89 110 144 182 217 257
#     4   9  16  26  44  68  90 118 157 195 226 258
#     4   9  17  29  46  67  91 120 150 181 221 266
#     4   9  19  35  50  63  84 115 147 179 217 259
#     4   8  15  29  46  61  81 114 150 175 202 252
#     4   8  14  25  41  63  93 126 156 186 224 270
#
# _framework density 16.582532
#
# number of rings (size 3 to 8) (size 9 to 14) (size 15 to 20)
#    0.000    3.250    0.000    3.000    0.000    4.000 
#    0.000    5.625    0.000    3.750    0.000    3.500 
#    0.000    0.000    0.000    0.000    0.000    0.000 
#
# Total GULP energy -793290.024263 kJ/mol
# GULP energy per Si atom -12395.156629 kJ/mol
# Density = 1.654479 g / cm^3
# Si number density = 16.582532 Si / 1000 Ang^3
#
#
#
# Elastic Constant Matrix: (Units=GPa)
#
#
# Indices 1 2 3 4 5 6 
#
# 1 105.4943 40.1089 70.0110 0.0000 0.0000 0.0000
# 2 40.1089 46.6463 49.9064 0.0000 0.0000 0.0000
# 3 70.0110 49.9064 123.8227 0.0000 0.0000 0.0000
# 4 0.0000 0.0000 0.0000 49.8712 0.0000 0.0000
# 5 0.0000 0.0000 0.0000 0.0000 27.0658 0.0000
# 6 0.0000 0.0000 0.0000 0.0000 0.0000 19.1515
#
#
#
# Elastic Compliance Matrix: (Units=1/GPa)
#
#
# Indices 1 2 3 4 5 6 
#
# 1 0.016507 -0.007398 -0.006352 0.000000 0.000000 0.000000
# 2 -0.007398 0.041007 -0.012345 0.000000 0.000000 0.000000
# 3 -0.006352 -0.012345 0.016643 0.000000 0.000000 0.000000
# 4 0.000000 0.000000 0.000000 0.020052 0.000000 0.000000
# 5 0.000000 0.000000 0.000000 0.000000 0.036947 0.000000
# 6 0.000000 0.000000 0.000000 0.000000 0.000000 0.052215
#
#
# Mechanical properties :
#
#
# Convention : Reuss Voigt Hill
#
# Bulk Modulus (GPa) = 45.52103 66.22398 55.87250
# Shear Modulus (GPa) = 20.58614 26.94684 23.76649
#
# Velocity S-wave (km/s) = 3.52722 4.03552 3.78990
# Velocity P-wave (km/s) = 6.64072 7.85726 7.27447
#
# Compressibility (1/GPa) = 0.02196787
#
# Stress axis : x y z
#
# Youngs Moduli (GPa) = 60.57970 24.38628 60.08629
#
# Poissons Ratio (x) = 0.18042 0.38164
# Poissons Ratio (y) = 0.44819 0.74174
# Poissons Ratio (z) = 0.38477 0.30104
#
# Static dielectric constant tensor:
#      x y z
#    x 3.271810 0.000000 0.000000 
#    y 0.000000 2.878480 0.000000 
#    z 0.000000 0.000000 3.121130 
# 
# 
# High freq. dielectric constant tensor:
#      x y z
#    x 1.637780 0.000000 0.000000 
#    y 0.000000 1.610820 0.000000 
#    z 0.000000 0.000000 1.625750 
# 
# From -- ./inp_files/37824.got.cif
#   From: 2010.03.12/outbox.cif.g09.slc.cpg/sg51_19_cif.got.tgz:37824.got - 2010.04.16 13:43:02.
