data_PCOD8208484
_publ_section_title
;
Structure prediction by ZEFSAII (Michael W. Deem and Ramdas Pophale) SiO2 
 PCOD8208484
Probable space group: P M M A
;
_chemical_formula_sum "Si O2"
_cell_formula_units_Z 52
_cell_length_a 8.948989
_cell_length_b 10.350562
_cell_length_c 29.706467
_cell_angle_alpha 90.000000
_cell_angle_beta 90.000000
_cell_angle_gamma 90.000000
_cell_volume 2751.622864
_symmetry_space_group_name_H-M "P M M A"
_symmetry_group_IT_number 51
_symmetry_cell_setting 'orthorhombic'
loop_
_space_group_symop_operation_xyz
x,y,z
1/2-x,-y,z
1/2+x,-y,-z
-x,y,-z
-x,-y,-z
1/2+x,y,-z
1/2-x,y,z
x,-y,z
loop_
_atom_site_type_symbol
_atom_site_label
_atom_site_fract_x
_atom_site_fract_y
_atom_site_fract_z
Si Si1 0.574427 0.853190 0.951902
Si Si2 0.925640 0.731485 0.613511
Si Si3 0.575033 0.500000 0.548364
Si Si4 0.587173 0.853656 0.458621
Si Si5 0.917556 0.347272 0.793124
Si Si6 0.073401 0.650123 0.885027
Si Si7 0.422834 0.652353 0.703781
O O1 0.750000 0.826642 0.956020
O O2 0.503560 0.745579 0.920026
O O3 0.544370 0.000000 0.934232
O O4 0.500000 0.834402 0.000000
O O5 0.750000 0.739116 0.621334
O O6 0.975568 0.620100 0.578875
O O7 0.991856 0.855442 0.587822
O O8 0.001689 0.720412 0.661647
O O9 0.750000 0.500000 0.540656
O O10 0.500000 0.500000 0.500000
O O11 0.500000 0.782978 0.500000
O O12 0.750000 0.786362 0.452530
O O13 0.613829 0.000000 0.472965
O O14 0.750000 0.289435 0.796993
O O15 0.909657 0.500000 0.789506
O O16 0.014215 0.307103 0.836243
O O17 0.998050 0.292638 0.748620
O O18 0.250000 0.669952 0.886425
O O19 0.031749 0.500000 0.895583
O O20 0.250000 0.689932 0.706164
O O21 0.446554 0.500000 0.699187
#
# Coordination Sequence:
#
# PCOD8208484 Si02
#       7
#     8   8   4   8   8   8   8
#     4  10  21  37  57  81 111 150 194 236 281 336
#     4  11  21  34  51  73 101 132 166 203 247 300
#     4  10  22  34  46  68 100 132 160 196 241 294
#     4  10  21  37  55  74  95 122 161 205 248 297
#     4   9  17  30  50  75 105 140 176 219 266 312
#     4  10  20  34  54  82 114 147 187 234 282 332
#     4  10  19  31  49  74 104 138 173 210 254 309
#
# _framework density 18.897939999999998
#
# number of rings (size 3 to 8) (size 9 to 14) (size 15 to 20)
#    0.000    2.000    0.769    3.231    0.000    8.000 
#    0.000    0.000    0.000    0.923    0.000    0.000 
#    0.000    0.000    0.000    0.000    0.000    0.000 
#
# Total GULP energy -644631.770357 kJ/mol
# GULP energy per Si atom -12396.764815 kJ/mol
# Density = 1.885493 g / cm^3
# Si number density = 18.897940 Si / 1000 Ang^3
#
#
#
# Elastic Constant Matrix: (Units=GPa)
#
#
# Indices 1 2 3 4 5 6 
#
# 1 131.7093 42.3836 80.1920 0.0000 0.0000 0.0000
# 2 42.3836 51.2675 53.0091 0.0000 0.0000 0.0000
# 3 80.1920 53.0091 163.1237 0.0000 0.0000 0.0000
# 4 0.0000 0.0000 0.0000 16.6059 0.0000 0.0000
# 5 0.0000 0.0000 0.0000 0.0000 44.7979 0.0000
# 6 0.0000 0.0000 0.0000 0.0000 0.0000 21.9589
#
#
#
# Elastic Compliance Matrix: (Units=1/GPa)
#
#
# Indices 1 2 3 4 5 6 
#
# 1 0.011840 -0.005678 -0.003976 0.000000 0.000000 0.000000
# 2 -0.005678 0.032099 -0.007640 0.000000 0.000000 0.000000
# 3 -0.003976 -0.007640 0.010567 0.000000 0.000000 0.000000
# 4 0.000000 0.000000 0.000000 0.060220 0.000000 0.000000
# 5 0.000000 0.000000 0.000000 0.000000 0.022322 0.000000
# 6 0.000000 0.000000 0.000000 0.000000 0.000000 0.045540
#
#
# Mechanical properties :
#
#
# Convention : Reuss Voigt Hill
#
# Bulk Modulus (GPa) = 50.20068 77.47441 63.83755
# Shear Modulus (GPa) = 22.34004 28.04028 25.19016
#
# Velocity S-wave (km/s) = 3.44196 3.85616 3.65493
# Velocity P-wave (km/s) = 6.51290 7.80460 7.18783
#
# Compressibility (1/GPa) = 0.01992005
#
# Stress axis : x y z
#
# Youngs Moduli (GPa) = 84.45869 31.15408 94.63158
#
# Poissons Ratio (x) = 0.17689 0.37621
# Poissons Ratio (y) = 0.47954 0.72295
# Poissons Ratio (z) = 0.33577 0.23800
#
# Static dielectric constant tensor:
#      x y z
#    x 3.760930 0.000000 0.000000 
#    y 0.000000 3.263650 0.000000 
#    z 0.000000 0.000000 3.207430 
# 
# 
# High freq. dielectric constant tensor:
#      x y z
#    x 1.756310 0.000000 0.000000 
#    y 0.000000 1.697840 0.000000 
#    z 0.000000 0.000000 1.739740 
# 
# From -- ./inp_files/37367.got.cif
#   From: 2010.03.12/outbox.cif.g09.slc.cpg/sg51_19_cif.got.tgz:37367.got - 2010.04.16 13:43:02.
