data_PCOD8208111
_publ_section_title
;
Structure prediction by ZEFSAII (Michael W. Deem and Ramdas Pophale) SiO2 
 PCOD8208111
Probable space group: P M M A
;
_chemical_formula_sum "Si O2"
_cell_formula_units_Z 48
_cell_length_a 8.909609
_cell_length_b 15.332501
_cell_length_c 20.008488
_cell_angle_alpha 90.000000
_cell_angle_beta 90.000000
_cell_angle_gamma 90.000000
_cell_volume 2733.291295
_symmetry_space_group_name_H-M "P M M A"
_symmetry_group_IT_number 51
_symmetry_cell_setting 'orthorhombic'
loop_
_space_group_symop_operation_xyz
x,y,z
1/2-x,-y,z
1/2+x,-y,-z
-x,y,-z
-x,-y,-z
1/2+x,y,-z
1/2-x,y,z
x,-y,z
loop_
_atom_site_type_symbol
_atom_site_label
_atom_site_fract_x
_atom_site_fract_y
_atom_site_fract_z
Si Si1 0.581908 0.595472 0.824821
Si Si2 0.422657 0.102785 0.568027
Si Si3 0.073381 0.768112 0.818178
Si Si4 0.573789 0.098882 0.068166
Si Si5 0.429946 0.778562 0.324641
Si Si6 0.082116 0.408149 0.333898
O O1 0.750000 0.613196 0.852154
O O2 0.525225 0.500000 0.850618
O O3 0.472054 0.673159 0.847898
O O4 0.586527 0.594359 0.745447
O O5 0.500000 0.135215 0.500000
O O6 0.250000 0.131909 0.566747
O O7 0.506491 0.144655 0.630469
O O8 0.439922 0.000000 0.576469
O O9 0.250000 0.769924 0.804692
O O10 0.021177 0.840422 0.871129
O O11 0.988496 0.791770 0.750129
O O12 0.750000 0.104795 0.058244
O O13 0.522096 0.000000 0.084066
O O14 0.500000 0.133074 0.000000
O O15 0.250000 0.780431 0.323552
O O16 0.489841 0.684878 0.355481
O O17 0.250000 0.412280 0.362701
O O18 0.999930 0.500000 0.356799
#
# Coordination Sequence:
#
# PCOD8208111 Si02
#       6
#     8   8   8   8   8   8
#     4   8  14  26  44  66  94 128 163 198 238 285
#     4  10  21  37  55  73  96 128 164 203 248 297
#     4  10  19  30  47  74 104 130 159 200 248 292
#     4   9  19  35  52  69  92 125 163 201 244 295
#     4  10  19  31  50  76 103 131 164 201 240 285
#     4   7  11  22  41  65  93 124 156 190 229 272
#
# _framework density 17.561245
#
# number of rings (size 3 to 8) (size 9 to 14) (size 15 to 20)
#    0.000    3.000    0.000    3.500    0.000    3.333 
#    0.000    1.667    0.000    2.500    0.000    0.000 
#    0.000    0.000    0.000    0.000    0.000    0.000 
#
# Total GULP energy -594633.686931 kJ/mol
# GULP energy per Si atom -12388.201811 kJ/mol
# Density = 1.752127 g / cm^3
# Si number density = 17.561245 Si / 1000 Ang^3
#
#
#
# Elastic Constant Matrix: (Units=GPa)
#
#
# Indices 1 2 3 4 5 6 
#
# 1 71.6746 45.2888 41.8036 0.0000 0.0000 0.0000
# 2 45.2888 98.1106 59.3451 0.0000 0.0000 0.0000
# 3 41.8036 59.3451 82.8042 0.0000 0.0000 0.0000
# 4 0.0000 0.0000 0.0000 3.0986 0.0000 0.0000
# 5 0.0000 0.0000 0.0000 0.0000 24.8658 0.0000
# 6 0.0000 0.0000 0.0000 0.0000 0.0000 27.8769
#
#
#
# Elastic Compliance Matrix: (Units=1/GPa)
#
#
# Indices 1 2 3 4 5 6 
#
# 1 0.021578 -0.005951 -0.006629 0.000000 0.000000 0.000000
# 2 -0.005951 0.019634 -0.011067 0.000000 0.000000 0.000000
# 3 -0.006629 -0.011067 0.023355 0.000000 0.000000 0.000000
# 4 0.000000 0.000000 0.000000 0.322724 0.000000 0.000000
# 5 0.000000 0.000000 0.000000 0.000000 0.040216 0.000000
# 6 0.000000 0.000000 0.000000 0.000000 0.000000 0.035872
#
#
# Mechanical properties :
#
#
# Convention : Reuss Voigt Hill
#
# Bulk Modulus (GPa) = 57.89264 60.60716 59.24990
# Shear Modulus (GPa) = 9.68184 18.24507 13.96346
#
# Velocity S-wave (km/s) = 2.35056 3.22676 2.82286
# Velocity P-wave (km/s) = 6.35646 6.96200 6.66611
#
# Compressibility (1/GPa) = 0.01727335
#
# Stress axis : x y z
#
# Youngs Moduli (GPa) = 46.34258 50.93216 42.81789
#
# Poissons Ratio (x) = 0.30311 0.28382
# Poissons Ratio (y) = 0.27580 0.47386
# Poissons Ratio (z) = 0.30719 0.56367
#
# Static dielectric constant tensor:
#      x y z
#    x 3.179690 0.000000 0.000000 
#    y 0.000000 3.983050 0.000000 
#    z 0.000000 0.000000 2.901030 
# 
# 
# High freq. dielectric constant tensor:
#      x y z
#    x 1.666130 0.000000 0.000000 
#    y 0.000000 1.699140 0.000000 
#    z 0.000000 0.000000 1.635610 
# 
# From -- ./inp_files/31604.got.cif
#   From: 2010.03.12/outbox.cif.g09.slc.cpg/sg51_16_cif.got.tgz:31604.got - 2010.04.16 13:43:02.
