data_PCOD8208563
_publ_section_title
;
Structure prediction by ZEFSAII (Michael W. Deem and Ramdas Pophale) SiO2 
 PCOD8208563
Probable space group: P M M A
;
_chemical_formula_sum "Si O2"
_cell_formula_units_Z 64
_cell_length_a 17.610432
_cell_length_b 8.996715
_cell_length_c 22.887034
_cell_angle_alpha 90.000000
_cell_angle_beta 90.000000
_cell_angle_gamma 90.000000
_cell_volume 3626.130982
_symmetry_space_group_name_H-M "P M M A"
_symmetry_group_IT_number 51
_symmetry_cell_setting 'orthorhombic'
loop_
_space_group_symop_operation_xyz
x,y,z
1/2-x,-y,z
1/2+x,-y,-z
-x,y,-z
-x,-y,-z
1/2+x,y,-z
1/2-x,y,z
x,-y,z
loop_
_atom_site_type_symbol
_atom_site_label
_atom_site_fract_x
_atom_site_fract_y
_atom_site_fract_z
Si Si1 0.531625 0.674200 0.369859
Si Si2 0.090436 0.672945 0.073403
Si Si3 0.049490 0.175512 0.871945
Si Si4 0.431433 0.836987 0.455449
Si Si5 0.667729 0.673598 0.807818
Si Si6 0.163677 0.823764 0.560319
Si Si7 0.338279 0.672151 0.950930
Si Si8 0.511236 0.324066 0.760249
O O1 0.539870 0.500000 0.378579
O O2 0.455619 0.725485 0.404130
O O3 0.609043 0.749045 0.392033
O O4 0.520142 0.719937 0.302885
O O5 0.067143 0.500000 0.073704
O O6 0.151103 0.706613 0.124230
O O7 0.015277 0.768321 0.083996
O O8 0.125753 0.722246 0.012306
O O9 0.129283 0.228328 0.898519
O O10 0.041749 0.245454 0.807666
O O11 0.046792 0.000000 0.866233
O O12 0.500000 0.852487 0.500000
O O13 0.360152 0.777225 0.493897
O O14 0.413314 0.000000 0.428552
O O15 0.750000 0.747015 0.791815
O O16 0.674368 0.500000 0.796724
O O17 0.598397 0.734718 0.767898
O O18 0.250000 0.771215 0.571358
O O19 0.154882 0.000000 0.567139
O O20 0.250000 0.704447 0.954623
O O21 0.355756 0.500000 0.938217
O O22 0.508249 0.500000 0.771380
#
# Coordination Sequence:
#
# PCOD8208563 Si02
#       8
#     8   8   8   8   8   8   8   8
#     4  10  19  31  50  76 102 129 165 207 249 290
#     4   9  17  31  52  75  97 123 158 199 245 302
#     4  11  22  34  50  72  98 130 166 204 248 295
#     4   8  15  29  49  71  96 128 160 190 231 285
#     4   8  13  25  48  73  93 117 155 201 242 284
#     4   9  18  33  52  74 101 134 170 204 240 286
#     4  10  20  34  53  75  98 127 163 202 247 300
#     4   9  19  35  52  70  96 132 171 207 244 291
#
# _framework density 17.649664999999999
#
# number of rings (size 3 to 8) (size 9 to 14) (size 15 to 20)
#    0.000    2.750    0.000    3.750    0.000    7.250 
#    0.000    1.250    0.000   10.500    0.000    0.000 
#    0.000    0.000    0.000    0.000    0.000    0.000 
#
# Total GULP energy -793315.806384 kJ/mol
# GULP energy per Si atom -12395.559475 kJ/mol
# Density = 1.760949 g / cm^3
# Si number density = 17.649665 Si / 1000 Ang^3
#
#
#
# Elastic Constant Matrix: (Units=GPa)
#
#
# Indices 1 2 3 4 5 6 
#
# 1 86.8353 38.2731 75.6823 0.0000 0.0000 0.0000
# 2 38.2731 60.6377 55.2547 0.0000 0.0000 0.0000
# 3 75.6823 55.2547 129.8933 0.0000 0.0000 0.0000
# 4 0.0000 0.0000 0.0000 14.8035 0.0000 0.0000
# 5 0.0000 0.0000 0.0000 0.0000 20.8849 0.0000
# 6 0.0000 0.0000 0.0000 0.0000 0.0000 13.7937
#
#
#
# Elastic Compliance Matrix: (Units=1/GPa)
#
#
# Indices 1 2 3 4 5 6 
#
# 1 0.023956 -0.003922 -0.012290 0.000000 0.000000 0.000000
# 2 -0.003922 0.027572 -0.009444 0.000000 0.000000 0.000000
# 3 -0.012290 -0.009444 0.018876 0.000000 0.000000 0.000000
# 4 0.000000 0.000000 0.000000 0.067552 0.000000 0.000000
# 5 0.000000 0.000000 0.000000 0.000000 0.047882 0.000000
# 6 0.000000 0.000000 0.000000 0.000000 0.000000 0.072497
#
#
# Mechanical properties :
#
#
# Convention : Reuss Voigt Hill
#
# Bulk Modulus (GPa) = 52.37222 68.42071 60.39647
# Shear Modulus (GPa) = 15.82235 17.10683 16.46459
#
# Velocity S-wave (km/s) = 2.99736 3.11665 3.05758
# Velocity P-wave (km/s) = 6.45883 7.19732 6.83805
#
# Compressibility (1/GPa) = 0.01909409
#
# Stress axis : x y z
#
# Youngs Moduli (GPa) = 41.74382 36.26852 52.97630
#
# Poissons Ratio (x) = 0.14223 0.65105
# Poissons Ratio (y) = 0.16371 0.50030
# Poissons Ratio (z) = 0.51301 0.34251
#
# Static dielectric constant tensor:
#      x y z
#    x 4.158800 0.000000 0.000000 
#    y 0.000000 3.083470 0.000000 
#    z 0.000000 0.000000 3.281420 
# 
# 
# High freq. dielectric constant tensor:
#      x y z
#    x 1.680020 0.000000 0.000000 
#    y 0.000000 1.661360 0.000000 
#    z 0.000000 0.000000 1.672670 
# 
# From -- ./inp_files/35923.got.cif
#   From: 2010.03.12/outbox.cif.g09.slc.cpg/sg51_18_cif.got.tgz:35923.got - 2010.04.16 13:43:02.
