data_PCOD8208575
_publ_section_title
;
Structure prediction by ZEFSAII (Michael W. Deem and Ramdas Pophale) SiO2 
 PCOD8208575
Probable space group: P M M A
;
_chemical_formula_sum "Si O2"
_cell_formula_units_Z 64
_cell_length_a 18.357715
_cell_length_b 9.095951
_cell_length_c 20.579127
_cell_angle_alpha 90.000000
_cell_angle_beta 90.000000
_cell_angle_gamma 90.000000
_cell_volume 3436.320656
_symmetry_space_group_name_H-M "P M M A"
_symmetry_group_IT_number 51
_symmetry_cell_setting 'orthorhombic'
loop_
_space_group_symop_operation_xyz
x,y,z
1/2-x,-y,z
1/2+x,-y,-z
-x,y,-z
-x,-y,-z
1/2+x,y,-z
1/2-x,y,z
x,-y,z
loop_
_atom_site_type_symbol
_atom_site_label
_atom_site_fract_x
_atom_site_fract_y
_atom_site_fract_z
Si Si1 0.832304 0.324886 0.000115
Si Si2 0.665626 0.671064 0.749164
Si Si3 0.582243 0.674537 0.875598
Si Si4 0.665761 0.827802 0.243643
Si Si5 0.166455 0.827189 0.381965
Si Si6 0.416030 0.325565 0.872247
Si Si7 0.585356 0.330562 0.503706
Si Si8 0.165834 0.330885 0.625765
O O1 0.750000 0.263698 0.000110
O O2 0.832427 0.500000 0.998293
O O3 0.874487 0.260800 0.937532
O O4 0.872688 0.268987 0.064721
O O5 0.750000 0.700292 0.764971
O O6 0.650198 0.500000 0.736941
O O7 0.619270 0.732948 0.809635
O O8 0.639615 0.757223 0.685496
O O9 0.587236 0.500000 0.877429
O O10 0.499116 0.727364 0.879218
O O11 0.750000 0.789039 0.230511
O O12 0.617415 0.747957 0.190729
O O13 0.641584 0.768535 0.313850
O O14 0.650956 0.000000 0.241077
O O15 0.250000 0.782377 0.395674
O O16 0.116879 0.767940 0.439318
O O17 0.156628 0.000000 0.376715
O O18 0.410426 0.500000 0.864448
O O19 0.500000 0.304748 0.500000
O O20 0.605338 0.500000 0.517575
O O21 0.619583 0.278234 0.435849
O O22 0.250000 0.306539 0.608294
O O23 0.149515 0.500000 0.643484
#
# Coordination Sequence:
#
# PCOD8208575 Si02
#       8
#     8   8   8   8   8   8   8   8
#     4   9  16  27  47  75 103 131 168 213 255 296
#     4   9  17  31  52  74  97 131 174 215 253 297
#     4   9  17  29  47  74 105 133 165 209 257 301
#     4  10  21  36  53  73  99 132 169 208 248 294
#     4  10  21  36  54  76 103 136 173 213 256 304
#     4  10  19  31  50  76 105 134 164 204 255 306
#     4  10  21  36  55  80 108 136 168 209 257 308
#     4   9  18  34  56  78 100 130 169 210 249 293
#
# _framework density 18.624572000000001
#
# number of rings (size 3 to 8) (size 9 to 14) (size 15 to 20)
#    0.000    2.500    0.000    2.250    0.000    7.250 
#    0.000    6.875    0.000    2.250    0.000    1.750 
#    0.000    0.000    0.000    0.000    0.000    0.000 
#
# Total GULP energy -793778.732758 kJ/mol
# GULP energy per Si atom -12402.792699 kJ/mol
# Density = 1.858218 g / cm^3
# Si number density = 18.624572 Si / 1000 Ang^3
#
#
#
# Elastic Constant Matrix: (Units=GPa)
#
#
# Indices 1 2 3 4 5 6 
#
# 1 124.3244 36.7390 96.4153 0.0000 0.0000 0.0000
# 2 36.7390 42.1634 45.8503 0.0000 0.0000 0.0000
# 3 96.4153 45.8503 172.5578 0.0000 0.0000 0.0000
# 4 0.0000 0.0000 0.0000 -3.6773 0.0000 0.0000
# 5 0.0000 0.0000 0.0000 0.0000 13.8696 0.0000
# 6 0.0000 0.0000 0.0000 0.0000 0.0000 13.5774
#
#
#
# Elastic Compliance Matrix: (Units=1/GPa)
#
#
# Indices 1 2 3 4 5 6 
#
# 1 0.015077 -0.005592 -0.006938 0.000000 0.000000 0.000000
# 2 -0.005592 0.035429 -0.006289 0.000000 0.000000 0.000000
# 3 -0.006938 -0.006289 0.011343 0.000000 0.000000 0.000000
# 4 0.000000 0.000000 0.000000 -0.271935 0.000000 0.000000
# 5 0.000000 0.000000 0.000000 0.000000 0.072100 0.000000
# 6 0.000000 0.000000 0.000000 0.000000 0.000000 0.073652
#
#
# Mechanical properties :
#
#
# Convention : Reuss Voigt Hill
#
# Bulk Modulus (GPa) = 41.30590 77.45051 59.37821
# Shear Modulus (GPa) = -268.44770 15.42333 -126.51219
#
# Velocity S-wave (km/s) = -12.01870 2.88082 -8.25076
# Velocity P-wave (km/s) = 13.05269 7.26230 7.66915
#
# Compressibility (1/GPa) = 0.02420962
#
# Stress axis : x y z
#
# Youngs Moduli (GPa) = 66.32825 28.22524 88.16155
#
# Poissons Ratio (x) = 0.15784 0.61166
# Poissons Ratio (y) = 0.37093 0.55447
# Poissons Ratio (z) = 0.46018 0.17752
#
# Static dielectric constant tensor:
#      x y z
#    x 3.481380 0.000000 0.000000 
#    y 0.000000 3.088400 0.000000 
#    z 0.000000 0.000000 3.572810 
# 
# 
# High freq. dielectric constant tensor:
#      x y z
#    x 1.726320 0.000000 0.000000 
#    y 0.000000 1.687210 0.000000 
#    z 0.000000 0.000000 1.738530 
# 
# From -- ./inp_files/33810.got.cif
#   From: 2010.03.12/outbox.cif.g09.slc.cpg/sg51_17_cif.got.tgz:33810.got - 2010.04.16 13:43:02.
