data_PCOD8208522
_publ_section_title
;
Structure prediction by ZEFSAII (Michael W. Deem and Ramdas Pophale) SiO2 
 PCOD8208522
Probable space group: P M M A
;
_chemical_formula_sum "Si O2"
_cell_formula_units_Z 56
_cell_length_a 9.201651
_cell_length_b 13.987184
_cell_length_c 23.783083
_cell_angle_alpha 90.000000
_cell_angle_beta 90.000000
_cell_angle_gamma 90.000000
_cell_volume 3061.006113
_symmetry_space_group_name_H-M "P M M A"
_symmetry_group_IT_number 51
_symmetry_cell_setting 'orthorhombic'
loop_
_space_group_symop_operation_xyz
x,y,z
1/2-x,-y,z
1/2+x,-y,-z
-x,y,-z
-x,-y,-z
1/2+x,y,-z
1/2-x,y,z
x,-y,z
loop_
_atom_site_type_symbol
_atom_site_label
_atom_site_fract_x
_atom_site_fract_y
_atom_site_fract_z
Si Si1 0.919719 0.390407 0.055922
Si Si2 0.086736 0.386755 0.267825
Si Si3 0.916231 0.392534 0.375659
Si Si4 0.582095 0.291680 0.168380
Si Si5 0.417135 0.107958 0.767796
Si Si6 0.418695 0.212037 0.557159
Si Si7 0.415062 0.886784 0.342762
O O1 0.750000 0.380055 0.044605
O O2 0.961270 0.500000 0.070732
O O3 0.971934 0.321124 0.106349
O O4 0.000000 0.355296 0.000000
O O5 0.250000 0.346877 0.267272
O O6 0.082094 0.500000 0.268335
O O7 0.010303 0.349068 0.324601
O O8 0.005484 0.352691 0.212893
O O9 0.750000 0.391505 0.355170
O O10 0.965133 0.500000 0.392437
O O11 0.938105 0.324809 0.429582
O O12 0.750000 0.320153 0.175167
O O13 0.557249 0.178299 0.179096
O O14 0.250000 0.112274 0.747665
O O15 0.516126 0.145935 0.716638
O O16 0.459343 0.000000 0.786183
O O17 0.500000 0.186552 0.500000
O O18 0.250000 0.184166 0.551073
O O19 0.487991 0.150952 0.606673
O O20 0.250000 0.847950 0.346805
O O21 0.418445 0.000000 0.346045
#
# Coordination Sequence:
#
# PCOD8208522 Si02
#       7
#     8   8   8   8   8   8   8
#     4   9  18  32  49  70  98 133 172 210 246 287
#     4  10  20  31  46  73 104 130 159 199 247 295
#     4   9  19  36  54  71  96 131 166 199 241 295
#     4  10  19  31  50  74 100 133 169 204 246 294
#     4   9  18  33  53  77 103 130 162 201 245 295
#     4  11  23  37  54  75  98 127 164 205 247 293
#     4  10  21  37  56  77 102 131 161 198 248 301
#
# _framework density 18.294637999999999
#
# number of rings (size 3 to 8) (size 9 to 14) (size 15 to 20)
#    0.000    2.286    0.000    2.571    0.000    8.571 
#    0.000    1.429    0.000    0.429    0.000    0.000 
#    0.000    0.000    0.000    0.000    0.000    0.000 
#
# Total GULP energy -694453.793763 kJ/mol
# GULP energy per Si atom -12400.960603 kJ/mol
# Density = 1.825300 g / cm^3
# Si number density = 18.294638 Si / 1000 Ang^3
#
#
#
# Elastic Constant Matrix: (Units=GPa)
#
#
# Indices 1 2 3 4 5 6 
#
# 1 86.5559 30.2119 53.2403 0.0000 0.0000 0.0000
# 2 30.2119 47.3445 53.6873 0.0000 0.0000 0.0000
# 3 53.2403 53.6873 126.5909 0.0000 0.0000 0.0000
# 4 0.0000 0.0000 0.0000 26.3026 0.0000 0.0000
# 5 0.0000 0.0000 0.0000 0.0000 30.0462 0.0000
# 6 0.0000 0.0000 0.0000 0.0000 0.0000 21.1499
#
#
#
# Elastic Compliance Matrix: (Units=1/GPa)
#
#
# Indices 1 2 3 4 5 6 
#
# 1 0.016183 -0.005026 -0.004674 0.000000 0.000000 0.000000
# 2 -0.005026 0.042252 -0.015805 0.000000 0.000000 0.000000
# 3 -0.004674 -0.015805 0.016568 0.000000 0.000000 0.000000
# 4 0.000000 0.000000 0.000000 0.038019 0.000000 0.000000
# 5 0.000000 0.000000 0.000000 0.000000 0.033282 0.000000
# 6 0.000000 0.000000 0.000000 0.000000 0.000000 0.047281
#
#
# Mechanical properties :
#
#
# Convention : Reuss Voigt Hill
#
# Bulk Modulus (GPa) = 41.68141 59.41892 50.55017
# Shear Modulus (GPa) = 19.79464 23.72320 21.75892
#
# Velocity S-wave (km/s) = 3.29293 3.60492 3.45245
# Velocity P-wave (km/s) = 6.10661 7.06234 6.60179
#
# Compressibility (1/GPa) = 0.02399151
#
# Stress axis : x y z
#
# Youngs Moduli (GPa) = 61.79413 23.66778 60.35602
#
# Poissons Ratio (x) = 0.11895 0.28213
# Poissons Ratio (y) = 0.31058 0.95393
# Poissons Ratio (z) = 0.28885 0.37407
#
# Static dielectric constant tensor:
#      x y z
#    x 3.519770 0.000000 0.000000 
#    y 0.000000 3.508270 0.000000 
#    z 0.000000 0.000000 3.251400 
# 
# 
# High freq. dielectric constant tensor:
#      x y z
#    x 1.714390 0.000000 0.000000 
#    y 0.000000 1.711930 0.000000 
#    z 0.000000 0.000000 1.690070 
# 
# From -- ./inp_files/31863.got.cif
#   From: 2010.03.12/outbox.cif.g09.slc.cpg/sg51_16_cif.got.tgz:31863.got - 2010.04.16 13:43:02.
