data_PCOD8208432
_publ_section_title
;
Structure prediction by ZEFSAII (Michael W. Deem and Ramdas Pophale) SiO2 
 PCOD8208432
Probable space group: P M M A
;
_chemical_formula_sum "Si O2"
_cell_formula_units_Z 64
_cell_length_a 29.101156
_cell_length_b 8.909069
_cell_length_c 13.082012
_cell_angle_alpha 90.000000
_cell_angle_beta 90.000000
_cell_angle_gamma 90.000000
_cell_volume 3391.697464
_symmetry_space_group_name_H-M "P M M A"
_symmetry_group_IT_number 51
_symmetry_cell_setting 'orthorhombic'
loop_
_space_group_symop_operation_xyz
x,y,z
1/2-x,-y,z
1/2+x,-y,-z
-x,y,-z
-x,-y,-z
1/2+x,y,-z
1/2-x,y,z
x,-y,z
loop_
_atom_site_type_symbol
_atom_site_label
_atom_site_fract_x
_atom_site_fract_y
_atom_site_fract_z
Si Si1 0.038354 0.325212 0.928642
Si Si2 0.195641 0.828320 0.078556
Si Si3 0.525983 0.169100 0.272041
Si Si4 0.803210 0.324563 0.713111
Si Si5 0.139634 0.321012 0.902057
Si Si6 0.362226 0.323704 0.480517
Si Si7 0.462937 0.335473 0.413442
Si Si8 0.129749 0.827560 0.686820
O O1 0.039054 0.500000 0.950625
O O2 0.022611 0.292853 0.814858
O O3 0.090081 0.263266 0.944533
O O4 0.000000 0.246174 0.000000
O O5 0.250000 0.813610 0.073707
O O6 0.177867 0.759279 0.185797
O O7 0.179156 0.000000 0.072185
O O8 0.177048 0.737819 0.981342
O O9 0.482309 0.204623 0.341818
O O10 0.574830 0.189554 0.328074
O O11 0.521386 0.000000 0.229540
O O12 0.750000 0.286925 0.694217
O O13 0.811532 0.500000 0.731536
O O14 0.830493 0.267839 0.613190
O O15 0.142014 0.500000 0.894298
O O16 0.147973 0.255759 0.788544
O O17 0.356484 0.500000 0.498638
O O18 0.414409 0.278575 0.455469
O O19 0.346911 0.242762 0.585618
O O20 0.500000 0.358646 0.500000
O O21 0.456477 0.500000 0.359644
O O22 0.144693 0.000000 0.696297
#
# Coordination Sequence:
#
# PCOD8208432 Si02
#       8
#     8   8   8   8   8   8   8   8
#     4   9  19  35  53  73 101 139 179 217 260 313
#     4  10  21  38  60  84 111 141 174 218 273 329
#     4  10  20  32  48  71 102 138 174 216 262 309
#     4   9  19  37  59  81 106 137 175 220 266 314
#     4  10  20  35  58  82 106 140 182 225 267 317
#     4  10  20  34  54  79 106 141 185 225 268 322
#     4  10  19  31  49  72 101 137 176 217 258 308
#     4  10  20  34  52  76 108 144 179 217 266 321
#
# _framework density 18.869606000000001
#
# number of rings (size 3 to 8) (size 9 to 14) (size 15 to 20)
#    0.000    2.250    1.250    1.500    0.000    4.750 
#    0.000    5.625    0.000    2.250    0.000    0.000 
#    0.000    0.000    0.000    0.000    0.000    0.000 
#
# Total GULP energy -793350.761690 kJ/mol
# GULP energy per Si atom -12396.105651 kJ/mol
# Density = 1.882666 g / cm^3
# Si number density = 18.869606 Si / 1000 Ang^3
#
#
#
# Elastic Constant Matrix: (Units=GPa)
#
#
# Indices 1 2 3 4 5 6 
#
# 1 54.4412 28.0011 51.1418 0.0000 0.0000 0.0000
# 2 28.0011 66.7604 51.4300 0.0000 0.0000 0.0000
# 3 51.1418 51.4300 133.8708 0.0000 0.0000 0.0000
# 4 0.0000 0.0000 0.0000 34.4685 0.0000 0.0000
# 5 0.0000 0.0000 0.0000 0.0000 34.8829 0.0000
# 6 0.0000 0.0000 0.0000 0.0000 0.0000 21.2703
#
#
#
# Elastic Compliance Matrix: (Units=1/GPa)
#
#
# Indices 1 2 3 4 5 6 
#
# 1 0.029923 -0.005318 -0.009388 0.000000 0.000000 0.000000
# 2 -0.005318 0.022221 -0.006505 0.000000 0.000000 0.000000
# 3 -0.009388 -0.006505 0.013555 0.000000 0.000000 0.000000
# 4 0.000000 0.000000 0.000000 0.029012 0.000000 0.000000
# 5 0.000000 0.000000 0.000000 0.000000 0.028667 0.000000
# 6 0.000000 0.000000 0.000000 0.000000 0.000000 0.047014
#
#
# Mechanical properties :
#
#
# Convention : Reuss Voigt Hill
#
# Bulk Modulus (GPa) = 42.96183 57.35760 50.15971
# Shear Modulus (GPa) = 22.66813 26.42430 24.54621
#
# Velocity S-wave (km/s) = 3.46974 3.74620 3.61062
# Velocity P-wave (km/s) = 6.23453 7.01248 6.63491
#
# Compressibility (1/GPa) = 0.02327647
#
# Stress axis : x y z
#
# Youngs Moduli (GPa) = 33.41920 45.00290 73.77098
#
# Poissons Ratio (x) = 0.23933 0.69257
# Poissons Ratio (y) = 0.17773 0.47988
# Poissons Ratio (z) = 0.31374 0.29275
#
# Static dielectric constant tensor:
#      x y z
#    x 3.938080 0.000000 0.000000 
#    y 0.000000 3.425270 0.000000 
#    z 0.000000 0.000000 3.958360 
# 
# 
# High freq. dielectric constant tensor:
#      x y z
#    x 1.715900 0.000000 0.000000 
#    y 0.000000 1.731470 0.000000 
#    z 0.000000 0.000000 1.733380 
# 
# From -- ./inp_files/19563.got.cif
#   From: 2010.03.12/outbox.cif.g09.slc.cpg/sg51_10_cif.got.tgz:19563.got - 2010.04.16 13:43:02.
