data_PCOD8208396
_publ_section_title
;
Structure prediction by ZEFSAII (Michael W. Deem and Ramdas Pophale) SiO2 
 PCOD8208396
Probable space group: P M M A
;
_chemical_formula_sum "Si O2"
_cell_formula_units_Z 56
_cell_length_a 17.444748
_cell_length_b 9.413949
_cell_length_c 19.467362
_cell_angle_alpha 90.000000
_cell_angle_beta 90.000000
_cell_angle_gamma 90.000000
_cell_volume 3197.007434
_symmetry_space_group_name_H-M "P M M A"
_symmetry_group_IT_number 51
_symmetry_cell_setting 'orthorhombic'
loop_
_space_group_symop_operation_xyz
x,y,z
1/2-x,-y,z
1/2+x,-y,-z
-x,y,-z
-x,-y,-z
1/2+x,y,-z
1/2-x,y,z
x,-y,z
loop_
_atom_site_type_symbol
_atom_site_label
_atom_site_fract_x
_atom_site_fract_y
_atom_site_fract_z
Si Si1 0.163334 0.332579 0.165048
Si Si2 0.542016 0.834011 0.347787
Si Si3 0.052580 0.163418 0.934605
Si Si4 0.424450 0.156885 0.454589
Si Si5 0.838436 0.655316 0.989545
Si Si6 0.024648 0.834069 0.204668
Si Si7 0.839831 0.332958 0.439067
O O1 0.250000 0.294138 0.187579
O O2 0.149838 0.500000 0.171240
O O3 0.148527 0.280844 0.086733
O O4 0.104517 0.249801 0.214352
O O5 0.458271 0.795261 0.380570
O O6 0.533448 0.801453 0.267101
O O7 0.611594 0.740910 0.378269
O O8 0.560907 0.000000 0.361923
O O9 0.015309 0.221714 0.864801
O O10 0.073041 0.000000 0.925732
O O11 0.130617 0.245437 0.949913
O O12 0.000000 0.194340 0.000000
O O13 0.500000 0.149811 0.500000
O O14 0.363927 0.267867 0.486705
O O15 0.385862 0.000000 0.450850
O O16 0.750000 0.638869 0.004296
O O17 0.877718 0.500000 0.994052
O O18 0.044626 0.000000 0.200639
O O19 0.750000 0.304223 0.426292
O O20 0.858141 0.500000 0.439917
#
# Coordination Sequence:
#
# PCOD8208396 Si02
#       7
#     8   8   8   8   8   8   8
#     4   9  18  32  49  70  95 124 162 206 253 307
#     4   9  19  35  53  74 102 137 173 207 245 295
#     4  10  19  31  48  73  99 125 164 213 260 304
#     4   8  15  30  52  75  97 125 164 202 237 284
#     4   9  18  32  49  69  93 123 162 208 256 306
#     4  10  20  34  51  73 102 134 170 211 254 302
#     4  10  20  33  52  80 108 133 165 204 245 292
#
# _framework density 17.516382
#
# number of rings (size 3 to 8) (size 9 to 14) (size 15 to 20)
#    0.000    2.714    1.429    2.143    0.000    5.714 
#    0.000    2.857    0.000    8.571    0.000    0.000 
#    0.000    0.000    0.000    0.000    0.000    0.000 
#
# Total GULP energy -694085.491036 kJ/mol
# GULP energy per Si atom -12394.383769 kJ/mol
# Density = 1.747651 g / cm^3
# Si number density = 17.516382 Si / 1000 Ang^3
#
#
#
# Elastic Constant Matrix: (Units=GPa)
#
#
# Indices 1 2 3 4 5 6 
#
# 1 87.7437 56.7176 40.5338 0.0000 0.0000 0.0000
# 2 56.7176 75.3477 39.9863 0.0000 0.0000 0.0000
# 3 40.5338 39.9863 85.7698 0.0000 0.0000 0.0000
# 4 0.0000 0.0000 0.0000 16.1103 0.0000 0.0000
# 5 0.0000 0.0000 0.0000 0.0000 22.1475 0.0000
# 6 0.0000 0.0000 0.0000 0.0000 0.0000 39.0549
#
#
#
# Elastic Compliance Matrix: (Units=1/GPa)
#
#
# Indices 1 2 3 4 5 6 
#
# 1 0.023061 -0.015381 -0.003728 0.000000 0.000000 0.000000
# 2 -0.015381 0.027893 -0.005735 0.000000 0.000000 0.000000
# 3 -0.003728 -0.005735 0.016095 0.000000 0.000000 0.000000
# 4 0.000000 0.000000 0.000000 0.062072 0.000000 0.000000
# 5 0.000000 0.000000 0.000000 0.000000 0.045152 0.000000
# 6 0.000000 0.000000 0.000000 0.000000 0.000000 0.025605
#
#
# Mechanical properties :
#
#
# Convention : Reuss Voigt Hill
#
# Bulk Modulus (GPa) = 57.59916 58.14850 57.87383
# Shear Modulus (GPa) = 19.58079 22.90411 21.24245
#
# Velocity S-wave (km/s) = 3.34706 3.61997 3.48619
# Velocity P-wave (km/s) = 6.92037 7.12327 7.02255
#
# Compressibility (1/GPa) = 0.01736137
#
# Stress axis : x y z
#
# Youngs Moduli (GPa) = 43.36321 35.85107 62.13274
#
# Poissons Ratio (x) = 0.55142 0.23162
# Poissons Ratio (y) = 0.66696 0.35634
# Poissons Ratio (z) = 0.16165 0.20561
#
# Static dielectric constant tensor:
#      x y z
#    x 3.127540 0.000000 0.000000 
#    y 0.000000 3.210760 0.000000 
#    z 0.000000 0.000000 3.508880 
# 
# 
# High freq. dielectric constant tensor:
#      x y z
#    x 1.662330 0.000000 0.000000 
#    y 0.000000 1.674680 0.000000 
#    z 0.000000 0.000000 1.663250 
# 
# From -- ./inp_files/33716.got.cif
#   From: 2010.03.12/outbox.cif.g09.slc.cpg/sg51_17_cif.got.tgz:33716.got - 2010.04.16 13:43:02.
