data_PCOD8208678
_publ_section_title
;
Structure prediction by ZEFSAII (Michael W. Deem and Ramdas Pophale) SiO2 
 PCOD8208678
Probable space group: P M M A
;
_chemical_formula_sum "Si O2"
_cell_formula_units_Z 64
_cell_length_a 22.479186
_cell_length_b 15.481128
_cell_length_c 9.178585
_cell_angle_alpha 90.000000
_cell_angle_beta 90.000000
_cell_angle_gamma 90.000000
_cell_volume 3194.176546
_symmetry_space_group_name_H-M "P M M A"
_symmetry_group_IT_number 51
_symmetry_cell_setting 'orthorhombic'
loop_
_space_group_symop_operation_xyz
x,y,z
1/2-x,-y,z
1/2+x,-y,-z
-x,y,-z
-x,-y,-z
1/2+x,y,-z
1/2-x,y,z
x,-y,z
loop_
_atom_site_type_symbol
_atom_site_label
_atom_site_fract_x
_atom_site_fract_y
_atom_site_fract_z
Si Si1 0.495372 0.175625 0.662033
Si Si2 0.910703 0.594324 0.829984
Si Si3 0.317527 0.768349 0.917103
Si Si4 0.022890 0.372858 0.655550
Si Si5 0.876952 0.097092 0.278111
Si Si6 0.871477 0.406029 0.150821
Si Si7 0.182822 0.096062 0.421671
Si Si8 0.878962 0.220865 0.785114
O O1 0.500000 0.134598 0.500000
O O2 0.469646 0.270937 0.644030
O O3 0.445928 0.121909 0.751508
O O4 0.557263 0.176831 0.750737
O O5 0.882579 0.500000 0.787163
O O6 0.877962 0.675494 0.749281
O O7 0.978846 0.596415 0.781746
O O8 0.910301 0.606164 0.003874
O O9 0.250000 0.775579 0.973357
O O10 0.329975 0.840767 0.798332
O O11 0.325188 0.673091 0.845686
O O12 0.363867 0.788593 0.045613
O O13 0.087286 0.406988 0.704805
O O14 0.000000 0.410520 0.500000
O O15 0.864202 0.106110 0.449227
O O16 0.865960 0.000000 0.222008
O O17 0.838701 0.500000 0.146871
O O18 0.250000 0.107517 0.480049
O O19 0.171064 0.171192 0.305228
O O20 0.175351 0.000000 0.351509
#
# Coordination Sequence:
#
# PCOD8208678 Si02
#       8
#     8   8   8   8   8   8   8   8
#     4  10  19  36  60  89 122 150 187 240 300 361
#     4   9  19  33  52  82 118 155 190 229 282 351
#     4  11  24  41  59  84 119 156 201 250 294 345
#     4  10  19  31  53  84 119 150 187 235 289 343
#     4  11  23  40  63  87 116 156 196 239 299 361
#     4  10  20  36  57  80 112 155 199 238 286 345
#     4  10  21  38  61  87 113 151 204 247 287 353
#     4  10  21  37  62  88 120 155 193 244 303 350
#
# _framework density 20.036463000000001
#
# number of rings (size 3 to 8) (size 9 to 14) (size 15 to 20)
#    0.000    1.875    2.500    1.500    0.000    4.750 
#    0.000    0.625    0.000    1.125    0.000    0.000 
#    0.000    0.000    0.000    0.000    0.000    0.000 
#
# Total GULP energy -793179.383873 kJ/mol
# GULP energy per Si atom -12393.427873 kJ/mol
# Density = 1.999086 g / cm^3
# Si number density = 20.036463 Si / 1000 Ang^3
#
#
#
# Elastic Constant Matrix: (Units=GPa)
#
#
# Indices 1 2 3 4 5 6 
#
# 1 92.9773 44.2228 29.2551 0.0000 0.0000 0.0000
# 2 44.2228 140.0911 42.8915 0.0000 0.0000 0.0000
# 3 29.2551 42.8915 61.3052 0.0000 0.0000 0.0000
# 4 0.0000 0.0000 0.0000 26.1325 0.0000 0.0000
# 5 0.0000 0.0000 0.0000 0.0000 29.2145 0.0000
# 6 0.0000 0.0000 0.0000 0.0000 0.0000 15.7281
#
#
#
# Elastic Compliance Matrix: (Units=1/GPa)
#
#
# Indices 1 2 3 4 5 6 
#
# 1 0.013534 -0.002920 -0.004415 0.000000 0.000000 0.000000
# 2 -0.002920 0.009714 -0.005403 0.000000 0.000000 0.000000
# 3 -0.004415 -0.005403 0.022199 0.000000 0.000000 0.000000
# 4 0.000000 0.000000 0.000000 0.038266 0.000000 0.000000
# 5 0.000000 0.000000 0.000000 0.000000 0.034230 0.000000
# 6 0.000000 0.000000 0.000000 0.000000 0.000000 0.063581
#
#
# Mechanical properties :
#
#
# Convention : Reuss Voigt Hill
#
# Bulk Modulus (GPa) = 50.07520 58.56806 54.32163
# Shear Modulus (GPa) = 23.40205 26.08196 24.74200
#
# Velocity S-wave (km/s) = 3.42127 3.61186 3.51785
# Velocity P-wave (km/s) = 6.37598 6.83288 6.60838
#
# Compressibility (1/GPa) = 0.01996997
#
# Stress axis : x y z
#
# Youngs Moduli (GPa) = 73.89058 102.94111 45.04757
#
# Poissons Ratio (x) = 0.30063 0.19889
# Poissons Ratio (y) = 0.21579 0.24339
# Poissons Ratio (z) = 0.32623 0.55618
#
# Static dielectric constant tensor:
#      x y z
#    x 3.373860 0.000000 0.000000 
#    y 0.000000 3.940630 0.000000 
#    z 0.000000 0.000000 3.475480 
# 
# 
# High freq. dielectric constant tensor:
#      x y z
#    x 1.758270 0.000000 0.000000 
#    y 0.000000 1.796560 0.000000 
#    z 0.000000 0.000000 1.763720 
# 
# From -- ./inp_files/11866.got.cif
#   From: 2010.03.12/outbox.cif.g09.slc.cpg/sg51_6_cif.got.tgz:11866.got - 2010.04.16 13:43:02.
