data_PCOD8208395
_publ_section_title
;
Structure prediction by ZEFSAII (Michael W. Deem and Ramdas Pophale) SiO2 
 PCOD8208395
Probable space group: P M M A
;
_chemical_formula_sum "Si O2"
_cell_formula_units_Z 64
_cell_length_a 8.832048
_cell_length_b 20.239149
_cell_length_c 17.785400
_cell_angle_alpha 90.000000
_cell_angle_beta 90.000000
_cell_angle_gamma 90.000000
_cell_volume 3179.196015
_symmetry_space_group_name_H-M "P M M A"
_symmetry_group_IT_number 51
_symmetry_cell_setting 'orthorhombic'
loop_
_space_group_symop_operation_xyz
x,y,z
1/2-x,-y,z
1/2+x,-y,-z
-x,y,-z
-x,-y,-z
1/2+x,y,-z
1/2-x,y,z
x,-y,z
loop_
_atom_site_type_symbol
_atom_site_label
_atom_site_fract_x
_atom_site_fract_y
_atom_site_fract_z
Si Si1 0.428158 0.131821 0.426026
Si Si2 0.926083 0.296558 0.208836
Si Si3 0.085033 0.923867 0.709518
Si Si4 0.426835 0.395505 0.425192
Si Si5 0.426162 0.788110 0.076824
Si Si6 0.074113 0.734277 0.621073
Si Si7 0.573316 0.573295 0.740251
Si Si8 0.575078 0.925188 0.858523
O O1 0.500000 0.097587 0.500000
O O2 0.250000 0.143634 0.434179
O O3 0.462686 0.085460 0.355693
O O4 0.521909 0.198146 0.414839
O O5 0.750000 0.298726 0.189487
O O6 0.958953 0.263579 0.289684
O O7 0.007606 0.252497 0.146569
O O8 0.985647 0.372346 0.210298
O O9 0.250000 0.889199 0.693985
O O10 0.017966 0.898009 0.787473
O O11 0.114052 0.000000 0.719444
O O12 0.500000 0.428413 0.500000
O O13 0.250000 0.404118 0.434623
O O14 0.473456 0.319299 0.421255
O O15 0.482580 0.428305 0.346953
O O16 0.250000 0.772385 0.074305
O O17 0.455539 0.867766 0.080563
O O18 0.500000 0.762150 0.000000
O O19 0.250000 0.720162 0.604734
O O20 0.750000 0.591734 0.742582
O O21 0.542978 0.500000 0.773948
O O22 0.750000 0.927167 0.835290
O O23 0.525853 0.000000 0.885367
#
# Coordination Sequence:
#
# PCOD8208395 Si02
#       8
#     8   8   8   8   8   8   8   8
#     4  12  24  36  51  71  98 133 175 226 281 332
#     4  10  21  37  59  85 113 146 185 230 277 330
#     4  10  21  37  56  77 101 132 173 220 269 323
#     4  10  19  31  48  73 108 147 186 228 276 327
#     4  11  23  38  59  87 120 154 186 224 270 323
#     4  10  20  35  54  76 103 136 178 225 272 325
#     4   9  19  36  57  81 110 147 191 236 283 336
#     4   9  19  37  60  86 116 151 189 226 268 321
#
# _framework density 20.130875
#
# number of rings (size 3 to 8) (size 9 to 14) (size 15 to 20)
#    0.000    1.875    0.000    4.125    0.000    6.750 
#    0.000    0.000    0.000    0.375    0.000    0.000 
#    0.000    0.000    0.000    0.000    0.000    0.000 
#
# Total GULP energy -793339.806782 kJ/mol
# GULP energy per Si atom -12395.934481 kJ/mol
# Density = 2.008506 g / cm^3
# Si number density = 20.130875 Si / 1000 Ang^3
#
#
#
# Elastic Constant Matrix: (Units=GPa)
#
#
# Indices 1 2 3 4 5 6 
#
# 1 87.2913 33.5280 39.4097 0.0000 0.0000 0.0000
# 2 33.5280 65.2853 33.5644 0.0000 0.0000 0.0000
# 3 39.4097 33.5644 77.7281 0.0000 0.0000 0.0000
# 4 0.0000 0.0000 0.0000 -6.5283 0.0000 0.0000
# 5 0.0000 0.0000 0.0000 0.0000 33.2090 0.0000
# 6 0.0000 0.0000 0.0000 0.0000 0.0000 24.0905
#
#
#
# Elastic Compliance Matrix: (Units=1/GPa)
#
#
# Indices 1 2 3 4 5 6 
#
# 1 0.016144 -0.005248 -0.005919 0.000000 0.000000 0.000000
# 2 -0.005248 0.021394 -0.006578 0.000000 0.000000 0.000000
# 3 -0.005919 -0.006578 0.018707 0.000000 0.000000 0.000000
# 4 0.000000 0.000000 0.000000 -0.153180 0.000000 0.000000
# 5 0.000000 0.000000 0.000000 0.000000 0.030112 0.000000
# 6 0.000000 0.000000 0.000000 0.000000 0.000000 0.041510
#
#
# Mechanical properties :
#
#
# Convention : Reuss Voigt Hill
#
# Bulk Modulus (GPa) = 48.17957 49.25655 48.71806
# Shear Modulus (GPa) = 292.47580 18.40775 155.44178
#
# Velocity S-wave (km/s) = 12.06659 3.02719 8.79677
# Velocity P-wave (km/s) = 14.76895 6.06134 11.28853
#
# Compressibility (1/GPa) = 0.02075569
#
# Stress axis : x y z
#
# Youngs Moduli (GPa) = 61.94300 46.74178 53.45624
#
# Poissons Ratio (x) = 0.24529 0.31642
# Poissons Ratio (y) = 0.32506 0.35162
# Poissons Ratio (z) = 0.36665 0.30745
#
# Static dielectric constant tensor:
#      x y z
#    x 3.972660 0.000000 0.000000 
#    y 0.000000 3.647490 0.000000 
#    z 0.000000 0.000000 3.612450 
# 
# 
# High freq. dielectric constant tensor:
#      x y z
#    x 1.794180 0.000000 0.000000 
#    y 0.000000 1.780110 0.000000 
#    z 0.000000 0.000000 1.768990 
# 
# From -- ./inp_files/28499.got.cif
#   From: 2010.03.12/outbox.cif.g09.slc.cpg/sg51_15_cif.got.tgz:28499.got - 2010.04.16 13:43:02.
