data_PCOD8208067
_publ_section_title
;
Structure prediction by ZEFSAII (Michael W. Deem and Ramdas Pophale) SiO2 
 PCOD8208067
Probable space group: P M M A
;
_chemical_formula_sum "Si O2"
_cell_formula_units_Z 48
_cell_length_a 25.037847
_cell_length_b 9.120166
_cell_length_c 12.500507
_cell_angle_alpha 90.000000
_cell_angle_beta 90.000000
_cell_angle_gamma 90.000000
_cell_volume 2854.482285
_symmetry_space_group_name_H-M "P M M A"
_symmetry_group_IT_number 51
_symmetry_cell_setting 'orthorhombic'
loop_
_space_group_symop_operation_xyz
x,y,z
1/2-x,-y,z
1/2+x,-y,-z
-x,y,-z
-x,-y,-z
1/2+x,y,-z
1/2-x,y,z
x,-y,z
loop_
_atom_site_type_symbol
_atom_site_label
_atom_site_fract_x
_atom_site_fract_y
_atom_site_fract_z
Si Si1 0.390454 0.828284 0.111086
Si Si2 0.495738 0.665478 0.126825
Si Si3 0.100776 0.828389 0.862972
Si Si4 0.809376 0.174466 0.297306
Si Si5 0.186820 0.667863 0.261504
Si Si6 0.813372 0.162774 0.532602
O O1 0.442965 0.753388 0.161803
O O2 0.338304 0.761216 0.165845
O O3 0.393730 0.000000 0.134079
O O4 0.385269 0.794315 0.985565
O O5 0.492404 0.500000 0.171072
O O6 0.547648 0.744640 0.175442
O O7 0.500000 0.667632 0.000000
O O8 0.149717 0.767301 0.791999
O O9 0.090796 0.000000 0.844702
O O10 0.750000 0.238450 0.273405
O O11 0.830025 0.223404 0.415261
O O12 0.806356 0.000000 0.294795
O O13 0.250000 0.685712 0.251549
O O14 0.168782 0.500000 0.251615
O O15 0.165642 0.728376 0.375525
O O16 0.750000 0.152707 0.535432
O O17 0.837366 0.000000 0.552908
#
# Coordination Sequence:
#
# PCOD8208067 Si02
#       6
#     8   8   8   8   8   8
#     4  10  19  30  47  70  94 121 155 192 227 268
#     4   9  17  30  47  65  89 122 157 190 226 270
#     4   9  17  29  47  71  96 121 152 189 227 270
#     4   8  14  26  46  71  96 121 149 184 226 269
#     4  10  20  32  46  66  94 125 154 187 229 273
#     4   8  14  27  47  67  87 116 155 190 219 261
#
# _framework density 16.815660000000001
#
# number of rings (size 3 to 8) (size 9 to 14) (size 15 to 20)
#    0.000    3.000    0.000    2.500    0.000    4.333 
#    0.000    2.500    0.000    2.500    0.000    7.000 
#    0.000    0.000    0.000    0.000    0.000    0.000 
#
# Total GULP energy -595057.532809 kJ/mol
# GULP energy per Si atom -12397.031934 kJ/mol
# Density = 1.677739 g / cm^3
# Si number density = 16.815660 Si / 1000 Ang^3
#
#
#
# Elastic Constant Matrix: (Units=GPa)
#
#
# Indices 1 2 3 4 5 6 
#
# 1 73.2728 42.8911 44.7286 0.0000 0.0000 0.0000
# 2 42.8911 87.7362 44.7764 0.0000 0.0000 0.0000
# 3 44.7286 44.7764 79.4284 0.0000 0.0000 0.0000
# 4 0.0000 0.0000 0.0000 15.1608 0.0000 0.0000
# 5 0.0000 0.0000 0.0000 0.0000 6.1455 0.0000
# 6 0.0000 0.0000 0.0000 0.0000 0.0000 25.1335
#
#
#
# Elastic Compliance Matrix: (Units=1/GPa)
#
#
# Indices 1 2 3 4 5 6 
#
# 1 0.023210 -0.006565 -0.009369 0.000000 0.000000 0.000000
# 2 -0.006565 0.017858 -0.006370 0.000000 0.000000 0.000000
# 3 -0.009369 -0.006370 0.021457 0.000000 0.000000 0.000000
# 4 0.000000 0.000000 0.000000 0.065960 0.000000 0.000000
# 5 0.000000 0.000000 0.000000 0.000000 0.162719 0.000000
# 6 0.000000 0.000000 0.000000 0.000000 0.000000 0.039788
#
#
# Mechanical properties :
#
#
# Convention : Reuss Voigt Hill
#
# Bulk Modulus (GPa) = 55.81530 56.13660 55.97595
# Shear Modulus (GPa) = 13.10364 16.49072 14.79718
#
# Velocity S-wave (km/s) = 2.79454 3.13497 2.96964
# Velocity P-wave (km/s) = 6.60886 6.82349 6.71704
#
# Compressibility (1/GPa) = 0.01791623
#
# Stress axis : x y z
#
# Youngs Moduli (GPa) = 43.08523 55.99646 46.60403
#
# Poissons Ratio (x) = 0.36760 0.43665
# Poissons Ratio (y) = 0.28284 0.29689
# Poissons Ratio (z) = 0.40368 0.35672
#
# Static dielectric constant tensor:
#      x y z
#    x 3.142740 0.000000 0.000000 
#    y 0.000000 3.156730 0.000000 
#    z 0.000000 0.000000 3.196840 
# 
# 
# High freq. dielectric constant tensor:
#      x y z
#    x 1.632670 0.000000 0.000000 
#    y 0.000000 1.639960 0.000000 
#    z 0.000000 0.000000 1.631440 
# 
# From -- ./inp_files/18587.got.cif
#   From: 2010.03.12/outbox.cif.g09.slc.cpg/sg51_10_cif.got.tgz:18587.got - 2010.04.16 13:43:02.
