data_PCOD8208505
_publ_section_title
;
Structure prediction by ZEFSAII (Michael W. Deem and Ramdas Pophale) SiO2 
 PCOD8208505
Probable space group: P M M A
;
_chemical_formula_sum "Si O2"
_cell_formula_units_Z 48
_cell_length_a 18.886275
_cell_length_b 15.163231
_cell_length_c 9.450554
_cell_angle_alpha 90.000000
_cell_angle_beta 90.000000
_cell_angle_gamma 90.000000
_cell_volume 2706.420836
_symmetry_space_group_name_H-M "P M M A"
_symmetry_group_IT_number 51
_symmetry_cell_setting 'orthorhombic'
loop_
_space_group_symop_operation_xyz
x,y,z
1/2-x,-y,z
1/2+x,-y,-z
-x,y,-z
-x,-y,-z
1/2+x,y,-z
1/2-x,y,z
x,-y,z
loop_
_atom_site_type_symbol
_atom_site_label
_atom_site_fract_x
_atom_site_fract_y
_atom_site_fract_z
Si Si1 0.170141 0.098380 0.697797
Si Si2 0.588585 0.738133 0.638398
Si Si3 0.829456 0.095208 0.638287
Si Si4 0.428651 0.398894 0.921268
Si Si5 0.924945 0.258240 0.314875
Si Si6 0.669428 0.398842 0.820624
O O1 0.250000 0.121891 0.749199
O O2 0.168022 0.097734 0.529822
O O3 0.114437 0.172291 0.752024
O O4 0.149144 0.000000 0.753588
O O5 0.625895 0.824928 0.701752
O O6 0.603960 0.723109 0.472343
O O7 0.508043 0.757130 0.675602
O O8 0.619286 0.652279 0.712717
O O9 0.750000 0.106348 0.693977
O O10 0.859602 0.000000 0.689710
O O11 0.439751 0.500000 0.873186
O O12 0.410646 0.342470 0.782872
O O13 0.500000 0.365166 0.000000
O O14 0.361023 0.388439 0.022088
O O15 0.750000 0.363106 0.817831
O O16 0.666743 0.500000 0.772153
#
# Coordination Sequence:
#
# PCOD8208505 Si02
#       6
#     8   8   8   8   8   8
#     4   8  15  29  48  71 102 138 172 209 256 308
#     4  10  19  31  49  80 111 134 165 215 266 309
#     4   8  14  26  45  69 100 138 172 203 249 307
#     4  10  20  37  56  73 100 139 178 216 257 310
#     4  10  20  31  52  81 106 135 174 214 262 310
#     4  10  21  37  56  76 101 138 177 211 258 317
#
# _framework density 17.735600999999999
#
# number of rings (size 3 to 8) (size 9 to 14) (size 15 to 20)
#    0.000    2.667    1.667    1.500    0.000    2.667 
#    0.000    5.000    0.000    3.500    0.000    2.333 
#    0.000    0.000    0.000    0.000    0.000    0.000 
#
# Total GULP energy -594948.380837 kJ/mol
# GULP energy per Si atom -12394.757934 kJ/mol
# Density = 1.769523 g / cm^3
# Si number density = 17.735601 Si / 1000 Ang^3
#
#
#
# Elastic Constant Matrix: (Units=GPa)
#
#
# Indices 1 2 3 4 5 6 
#
# 1 89.5393 53.6088 26.4994 0.0000 0.0000 0.0000
# 2 53.6088 122.5040 49.4400 0.0000 0.0000 0.0000
# 3 26.4994 49.4400 49.4155 0.0000 0.0000 0.0000
# 4 0.0000 0.0000 0.0000 7.1715 0.0000 0.0000
# 5 0.0000 0.0000 0.0000 0.0000 17.5742 0.0000
# 6 0.0000 0.0000 0.0000 0.0000 0.0000 35.2146
#
#
#
# Elastic Compliance Matrix: (Units=1/GPa)
#
#
# Indices 1 2 3 4 5 6 
#
# 1 0.015319 -0.005683 -0.002529 0.000000 0.000000 0.000000
# 2 -0.005683 0.015800 -0.012760 0.000000 0.000000 0.000000
# 3 -0.002529 -0.012760 0.034359 0.000000 0.000000 0.000000
# 4 0.000000 0.000000 0.000000 0.139441 0.000000 0.000000
# 5 0.000000 0.000000 0.000000 0.000000 0.056902 0.000000
# 6 0.000000 0.000000 0.000000 0.000000 0.000000 0.028397
#
#
# Mechanical properties :
#
#
# Convention : Reuss Voigt Hill
#
# Bulk Modulus (GPa) = 42.49216 57.83946 50.16581
# Shear Modulus (GPa) = 14.70561 20.78610 17.74585
#
# Velocity S-wave (km/s) = 2.88263 3.42716 3.16662
# Velocity P-wave (km/s) = 5.92369 6.95294 6.45885
#
# Compressibility (1/GPa) = 0.02353375
#
# Stress axis : x y z
#
# Youngs Moduli (GPa) = 65.27670 63.29279 29.10453
#
# Poissons Ratio (x) = 0.35971 0.07361
# Poissons Ratio (y) = 0.37098 0.37137
# Poissons Ratio (z) = 0.16509 0.80760
#
# Static dielectric constant tensor:
#      x y z
#    x 3.465200 0.000000 0.000000 
#    y 0.000000 3.602240 0.000000 
#    z 0.000000 0.000000 2.923070 
# 
# 
# High freq. dielectric constant tensor:
#      x y z
#    x 1.691810 0.000000 0.000000 
#    y 0.000000 1.695290 0.000000 
#    z 0.000000 0.000000 1.642830 
# 
# From -- ./inp_files/9596.got.cif
#   From: 2010.03.12/outbox.cif.g09.slc.cpg/sg51_5_cif.got.tgz:9596.got - 2010.04.16 13:43:02.
