data_PCOD8208675
_publ_section_title
;
Structure prediction by ZEFSAII (Michael W. Deem and Ramdas Pophale) SiO2 
 PCOD8208675
Probable space group: P M M A
;
_chemical_formula_sum "Si O2"
_cell_formula_units_Z 48
_cell_length_a 15.079318
_cell_length_b 8.948633
_cell_length_c 18.995649
_cell_angle_alpha 90.000000
_cell_angle_beta 90.000000
_cell_angle_gamma 90.000000
_cell_volume 2563.259250
_symmetry_space_group_name_H-M "P M M A"
_symmetry_group_IT_number 51
_symmetry_cell_setting 'orthorhombic'
loop_
_space_group_symop_operation_xyz
x,y,z
1/2-x,-y,z
1/2+x,-y,-z
-x,y,-z
-x,-y,-z
1/2+x,y,-z
1/2-x,y,z
x,-y,z
loop_
_atom_site_type_symbol
_atom_site_label
_atom_site_fract_x
_atom_site_fract_y
_atom_site_fract_z
Si Si1 0.851462 0.672345 0.315350
Si Si2 0.250000 0.323760 0.922422
Si Si3 0.999117 0.677161 0.578353
Si Si4 0.105393 0.172639 0.829353
Si Si5 0.750000 0.173326 0.929351
Si Si6 0.096970 0.828992 0.177850
Si Si7 0.651134 0.322806 0.680595
O O1 0.750000 0.695382 0.338259
O O2 0.870808 0.500000 0.295499
O O3 0.874601 0.772993 0.249002
O O4 0.911518 0.724576 0.380902
O O5 0.250000 0.500000 0.915592
O O6 0.161907 0.263380 0.885507
O O7 0.250000 0.277136 0.003113
O O8 0.992634 0.500000 0.573258
O O9 0.913665 0.740684 0.620068
O O10 0.000000 0.747327 0.500000
O O11 0.002772 0.197625 0.848829
O O12 0.132360 0.000000 0.834239
O O13 0.662624 0.214153 0.885091
O O14 0.750000 0.000000 0.952059
O O15 0.115691 0.725405 0.243937
O O16 0.112245 0.000000 0.201184
O O17 0.750000 0.259881 0.666997
O O18 0.650946 0.500000 0.679588
#
# Coordination Sequence:
#
# PCOD8208675 Si02
#       7
#     8   4   8   8   4   8   8
#     4  10  19  32  54  82 110 146 192 239 282 333
#     4  12  26  42  60  86 119 152 185 232 287 338
#     4   9  18  32  50  78 117 154 188 235 290 337
#     4  11  22  37  60  88 114 149 192 236 282 339
#     4  10  22  42  62  84 117 152 187 230 281 342
#     4  10  21  37  61  87 113 149 191 233 281 339
#     4  10  19  31  53  83 112 146 190 239 285 334
#
# _framework density 18.726158000000002
#
# number of rings (size 3 to 8) (size 9 to 14) (size 15 to 20)
#    0.000    1.833    3.333    1.250    0.000    2.667 
#    0.000    6.667    0.000    2.000    0.000    2.333 
#    0.000    0.000    0.000    0.000    0.000    0.000 
#
# Total GULP energy -595303.183949 kJ/mol
# GULP energy per Si atom -12402.149666 kJ/mol
# Density = 1.868354 g / cm^3
# Si number density = 18.726158 Si / 1000 Ang^3
#
#
#
# Elastic Constant Matrix: (Units=GPa)
#
#
# Indices 1 2 3 4 5 6 
#
# 1 158.9069 42.7940 77.7263 0.0000 0.0000 0.0000
# 2 42.7940 61.2706 43.0767 0.0000 0.0000 0.0000
# 3 77.7263 43.0767 144.6357 0.0000 0.0000 0.0000
# 4 0.0000 0.0000 0.0000 -11.1354 0.0000 0.0000
# 5 0.0000 0.0000 0.0000 0.0000 52.3972 0.0000
# 6 0.0000 0.0000 0.0000 0.0000 0.0000 21.3035
#
#
#
# Elastic Compliance Matrix: (Units=1/GPa)
#
#
# Indices 1 2 3 4 5 6 
#
# 1 0.009160 -0.003715 -0.003816 0.000000 0.000000 0.000000
# 2 -0.003715 0.022150 -0.004601 0.000000 0.000000 0.000000
# 3 -0.003816 -0.004601 0.010335 0.000000 0.000000 0.000000
# 4 0.000000 0.000000 0.000000 -0.089804 0.000000 0.000000
# 5 0.000000 0.000000 0.000000 0.000000 0.019085 0.000000
# 6 0.000000 0.000000 0.000000 0.000000 0.000000 0.046941
#
#
# Mechanical properties :
#
#
# Convention : Reuss Voigt Hill
#
# Bulk Modulus (GPa) = 57.53120 76.88968 67.21044
# Shear Modulus (GPa) = 104.33255 25.92748 65.13002
#
# Velocity S-wave (km/s) = 7.47234 3.72500 5.90387
# Velocity P-wave (km/s) = 10.25850 7.72334 9.07984
#
# Compressibility (1/GPa) = 0.01738187
#
# Stress axis : x y z
#
# Youngs Moduli (GPa) = 109.17050 45.14651 96.75944
#
# Poissons Ratio (x) = 0.16771 0.36925
# Poissons Ratio (y) = 0.40554 0.44516
# Poissons Ratio (z) = 0.41661 0.20770
#
# Static dielectric constant tensor:
#      x y z
#    x 4.401880 0.000000 0.000000 
#    y 0.000000 3.263810 0.000000 
#    z 0.000000 0.000000 3.465170 
# 
# 
# High freq. dielectric constant tensor:
#      x y z
#    x 1.749430 0.000000 0.000000 
#    y 0.000000 1.705010 0.000000 
#    z 0.000000 0.000000 1.722230 
# 
# From -- ./inp_files/29577.got.cif
#   From: 2010.03.12/outbox.cif.g09.slc.cpg/sg51_15_cif.got.tgz:29577.got - 2010.04.16 13:43:02.
