data_PCOD8208956
_publ_section_title
;
Structure prediction by ZEFSAII (Michael W. Deem and Ramdas Pophale) SiO2 
 PCOD8208956
Probable space group: P M M A
;
_chemical_formula_sum "Si O2"
_cell_formula_units_Z 64
_cell_length_a 17.667958
_cell_length_b 9.081684
_cell_length_c 22.286157
_cell_angle_alpha 90.000000
_cell_angle_beta 90.000000
_cell_angle_gamma 90.000000
_cell_volume 3575.921120
_symmetry_space_group_name_H-M "P M M A"
_symmetry_group_IT_number 51
_symmetry_cell_setting 'orthorhombic'
loop_
_space_group_symop_operation_xyz
x,y,z
1/2-x,-y,z
1/2+x,-y,-z
-x,y,-z
-x,-y,-z
1/2+x,y,-z
1/2-x,y,z
x,-y,z
loop_
_atom_site_type_symbol
_atom_site_label
_atom_site_fract_x
_atom_site_fract_y
_atom_site_fract_z
Si Si1 0.165971 0.330760 0.807618
Si Si2 0.162501 0.168126 0.050704
Si Si3 0.466489 0.173815 0.366291
Si Si4 0.163337 0.674009 0.439922
Si Si5 0.961000 0.330362 0.882439
Si Si6 0.933001 0.661441 0.452998
Si Si7 0.986043 0.331538 0.250436
Si Si8 0.107087 0.173330 0.920573
O O1 0.250000 0.307722 0.780052
O O2 0.151621 0.500000 0.826472
O O3 0.102574 0.287282 0.758477
O O4 0.159042 0.234959 0.867373
O O5 0.250000 0.188491 0.064450
O O6 0.120433 0.270741 0.098419
O O7 0.136403 0.000000 0.059860
O O8 0.145614 0.218340 0.982907
O O9 0.389553 0.242342 0.392580
O O10 0.542484 0.224970 0.401469
O O11 0.475220 0.223713 0.297858
O O12 0.460105 0.000000 0.370476
O O13 0.250000 0.722339 0.429526
O O14 0.152107 0.500000 0.430042
O O15 0.140024 0.715565 0.508723
O O16 0.969033 0.500000 0.899809
O O17 0.970040 0.306612 0.811560
O O18 0.023646 0.241302 0.919425
O O19 0.917650 0.500000 0.423924
O O20 0.000000 0.646951 0.500000
O O21 0.993452 0.500000 0.272646
O O22 0.100825 0.000000 0.912469
#
# Coordination Sequence:
#
# PCOD8208956 Si02
#       8
#     8   8   8   8   8   8   8   8
#     4   9  18  33  53  77 102 128 164 213 262 302
#     4  10  21  35  50  72 103 135 165 201 252 314
#     4  11  21  32  51  78 105 136 173 209 248 295
#     4   9  18  34  56  80 105 135 171 209 249 293
#     4  10  21  36  54  75  97 127 171 218 260 300
#     4   8  15  30  52  75 100 131 164 197 237 288
#     4   9  19  36  54  71  97 135 175 212 250 297
#     4  10  19  32  52  76 102 133 165 198 248 316
#
# _framework density 17.897486000000001
#
# number of rings (size 3 to 8) (size 9 to 14) (size 15 to 20)
#    0.000    2.500    0.000    4.125    0.000    8.500 
#    0.000    1.250    0.000    4.500    0.000    0.000 
#    0.000    0.000    0.000    0.000    0.000    0.000 
#
# Total GULP energy -793525.684874 kJ/mol
# GULP energy per Si atom -12398.838826 kJ/mol
# Density = 1.785675 g / cm^3
# Si number density = 17.897486 Si / 1000 Ang^3
#
#
#
# Elastic Constant Matrix: (Units=GPa)
#
#
# Indices 1 2 3 4 5 6 
#
# 1 108.2162 49.1218 50.1042 0.0000 0.0000 0.0000
# 2 49.1218 90.1414 49.4092 0.0000 0.0000 0.0000
# 3 50.1042 49.4092 71.4398 0.0000 0.0000 0.0000
# 4 0.0000 0.0000 0.0000 22.2970 0.0000 0.0000
# 5 0.0000 0.0000 0.0000 0.0000 21.4044 0.0000
# 6 0.0000 0.0000 0.0000 0.0000 0.0000 23.4636
#
#
#
# Elastic Compliance Matrix: (Units=1/GPa)
#
#
# Indices 1 2 3 4 5 6 
#
# 1 0.014423 -0.003728 -0.007537 0.000000 0.000000 0.000000
# 2 -0.003728 0.018831 -0.010409 0.000000 0.000000 0.000000
# 3 -0.007537 -0.010409 0.026483 0.000000 0.000000 0.000000
# 4 0.000000 0.000000 0.000000 0.044849 0.000000 0.000000
# 5 0.000000 0.000000 0.000000 0.000000 0.046719 0.000000
# 6 0.000000 0.000000 0.000000 0.000000 0.000000 0.042619
#
#
# Mechanical properties :
#
#
# Convention : Reuss Voigt Hill
#
# Bulk Modulus (GPa) = 61.01947 63.00754 62.01350
# Shear Modulus (GPa) = 20.59864 21.51047 21.05455
#
# Velocity S-wave (km/s) = 3.39621 3.47056 3.43359
# Velocity P-wave (km/s) = 7.03895 7.16525 7.10238
#
# Compressibility (1/GPa) = 0.01638821
#
# Stress axis : x y z
#
# Youngs Moduli (GPa) = 69.33535 53.10433 37.76070
#
# Poissons Ratio (x) = 0.19800 0.28459
# Poissons Ratio (y) = 0.25851 0.39305
# Poissons Ratio (z) = 0.52256 0.55275
#
# Static dielectric constant tensor:
#      x y z
#    x 3.483810 0.000000 0.000000 
#    y 0.000000 3.269190 0.000000 
#    z 0.000000 0.000000 3.180360 
# 
# 
# High freq. dielectric constant tensor:
#      x y z
#    x 1.689960 0.000000 0.000000 
#    y 0.000000 1.690050 0.000000 
#    z 0.000000 0.000000 1.677230 
# 
# From -- ./inp_files/33938.got.cif
#   From: 2010.03.12/outbox.cif.g09.slc.cpg/sg51_17_cif.got.tgz:33938.got - 2010.04.16 13:43:02.
