data_PCOD8208206
_publ_section_title
;
Structure prediction by ZEFSAII (Michael W. Deem and Ramdas Pophale) SiO2 
 PCOD8208206
Probable space group: P M M A
;
_chemical_formula_sum "Si O2"
_cell_formula_units_Z 48
_cell_length_a 20.741439
_cell_length_b 9.730297
_cell_length_c 14.980495
_cell_angle_alpha 90.000000
_cell_angle_beta 90.000000
_cell_angle_gamma 90.000000
_cell_volume 3023.368919
_symmetry_space_group_name_H-M "P M M A"
_symmetry_group_IT_number 51
_symmetry_cell_setting 'orthorhombic'
loop_
_space_group_symop_operation_xyz
x,y,z
1/2-x,-y,z
1/2+x,-y,-z
-x,y,-z
-x,-y,-z
1/2+x,y,-z
1/2-x,y,z
x,-y,z
loop_
_atom_site_type_symbol
_atom_site_label
_atom_site_fract_x
_atom_site_fract_y
_atom_site_fract_z
Si Si1 0.820765 0.155714 0.518811
Si Si2 0.050621 0.839357 0.577066
Si Si3 0.848148 0.654853 0.679885
Si Si4 0.457397 0.663882 0.080503
Si Si5 0.319494 0.336755 0.122688
Si Si6 0.993871 0.655616 0.723261
O O1 0.750000 0.166690 0.472251
O O2 0.877002 0.201998 0.451750
O O3 0.818484 0.248277 0.605935
O O4 0.835144 0.000000 0.549681
O O5 0.000000 0.796117 0.500000
O O6 0.040119 0.755827 0.668148
O O7 0.043519 0.000000 0.598929
O O8 0.823731 0.500000 0.662723
O O9 0.823122 0.710215 0.774718
O O10 0.925012 0.659799 0.675917
O O11 0.456468 0.500000 0.076912
O O12 0.383171 0.719750 0.071104
O O13 0.488400 0.709526 0.174711
O O14 0.500000 0.726033 0.000000
O O15 0.250000 0.285279 0.082664
O O16 0.322664 0.500000 0.119541
O O17 0.021405 0.500000 0.721323
#
# Coordination Sequence:
#
# PCOD8208206 Si02
#       6
#     8   8   8   8   8   8
#     4  10  20  31  42  59  85 115 147 181 215 253
#     4  10  19  31  46  63  85 116 150 179 211 252
#     4   9  16  26  41  62  87 112 139 173 215 261
#     4   8  14  25  41  61  85 111 139 174 217 259
#     4   8  13  21  35  57  83 108 135 168 208 258
#     4   9  17  28  45  68  88 112 146 181 217 257
#
# _framework density 15.876329999999999
#
# number of rings (size 3 to 8) (size 9 to 14) (size 15 to 20)
#    0.000    3.000    1.667    2.500    0.000    2.000 
#    0.000    0.000    0.000    1.500    0.000    2.333 
#    0.000    0.000    0.000    0.000    0.000    0.000 
#
# Total GULP energy -594752.410714 kJ/mol
# GULP energy per Si atom -12390.675223 kJ/mol
# Density = 1.584019 g / cm^3
# Si number density = 15.876330 Si / 1000 Ang^3
#
#
#
# Elastic Constant Matrix: (Units=GPa)
#
#
# Indices 1 2 3 4 5 6 
#
# 1 134.9626 27.3416 65.5369 0.0000 0.0000 0.0000
# 2 27.3416 31.1336 26.7450 0.0000 0.0000 0.0000
# 3 65.5369 26.7450 83.1331 0.0000 0.0000 0.0000
# 4 0.0000 0.0000 0.0000 -0.7534 0.0000 0.0000
# 5 0.0000 0.0000 0.0000 0.0000 20.3362 0.0000
# 6 0.0000 0.0000 0.0000 0.0000 0.0000 12.3100
#
#
#
# Elastic Compliance Matrix: (Units=1/GPa)
#
#
# Indices 1 2 3 4 5 6 
#
# 1 0.012261 -0.003405 -0.008570 0.000000 0.000000 0.000000
# 2 -0.003405 0.045332 -0.011899 0.000000 0.000000 0.000000
# 3 -0.008570 -0.011899 0.022613 0.000000 0.000000 0.000000
# 4 0.000000 0.000000 0.000000 -1.327243 0.000000 0.000000
# 5 0.000000 0.000000 0.000000 0.000000 0.049173 0.000000
# 6 0.000000 0.000000 0.000000 0.000000 0.000000 0.081235
#
#
# Mechanical properties :
#
#
# Convention : Reuss Voigt Hill
#
# Bulk Modulus (GPa) = 30.81042 54.27516 42.54279
# Shear Modulus (GPa) = -4.72563 15.01893 5.14665
#
# Velocity S-wave (km/s) = -1.72713 3.07904 1.80243
# Velocity P-wave (km/s) = 3.93336 6.84844 5.58446
#
# Compressibility (1/GPa) = 0.03245655
#
# Stress axis : x y z
#
# Youngs Moduli (GPa) = 81.55935 22.05930 44.22175
#
# Poissons Ratio (x) = 0.07512 0.37899
# Poissons Ratio (y) = 0.27775 0.52621
# Poissons Ratio (z) = 0.69898 0.26249
#
# Static dielectric constant tensor:
#      x y z
#    x 3.367640 0.000000 0.000000 
#    y 0.000000 2.724480 0.000000 
#    z 0.000000 0.000000 2.861490 
# 
# 
# High freq. dielectric constant tensor:
#      x y z
#    x 1.619800 0.000000 0.000000 
#    y 0.000000 1.574850 0.000000 
#    z 0.000000 0.000000 1.576700 
# 
# From -- ./inp_files/18136.got.cif
#   From: 2010.03.12/outbox.cif.g09.slc.cpg/sg51_10_cif.got.tgz:18136.got - 2010.04.16 13:43:02.
