data_PCOD8208017
_publ_section_title
;
Structure prediction by ZEFSAII (Michael W. Deem and Ramdas Pophale) SiO2 
 PCOD8208017
Probable space group: P M M A
;
_chemical_formula_sum "Si O2"
_cell_formula_units_Z 64
_cell_length_a 8.852487
_cell_length_b 18.876428
_cell_length_c 23.555989
_cell_angle_alpha 90.000000
_cell_angle_beta 90.000000
_cell_angle_gamma 90.000000
_cell_volume 3936.284285
_symmetry_space_group_name_H-M "P M M A"
_symmetry_group_IT_number 51
_symmetry_cell_setting 'orthorhombic'
loop_
_space_group_symop_operation_xyz
x,y,z
1/2-x,-y,z
1/2+x,-y,-z
-x,y,-z
-x,-y,-z
1/2+x,y,-z
1/2-x,y,z
x,-y,z
loop_
_atom_site_type_symbol
_atom_site_label
_atom_site_fract_x
_atom_site_fract_y
_atom_site_fract_z
Si Si1 0.426058 0.920143 0.257379
Si Si2 0.925361 0.581500 0.723060
Si Si3 0.072030 0.580741 0.940955
Si Si4 0.073591 0.340466 0.162154
Si Si5 0.429330 0.076871 0.386031
Si Si6 0.426200 0.216157 0.776424
Si Si7 0.571018 0.780904 0.559218
Si Si8 0.425737 0.703603 0.661631
O O1 0.250000 0.900727 0.254090
O O2 0.486928 0.913291 0.321762
O O3 0.518906 0.865064 0.218765
O O4 0.454749 0.000000 0.234921
O O5 0.750000 0.595093 0.709693
O O6 0.970405 0.500000 0.717126
O O7 0.964314 0.606190 0.786601
O O8 0.025426 0.624156 0.677840
O O9 0.250000 0.588176 0.945863
O O10 0.023578 0.500000 0.926965
O O11 0.012723 0.632434 0.892688
O O12 0.000000 0.605515 0.000000
O O13 0.250000 0.337278 0.148903
O O14 0.015020 0.262037 0.177075
O O15 0.250000 0.078255 0.384850
O O16 0.491429 0.140336 0.425135
O O17 0.485757 0.000000 0.409345
O O18 0.250000 0.221747 0.789653
O O19 0.465868 0.244386 0.713556
O O20 0.500000 0.757026 0.500000
O O21 0.750000 0.779881 0.554291
O O22 0.520730 0.726001 0.607010
O O23 0.250000 0.705246 0.646442
#
# Coordination Sequence:
#
# PCOD8208017 Si02
#       8
#     8   8   8   8   8   8   8   8
#     4   9  16  28  47  68  91 123 161 195 234 288
#     4   9  18  32  51  74  97 122 152 188 233 283
#     4  10  20  33  49  70 100 138 176 210 244 282
#     4  10  19  31  49  72 100 132 168 204 238 279
#     4   8  15  28  46  66  88 117 152 188 227 274
#     4  10  19  30  46  69  98 126 157 199 244 286
#     4  11  21  33  50  67  89 118 152 191 232 279
#     4  10  20  33  48  68  93 119 151 188 231 282
#
# _framework density 16.258987999999999
#
# number of rings (size 3 to 8) (size 9 to 14) (size 15 to 20)
#    0.000    2.375    1.250    3.000    0.000    3.500 
#    0.000    0.000    0.000    1.500    0.000    0.000 
#    0.000    0.500    0.000    1.875    0.000    2.875 
#
# Total GULP energy -793647.991817 kJ/mol
# GULP energy per Si atom -12400.749872 kJ/mol
# Density = 1.622198 g / cm^3
# Si number density = 16.258988 Si / 1000 Ang^3
#
#
#
# Elastic Constant Matrix: (Units=GPa)
#
#
# Indices 1 2 3 4 5 6 
#
# 1 59.9482 34.2816 35.1724 0.0000 0.0000 0.0000
# 2 34.2816 99.8655 45.7122 0.0000 0.0000 0.0000
# 3 35.1724 45.7122 85.6477 0.0000 0.0000 0.0000
# 4 0.0000 0.0000 0.0000 14.3574 0.0000 0.0000
# 5 0.0000 0.0000 0.0000 0.0000 25.2013 0.0000
# 6 0.0000 0.0000 0.0000 0.0000 0.0000 25.1473
#
#
#
# Elastic Compliance Matrix: (Units=1/GPa)
#
#
# Indices 1 2 3 4 5 6 
#
# 1 0.023631 -0.004856 -0.007113 0.000000 0.000000 0.000000
# 2 -0.004856 0.014249 -0.005611 0.000000 0.000000 0.000000
# 3 -0.007113 -0.005611 0.017591 0.000000 0.000000 0.000000
# 4 0.000000 0.000000 0.000000 0.069650 0.000000 0.000000
# 5 0.000000 0.000000 0.000000 0.000000 0.039681 0.000000
# 6 0.000000 0.000000 0.000000 0.000000 0.000000 0.039766
#
#
# Mechanical properties :
#
#
# Convention : Reuss Voigt Hill
#
# Bulk Modulus (GPa) = 49.23172 52.86598 51.04885
# Shear Modulus (GPa) = 20.28420 21.62754 20.95587
#
# Velocity S-wave (km/s) = 3.53593 3.65113 3.59399
# Velocity P-wave (km/s) = 6.85681 7.09647 6.97767
#
# Compressibility (1/GPa) = 0.02031211
#
# Stress axis : x y z
#
# Youngs Moduli (GPa) = 42.31689 70.18179 56.84715
#
# Poissons Ratio (x) = 0.34083 0.40433
# Poissons Ratio (y) = 0.20551 0.31894
# Poissons Ratio (z) = 0.30098 0.39376
#
# Static dielectric constant tensor:
#      x y z
#    x 2.983610 0.000000 0.000000 
#    y 0.000000 3.163590 0.000000 
#    z 0.000000 0.000000 2.826400 
# 
# 
# High freq. dielectric constant tensor:
#      x y z
#    x 1.626740 0.000000 0.000000 
#    y 0.000000 1.623390 0.000000 
#    z 0.000000 0.000000 1.592600 
# 
# From -- ./inp_files/32628.got.cif
#   From: 2010.03.12/outbox.cif.g09.slc.cpg/sg51_17_cif.got.tgz:32628.got - 2010.04.16 13:43:02.
