data_PCOD8208709
_publ_section_title
;
Structure prediction by ZEFSAII (Michael W. Deem and Ramdas Pophale) SiO2 
 PCOD8208709
Probable space group: P M M A
;
_chemical_formula_sum "Si O2"
_cell_formula_units_Z 64
_cell_length_a 9.158282
_cell_length_b 23.425039
_cell_length_c 19.215142
_cell_angle_alpha 90.000000
_cell_angle_beta 90.000000
_cell_angle_gamma 90.000000
_cell_volume 4122.284230
_symmetry_space_group_name_H-M "P M M A"
_symmetry_group_IT_number 51
_symmetry_cell_setting 'orthorhombic'
loop_
_space_group_symop_operation_xyz
x,y,z
1/2-x,-y,z
1/2+x,-y,-z
-x,y,-z
-x,-y,-z
1/2+x,y,-z
1/2-x,y,z
x,-y,z
loop_
_atom_site_type_symbol
_atom_site_label
_atom_site_fract_x
_atom_site_fract_y
_atom_site_fract_z
Si Si1 0.921268 0.436203 0.071740
Si Si2 0.417483 0.933640 0.296241
Si Si3 0.082407 0.755028 0.567188
Si Si4 0.080294 0.218216 0.929476
Si Si5 0.580011 0.152528 0.207398
Si Si6 0.080236 0.889591 0.569283
Si Si7 0.076422 0.327921 0.847518
Si Si8 0.576424 0.266144 0.283796
O O1 0.750000 0.429368 0.058398
O O2 0.959439 0.500000 0.098584
O O3 0.978002 0.390376 0.128405
O O4 0.000000 0.422700 0.000000
O O5 0.250000 0.914828 0.307871
O O6 0.483968 0.901706 0.229038
O O7 0.509482 0.919944 0.364859
O O8 0.429152 0.000000 0.279204
O O9 0.250000 0.739590 0.556046
O O10 0.058381 0.822143 0.576595
O O11 0.018657 0.724907 0.637312
O O12 0.000000 0.730581 0.500000
O O13 0.250000 0.224085 0.946260
O O14 0.052319 0.168213 0.873278
O O15 0.019564 0.278731 0.899915
O O16 0.000000 0.201255 0.000000
O O17 0.750000 0.139068 0.220824
O O18 0.525994 0.204965 0.255088
O O19 0.250000 0.906214 0.564993
O O20 0.000000 0.912174 0.500000
O O21 0.250000 0.324602 0.846404
O O22 0.018484 0.315498 0.768865
O O23 0.750000 0.266102 0.285559
#
# Coordination Sequence:
#
# PCOD8208709 Si02
#       8
#     8   8   8   8   8   8   8   8
#     4   9  16  25  38  58  85 119 154 182 208 240
#     4  11  23  35  47  65  87 110 138 174 213 253
#     4   9  16  26  42  62  83 108 135 166 203 249
#     4   9  17  28  46  68  89 111 138 172 214 260
#     4   9  17  32  49  64  82 108 140 171 207 259
#     4  10  19  32  49  67  87 113 143 174 207 248
#     4   8  14  24  40  61  86 116 146 178 209 245
#     4   8  13  25  43  61  81 107 140 172 209 251
#
# _framework density 15.525372000000001
#
# number of rings (size 3 to 8) (size 9 to 14) (size 15 to 20)
#    0.000    2.875    1.250    2.625    0.000    2.250 
#    0.000    0.000    0.000    1.875    0.000    0.000 
#    0.000    0.500    0.000    0.375    0.000    0.750 
#
# Total GULP energy -793240.453975 kJ/mol
# GULP energy per Si atom -12394.382093 kJ/mol
# Density = 1.549004 g / cm^3
# Si number density = 15.525372 Si / 1000 Ang^3
#
#
#
# Elastic Constant Matrix: (Units=GPa)
#
#
# Indices 1 2 3 4 5 6 
#
# 1 55.3515 35.5577 45.4975 0.0000 0.0000 0.0000
# 2 35.5577 74.1874 57.5980 0.0000 0.0000 0.0000
# 3 45.4975 57.5980 139.4339 0.0000 0.0000 0.0000
# 4 0.0000 0.0000 0.0000 24.4755 0.0000 0.0000
# 5 0.0000 0.0000 0.0000 0.0000 26.7716 0.0000
# 6 0.0000 0.0000 0.0000 0.0000 0.0000 13.0437
#
#
#
# Elastic Compliance Matrix: (Units=1/GPa)
#
#
# Indices 1 2 3 4 5 6 
#
# 1 0.028629 -0.009523 -0.005408 0.000000 0.000000 0.000000
# 2 -0.009523 0.023011 -0.006398 0.000000 0.000000 0.000000
# 3 -0.005408 -0.006398 0.011579 0.000000 0.000000 0.000000
# 4 0.000000 0.000000 0.000000 0.040857 0.000000 0.000000
# 5 0.000000 0.000000 0.000000 0.000000 0.037353 0.000000
# 6 0.000000 0.000000 0.000000 0.000000 0.000000 0.076666
#
#
# Mechanical properties :
#
#
# Convention : Reuss Voigt Hill
#
# Bulk Modulus (GPa) = 48.63490 60.69769 54.66629
# Shear Modulus (GPa) = 18.68403 21.54611 20.11507
#
# Velocity S-wave (km/s) = 3.47284 3.72936 3.60339
# Velocity P-wave (km/s) = 6.89021 7.59769 7.25258
#
# Compressibility (1/GPa) = 0.02056137
#
# Stress axis : x y z
#
# Youngs Moduli (GPa) = 34.92937 43.45689 86.36013
#
# Poissons Ratio (x) = 0.41385 0.46702
# Poissons Ratio (y) = 0.33264 0.55255
# Poissons Ratio (z) = 0.18889 0.27804
#
# Static dielectric constant tensor:
#      x y z
#    x 2.839490 0.000000 0.000000 
#    y 0.000000 2.899000 0.000000 
#    z 0.000000 0.000000 3.249150 
# 
# 
# High freq. dielectric constant tensor:
#      x y z
#    x 1.578080 0.000000 0.000000 
#    y 0.000000 1.562580 0.000000 
#    z 0.000000 0.000000 1.598640 
# 
# From -- ./inp_files/32606.got.cif
#   From: 2010.03.12/outbox.cif.g09.slc.cpg/sg51_17_cif.got.tgz:32606.got - 2010.04.16 13:43:02.
