data_PCOD8208458
_publ_section_title
;
Structure prediction by ZEFSAII (Michael W. Deem and Ramdas Pophale) SiO2 
 PCOD8208458
Probable space group: P M M A
;
_chemical_formula_sum "Si O2"
_cell_formula_units_Z 64
_cell_length_a 8.952337
_cell_length_b 20.810962
_cell_length_c 19.567706
_cell_angle_alpha 90.000000
_cell_angle_beta 90.000000
_cell_angle_gamma 90.000000
_cell_volume 3645.595614
_symmetry_space_group_name_H-M "P M M A"
_symmetry_group_IT_number 51
_symmetry_cell_setting 'orthorhombic'
loop_
_space_group_symop_operation_xyz
x,y,z
1/2-x,-y,z
1/2+x,-y,-z
-x,y,-z
-x,-y,-z
1/2+x,y,-z
1/2-x,y,z
x,-y,z
loop_
_atom_site_type_symbol
_atom_site_label
_atom_site_fract_x
_atom_site_fract_y
_atom_site_fract_z
Si Si1 0.924938 0.071820 0.710600
Si Si2 0.924242 0.734212 0.433004
Si Si3 0.077199 0.313781 0.713498
Si Si4 0.073764 0.370814 0.067965
Si Si5 0.077199 0.186219 0.786502
Si Si6 0.073764 0.870814 0.432035
Si Si7 0.424938 0.571820 0.210600
Si Si8 0.924242 0.765788 0.066996
O O1 0.750000 0.079289 0.721247
O O2 0.967061 0.084401 0.631771
O O3 0.000834 0.121763 0.761087
O O4 0.979147 0.000000 0.729252
O O5 0.750000 0.746432 0.446925
O O6 0.948786 0.688660 0.367874
O O7 0.000000 0.701848 0.500000
O O8 0.003491 0.801457 0.417709
O O9 0.250000 0.318181 0.733132
O O10 0.009331 0.250000 0.750000
O O11 0.000834 0.378237 0.738913
O O12 0.250000 0.363908 0.057281
O O13 0.032939 0.415599 0.131771
O O14 0.003491 0.301457 0.082291
O O15 0.000000 0.401488 0.000000
O O16 0.250000 0.181819 0.766868
O O17 0.051214 0.188660 0.867874
O O18 0.250000 0.863908 0.442719
O O19 0.000000 0.901488 0.500000
O O20 0.250000 0.579289 0.221247
O O21 0.479147 0.500000 0.229252
O O22 0.750000 0.753569 0.053075
O O23 0.000000 0.798152 0.000000
#
# Coordination Sequence:
#
# PCOD8208458 Si02
#       8
#     8   8   8   8   8   8   8   8
#     4  10  22  37  52  75 107 141 178 218 260 309
#     4  10  19  32  52  78 107 134 169 214 260 308
#     4  10  20  35  55  79 106 136 173 218 263 309
#     4  10  19  31  49  73 104 140 177 212 253 303
#     4  10  20  35  55  79 106 136 173 218 263 309
#     4  10  19  31  49  73 104 140 177 212 253 303
#     4  10  22  37  52  75 107 141 178 218 260 309
#     4  10  19  32  52  78 107 134 169 214 260 308
#
# _framework density 17.555430999999999
#
# number of rings (size 3 to 8) (size 9 to 14) (size 15 to 20)
#    0.000    2.000    2.500    3.000    0.000    4.500 
#    0.000    0.000    0.000    0.750    0.000    0.000 
#    0.000    0.000    0.000    0.000    0.000    0.000 
#
# Total GULP energy -793538.582224 kJ/mol
# GULP energy per Si atom -12399.040347 kJ/mol
# Density = 1.751547 g / cm^3
# Si number density = 17.555431 Si / 1000 Ang^3
#
#
#
# Elastic Constant Matrix: (Units=GPa)
#
#
# Indices 1 2 3 4 5 6 
#
# 1 77.8548 43.0540 52.1327 0.0000 0.0000 0.0000
# 2 43.0540 117.6057 70.1242 0.0000 0.0000 0.0000
# 3 52.1327 70.1242 117.2611 0.0000 0.0000 0.0000
# 4 0.0000 0.0000 0.0000 41.6800 0.0000 0.0000
# 5 0.0000 0.0000 0.0000 0.0000 32.8415 0.0000
# 6 0.0000 0.0000 0.0000 0.0000 0.0000 23.7164
#
#
#
# Elastic Compliance Matrix: (Units=1/GPa)
#
#
# Indices 1 2 3 4 5 6 
#
# 1 0.018935 -0.002972 -0.006641 0.000000 0.000000 0.000000
# 2 -0.002972 0.013682 -0.006861 0.000000 0.000000 0.000000
# 3 -0.006641 -0.006861 0.015583 0.000000 0.000000 0.000000
# 4 0.000000 0.000000 0.000000 0.023992 0.000000 0.000000
# 5 0.000000 0.000000 0.000000 0.000000 0.030449 0.000000
# 6 0.000000 0.000000 0.000000 0.000000 0.000000 0.042165
#
#
# Mechanical properties :
#
#
# Convention : Reuss Voigt Hill
#
# Bulk Modulus (GPa) = 65.56201 71.48259 68.52230
# Shear Modulus (GPa) = 27.34672 29.47497 28.41084
#
# Velocity S-wave (km/s) = 3.95110 4.10196 4.02724
# Velocity P-wave (km/s) = 7.63162 7.95245 7.79369
#
# Compressibility (1/GPa) = 0.01525273
#
# Stress axis : x y z
#
# Youngs Moduli (GPa) = 52.81289 73.08990 64.17206
#
# Poissons Ratio (x) = 0.21723 0.42615
# Poissons Ratio (y) = 0.15697 0.44026
# Poissons Ratio (z) = 0.35072 0.50144
#
# Static dielectric constant tensor:
#      x y z
#    x 3.299770 0.000000 0.000000 
#    y 0.000000 3.029640 0.000000 
#    z 0.000000 0.000000 3.594950 
# 
# 
# High freq. dielectric constant tensor:
#      x y z
#    x 1.684790 0.000000 0.000000 
#    y 0.000000 1.648260 0.000000 
#    z 0.000000 0.000000 1.688120 
# 
# From -- ./inp_files/32357.got.cif
#   From: 2010.03.12/outbox.cif.g09.slc.cpg/sg51_17_cif.got.tgz:32357.got - 2010.04.16 13:43:02.
