data_PCOD8208009
_publ_section_title
;
Structure prediction by ZEFSAII (Michael W. Deem and Ramdas Pophale) SiO2 
 PCOD8208009
Probable space group: P M M A
;
_chemical_formula_sum "Si O2"
_cell_formula_units_Z 48
_cell_length_a 18.248120
_cell_length_b 12.458026
_cell_length_c 12.576502
_cell_angle_alpha 90.000000
_cell_angle_beta 90.000000
_cell_angle_gamma 90.000000
_cell_volume 2859.086042
_symmetry_space_group_name_H-M "P M M A"
_symmetry_group_IT_number 51
_symmetry_cell_setting 'orthorhombic'
loop_
_space_group_symop_operation_xyz
x,y,z
1/2-x,-y,z
1/2+x,-y,-z
-x,y,-z
-x,-y,-z
1/2+x,y,-z
1/2-x,y,z
x,-y,z
loop_
_atom_site_type_symbol
_atom_site_label
_atom_site_fract_x
_atom_site_fract_y
_atom_site_fract_z
Si Si1 0.414567 0.500000 0.502254
Si Si2 0.412325 0.127020 0.112876
Si Si3 0.922803 0.873022 0.124179
Si Si4 0.831657 0.500000 0.708556
Si Si5 0.665818 0.127462 0.325577
Si Si6 0.587320 0.733072 0.497046
Si Si7 0.166337 0.732875 0.279358
O O1 0.500000 0.500000 0.500000
O O2 0.391617 0.500000 0.381244
O O3 0.389219 0.614814 0.551847
O O4 0.494087 0.166460 0.143392
O O5 0.354995 0.182852 0.189825
O O6 0.404028 0.000000 0.126380
O O7 0.394446 0.163532 0.991904
O O8 0.869864 0.828125 0.216186
O O9 0.923380 0.000000 0.126180
O O10 0.750000 0.500000 0.657330
O O11 0.842323 0.612241 0.771990
O O12 0.750000 0.164191 0.327654
O O13 0.622940 0.176414 0.424622
O O14 0.658344 0.000000 0.333892
O O15 0.500000 0.748246 0.500000
O O16 0.616883 0.747495 0.616326
O O17 0.250000 0.755103 0.312598
#
# Coordination Sequence:
#
# PCOD8208009 Si02
#       7
#     4   8   8   4   8   8   8
#     4   8  16  30  48  69  88 113 154 197 229 265
#     4   9  17  30  50  73  93 116 150 193 236 271
#     4   8  16  32  50  67  91 124 157 185 221 277
#     4   8  16  30  44  60  88 126 156 176 216 280
#     4  10  20  32  46  66  94 127 159 188 223 274
#     4  10  19  32  50  70  94 123 155 191 232 277
#     4  10  19  30  46  69  95 121 151 189 231 273
#
# _framework density 16.788582000000002
#
# number of rings (size 3 to 8) (size 9 to 14) (size 15 to 20)
#    0.000    2.833    0.000    2.500    0.000    2.667 
#    0.000    1.667    0.000    3.000    0.000    0.000 
#    0.000    0.000    0.000    0.000    0.000    0.000 
#
# Total GULP energy -594654.979527 kJ/mol
# GULP energy per Si atom -12388.645407 kJ/mol
# Density = 1.675037 g / cm^3
# Si number density = 16.788582 Si / 1000 Ang^3
#
#
#
# Elastic Constant Matrix: (Units=GPa)
#
#
# Indices 1 2 3 4 5 6 
#
# 1 82.3463 36.7650 42.1756 0.0000 0.0000 0.0000
# 2 36.7650 60.4638 41.2778 0.0000 0.0000 0.0000
# 3 42.1756 41.2778 87.5609 0.0000 0.0000 0.0000
# 4 0.0000 0.0000 0.0000 7.9978 0.0000 0.0000
# 5 0.0000 0.0000 0.0000 0.0000 21.7400 0.0000
# 6 0.0000 0.0000 0.0000 0.0000 0.0000 17.0009
#
#
#
# Elastic Compliance Matrix: (Units=1/GPa)
#
#
# Indices 1 2 3 4 5 6 
#
# 1 0.018155 -0.007475 -0.005221 0.000000 0.000000 0.000000
# 2 -0.007475 0.027465 -0.009347 0.000000 0.000000 0.000000
# 3 -0.005221 -0.009347 0.018342 0.000000 0.000000 0.000000
# 4 0.000000 0.000000 0.000000 0.125035 0.000000 0.000000
# 5 0.000000 0.000000 0.000000 0.000000 0.045998 0.000000
# 6 0.000000 0.000000 0.000000 0.000000 0.000000 0.058820
#
#
# Mechanical properties :
#
#
# Convention : Reuss Voigt Hill
#
# Bulk Modulus (GPa) = 50.31187 52.31198 51.31193
# Shear Modulus (GPa) = 14.51266 16.69126 15.60196
#
# Velocity S-wave (km/s) = 2.94332 3.15652 3.05178
# Velocity P-wave (km/s) = 6.44855 6.67171 6.56108
#
# Compressibility (1/GPa) = 0.01987603
#
# Stress axis : x y z
#
# Youngs Moduli (GPa) = 55.08050 36.40994 54.52028
#
# Poissons Ratio (x) = 0.27216 0.28465
# Poissons Ratio (y) = 0.41172 0.50960
# Poissons Ratio (z) = 0.28758 0.34032
#
# Static dielectric constant tensor:
#      x y z
#    x 3.308690 0.000000 0.000000 
#    y 0.000000 3.319910 0.000000 
#    z 0.000000 0.000000 3.173430 
# 
# 
# High freq. dielectric constant tensor:
#      x y z
#    x 1.656180 0.000000 0.000000 
#    y 0.000000 1.636310 0.000000 
#    z 0.000000 0.000000 1.625930 
# 
# From -- ./inp_files/18144.got.cif
#   From: 2010.03.12/outbox.cif.g09.slc.cpg/sg51_10_cif.got.tgz:18144.got - 2010.04.16 13:43:02.
