data_PCOD8208158
_publ_section_title
;
Structure prediction by ZEFSAII (Michael W. Deem and Ramdas Pophale) SiO2 
 PCOD8208158
Probable space group: P M M A
;
_chemical_formula_sum "Si O2"
_cell_formula_units_Z 64
_cell_length_a 9.068514
_cell_length_b 15.160338
_cell_length_c 24.923486
_cell_angle_alpha 90.000000
_cell_angle_beta 90.000000
_cell_angle_gamma 90.000000
_cell_volume 3426.524157
_symmetry_space_group_name_H-M "P M M A"
_symmetry_group_IT_number 51
_symmetry_cell_setting 'orthorhombic'
loop_
_space_group_symop_operation_xyz
x,y,z
1/2-x,-y,z
1/2+x,-y,-z
-x,y,-z
-x,-y,-z
1/2+x,y,-z
1/2-x,y,z
x,-y,z
loop_
_atom_site_type_symbol
_atom_site_label
_atom_site_fract_x
_atom_site_fract_y
_atom_site_fract_z
Si Si1 0.082330 0.099120 0.648673
Si Si2 0.583195 0.631320 0.714410
Si Si3 0.418958 0.403379 0.607062
Si Si4 0.423777 0.226442 0.554450
Si Si5 0.418752 0.171081 0.255016
Si Si6 0.575768 0.213844 0.146637
Si Si7 0.577538 0.899118 0.943721
Si Si8 0.918626 0.404322 0.179500
O O1 0.250000 0.125895 0.663309
O O2 0.020779 0.163581 0.602522
O O3 0.985487 0.102304 0.702739
O O4 0.074133 0.000000 0.626093
O O5 0.750000 0.598840 0.712846
O O6 0.505544 0.594567 0.662259
O O7 0.570351 0.736105 0.715237
O O8 0.512387 0.589746 0.766915
O O9 0.250000 0.383420 0.621582
O O10 0.437688 0.500000 0.579531
O O11 0.475588 0.326759 0.567340
O O12 0.500000 0.195020 0.500000
O O13 0.250000 0.218281 0.546334
O O14 0.250000 0.146202 0.240606
O O15 0.514952 0.170771 0.201103
O O16 0.750000 0.196842 0.142820
O O17 0.494588 0.167701 0.097795
O O18 0.536010 0.319058 0.143812
O O19 0.750000 0.878129 0.949325
O O20 0.551742 0.000000 0.924820
O O21 0.500000 0.881786 0.000000
O O22 0.750000 0.390921 0.196940
O O23 0.939558 0.500000 0.149387
#
# Coordination Sequence:
#
# PCOD8208158 Si02
#       8
#     8   8   8   8   8   8   8   8
#     4  10  21  38  59  80 102 133 172 213 263 323
#     4  10  19  30  48  76 107 138 174 216 261 310
#     4  10  20  34  53  75 100 134 171 206 254 316
#     4  10  22  39  57  76 101 131 168 215 262 315
#     4  10  20  34  53  79 112 145 177 216 265 318
#     4  10  20  34  56  84 115 152 190 228 272 323
#     4  10  21  38  60  85 114 148 188 235 283 330
#     4   9  18  32  50  75 110 151 189 223 264 317
#
# _framework density 18.677821000000002
#
# number of rings (size 3 to 8) (size 9 to 14) (size 15 to 20)
#    0.000    2.125    1.250    1.875    0.000    6.500 
#    0.000    0.000    0.000    0.375    0.000    0.000 
#    0.000    0.000    0.000    0.000    0.000    0.000 
#
# Total GULP energy -793483.223410 kJ/mol
# GULP energy per Si atom -12398.175366 kJ/mol
# Density = 1.863531 g / cm^3
# Si number density = 18.677821 Si / 1000 Ang^3
#
#
#
# Elastic Constant Matrix: (Units=GPa)
#
#
# Indices 1 2 3 4 5 6 
#
# 1 88.4545 43.8203 50.8626 0.0000 0.0000 0.0000
# 2 43.8203 107.9901 59.8121 0.0000 0.0000 0.0000
# 3 50.8626 59.8121 102.7434 0.0000 0.0000 0.0000
# 4 0.0000 0.0000 0.0000 6.6684 0.0000 0.0000
# 5 0.0000 0.0000 0.0000 0.0000 34.2467 0.0000
# 6 0.0000 0.0000 0.0000 0.0000 0.0000 20.4574
#
#
#
# Elastic Compliance Matrix: (Units=1/GPa)
#
#
# Indices 1 2 3 4 5 6 
#
# 1 0.016525 -0.003209 -0.006312 0.000000 0.000000 0.000000
# 2 -0.003209 0.014290 -0.006730 0.000000 0.000000 0.000000
# 3 -0.006312 -0.006730 0.016776 0.000000 0.000000 0.000000
# 4 0.000000 0.000000 0.000000 0.149962 0.000000 0.000000
# 5 0.000000 0.000000 0.000000 0.000000 0.029200 0.000000
# 6 0.000000 0.000000 0.000000 0.000000 0.000000 0.048882
#
#
# Mechanical properties :
#
#
# Convention : Reuss Voigt Hill
#
# Bulk Modulus (GPa) = 66.28149 67.57533 66.92841
# Shear Modulus (GPa) = 15.96595 21.92071 18.94333
#
# Velocity S-wave (km/s) = 2.92688 3.42953 3.18813
# Velocity P-wave (km/s) = 6.85463 7.20696 7.03300
#
# Compressibility (1/GPa) = 0.01508717
#
# Stress axis : x y z
#
# Youngs Moduli (GPa) = 60.51542 69.97896 59.60978
#
# Poissons Ratio (x) = 0.22458 0.37627
# Poissons Ratio (y) = 0.19421 0.40118
# Poissons Ratio (z) = 0.38198 0.47097
#
# Static dielectric constant tensor:
#      x y z
#    x 3.472300 0.000000 0.000000 
#    y 0.000000 3.654020 0.000000 
#    z 0.000000 0.000000 3.155340 
# 
# 
# High freq. dielectric constant tensor:
#      x y z
#    x 1.729720 0.000000 0.000000 
#    y 0.000000 1.736720 0.000000 
#    z 0.000000 0.000000 1.696200 
# 
# From -- ./inp_files/34829.got.cif
#   From: 2010.03.12/outbox.cif.g09.slc.cpg/sg51_18_cif.got.tgz:34829.got - 2010.04.16 13:43:02.
