data_PCOD8208304
_publ_section_title
;
Structure prediction by ZEFSAII (Michael W. Deem and Ramdas Pophale) SiO2 
 PCOD8208304
Probable space group: P M M A
;
_chemical_formula_sum "Si O2"
_cell_formula_units_Z 64
_cell_length_a 8.818599
_cell_length_b 20.137138
_cell_length_c 17.879759
_cell_angle_alpha 90.000000
_cell_angle_beta 90.000000
_cell_angle_gamma 90.000000
_cell_volume 3175.111652
_symmetry_space_group_name_H-M "P M M A"
_symmetry_group_IT_number 51
_symmetry_cell_setting 'orthorhombic'
loop_
_space_group_symop_operation_xyz
x,y,z
1/2-x,-y,z
1/2+x,-y,-z
-x,y,-z
-x,-y,-z
1/2+x,y,-z
1/2-x,y,z
x,-y,z
loop_
_atom_site_type_symbol
_atom_site_label
_atom_site_fract_x
_atom_site_fract_y
_atom_site_fract_z
Si Si1 0.428683 0.121091 0.424337
Si Si2 0.926669 0.294916 0.213108
Si Si3 0.084740 0.924833 0.719408
Si Si4 0.429226 0.389145 0.426347
Si Si5 0.569690 0.795098 0.075461
Si Si6 0.072142 0.744347 0.620514
Si Si7 0.573262 0.573137 0.738452
Si Si8 0.571362 0.923057 0.867862
O O1 0.500000 0.091845 0.500000
O O2 0.250000 0.113364 0.427283
O O3 0.494771 0.078395 0.357172
O O4 0.476565 0.196721 0.414399
O O5 0.750000 0.304760 0.203020
O O6 0.990033 0.249948 0.144959
O O7 0.965695 0.258638 0.291052
O O8 0.993693 0.369481 0.213370
O O9 0.250000 0.887057 0.716098
O O10 0.980878 0.897602 0.786021
O O11 0.120179 0.000000 0.737858
O O12 0.500000 0.425679 0.500000
O O13 0.250000 0.381209 0.436057
O O14 0.513558 0.319136 0.422918
O O15 0.469891 0.427180 0.349757
O O16 0.750000 0.795825 0.072191
O O17 0.511147 0.871492 0.077371
O O18 0.500000 0.763188 0.000000
O O19 0.250000 0.754410 0.605700
O O20 0.750000 0.586282 0.747151
O O21 0.527641 0.500000 0.769493
O O22 0.750000 0.914530 0.874556
O O23 0.524980 0.000000 0.885170
#
# Coordination Sequence:
#
# PCOD8208304 Si02
#       8
#     8   8   8   8   8   8   8   8
#     4  12  24  36  51  72 100 135 178 229 284 335
#     4   9  20  37  58  83 110 143 182 227 275 328
#     4  10  21  38  58  78 102 135 176 222 272 326
#     4  10  19  31  47  71 106 144 182 224 272 325
#     4  11  23  39  60  88 121 153 187 227 275 330
#     4  10  19  34  54  75 101 134 177 224 273 328
#     4   9  19  35  55  80 109 143 185 232 281 333
#     4  10  21  38  61  89 119 152 190 228 270 325
#
# _framework density 20.156772
#
# number of rings (size 3 to 8) (size 9 to 14) (size 15 to 20)
#    0.000    1.875    0.000    4.125    0.000    5.500 
#    0.000    0.000    0.000    0.375    0.000    0.000 
#    0.000    0.000    0.000    0.000    0.000    0.000 
#
# Total GULP energy -793369.286839 kJ/mol
# GULP energy per Si atom -12396.395107 kJ/mol
# Density = 2.011089 g / cm^3
# Si number density = 20.156772 Si / 1000 Ang^3
#
#
#
# Elastic Constant Matrix: (Units=GPa)
#
#
# Indices 1 2 3 4 5 6 
#
# 1 89.8069 23.2166 31.7250 0.0000 0.0000 0.0000
# 2 23.2166 72.3348 28.6703 0.0000 0.0000 0.0000
# 3 31.7250 28.6703 104.4672 0.0000 0.0000 0.0000
# 4 0.0000 0.0000 0.0000 7.0080 0.0000 0.0000
# 5 0.0000 0.0000 0.0000 0.0000 32.8854 0.0000
# 6 0.0000 0.0000 0.0000 0.0000 0.0000 27.2297
#
#
#
# Elastic Compliance Matrix: (Units=1/GPa)
#
#
# Indices 1 2 3 4 5 6 
#
# 1 0.013003 -0.002927 -0.003146 0.000000 0.000000 0.000000
# 2 -0.002927 0.016171 -0.003549 0.000000 0.000000 0.000000
# 3 -0.003146 -0.003549 0.011502 0.000000 0.000000 0.000000
# 4 0.000000 0.000000 0.000000 0.142695 0.000000 0.000000
# 5 0.000000 0.000000 0.000000 0.000000 0.030409 0.000000
# 6 0.000000 0.000000 0.000000 0.000000 0.000000 0.036725
#
#
# Mechanical properties :
#
#
# Convention : Reuss Voigt Hill
#
# Bulk Modulus (GPa) = 46.65821 48.20366 47.43093
# Shear Modulus (GPa) = 18.05770 25.62441 21.84106
#
# Velocity S-wave (km/s) = 2.99634 3.56934 3.29532
# Velocity P-wave (km/s) = 5.93032 6.39947 6.16935
#
# Compressibility (1/GPa) = 0.02143246
#
# Stress axis : x y z
#
# Youngs Moduli (GPa) = 76.90668 61.84042 86.94387
#
# Poissons Ratio (x) = 0.18098 0.27349
# Poissons Ratio (y) = 0.22508 0.30858
# Poissons Ratio (z) = 0.24191 0.21948
#
# Static dielectric constant tensor:
#      x y z
#    x 3.719410 0.000000 0.000000 
#    y 0.000000 3.720660 0.000000 
#    z 0.000000 0.000000 3.817850 
# 
# 
# High freq. dielectric constant tensor:
#      x y z
#    x 1.792600 0.000000 0.000000 
#    y 0.000000 1.777550 0.000000 
#    z 0.000000 0.000000 1.778750 
# 
# From -- ./inp_files/28498.got.cif
#   From: 2010.03.12/outbox.cif.g09.slc.cpg/sg51_15_cif.got.tgz:28498.got - 2010.04.16 13:43:02.
