data_PCOD8208876
_publ_section_title
;
Structure prediction by ZEFSAII (Michael W. Deem and Ramdas Pophale) SiO2 
 PCOD8208876
Probable space group: P M M A
;
_chemical_formula_sum "Si O2"
_cell_formula_units_Z 36
_cell_length_a 8.544849
_cell_length_b 16.220350
_cell_length_c 13.555207
_cell_angle_alpha 90.000000
_cell_angle_beta 90.000000
_cell_angle_gamma 90.000000
_cell_volume 1878.757675
_symmetry_space_group_name_H-M "P M M A"
_symmetry_group_IT_number 51
_symmetry_cell_setting 'orthorhombic'
loop_
_space_group_symop_operation_xyz
x,y,z
1/2-x,-y,z
1/2+x,-y,-z
-x,y,-z
-x,-y,-z
1/2+x,y,-z
1/2-x,y,z
x,-y,z
loop_
_atom_site_type_symbol
_atom_site_label
_atom_site_fract_x
_atom_site_fract_y
_atom_site_fract_z
Si Si1 0.065598 0.590023 0.797210
Si Si2 0.934265 0.681078 0.397106
Si Si3 0.065451 0.000000 0.609817
Si Si4 0.065268 0.162975 0.295056
Si Si5 0.063924 0.245605 0.894427
O O1 0.250000 0.584596 0.808767
O O2 0.991076 0.500000 0.822167
O O3 0.022186 0.613369 0.685021
O O4 0.002227 0.661374 0.870170
O O5 0.750000 0.696944 0.401778
O O6 0.000000 0.646916 0.500000
O O7 0.017583 0.766989 0.372643
O O8 0.000000 0.000000 0.500000
O O9 0.009022 0.078485 0.670143
O O10 0.250000 0.000000 0.602634
O O11 0.250000 0.154338 0.291456
O O12 0.001601 0.182626 0.186057
O O13 0.250000 0.241991 0.891584
O O14 0.000000 0.218130 0.000000
#
# Coordination Sequence:
#
# PCOD8208876 Si02
#       5
#     8   8   4   8   8
#     4   8  16  31  50  74 106 142 182 228 274 322
#     4  10  19  32  51  75 106 145 185 225 273 326
#     4  12  24  40  61  88 119 148 180 218 264 316
#     4  11  22  38  58  82 111 143 182 225 270 320
#     4  10  20  36  58  82 109 144 183 225 275 326
#
# _framework density 19.161598999999999
#
# number of rings (size 3 to 8) (size 9 to 14) (size 15 to 20)
#    0.000    2.000    0.000    6.333    0.000    0.889 
#    0.000    0.556    0.000   22.667    0.000    0.000 
#    0.000    0.000    0.000    0.000    0.000    0.000 
#
# Total GULP energy -446386.655656 kJ/mol
# GULP energy per Si atom -12399.629324 kJ/mol
# Density = 1.911799 g / cm^3
# Si number density = 19.161599 Si / 1000 Ang^3
#
#
#
# Elastic Constant Matrix: (Units=GPa)
#
#
# Indices 1 2 3 4 5 6 
#
# 1 120.0438 40.1115 41.6721 0.0000 0.0000 0.0000
# 2 40.1115 126.3414 43.5806 0.0000 0.0000 0.0000
# 3 41.6721 43.5806 127.5632 0.0000 0.0000 0.0000
# 4 0.0000 0.0000 0.0000 15.0451 0.0000 0.0000
# 5 0.0000 0.0000 0.0000 0.0000 33.3698 0.0000
# 6 0.0000 0.0000 0.0000 0.0000 0.0000 19.3963
#
#
#
# Elastic Compliance Matrix: (Units=1/GPa)
#
#
# Indices 1 2 3 4 5 6 
#
# 1 0.009958 -0.002312 -0.002463 0.000000 0.000000 0.000000
# 2 -0.002312 0.009509 -0.002493 0.000000 0.000000 0.000000
# 3 -0.002463 -0.002493 0.009496 0.000000 0.000000 0.000000
# 4 0.000000 0.000000 0.000000 0.066467 0.000000 0.000000
# 5 0.000000 0.000000 0.000000 0.000000 0.029967 0.000000
# 6 0.000000 0.000000 0.000000 0.000000 0.000000 0.051556
#
#
# Mechanical properties :
#
#
# Convention : Reuss Voigt Hill
#
# Bulk Modulus (GPa) = 69.32023 69.40852 69.36438
# Shear Modulus (GPa) = 25.47140 30.13452 27.80296
#
# Velocity S-wave (km/s) = 3.64990 3.96997 3.81330
# Velocity P-wave (km/s) = 7.34967 7.57070 7.46100
#
# Compressibility (1/GPa) = 0.01442580
#
# Stress axis : x y z
#
# Youngs Moduli (GPa) = 100.42342 105.16203 105.30970
#
# Poissons Ratio (x) = 0.24311 0.25940
# Poissons Ratio (y) = 0.23216 0.26259
# Poissons Ratio (z) = 0.24736 0.26222
#
# Static dielectric constant tensor:
#      x y z
#    x 3.446210 0.000000 0.000000 
#    y 0.000000 3.681460 0.000000 
#    z 0.000000 0.000000 3.308520 
# 
# 
# High freq. dielectric constant tensor:
#      x y z
#    x 1.742390 0.000000 0.000000 
#    y 0.000000 1.741630 0.000000 
#    z 0.000000 0.000000 1.749700 
# 
# From -- ./inp_files/20364.got.cif
#   From: 2010.03.12/outbox.cif.g09.slc.cpg/sg51_11_cif.got.tgz:20364.got - 2010.04.16 13:43:02.
