data_PCOD8208321
_publ_section_title
;
Structure prediction by ZEFSAII (Michael W. Deem and Ramdas Pophale) SiO2 
 PCOD8208321
Probable space group: P M M A
;
_chemical_formula_sum "Si O2"
_cell_formula_units_Z 56
_cell_length_a 24.858758
_cell_length_b 9.079530
_cell_length_c 15.100219
_cell_angle_alpha 90.000000
_cell_angle_beta 90.000000
_cell_angle_gamma 90.000000
_cell_volume 3408.207599
_symmetry_space_group_name_H-M "P M M A"
_symmetry_group_IT_number 51
_symmetry_cell_setting 'orthorhombic'
loop_
_space_group_symop_operation_xyz
x,y,z
1/2-x,-y,z
1/2+x,-y,-z
-x,y,-z
-x,-y,-z
1/2+x,y,-z
1/2-x,y,z
x,-y,z
loop_
_atom_site_type_symbol
_atom_site_label
_atom_site_fract_x
_atom_site_fract_y
_atom_site_fract_z
Si Si1 0.814046 0.166042 0.073314
Si Si2 0.398072 0.670772 0.608274
Si Si3 0.686543 0.829970 0.726032
Si Si4 0.109975 0.327000 0.403828
Si Si5 0.811343 0.671571 0.248338
Si Si6 0.814046 0.333751 0.901694
Si Si7 0.996582 0.166093 0.605094
O O1 0.750000 0.168106 0.070108
O O2 0.834070 0.241253 0.163696
O O3 0.836264 0.000000 0.069326
O O4 0.837316 0.255455 0.989512
O O5 0.413006 0.500000 0.617279
O O6 0.383884 0.710178 0.507390
O O7 0.346630 0.714503 0.666708
O O8 0.449290 0.761538 0.643876
O O9 0.750000 0.811230 0.715885
O O10 0.660445 0.748054 0.643064
O O11 0.665514 0.755898 0.816482
O O12 0.669337 0.000000 0.727142
O O13 0.110212 0.500000 0.385298
O O14 0.054990 0.259662 0.364089
O O15 0.750000 0.716616 0.270186
O O16 0.815444 0.500000 0.225457
O O17 0.750000 0.334123 0.904641
O O18 0.836466 0.500000 0.897097
O O19 0.000000 0.169555 0.500000
O O20 0.991239 0.000000 0.641193
#
# Coordination Sequence:
#
# PCOD8208321 Si02
#       7
#     8   8   8   8   8   8   8
#     4   9  16  26  41  62  88 117 149 186 226 266
#     4   9  18  31  47  67  91 120 155 194 231 267
#     4  10  20  32  45  65  95 126 154 186 226 273
#     4  10  19  31  48  68  91 120 155 193 230 270
#     4   9  17  29  44  64  92 124 155 186 223 269
#     4   9  16  27  44  64  86 115 151 188 225 266
#     4   9  17  30  48  67  87 113 149 193 236 274
#
# _framework density 16.430924999999998
#
# number of rings (size 3 to 8) (size 9 to 14) (size 15 to 20)
#    0.000    2.714    0.000    2.143    0.000    7.714 
#    0.000    1.429    0.000    1.714    0.000    1.000 
#    0.000    8.000    0.000    0.000    0.000    0.000 
#
# Total GULP energy -694420.899734 kJ/mol
# GULP energy per Si atom -12400.373210 kJ/mol
# Density = 1.639353 g / cm^3
# Si number density = 16.430925 Si / 1000 Ang^3
#
#
#
# Elastic Constant Matrix: (Units=GPa)
#
#
# Indices 1 2 3 4 5 6 
#
# 1 53.3785 42.9039 41.7693 0.0000 0.0000 0.0000
# 2 42.9039 123.0468 61.3774 0.0000 0.0000 0.0000
# 3 41.7693 61.3774 96.5989 0.0000 0.0000 0.0000
# 4 0.0000 0.0000 0.0000 26.7749 0.0000 0.0000
# 5 0.0000 0.0000 0.0000 0.0000 2.9175 0.0000
# 6 0.0000 0.0000 0.0000 0.0000 0.0000 24.2825
#
#
#
# Elastic Compliance Matrix: (Units=1/GPa)
#
#
# Indices 1 2 3 4 5 6 
#
# 1 0.031122 -0.006060 -0.009607 0.000000 0.000000 0.000000
# 2 -0.006060 0.013078 -0.005689 0.000000 0.000000 0.000000
# 3 -0.009607 -0.005689 0.018121 0.000000 0.000000 0.000000
# 4 0.000000 0.000000 0.000000 0.037348 0.000000 0.000000
# 5 0.000000 0.000000 0.000000 0.000000 0.342761 0.000000
# 6 0.000000 0.000000 0.000000 0.000000 0.000000 0.041182
#
#
# Mechanical properties :
#
#
# Convention : Reuss Voigt Hill
#
# Bulk Modulus (GPa) = 50.99633 62.79172 56.89402
# Shear Modulus (GPa) = 9.38332 19.25988 14.32160
#
# Velocity S-wave (km/s) = 2.39231 3.42741 2.95553
# Velocity P-wave (km/s) = 6.22375 7.34584 6.80795
#
# Compressibility (1/GPa) = 0.01960926
#
# Stress axis : x y z
#
# Youngs Moduli (GPa) = 32.13129 76.46612 55.18453
#
# Poissons Ratio (x) = 0.46335 0.53016
# Poissons Ratio (y) = 0.19470 0.31396
# Poissons Ratio (z) = 0.30869 0.43503
#
# Static dielectric constant tensor:
#      x y z
#    x 2.845980 0.000000 0.000000 
#    y 0.000000 3.287350 0.000000 
#    z 0.000000 0.000000 3.050320 
# 
# 
# High freq. dielectric constant tensor:
#      x y z
#    x 1.593720 0.000000 0.000000 
#    y 0.000000 1.648460 0.000000 
#    z 0.000000 0.000000 1.620510 
# 
# From -- ./inp_files/25662.got.cif
#   From: 2010.03.12/outbox.cif.g09.slc.cpg/sg51_13_cif.got.tgz:25662.got - 2010.04.16 13:43:02.
