data_PCOD8208142
_publ_section_title
;
Structure prediction by ZEFSAII (Michael W. Deem and Ramdas Pophale) SiO2 
 PCOD8208142
Probable space group: P M M A
;
_chemical_formula_sum "Si O2"
_cell_formula_units_Z 64
_cell_length_a 9.089955
_cell_length_b 24.580641
_cell_length_c 15.336650
_cell_angle_alpha 90.000000
_cell_angle_beta 90.000000
_cell_angle_gamma 90.000000
_cell_volume 3426.773848
_symmetry_space_group_name_H-M "P M M A"
_symmetry_group_IT_number 51
_symmetry_cell_setting 'orthorhombic'
loop_
_space_group_symop_operation_xyz
x,y,z
1/2-x,-y,z
1/2+x,-y,-z
-x,y,-z
-x,-y,-z
1/2+x,y,-z
1/2-x,y,z
x,-y,z
loop_
_atom_site_type_symbol
_atom_site_label
_atom_site_fract_x
_atom_site_fract_y
_atom_site_fract_z
Si Si1 0.077754 0.562351 0.587651
Si Si2 0.424591 0.939211 0.267714
Si Si3 0.916929 0.099633 0.916815
Si Si4 0.414796 0.216780 0.141984
Si Si5 0.578088 0.643653 0.263055
Si Si6 0.420836 0.235260 0.688962
Si Si7 0.574964 0.146510 0.588859
Si Si8 0.920256 0.663659 0.913416
O O1 0.250000 0.569972 0.573004
O O2 0.034424 0.500000 0.606250
O O3 0.024600 0.596866 0.670926
O O4 0.000000 0.583747 0.500000
O O5 0.250000 0.935303 0.263995
O O6 0.487746 0.923076 0.172679
O O7 0.481561 0.896825 0.339527
O O8 0.477379 0.000000 0.292430
O O9 0.750000 0.079884 0.924058
O O10 0.929943 0.165110 0.920655
O O11 0.000000 0.074867 0.000000
O O12 0.250000 0.218100 0.183605
O O13 0.533212 0.210276 0.218317
O O14 0.443245 0.271324 0.087383
O O15 0.750000 0.639031 0.240388
O O16 0.543032 0.700670 0.310491
O O17 0.489867 0.636920 0.172991
O O18 0.250000 0.223690 0.672043
O O19 0.515742 0.206514 0.613561
O O20 0.500000 0.127362 0.500000
O O21 0.750000 0.147951 0.579041
O O22 0.750000 0.647165 0.917485
O O23 0.000000 0.640821 0.000000
#
# Coordination Sequence:
#
# PCOD8208142 Si02
#       8
#     8   8   8   8   8   8   8   8
#     4   9  18  34  56  80 107 140 178 222 269 315
#     4   9  19  37  58  75  98 134 170 210 261 313
#     4  10  19  32  51  76 103 133 168 205 251 304
#     4   9  17  31  49  72 102 139 175 208 253 306
#     4   9  19  34  52  78 111 144 180 219 261 312
#     4  10  19  32  52  78 108 139 171 208 255 306
#     4  11  22  38  58  79 104 133 170 212 260 317
#     4  10  19  30  48  74 108 145 183 221 264 312
#
# _framework density 18.676458
#
# number of rings (size 3 to 8) (size 9 to 14) (size 15 to 20)
#    0.000    2.375    1.250    1.500    0.000    3.000 
#    0.000    1.250    0.000    3.000    0.000    0.000 
#    0.000    0.000    0.000    0.000    0.000    0.000 
#
# Total GULP energy -793582.777631 kJ/mol
# GULP energy per Si atom -12399.730900 kJ/mol
# Density = 1.863395 g / cm^3
# Si number density = 18.676458 Si / 1000 Ang^3
#
#
#
# Elastic Constant Matrix: (Units=GPa)
#
#
# Indices 1 2 3 4 5 6 
#
# 1 72.8140 32.8819 62.7064 0.0000 0.0000 0.0000
# 2 32.8819 73.1999 61.3623 0.0000 0.0000 0.0000
# 3 62.7064 61.3623 158.1744 0.0000 0.0000 0.0000
# 4 0.0000 0.0000 0.0000 20.6629 0.0000 0.0000
# 5 0.0000 0.0000 0.0000 0.0000 37.5611 0.0000
# 6 0.0000 0.0000 0.0000 0.0000 0.0000 16.5286
#
#
#
# Elastic Compliance Matrix: (Units=1/GPa)
#
#
# Indices 1 2 3 4 5 6 
#
# 1 0.021518 -0.003727 -0.007085 0.000000 0.000000 0.000000
# 2 -0.003727 0.020891 -0.006627 0.000000 0.000000 0.000000
# 3 -0.007085 -0.006627 0.011702 0.000000 0.000000 0.000000
# 4 0.000000 0.000000 0.000000 0.048396 0.000000 0.000000
# 5 0.000000 0.000000 0.000000 0.000000 0.026623 0.000000
# 6 0.000000 0.000000 0.000000 0.000000 0.000000 0.060501
#
#
# Mechanical properties :
#
#
# Convention : Reuss Voigt Hill
#
# Bulk Modulus (GPa) = 51.99368 68.67661 60.33515
# Shear Modulus (GPa) = 21.65267 24.76636 23.20951
#
# Velocity S-wave (km/s) = 3.40863 3.64548 3.52904
# Velocity P-wave (km/s) = 6.58720 7.38721 6.99865
#
# Compressibility (1/GPa) = 0.01923311
#
# Stress axis : x y z
#
# Youngs Moduli (GPa) = 46.47293 47.86855 85.45885
#
# Poissons Ratio (x) = 0.17841 0.60545
# Poissons Ratio (y) = 0.17321 0.56631
# Poissons Ratio (z) = 0.32924 0.31721
#
# Static dielectric constant tensor:
#      x y z
#    x 3.321440 0.000000 0.000000 
#    y 0.000000 3.365140 0.000000 
#    z 0.000000 0.000000 3.383750 
# 
# 
# High freq. dielectric constant tensor:
#      x y z
#    x 1.713420 0.000000 0.000000 
#    y 0.000000 1.706390 0.000000 
#    z 0.000000 0.000000 1.725010 
# 
# From -- ./inp_files/22207.got.cif
#   From: 2010.03.12/outbox.cif.g09.slc.cpg/sg51_12_cif.got.tgz:22207.got - 2010.04.16 13:43:02.
