data_PCOD8208172
_publ_section_title
;
Structure prediction by ZEFSAII (Michael W. Deem and Ramdas Pophale) SiO2 
 PCOD8208172
Probable space group: P M M A
;
_chemical_formula_sum "Si O2"
_cell_formula_units_Z 64
_cell_length_a 33.402044
_cell_length_b 8.835255
_cell_length_c 11.394517
_cell_angle_alpha 90.000000
_cell_angle_beta 90.000000
_cell_angle_gamma 90.000000
_cell_volume 3362.699451
_symmetry_space_group_name_H-M "P M M A"
_symmetry_group_IT_number 51
_symmetry_cell_setting 'orthorhombic'
loop_
_space_group_symop_operation_xyz
x,y,z
1/2-x,-y,z
1/2+x,-y,-z
-x,y,-z
-x,-y,-z
1/2+x,y,-z
1/2-x,y,z
x,-y,z
loop_
_atom_site_type_symbol
_atom_site_label
_atom_site_fract_x
_atom_site_fract_y
_atom_site_fract_z
Si Si1 0.931592 0.821417 0.556755
Si Si2 0.066898 0.325295 0.688703
Si Si3 0.204784 0.678098 0.943184
Si Si4 0.363082 0.327770 0.309844
Si Si5 0.413691 0.670232 0.074500
Si Si6 0.626851 0.177730 0.140717
Si Si7 0.019697 0.673630 0.242760
Si Si8 0.295582 0.171897 0.191239
O O1 0.944643 0.750688 0.433760
O O2 0.888260 0.755631 0.590138
O O3 0.964780 0.779743 0.653006
O O4 0.928888 0.000000 0.544945
O O5 0.077425 0.500000 0.668776
O O6 0.104844 0.244330 0.746003
O O7 0.027933 0.306653 0.772846
O O8 0.250000 0.722451 0.902950
O O9 0.198052 0.500000 0.937761
O O10 0.171988 0.756934 0.860620
O O11 0.197163 0.729694 0.075589
O O12 0.355698 0.500000 0.348509
O O13 0.385230 0.316552 0.186111
O O14 0.320945 0.241669 0.297733
O O15 0.412762 0.500000 0.021987
O O16 0.458473 0.714182 0.119203
O O17 0.398461 0.783449 0.975468
O O18 0.629666 0.000000 0.154057
O O19 0.031020 0.500000 0.276026
O O20 0.250000 0.179023 0.232929
O O21 0.308907 0.000000 0.164065
#
# Coordination Sequence:
#
# PCOD8208172 Si02
#       8
#     8   8   8   8   8   8   8   8
#     4  11  22  36  57  83 111 140 179 233 285 327
#     4  11  23  40  59  78 106 146 193 233 271 326
#     4  10  20  35  56  81 110 147 187 224 266 323
#     4  10  19  33  55  79 108 146 185 222 267 328
#     4   9  18  34  54  78 108 144 184 222 271 328
#     4  12  24  36  54  81 116 149 183 229 281 330
#     4   9  20  38  60  82 106 143 187 231 276 329
#     4  10  19  30  49  81 116 144 174 220 277 328
#
# _framework density 19.032328
#
# number of rings (size 3 to 8) (size 9 to 14) (size 15 to 20)
#    0.000    1.750    1.250    4.875    0.000    6.500 
#    0.000    2.500    0.000    0.750    0.000    0.000 
#    0.000    0.000    0.000    0.000    0.000    0.000 
#
# Total GULP energy -793729.047555 kJ/mol
# GULP energy per Si atom -12402.016368 kJ/mol
# Density = 1.898901 g / cm^3
# Si number density = 19.032328 Si / 1000 Ang^3
#
#
#
# Elastic Constant Matrix: (Units=GPa)
#
#
# Indices 1 2 3 4 5 6 
#
# 1 110.6137 48.2464 19.2705 0.0000 0.0000 0.0000
# 2 48.2464 131.5826 24.1364 0.0000 0.0000 0.0000
# 3 19.2705 24.1364 34.5649 0.0000 0.0000 0.0000
# 4 0.0000 0.0000 0.0000 24.3071 0.0000 0.0000
# 5 0.0000 0.0000 0.0000 0.0000 24.3583 0.0000
# 6 0.0000 0.0000 0.0000 0.0000 0.0000 26.8584
#
#
#
# Elastic Compliance Matrix: (Units=1/GPa)
#
#
# Indices 1 2 3 4 5 6 
#
# 1 0.011196 -0.003395 -0.003871 0.000000 0.000000 0.000000
# 2 -0.003395 0.009746 -0.004913 0.000000 0.000000 0.000000
# 3 -0.003871 -0.004913 0.034520 0.000000 0.000000 0.000000
# 4 0.000000 0.000000 0.000000 0.041140 0.000000 0.000000
# 5 0.000000 0.000000 0.000000 0.000000 0.041054 0.000000
# 6 0.000000 0.000000 0.000000 0.000000 0.000000 0.037232
#
#
# Mechanical properties :
#
#
# Convention : Reuss Voigt Hill
#
# Bulk Modulus (GPa) = 32.15043 51.11862 41.63453
# Shear Modulus (GPa) = 23.85353 27.44530 25.64941
#
# Velocity S-wave (km/s) = 3.54406 3.80153 3.67505
# Velocity P-wave (km/s) = 5.80313 6.79603 6.31911
#
# Compressibility (1/GPa) = 0.03110378
#
# Stress axis : x y z
#
# Youngs Moduli (GPa) = 89.32049 102.60915 28.96895
#
# Poissons Ratio (x) = 0.34835 0.11214
# Poissons Ratio (y) = 0.30324 0.14231
# Poissons Ratio (z) = 0.34577 0.50408
#
# Static dielectric constant tensor:
#      x y z
#    x 3.747490 0.000000 0.000000 
#    y 0.000000 3.538000 0.000000 
#    z 0.000000 0.000000 3.177200 
# 
# 
# High freq. dielectric constant tensor:
#      x y z
#    x 1.748740 0.000000 0.000000 
#    y 0.000000 1.748910 0.000000 
#    z 0.000000 0.000000 1.703600 
# 
# From -- ./inp_files/19565.got.cif
#   From: 2010.03.12/outbox.cif.g09.slc.cpg/sg51_10_cif.got.tgz:19565.got - 2010.04.16 13:43:02.
