data_PCOD8208092
_publ_section_title
;
Structure prediction by ZEFSAII (Michael W. Deem and Ramdas Pophale) SiO2 
 PCOD8208092
Probable space group: P M M A
;
_chemical_formula_sum "Si O2"
_cell_formula_units_Z 48
_cell_length_a 8.855577
_cell_length_b 30.330401
_cell_length_c 9.664407
_cell_angle_alpha 90.000000
_cell_angle_beta 90.000000
_cell_angle_gamma 90.000000
_cell_volume 2595.794017
_symmetry_space_group_name_H-M "P M M A"
_symmetry_group_IT_number 51
_symmetry_cell_setting 'orthorhombic'
loop_
_space_group_symop_operation_xyz
x,y,z
1/2-x,-y,z
1/2+x,-y,-z
-x,y,-z
-x,-y,-z
1/2+x,y,-z
1/2-x,y,z
x,-y,z
loop_
_atom_site_type_symbol
_atom_site_label
_atom_site_fract_x
_atom_site_fract_y
_atom_site_fract_z
Si Si1 0.572264 0.291457 0.857744
Si Si2 0.072776 0.192204 0.142529
Si Si3 0.428870 0.633809 0.349529
Si Si4 0.924615 0.051818 0.142801
Si Si5 0.926814 0.452191 0.350107
Si Si6 0.071160 0.116724 0.349828
O O1 0.750000 0.293551 0.875853
O O2 0.518299 0.241813 0.821148
O O3 0.517197 0.324019 0.737510
O O4 0.500000 0.307808 0.000000
O O5 0.250000 0.190346 0.120525
O O6 0.021775 0.160531 0.266741
O O7 0.000000 0.175410 0.000000
O O8 0.500000 0.639267 0.500000
O O9 0.250000 0.630775 0.360445
O O10 0.492309 0.589151 0.274201
O O11 0.750000 0.065593 0.139409
O O12 0.007157 0.074128 0.271864
O O13 0.945980 0.000000 0.162835
O O14 0.000000 0.067897 0.000000
O O15 0.750000 0.442262 0.364096
O O16 0.953522 0.500000 0.275520
O O17 0.000000 0.454792 0.500000
O O18 0.250000 0.112188 0.362597
O O19 0.000000 0.120012 0.500000
#
# Coordination Sequence:
#
# PCOD8208092 Si02
#       6
#     8   8   8   8   8   8
#     4   9  19  35  53  74 100 131 168 207 250 301
#     4   9  19  36  56  77 101 132 171 212 253 302
#     4  10  19  30  47  72 100 129 162 202 247 296
#     4  10  21  38  60  84 110 142 180 220 261 308
#     4   9  16  26  42  65  93 125 161 201 244 291
#     4  11  23  37  55  80 111 144 177 217 264 312
#
# _framework density 18.491451999999999
#
# number of rings (size 3 to 8) (size 9 to 14) (size 15 to 20)
#    0.000    2.333    0.000    3.500    0.000    7.000 
#    0.000    0.000    0.000    0.500    0.000    0.000 
#    0.000    0.000    0.000    0.000    0.000    0.000 
#
# Total GULP energy -595075.140401 kJ/mol
# GULP energy per Si atom -12397.398758 kJ/mol
# Density = 1.844936 g / cm^3
# Si number density = 18.491452 Si / 1000 Ang^3
#
#
#
# Elastic Constant Matrix: (Units=GPa)
#
#
# Indices 1 2 3 4 5 6 
#
# 1 83.8803 54.0618 51.9619 0.0000 0.0000 0.0000
# 2 54.0618 113.3507 73.8170 0.0000 0.0000 0.0000
# 3 51.9619 73.8170 124.7711 0.0000 0.0000 0.0000
# 4 0.0000 0.0000 0.0000 12.3649 0.0000 0.0000
# 5 0.0000 0.0000 0.0000 0.0000 31.3355 0.0000
# 6 0.0000 0.0000 0.0000 0.0000 0.0000 31.0865
#
#
#
# Elastic Compliance Matrix: (Units=1/GPa)
#
#
# Indices 1 2 3 4 5 6 
#
# 1 0.018370 -0.006148 -0.004013 0.000000 0.000000 0.000000
# 2 -0.006148 0.016409 -0.007148 0.000000 0.000000 0.000000
# 3 -0.004013 -0.007148 0.013915 0.000000 0.000000 0.000000
# 4 0.000000 0.000000 0.000000 0.080874 0.000000 0.000000
# 5 0.000000 0.000000 0.000000 0.000000 0.031913 0.000000
# 6 0.000000 0.000000 0.000000 0.000000 0.000000 0.032168
#
#
# Mechanical properties :
#
#
# Convention : Reuss Voigt Hill
#
# Bulk Modulus (GPa) = 71.04041 75.74263 73.39152
# Shear Modulus (GPa) = 21.46303 24.43481 22.94892
#
# Velocity S-wave (km/s) = 3.41060 3.63907 3.52668
# Velocity P-wave (km/s) = 7.34922 7.66204 7.50726
#
# Compressibility (1/GPa) = 0.01407650
#
# Stress axis : x y z
#
# Youngs Moduli (GPa) = 54.43556 60.94157 71.86707
#
# Poissons Ratio (x) = 0.37468 0.28841
# Poissons Ratio (y) = 0.33468 0.51367
# Poissons Ratio (z) = 0.21846 0.43558
#
# Static dielectric constant tensor:
#      x y z
#    x 3.466110 0.000000 0.000000 
#    y 0.000000 4.089850 0.000000 
#    z 0.000000 0.000000 3.241980 
# 
# 
# High freq. dielectric constant tensor:
#      x y z
#    x 1.726600 0.000000 0.000000 
#    y 0.000000 1.737190 0.000000 
#    z 0.000000 0.000000 1.686670 
# 
# From -- ./inp_files/6089.got.cif
#   From: 2010.03.12/outbox.cif.g09.slc.cpg/sg51_4_cif.got.tgz:6089.got - 2010.04.16 13:43:02.
