data_PCOD8208375
_publ_section_title
;
Structure prediction by ZEFSAII (Michael W. Deem and Ramdas Pophale) SiO2 
 PCOD8208375
Probable space group: P M M A
;
_chemical_formula_sum "Si O2"
_cell_formula_units_Z 64
_cell_length_a 9.856676
_cell_length_b 20.385241
_cell_length_c 19.214025
_cell_angle_alpha 90.000000
_cell_angle_beta 90.000000
_cell_angle_gamma 90.000000
_cell_volume 3860.687795
_symmetry_space_group_name_H-M "P M M A"
_symmetry_group_IT_number 51
_symmetry_cell_setting 'orthorhombic'
loop_
_space_group_symop_operation_xyz
x,y,z
1/2-x,-y,z
1/2+x,-y,-z
-x,y,-z
-x,-y,-z
1/2+x,y,-z
1/2-x,y,z
x,-y,z
loop_
_atom_site_type_symbol
_atom_site_label
_atom_site_fract_x
_atom_site_fract_y
_atom_site_fract_z
Si Si1 0.095172 0.574831 0.062650
Si Si2 0.095932 0.073654 0.166782
Si Si3 0.099801 0.727056 0.557902
Si Si4 0.908166 0.190877 0.932473
Si Si5 0.092225 0.118948 0.713986
Si Si6 0.594268 0.311702 0.833065
Si Si7 0.400356 0.883278 0.558145
Si Si8 0.907503 0.271508 0.286422
O O1 0.250000 0.583348 0.037397
O O2 0.063475 0.500000 0.084163
O O3 0.065747 0.619768 0.128913
O O4 0.000000 0.598233 0.000000
O O5 0.250000 0.089708 0.190304
O O6 0.051411 0.123725 0.106538
O O7 0.999605 0.078211 0.233497
O O8 0.084614 0.000000 0.136562
O O9 0.250000 0.700274 0.541519
O O10 0.100328 0.805175 0.554536
O O11 0.055278 0.705463 0.635338
O O12 0.000000 0.696668 0.500000
O O13 0.750000 0.191739 0.954078
O O14 0.944496 0.251676 0.883137
O O15 0.000000 0.196892 0.000000
O O16 0.250000 0.105037 0.729526
O O17 0.055033 0.095420 0.635765
O O18 0.058688 0.195244 0.723440
O O19 0.750000 0.305498 0.809094
O O20 0.499978 0.312956 0.765490
O O21 0.500000 0.913600 0.500000
O O22 0.250000 0.910240 0.542226
O O23 0.750000 0.285141 0.270554
#
# Coordination Sequence:
#
# PCOD8208375 Si02
#       8
#     8   8   8   8   8   8   8   8
#     4   9  18  32  49  70  97 128 161 195 230 272
#     4  10  21  36  51  67  89 116 148 190 236 280
#     4   8  14  24  37  58  89 122 153 185 223 269
#     4  10  21  35  50  70  92 115 147 186 228 276
#     4   9  17  30  47  67  91 118 151 190 230 275
#     4  10  19  31  48  71  97 125 157 190 227 272
#     4   8  14  24  39  62  89 115 145 181 222 268
#     4   9  17  28  44  67  95 124 155 192 232 272
#
# _framework density 16.577358
#
# number of rings (size 3 to 8) (size 9 to 14) (size 15 to 20)
#    0.000    2.875    1.250    1.875    0.000    3.000 
#    0.000    2.500    0.000    0.375    0.000    0.000 
#    0.000    0.500    0.000    1.125    0.000    1.750 
#
# Total GULP energy -793484.449589 kJ/mol
# GULP energy per Si atom -12398.194525 kJ/mol
# Density = 1.653963 g / cm^3
# Si number density = 16.577358 Si / 1000 Ang^3
#
#
#
# Elastic Constant Matrix: (Units=GPa)
#
#
# Indices 1 2 3 4 5 6 
#
# 1 82.0492 29.3604 74.6861 0.0000 0.0000 0.0000
# 2 29.3604 54.2958 35.3091 0.0000 0.0000 0.0000
# 3 74.6861 35.3091 120.3138 0.0000 0.0000 0.0000
# 4 0.0000 0.0000 0.0000 12.7292 0.0000 0.0000
# 5 0.0000 0.0000 0.0000 0.0000 39.9683 0.0000
# 6 0.0000 0.0000 0.0000 0.0000 0.0000 14.7891
#
#
#
# Elastic Compliance Matrix: (Units=1/GPa)
#
#
# Indices 1 2 3 4 5 6 
#
# 1 0.029048 -0.004920 -0.016588 0.000000 0.000000 0.000000
# 2 -0.004920 0.023595 -0.003870 0.000000 0.000000 0.000000
# 3 -0.016588 -0.003870 0.019744 0.000000 0.000000 0.000000
# 4 0.000000 0.000000 0.000000 0.078560 0.000000 0.000000
# 5 0.000000 0.000000 0.000000 0.000000 0.025020 0.000000
# 6 0.000000 0.000000 0.000000 0.000000 0.000000 0.067617
#
#
# Mechanical properties :
#
#
# Convention : Reuss Voigt Hill
#
# Bulk Modulus (GPa) = 46.23057 59.48555 52.85806
# Shear Modulus (GPa) = 16.58098 21.31753 18.94926
#
# Velocity S-wave (km/s) = 3.16605 3.58989 3.38462
# Velocity P-wave (km/s) = 6.42756 7.29004 6.87234
#
# Compressibility (1/GPa) = 0.02163071
#
# Stress axis : x y z
#
# Youngs Moduli (GPa) = 34.42636 42.38155 50.64753
#
# Poissons Ratio (x) = 0.20853 0.84012
# Poissons Ratio (y) = 0.16939 0.19602
# Poissons Ratio (z) = 0.57105 0.16403
#
# Static dielectric constant tensor:
#      x y z
#    x 3.258260 0.000000 0.000000 
#    y 0.000000 2.849410 0.000000 
#    z 0.000000 0.000000 3.122180 
# 
# 
# High freq. dielectric constant tensor:
#      x y z
#    x 1.642920 0.000000 0.000000 
#    y 0.000000 1.601360 0.000000 
#    z 0.000000 0.000000 1.635260 
# 
# From -- ./inp_files/32638.got.cif
#   From: 2010.03.12/outbox.cif.g09.slc.cpg/sg51_17_cif.got.tgz:32638.got - 2010.04.16 13:43:02.
