data_PCOD8208187
_publ_section_title
;
Structure prediction by ZEFSAII (Michael W. Deem and Ramdas Pophale) SiO2 
 PCOD8208187
Probable space group: P M M A
;
_chemical_formula_sum "Si O2"
_cell_formula_units_Z 64
_cell_length_a 9.253155
_cell_length_b 14.539940
_cell_length_c 25.851041
_cell_angle_alpha 90.000000
_cell_angle_beta 90.000000
_cell_angle_gamma 90.000000
_cell_volume 3478.007290
_symmetry_space_group_name_H-M "P M M A"
_symmetry_group_IT_number 51
_symmetry_cell_setting 'orthorhombic'
loop_
_space_group_symop_operation_xyz
x,y,z
1/2-x,-y,z
1/2+x,-y,-z
-x,y,-z
-x,-y,-z
1/2+x,y,-z
1/2-x,y,z
x,-y,z
loop_
_atom_site_type_symbol
_atom_site_label
_atom_site_fract_x
_atom_site_fract_y
_atom_site_fract_z
Si Si1 0.582598 0.223033 0.448549
Si Si2 0.078605 0.897053 0.759921
Si Si3 0.411449 0.609177 0.289490
Si Si4 0.919065 0.894471 0.947031
Si Si5 0.416181 0.603354 0.612026
Si Si6 0.415918 0.603387 0.810463
Si Si7 0.578670 0.895643 0.353800
Si Si8 0.582318 0.212450 0.140472
O O1 0.500000 0.193655 0.500000
O O2 0.750000 0.199168 0.456910
O O3 0.559106 0.331548 0.437483
O O4 0.516183 0.167352 0.399787
O O5 0.250000 0.898629 0.757988
O O6 0.020900 0.864126 0.703228
O O7 0.026024 0.829686 0.805255
O O8 0.020890 0.000000 0.771657
O O9 0.250000 0.649921 0.288994
O O10 0.410229 0.500000 0.291507
O O11 0.494021 0.645082 0.340163
O O12 0.492336 0.640335 0.237740
O O13 0.750000 0.874360 0.954400
O O14 0.982920 0.826504 0.904489
O O15 0.946544 0.000000 0.930202
O O16 0.000000 0.872249 0.000000
O O17 0.250000 0.605217 0.629714
O O18 0.464968 0.500000 0.596830
O O19 0.250000 0.603613 0.792344
O O20 0.461803 0.500000 0.828507
O O21 0.438286 0.676591 0.856944
O O22 0.750000 0.887053 0.354050
O O23 0.529677 0.000000 0.364296
O O24 0.750000 0.186499 0.130057
#
# Coordination Sequence:
#
# PCOD8208187 Si02
#       8
#     8   8   8   8   8   8   8   8
#     4  10  21  34  50  69  91 119 157 202 246 298
#     4   8  14  25  44  72 101 126 159 203 247 297
#     4   9  17  29  46  69  96 128 166 207 251 300
#     4  10  21  37  57  81 112 147 181 221 267 314
#     4   9  18  32  49  68  91 121 155 194 244 303
#     4   9  18  31  47  72 108 146 181 218 259 304
#     4   8  15  29  48  69  93 122 157 199 244 292
#     4  10  19  30  52  81 108 142 182 221 260 306
#
# _framework density 18.401340999999999
#
# number of rings (size 3 to 8) (size 9 to 14) (size 15 to 20)
#    0.000    2.875    0.000    1.875    1.750    4.250 
#    0.000    0.000    0.000    0.375    0.000    1.750 
#    0.000    0.000    0.000    0.000    0.000    0.000 
#
# Total GULP energy -793289.512182 kJ/mol
# GULP energy per Si atom -12395.148628 kJ/mol
# Density = 1.835946 g / cm^3
# Si number density = 18.401341 Si / 1000 Ang^3
#
#
#
# Elastic Constant Matrix: (Units=GPa)
#
#
# Indices 1 2 3 4 5 6 
#
# 1 64.9187 25.9909 47.6053 0.0000 0.0000 0.0000
# 2 25.9909 83.6416 60.9637 0.0000 0.0000 0.0000
# 3 47.6053 60.9637 124.2693 0.0000 0.0000 0.0000
# 4 0.0000 0.0000 0.0000 26.5337 0.0000 0.0000
# 5 0.0000 0.0000 0.0000 0.0000 30.3093 0.0000
# 6 0.0000 0.0000 0.0000 0.0000 0.0000 14.8985
#
#
#
# Elastic Compliance Matrix: (Units=1/GPa)
#
#
# Indices 1 2 3 4 5 6 
#
# 1 0.021481 -0.001054 -0.007712 0.000000 0.000000 0.000000
# 2 -0.001054 0.018662 -0.008751 0.000000 0.000000 0.000000
# 3 -0.007712 -0.008751 0.015295 0.000000 0.000000 0.000000
# 4 0.000000 0.000000 0.000000 0.037688 0.000000 0.000000
# 5 0.000000 0.000000 0.000000 0.000000 0.032993 0.000000
# 6 0.000000 0.000000 0.000000 0.000000 0.000000 0.067121
#
#
# Mechanical properties :
#
#
# Convention : Reuss Voigt Hill
#
# Bulk Modulus (GPa) = 49.01266 60.21662 54.61464
# Shear Modulus (GPa) = 21.26980 23.56627 22.41803
#
# Velocity S-wave (km/s) = 3.40352 3.58254 3.49418
# Velocity P-wave (km/s) = 6.49141 7.06455 6.78404
#
# Compressibility (1/GPa) = 0.02040289
#
# Stress axis : x y z
#
# Youngs Moduli (GPa) = 46.55259 53.58525 65.38286
#
# Poissons Ratio (x) = 0.05648 0.50423
# Poissons Ratio (y) = 0.04907 0.57218
# Poissons Ratio (z) = 0.35901 0.46894
#
# Static dielectric constant tensor:
#      x y z
#    x 3.167090 0.000000 0.000000 
#    y 0.000000 3.489830 0.000000 
#    z 0.000000 0.000000 3.387770 
# 
# 
# High freq. dielectric constant tensor:
#      x y z
#    x 1.682330 0.000000 0.000000 
#    y 0.000000 1.713480 0.000000 
#    z 0.000000 0.000000 1.697540 
# 
# From -- ./inp_files/34939.got.cif
#   From: 2010.03.12/outbox.cif.g09.slc.cpg/sg51_18_cif.got.tgz:34939.got - 2010.04.16 13:43:02.
