data_PCOD8208451
_publ_section_title
;
Structure prediction by ZEFSAII (Michael W. Deem and Ramdas Pophale) SiO2 
 PCOD8208451
Probable space group: P M M A
;
_chemical_formula_sum "Si O2"
_cell_formula_units_Z 56
_cell_length_a 8.739155
_cell_length_b 18.992988
_cell_length_c 18.750072
_cell_angle_alpha 90.000000
_cell_angle_beta 90.000000
_cell_angle_gamma 90.000000
_cell_volume 3112.186939
_symmetry_space_group_name_H-M "P M M A"
_symmetry_group_IT_number 51
_symmetry_cell_setting 'orthorhombic'
loop_
_space_group_symop_operation_xyz
x,y,z
1/2-x,-y,z
1/2+x,-y,-z
-x,y,-z
-x,-y,-z
1/2+x,y,-z
1/2-x,y,z
x,-y,z
loop_
_atom_site_type_symbol
_atom_site_label
_atom_site_fract_x
_atom_site_fract_y
_atom_site_fract_z
Si Si1 0.069219 0.161967 0.925559
Si Si2 0.569738 0.077262 0.210741
Si Si3 0.571723 0.213669 0.286254
Si Si4 0.428878 0.285959 0.153868
Si Si5 0.571174 0.579301 0.197135
Si Si6 0.426569 0.420170 0.349171
Si Si7 0.429364 0.294571 0.573090
O O1 0.250000 0.162616 0.931155
O O2 0.010071 0.108517 0.864419
O O3 0.012750 0.240313 0.906473
O O4 0.000000 0.136153 0.000000
O O5 0.750000 0.069032 0.206167
O O6 0.526198 0.131443 0.274476
O O7 0.495433 0.000000 0.224559
O O8 0.750000 0.225222 0.266957
O O9 0.473710 0.261637 0.233347
O O10 0.534905 0.235873 0.366880
O O11 0.250000 0.278801 0.141722
O O12 0.480724 0.367212 0.145575
O O13 0.750000 0.593997 0.190204
O O14 0.528167 0.500000 0.173716
O O15 0.525174 0.592500 0.278702
O O16 0.250000 0.403340 0.331875
O O17 0.445906 0.500000 0.377059
O O18 0.489495 0.368557 0.409817
O O19 0.500000 0.264795 0.500000
O O20 0.250000 0.307699 0.564753
#
# Coordination Sequence:
#
# PCOD8208451 Si02
#       7
#     8   8   8   8   8   8   8
#     4  10  20  34  52  77 110 142 174 207 247 300
#     4   8  15  30  54  81 106 134 168 207 251 300
#     4   9  18  33  52  74 100 131 170 214 257 306
#     4  11  20  31  52  76 101 135 174 215 258 301
#     4  10  19  31  49  73 101 133 170 214 261 305
#     4  10  20  33  49  71  99 131 169 213 261 313
#     4  11  22  34  50  70  98 135 175 218 266 314
#
# _framework density 17.993779
#
# number of rings (size 3 to 8) (size 9 to 14) (size 15 to 20)
#    0.000    2.143    1.429    3.857    0.000    2.857 
#    0.000    0.000    0.000   11.143    0.000    0.000 
#    0.000    0.000    0.000    0.000    0.000    0.143 
#
# Total GULP energy -694372.982465 kJ/mol
# GULP energy per Si atom -12399.517544 kJ/mol
# Density = 1.795282 g / cm^3
# Si number density = 17.993779 Si / 1000 Ang^3
#
#
#
# Elastic Constant Matrix: (Units=GPa)
#
#
# Indices 1 2 3 4 5 6 
#
# 1 65.3684 30.2399 19.9137 0.0000 0.0000 0.0000
# 2 30.2399 132.1615 47.4567 0.0000 0.0000 0.0000
# 3 19.9137 47.4567 72.9873 0.0000 0.0000 0.0000
# 4 0.0000 0.0000 0.0000 18.5017 0.0000 0.0000
# 5 0.0000 0.0000 0.0000 0.0000 27.8105 0.0000
# 6 0.0000 0.0000 0.0000 0.0000 0.0000 13.9496
#
#
#
# Elastic Compliance Matrix: (Units=1/GPa)
#
#
# Indices 1 2 3 4 5 6 
#
# 1 0.017549 -0.002995 -0.002840 0.000000 0.000000 0.000000
# 2 -0.002995 0.010382 -0.005933 0.000000 0.000000 0.000000
# 3 -0.002840 -0.005933 0.018334 0.000000 0.000000 0.000000
# 4 0.000000 0.000000 0.000000 0.054049 0.000000 0.000000
# 5 0.000000 0.000000 0.000000 0.000000 0.035958 0.000000
# 6 0.000000 0.000000 0.000000 0.000000 0.000000 0.071687
#
#
# Mechanical properties :
#
#
# Convention : Reuss Voigt Hill
#
# Bulk Modulus (GPa) = 44.00092 51.74864 47.87478
# Shear Modulus (GPa) = 20.91411 23.57948 22.24679
#
# Velocity S-wave (km/s) = 3.41295 3.62390 3.52001
# Velocity P-wave (km/s) = 6.32751 6.80675 6.57150
#
# Compressibility (1/GPa) = 0.02272680
#
# Stress axis : x y z
#
# Youngs Moduli (GPa) = 56.98360 96.31600 54.54362
#
# Poissons Ratio (x) = 0.28851 0.15492
# Poissons Ratio (y) = 0.17069 0.32363
# Poissons Ratio (z) = 0.16185 0.57149
#
# Static dielectric constant tensor:
#      x y z
#    x 3.256500 0.000000 0.000000 
#    y 0.000000 3.678030 0.000000 
#    z 0.000000 0.000000 3.139140 
# 
# 
# High freq. dielectric constant tensor:
#      x y z
#    x 1.694770 0.000000 0.000000 
#    y 0.000000 1.697460 0.000000 
#    z 0.000000 0.000000 1.667540 
# 
# From -- ./inp_files/28204.got.cif
#   From: 2010.03.12/outbox.cif.g09.slc.cpg/sg51_15_cif.got.tgz:28204.got - 2010.04.16 13:43:02.
