data_PCOD8208558
_publ_section_title
;
Structure prediction by ZEFSAII (Michael W. Deem and Ramdas Pophale) SiO2 
 PCOD8208558
Probable space group: P M M A
;
_chemical_formula_sum "Si O2"
_cell_formula_units_Z 40
_cell_length_a 18.289410
_cell_length_b 22.207018
_cell_length_c 5.092880
_cell_angle_alpha 90.000000
_cell_angle_beta 90.000000
_cell_angle_gamma 90.000000
_cell_volume 2068.489800
_symmetry_space_group_name_H-M "P M M A"
_symmetry_group_IT_number 51
_symmetry_cell_setting 'orthorhombic'
loop_
_space_group_symop_operation_xyz
x,y,z
1/2-x,-y,z
1/2+x,-y,-z
-x,y,-z
-x,-y,-z
1/2+x,y,-z
1/2-x,y,z
x,-y,z
loop_
_atom_site_type_symbol
_atom_site_label
_atom_site_fract_x
_atom_site_fract_y
_atom_site_fract_z
Si Si1 0.167393 0.740334 0.624080
Si Si2 0.413066 0.067242 0.011968
Si Si3 0.586658 0.862237 0.484930
Si Si4 0.047736 0.432066 0.257797
Si Si5 0.832471 0.662504 0.887670
O O1 0.250000 0.759233 0.701212
O O2 0.116942 0.798148 0.601442
O O3 0.165675 0.710621 0.341592
O O4 0.136956 0.694704 0.848082
O O5 0.385307 0.090346 0.731533
O O6 0.382750 0.000000 0.064579
O O7 0.500000 0.066015 0.000000
O O8 0.383916 0.112732 0.237102
O O9 0.500000 0.856246 0.500000
O O10 0.072783 0.500000 0.328092
O O11 0.119735 0.393868 0.201619
O O12 0.000000 0.405516 0.500000
O O13 0.000000 0.431006 0.000000
O O14 0.750000 0.638878 0.937735
#
# Coordination Sequence:
#
# PCOD8208558 Si02
#       5
#     8   8   8   8   8
#     4  10  21  36  53  75 106 140 174 217 265 310
#     4   9  17  30  49  73 100 129 165 212 261 309
#     4  10  19  31  50  75  99 129 171 213 258 314
#     4  10  21  37  57  83 113 142 174 218 271 315
#     4  10  21  37  56  78 105 143 185 217 257 317
#
# _framework density 19.337781
#
# number of rings (size 3 to 8) (size 9 to 14) (size 15 to 20)
#    0.000    2.200    0.000    3.000    0.000    5.200 
#    0.000    0.000    0.000   10.800    0.000    0.000 
#    0.000    0.000    0.000    0.000    0.000    0.000 
#
# Total GULP energy -495923.730382 kJ/mol
# GULP energy per Si atom -12398.093260 kJ/mol
# Density = 1.929377 g / cm^3
# Si number density = 19.337781 Si / 1000 Ang^3
#
#
#
# Elastic Constant Matrix: (Units=GPa)
#
#
# Indices 1 2 3 4 5 6 
#
# 1 54.7993 51.2216 26.8528 0.0000 0.0000 0.0000
# 2 51.2216 106.9157 29.6037 0.0000 0.0000 0.0000
# 3 26.8528 29.6037 116.0433 0.0000 0.0000 0.0000
# 4 0.0000 0.0000 0.0000 38.8249 0.0000 0.0000
# 5 0.0000 0.0000 0.0000 0.0000 20.8746 0.0000
# 6 0.0000 0.0000 0.0000 0.0000 0.0000 -0.6526
#
#
#
# Elastic Compliance Matrix: (Units=1/GPa)
#
#
# Indices 1 2 3 4 5 6 
#
# 1 0.034757 -0.015521 -0.004083 0.000000 0.000000 0.000000
# 2 -0.015521 0.016995 -0.000744 0.000000 0.000000 0.000000
# 3 -0.004083 -0.000744 0.009752 0.000000 0.000000 0.000000
# 4 0.000000 0.000000 0.000000 0.025757 0.000000 0.000000
# 5 0.000000 0.000000 0.000000 0.000000 0.047905 0.000000
# 6 0.000000 0.000000 0.000000 0.000000 0.000000 -1.532217
#
#
# Mechanical properties :
#
#
# Convention : Reuss Voigt Hill
#
# Bulk Modulus (GPa) = 48.05928 54.79052 51.42490
# Shear Modulus (GPa) = -3.70530 23.14805 9.72138
#
# Velocity S-wave (km/s) = -1.38573 3.46358 2.24456
# Velocity P-wave (km/s) = 4.72717 6.66259 5.77651
#
# Compressibility (1/GPa) = 0.02080764
#
# Stress axis : x y z
#
# Youngs Moduli (GPa) = 28.77127 58.84098 102.54120
#
# Poissons Ratio (x) = 0.91326 0.41871
# Poissons Ratio (y) = 0.44655 0.07629
# Poissons Ratio (z) = 0.11748 0.04378
#
# Static dielectric constant tensor:
#      x y z
#    x 3.273530 0.000000 0.000000 
#    y 0.000000 3.552910 0.000000 
#    z 0.000000 0.000000 3.915450 
# 
# 
# High freq. dielectric constant tensor:
#      x y z
#    x 1.718250 0.000000 0.000000 
#    y 0.000000 1.752350 0.000000 
#    z 0.000000 0.000000 1.777930 
# 
# From -- ./inp_files/2002.got.cif
#   From: 2010.03.12/outbox.cif.g09.slc.cpg/sg51_2_cif.got.tgz:2002.got - 2010.04.16 13:43:02.
