data_PCOD8208055
_publ_section_title
;
Structure prediction by ZEFSAII (Michael W. Deem and Ramdas Pophale) SiO2 
 PCOD8208055
Probable space group: P M M A
;
_chemical_formula_sum "Si O2"
_cell_formula_units_Z 64
_cell_length_a 13.787610
_cell_length_b 8.988916
_cell_length_c 31.641330
_cell_angle_alpha 90.000000
_cell_angle_beta 90.000000
_cell_angle_gamma 90.000000
_cell_volume 3921.489374
_symmetry_space_group_name_H-M "P M M A"
_symmetry_group_IT_number 51
_symmetry_cell_setting 'orthorhombic'
loop_
_space_group_symop_operation_xyz
x,y,z
1/2-x,-y,z
1/2+x,-y,-z
-x,y,-z
-x,-y,-z
1/2+x,y,-z
1/2-x,y,z
x,-y,z
loop_
_atom_site_type_symbol
_atom_site_label
_atom_site_fract_x
_atom_site_fract_y
_atom_site_fract_z
Si Si1 0.360604 0.826398 0.645379
Si Si2 0.975651 0.175929 0.105404
Si Si3 0.638852 0.175404 0.187296
Si Si4 0.365295 0.332242 0.728888
Si Si5 0.534809 0.176807 0.440394
Si Si6 0.361461 0.674374 0.062107
Si Si7 0.362110 0.324245 0.482445
Si Si8 0.637414 0.171805 0.022775
O O1 0.250000 0.776154 0.635804
O O2 0.404559 0.744389 0.686304
O O3 0.427735 0.782804 0.606051
O O4 0.364134 0.000000 0.654976
O O5 0.923867 0.233302 0.147824
O O6 0.912827 0.228759 0.065340
O O7 0.080443 0.253052 0.101159
O O8 0.987916 0.000000 0.106652
O O9 0.750000 0.223939 0.179500
O O10 0.595168 0.248937 0.229584
O O11 0.631165 0.000000 0.192645
O O12 0.250000 0.322450 0.728704
O O13 0.403648 0.500000 0.729956
O O14 0.428403 0.249611 0.446037
O O15 0.610112 0.248606 0.473248
O O16 0.530091 0.000000 0.447938
O O17 0.250000 0.719519 0.068424
O O18 0.377237 0.500000 0.061971
O O19 0.401788 0.739086 0.017810
O O20 0.250000 0.291243 0.472031
O O21 0.382688 0.500000 0.484941
O O22 0.750000 0.202160 0.029632
O O23 0.614457 0.000000 0.014051
#
# Coordination Sequence:
#
# PCOD8208055 Si02
#       8
#     8   8   8   8   8   8   8   8
#     4   9  17  29  45  66  92 121 152 186 225 266
#     4  10  19  30  47  69  88 112 147 180 213 255
#     4   9  17  30  47  67  93 120 143 172 213 262
#     4   9  17  28  43  65  92 121 150 178 212 258
#     4  10  19  30  47  69  91 119 158 200 235 270
#     4  10  21  34  45  60  85 116 148 182 220 257
#     4  10  20  32  45  63  92 128 160 192 233 278
#     4   9  17  30  47  66  89 115 143 176 212 253
#
# _framework density 16.320329999999998
#
# number of rings (size 3 to 8) (size 9 to 14) (size 15 to 20)
#    0.000    2.500    0.000    3.375    0.000    8.750 
#    0.000    1.250    0.000    3.750    0.000    0.875 
#    0.000    7.000    0.000    0.000    0.000    0.000 
#
# Total GULP energy -793602.145229 kJ/mol
# GULP energy per Si atom -12400.033519 kJ/mol
# Density = 1.628318 g / cm^3
# Si number density = 16.320330 Si / 1000 Ang^3
#
#
#
# Elastic Constant Matrix: (Units=GPa)
#
#
# Indices 1 2 3 4 5 6 
#
# 1 79.5175 40.1374 64.4379 0.0000 0.0000 0.0000
# 2 40.1374 65.2769 56.5942 0.0000 0.0000 0.0000
# 3 64.4379 56.5942 148.4057 0.0000 0.0000 0.0000
# 4 0.0000 0.0000 0.0000 7.1954 0.0000 0.0000
# 5 0.0000 0.0000 0.0000 0.0000 24.3609 0.0000
# 6 0.0000 0.0000 0.0000 0.0000 0.0000 22.1570
#
#
#
# Elastic Compliance Matrix: (Units=1/GPa)
#
#
# Indices 1 2 3 4 5 6 
#
# 1 0.021742 -0.007744 -0.006487 0.000000 0.000000 0.000000
# 2 -0.007744 0.025645 -0.006417 0.000000 0.000000 0.000000
# 3 -0.006487 -0.006417 0.012002 0.000000 0.000000 0.000000
# 4 0.000000 0.000000 0.000000 0.138977 0.000000 0.000000
# 5 0.000000 0.000000 0.000000 0.000000 0.041049 0.000000
# 6 0.000000 0.000000 0.000000 0.000000 0.000000 0.045132
#
#
# Mechanical properties :
#
#
# Convention : Reuss Voigt Hill
#
# Bulk Modulus (GPa) = 55.27372 68.39325 61.83349
# Shear Modulus (GPa) = 15.06596 19.54472 17.30534
#
# Velocity S-wave (km/s) = 3.04162 3.46434 3.25984
# Velocity P-wave (km/s) = 6.80271 7.61577 7.22069
#
# Compressibility (1/GPa) = 0.01809178
#
# Stress axis : x y z
#
# Youngs Moduli (GPa) = 45.99450 38.99457 83.31946
#
# Poissons Ratio (x) = 0.30199 0.54049
# Poissons Ratio (y) = 0.35620 0.53465
# Poissons Ratio (z) = 0.29836 0.25022
#
# Static dielectric constant tensor:
#      x y z
#    x 3.000850 0.000000 0.000000 
#    y 0.000000 3.086990 0.000000 
#    z 0.000000 0.000000 3.149180 
# 
# 
# High freq. dielectric constant tensor:
#      x y z
#    x 1.605180 0.000000 0.000000 
#    y 0.000000 1.632470 0.000000 
#    z 0.000000 0.000000 1.620180 
# 
# From -- ./inp_files/37814.got.cif
#   From: 2010.03.12/outbox.cif.g09.slc.cpg/sg51_19_cif.got.tgz:37814.got - 2010.04.16 13:43:02.
