data_PCOD8208663
_publ_section_title
;
Structure prediction by ZEFSAII (Michael W. Deem and Ramdas Pophale) SiO2 
 PCOD8208663
Probable space group: P M M A
;
_chemical_formula_sum "Si O2"
_cell_formula_units_Z 56
_cell_length_a 18.379350
_cell_length_b 8.776335
_cell_length_c 17.351799
_cell_angle_alpha 90.000000
_cell_angle_beta 90.000000
_cell_angle_gamma 90.000000
_cell_volume 2798.903007
_symmetry_space_group_name_H-M "P M M A"
_symmetry_group_IT_number 51
_symmetry_cell_setting 'orthorhombic'
loop_
_space_group_symop_operation_xyz
x,y,z
1/2-x,-y,z
1/2+x,-y,-z
-x,y,-z
-x,-y,-z
1/2+x,y,-z
1/2-x,y,z
x,-y,z
loop_
_atom_site_type_symbol
_atom_site_label
_atom_site_fract_x
_atom_site_fract_y
_atom_site_fract_z
Si Si1 0.334633 0.826562 0.762088
Si Si2 0.331747 0.181489 0.461810
Si Si3 0.089528 0.176865 0.611322
Si Si4 0.436036 0.679109 0.164373
Si Si5 0.908813 0.678792 0.098577
Si Si6 0.666829 0.180268 0.953176
Si Si7 0.434408 0.823273 0.329342
O O1 0.250000 0.822256 0.745300
O O2 0.374262 0.752756 0.688099
O O3 0.352389 0.723660 0.835256
O O4 0.361201 0.000000 0.778102
O O5 0.250000 0.245251 0.465673
O O6 0.377179 0.251294 0.533790
O O7 0.366121 0.232192 0.380269
O O8 0.333835 0.000000 0.465840
O O9 0.003467 0.203325 0.614904
O O10 0.110261 0.000000 0.610873
O O11 0.425333 0.500000 0.156271
O O12 0.510091 0.732126 0.121882
O O13 0.366613 0.762312 0.127283
O O14 0.440382 0.721696 0.253781
O O15 0.906051 0.500000 0.084376
O O16 0.884715 0.759080 0.020491
O O17 0.750000 0.240169 0.961375
O O18 0.666176 0.000000 0.954798
O O19 0.428706 0.000000 0.304628
#
# Coordination Sequence:
#
# PCOD8208663 Si02
#       7
#     8   8   8   8   8   8   8
#     4  10  19  31  52  82 114 150 191 235 285 341
#     4   9  17  29  49  81 116 146 185 242 297 342
#     4   9  16  29  50  78 113 148 186 234 290 345
#     4  11  24  41  61  86 117 155 196 235 283 343
#     4  11  23  39  59  85 118 153 191 231 281 344
#     4  11  25  43  64  90 117 147 188 238 289 340
#     4  10  19  33  56  83 111 149 195 240 290 344
#
# _framework density 20.007840000000002
#
# number of rings (size 3 to 8) (size 9 to 14) (size 15 to 20)
#    0.000    1.857    1.429    3.000    0.000   10.571 
#    0.000    1.429    0.000    2.571    0.000    0.000 
#    0.000    0.000    0.000    0.000    0.000    0.000 
#
# Total GULP energy -694495.328401 kJ/mol
# GULP energy per Si atom -12401.702293 kJ/mol
# Density = 1.996230 g / cm^3
# Si number density = 20.007840 Si / 1000 Ang^3
#
#
#
# Elastic Constant Matrix: (Units=GPa)
#
#
# Indices 1 2 3 4 5 6 
#
# 1 98.0057 22.9251 56.1036 0.0000 0.0000 0.0000
# 2 22.9251 38.2449 23.8926 0.0000 0.0000 0.0000
# 3 56.1036 23.8926 108.6290 0.0000 0.0000 0.0000
# 4 0.0000 0.0000 0.0000 1.9527 0.0000 0.0000
# 5 0.0000 0.0000 0.0000 0.0000 38.4623 0.0000
# 6 0.0000 0.0000 0.0000 0.0000 0.0000 18.4887
#
#
#
# Elastic Compliance Matrix: (Units=1/GPa)
#
#
# Indices 1 2 3 4 5 6 
#
# 1 0.015236 -0.004889 -0.006794 0.000000 0.000000 0.000000
# 2 -0.004889 0.031881 -0.004487 0.000000 0.000000 0.000000
# 3 -0.006794 -0.004487 0.013701 0.000000 0.000000 0.000000
# 4 0.000000 0.000000 0.000000 0.512122 0.000000 0.000000
# 5 0.000000 0.000000 0.000000 0.000000 0.025999 0.000000
# 6 0.000000 0.000000 0.000000 0.000000 0.000000 0.054087
#
#
# Mechanical properties :
#
#
# Convention : Reuss Voigt Hill
#
# Bulk Modulus (GPa) = 35.11347 50.08024 42.59686
# Shear Modulus (GPa) = 7.19569 21.24462 14.22016
#
# Velocity S-wave (km/s) = 1.89848 3.26208 2.66884
# Velocity P-wave (km/s) = 4.73219 6.26681 5.55277
#
# Compressibility (1/GPa) = 0.02847910
#
# Stress axis : x y z
#
# Youngs Moduli (GPa) = 65.63344 31.36658 72.98545
#
# Poissons Ratio (x) = 0.15334 0.49584
# Poissons Ratio (y) = 0.32087 0.32750
# Poissons Ratio (z) = 0.44590 0.14075
#
# Static dielectric constant tensor:
#      x y z
#    x 3.847120 0.000000 0.000000 
#    y 0.000000 3.280450 0.000000 
#    z 0.000000 0.000000 3.722420 
# 
# 
# High freq. dielectric constant tensor:
#      x y z
#    x 1.791080 0.000000 0.000000 
#    y 0.000000 1.739820 0.000000 
#    z 0.000000 0.000000 1.793310 
# 
# From -- ./inp_files/25715.got.cif
#   From: 2010.03.12/outbox.cif.g09.slc.cpg/sg51_13_cif.got.tgz:25715.got - 2010.04.16 13:43:02.
