data_PCOD8208584
_publ_section_title
;
Structure prediction by ZEFSAII (Michael W. Deem and Ramdas Pophale) SiO2 
 PCOD8208584
Probable space group: P M M A
;
_chemical_formula_sum "Si O2"
_cell_formula_units_Z 64
_cell_length_a 19.277353
_cell_length_b 9.015353
_cell_length_c 19.968650
_cell_angle_alpha 90.000000
_cell_angle_beta 90.000000
_cell_angle_gamma 90.000000
_cell_volume 3470.394460
_symmetry_space_group_name_H-M "P M M A"
_symmetry_group_IT_number 51
_symmetry_cell_setting 'orthorhombic'
loop_
_space_group_symop_operation_xyz
x,y,z
1/2-x,-y,z
1/2+x,-y,-z
-x,y,-z
-x,-y,-z
1/2+x,y,-z
1/2-x,y,z
x,-y,z
loop_
_atom_site_type_symbol
_atom_site_label
_atom_site_fract_x
_atom_site_fract_y
_atom_site_fract_z
Si Si1 0.671366 0.830901 0.271352
Si Si2 0.920003 0.167656 0.519403
Si Si3 0.606690 0.672909 0.389350
Si Si4 0.572555 0.825622 0.153899
Si Si5 0.423207 0.325494 0.982127
Si Si6 0.330811 0.672951 0.106911
Si Si7 0.950201 0.325804 0.649866
Si Si8 0.575215 0.824464 0.789235
O O1 0.750000 0.819960 0.245954
O O2 0.663036 0.730807 0.336930
O O3 0.622229 0.768843 0.213018
O O4 0.650791 0.000000 0.289280
O O5 0.878228 0.246069 0.459585
O O6 0.907275 0.257338 0.587923
O O7 0.000000 0.171408 0.500000
O O8 0.893118 0.000000 0.528551
O O9 0.616017 0.500000 0.401984
O O10 0.531162 0.710794 0.359539
O O11 0.599832 0.749219 0.086788
O O12 0.494227 0.776780 0.171176
O O13 0.578812 0.000000 0.144106
O O14 0.422318 0.500000 0.971370
O O15 0.500000 0.268156 0.000000
O O16 0.369820 0.275571 0.039543
O O17 0.250000 0.707619 0.097740
O O18 0.344784 0.500000 0.121056
O O19 0.358994 0.766801 0.169301
O O20 0.935843 0.500000 0.652938
O O21 0.922829 0.250404 0.716939
O O22 0.579281 0.000000 0.779716
#
# Coordination Sequence:
#
# PCOD8208584 Si02
#       8
#     8   8   8   8   8   8   8   8
#     4  10  21  37  54  74 107 150 190 228 277 335
#     4   9  17  29  48  75 108 142 178 223 273 324
#     4  10  19  31  50  76 108 143 183 231 277 325
#     4  10  21  35  54  81 110 142 183 230 277 325
#     4  10  20  35  57  82 108 141 181 223 270 325
#     4  10  22  40  59  81 111 146 183 224 275 333
#     4  10  19  31  51  80 111 143 181 227 278 326
#     4  11  21  34  56  83 112 145 184 229 276 329
#
# _framework density 18.441708999999999
#
# number of rings (size 3 to 8) (size 9 to 14) (size 15 to 20)
#    0.000    2.000    2.500    1.500    0.000    5.250 
#    0.000    0.000    0.000    0.750    0.000    0.000 
#    0.000    0.000    0.000    0.000    0.000    0.000 
#
# Total GULP energy -793858.189740 kJ/mol
# GULP energy per Si atom -12404.034215 kJ/mol
# Density = 1.839973 g / cm^3
# Si number density = 18.441709 Si / 1000 Ang^3
#
#
#
# Elastic Constant Matrix: (Units=GPa)
#
#
# Indices 1 2 3 4 5 6 
#
# 1 81.5288 34.9388 48.3067 0.0000 0.0000 0.0000
# 2 34.9388 80.0572 64.5368 0.0000 0.0000 0.0000
# 3 48.3067 64.5368 159.1993 0.0000 0.0000 0.0000
# 4 0.0000 0.0000 0.0000 42.0784 0.0000 0.0000
# 5 0.0000 0.0000 0.0000 0.0000 22.5209 0.0000
# 6 0.0000 0.0000 0.0000 0.0000 0.0000 19.6340
#
#
#
# Elastic Compliance Matrix: (Units=1/GPa)
#
#
# Indices 1 2 3 4 5 6 
#
# 1 0.016001 -0.004559 -0.003007 0.000000 0.000000 0.000000
# 2 -0.004559 0.019854 -0.006665 0.000000 0.000000 0.000000
# 3 -0.003007 -0.006665 0.009896 0.000000 0.000000 0.000000
# 4 0.000000 0.000000 0.000000 0.023765 0.000000 0.000000
# 5 0.000000 0.000000 0.000000 0.000000 0.044403 0.000000
# 6 0.000000 0.000000 0.000000 0.000000 0.000000 0.050932
#
#
# Mechanical properties :
#
#
# Convention : Reuss Voigt Hill
#
# Bulk Modulus (GPa) = 57.84307 68.48331 63.16319
# Shear Modulus (GPa) = 25.11604 28.38019 26.74812
#
# Velocity S-wave (km/s) = 3.69442 3.92715 3.81256
# Velocity P-wave (km/s) = 7.04498 7.60125 7.32840
#
# Compressibility (1/GPa) = 0.01728816
#
# Stress axis : x y z
#
# Youngs Moduli (GPa) = 62.49557 50.36872 101.05350
#
# Poissons Ratio (x) = 0.22964 0.30388
# Poissons Ratio (y) = 0.28493 0.67351
# Poissons Ratio (z) = 0.18793 0.33570
#
# Static dielectric constant tensor:
#      x y z
#    x 3.138520 0.000000 0.000000 
#    y 0.000000 3.356950 0.000000 
#    z 0.000000 0.000000 3.476850 
# 
# 
# High freq. dielectric constant tensor:
#      x y z
#    x 1.682320 0.000000 0.000000 
#    y 0.000000 1.718370 0.000000 
#    z 0.000000 0.000000 1.727180 
# 
# From -- ./inp_files/30509.got.cif
#   From: 2010.03.12/outbox.cif.g09.slc.cpg/sg51_16_cif.got.tgz:30509.got - 2010.04.16 13:43:02.
