data_PCOD8208116
_publ_section_title
;
Structure prediction by ZEFSAII (Michael W. Deem and Ramdas Pophale) SiO2 
 PCOD8208116
Probable space group: P M M A
;
_chemical_formula_sum "Si O2"
_cell_formula_units_Z 48
_cell_length_a 17.002598
_cell_length_b 12.824455
_cell_length_c 12.231355
_cell_angle_alpha 90.000000
_cell_angle_beta 90.000000
_cell_angle_gamma 90.000000
_cell_volume 2667.035374
_symmetry_space_group_name_H-M "P M M A"
_symmetry_group_IT_number 51
_symmetry_cell_setting 'orthorhombic'
loop_
_space_group_symop_operation_xyz
x,y,z
1/2-x,-y,z
1/2+x,-y,-z
-x,y,-z
-x,-y,-z
1/2+x,y,-z
1/2-x,y,z
x,-y,z
loop_
_atom_site_type_symbol
_atom_site_label
_atom_site_fract_x
_atom_site_fract_y
_atom_site_fract_z
Si Si1 0.989487 0.119017 0.372680
Si Si2 0.160642 0.617009 0.453385
Si Si3 0.337824 0.765136 0.650886
Si Si4 0.101901 0.381180 0.823900
Si Si5 0.435315 0.693770 0.255009
Si Si6 0.841205 0.379496 0.939184
O O1 0.898535 0.139405 0.340532
O O2 0.000000 0.144596 0.500000
O O3 0.046504 0.189688 0.297998
O O4 0.010971 0.000000 0.346179
O O5 0.250000 0.640443 0.415092
O O6 0.153434 0.500000 0.499590
O O7 0.135057 0.694534 0.549113
O O8 0.102391 0.627963 0.352351
O O9 0.250000 0.810087 0.635792
O O10 0.339380 0.693876 0.758592
O O11 0.127782 0.500000 0.802753
O O12 0.013157 0.364545 0.784695
O O13 0.109810 0.354741 0.951673
O O14 0.374101 0.696912 0.154770
O O15 0.750000 0.354309 0.959329
O O16 0.852908 0.500000 0.903424
#
# Coordination Sequence:
#
# PCOD8208116 Si02
#       6
#     8   8   8   8   8   8
#     4  10  21  39  57  76 103 134 175 227 275 319
#     4  10  19  30  47  76 113 146 174 211 265 325
#     4  10  20  34  53  78 107 141 179 218 263 319
#     4  10  20  32  51  79 112 146 182 215 252 311
#     4  11  20  33  54  78 104 142 180 225 266 320
#     4  10  20  34  53  78 111 149 183 216 257 310
#
# _framework density 17.997512
#
# number of rings (size 3 to 8) (size 9 to 14) (size 15 to 20)
#    0.000    1.833    1.667    3.500    0.000    4.667 
#    0.000    2.500    0.000   10.000    0.000    0.000 
#    0.000    0.000    0.000    0.000    0.000    0.000 
#
# Total GULP energy -595274.238458 kJ/mol
# GULP energy per Si atom -12401.546635 kJ/mol
# Density = 1.795655 g / cm^3
# Si number density = 17.997512 Si / 1000 Ang^3
#
#
#
# Elastic Constant Matrix: (Units=GPa)
#
#
# Indices 1 2 3 4 5 6 
#
# 1 74.3957 28.9044 29.4254 0.0000 0.0000 0.0000
# 2 28.9044 79.3555 40.2993 0.0000 0.0000 0.0000
# 3 29.4254 40.2993 101.5109 0.0000 0.0000 0.0000
# 4 0.0000 0.0000 0.0000 20.1735 0.0000 0.0000
# 5 0.0000 0.0000 0.0000 0.0000 34.7895 0.0000
# 6 0.0000 0.0000 0.0000 0.0000 0.0000 13.8118
#
#
#
# Elastic Compliance Matrix: (Units=1/GPa)
#
#
# Indices 1 2 3 4 5 6 
#
# 1 0.016344 -0.004443 -0.002974 0.000000 0.000000 0.000000
# 2 -0.004443 0.016991 -0.005458 0.000000 0.000000 0.000000
# 3 -0.002974 -0.005458 0.012880 0.000000 0.000000 0.000000
# 4 0.000000 0.000000 0.000000 0.049570 0.000000 0.000000
# 5 0.000000 0.000000 0.000000 0.000000 0.028744 0.000000
# 6 0.000000 0.000000 0.000000 0.000000 0.000000 0.072402
#
#
# Mechanical properties :
#
#
# Convention : Reuss Voigt Hill
#
# Bulk Modulus (GPa) = 48.86046 50.28003 49.57025
# Shear Modulus (GPa) = 21.78625 24.19715 22.99170
#
# Velocity S-wave (km/s) = 3.48302 3.67068 3.57808
# Velocity P-wave (km/s) = 6.58655 6.77961 6.68378
#
# Compressibility (1/GPa) = 0.02046645
#
# Stress axis : x y z
#
# Youngs Moduli (GPa) = 61.18433 58.85356 77.64070
#
# Poissons Ratio (x) = 0.26148 0.23090
# Poissons Ratio (y) = 0.27184 0.42373
# Poissons Ratio (z) = 0.18196 0.32120
#
# Static dielectric constant tensor:
#      x y z
#    x 3.408930 0.000000 0.000000 
#    y 0.000000 3.015570 0.000000 
#    z 0.000000 0.000000 3.396380 
# 
# 
# High freq. dielectric constant tensor:
#      x y z
#    x 1.708450 0.000000 0.000000 
#    y 0.000000 1.661800 0.000000 
#    z 0.000000 0.000000 1.701620 
# 
# From -- ./inp_files/17280.got.cif
#   From: 2010.03.12/outbox.cif.g09.slc.cpg/sg51_9_cif.got.tgz:17280.got - 2010.04.16 13:43:02.
