data_PCOD8208109
_publ_section_title
;
Structure prediction by ZEFSAII (Michael W. Deem and Ramdas Pophale) SiO2 
 PCOD8208109
Probable space group: P M M A
;
_chemical_formula_sum "Si O2"
_cell_formula_units_Z 64
_cell_length_a 24.646162
_cell_length_b 9.540331
_cell_length_c 14.815583
_cell_angle_alpha 90.000000
_cell_angle_beta 90.000000
_cell_angle_gamma 90.000000
_cell_volume 3483.625712
_symmetry_space_group_name_H-M "P M M A"
_symmetry_group_IT_number 51
_symmetry_cell_setting 'orthorhombic'
loop_
_space_group_symop_operation_xyz
x,y,z
1/2-x,-y,z
1/2+x,-y,-z
-x,y,-z
-x,-y,-z
1/2+x,y,-z
1/2-x,y,z
x,-y,z
loop_
_atom_site_type_symbol
_atom_site_label
_atom_site_fract_x
_atom_site_fract_y
_atom_site_fract_z
Si Si1 0.188941 0.836152 0.180395
Si Si2 0.165790 0.842864 0.984419
Si Si3 0.598249 0.665966 0.715324
Si Si4 0.517039 0.654837 0.213851
Si Si5 0.046406 0.842641 0.939597
Si Si6 0.439959 0.333750 0.479542
Si Si7 0.388082 0.342440 0.658705
Si Si8 0.188185 0.162354 0.786893
O O1 0.250000 0.818306 0.217871
O O2 0.149297 0.749034 0.244755
O O3 0.171330 0.000000 0.180145
O O4 0.188131 0.774611 0.077027
O O5 0.101337 0.838346 0.995498
O O6 0.182991 0.771685 0.888797
O O7 0.189043 0.000000 0.979877
O O8 0.610590 0.500000 0.717560
O O9 0.544907 0.703130 0.773753
O O10 0.585526 0.720336 0.614396
O O11 0.517763 0.500000 0.170795
O O12 0.551869 0.757289 0.151765
O O13 0.549532 0.655631 0.307445
O O14 0.029505 0.000000 0.913433
O O15 0.000000 0.771237 0.000000
O O16 0.500000 0.269206 0.500000
O O17 0.445894 0.500000 0.475421
O O18 0.395583 0.290020 0.555798
O O19 0.363709 0.500000 0.663580
O O20 0.348728 0.242468 0.715060
O O21 0.250000 0.175842 0.754139
O O22 0.168825 0.000000 0.789443
#
# Coordination Sequence:
#
# PCOD8208109 Si02
#       8
#     8   8   8   8   8   8   8   8
#     4  10  21  38  58  78 104 141 183 225 265 306
#     4   9  17  32  53  76 101 136 183 221 254 306
#     4  10  20  35  57  83 108 137 175 219 267 318
#     4  10  19  31  50  78 109 137 165 209 269 320
#     4  10  19  30  47  73 105 141 177 214 256 308
#     4   9  16  32  58  82 105 137 176 214 257 317
#     4  10  19  33  55  81 107 135 172 217 264 312
#     4  10  20  35  55  77 104 142 183 220 261 310
#
# _framework density 18.371663999999999
#
# number of rings (size 3 to 8) (size 9 to 14) (size 15 to 20)
#    0.000    2.250    2.500    1.125    0.000    3.750 
#    0.000    2.500    0.000    6.000    0.000    0.000 
#    0.000    0.000    0.000    0.000    0.000    0.000 
#
# Total GULP energy -793172.655191 kJ/mol
# GULP energy per Si atom -12393.322737 kJ/mol
# Density = 1.832985 g / cm^3
# Si number density = 18.371664 Si / 1000 Ang^3
#
#
#
# Elastic Constant Matrix: (Units=GPa)
#
#
# Indices 1 2 3 4 5 6 
#
# 1 105.3575 35.8725 47.3752 0.0000 0.0000 0.0000
# 2 35.8725 49.9649 37.9017 0.0000 0.0000 0.0000
# 3 47.3752 37.9017 115.2740 0.0000 0.0000 0.0000
# 4 0.0000 0.0000 0.0000 27.2246 0.0000 0.0000
# 5 0.0000 0.0000 0.0000 0.0000 19.5164 0.0000
# 6 0.0000 0.0000 0.0000 0.0000 0.0000 18.8145
#
#
#
# Elastic Compliance Matrix: (Units=1/GPa)
#
#
# Indices 1 2 3 4 5 6 
#
# 1 0.013350 -0.007225 -0.003111 0.000000 0.000000 0.000000
# 2 -0.007225 0.030575 -0.007084 0.000000 0.000000 0.000000
# 3 -0.003111 -0.007084 0.012283 0.000000 0.000000 0.000000
# 4 0.000000 0.000000 0.000000 0.036732 0.000000 0.000000
# 5 0.000000 0.000000 0.000000 0.000000 0.051239 0.000000
# 6 0.000000 0.000000 0.000000 0.000000 0.000000 0.053150
#
#
# Mechanical properties :
#
#
# Convention : Reuss Voigt Hill
#
# Bulk Modulus (GPa) = 46.79824 56.98837 51.89330
# Shear Modulus (GPa) = 20.89507 23.07422 21.98465
#
# Velocity S-wave (km/s) = 3.37613 3.54781 3.46303
# Velocity P-wave (km/s) = 6.38169 6.91879 6.65566
#
# Compressibility (1/GPa) = 0.02136832
#
# Stress axis : x y z
#
# Youngs Moduli (GPa) = 74.90370 32.70688 81.41555
#
# Poissons Ratio (x) = 0.23631 0.25330
# Poissons Ratio (y) = 0.54118 0.57671
# Poissons Ratio (z) = 0.23304 0.23168
#
# Static dielectric constant tensor:
#      x y z
#    x 3.300430 0.000000 0.000000 
#    y 0.000000 3.052400 0.000000 
#    z 0.000000 0.000000 3.482010 
# 
# 
# High freq. dielectric constant tensor:
#      x y z
#    x 1.715250 0.000000 0.000000 
#    y 0.000000 1.672600 0.000000 
#    z 0.000000 0.000000 1.712680 
# 
# From -- ./inp_files/26232.got.cif
#   From: 2010.03.12/outbox.cif.g09.slc.cpg/sg51_14_cif.got.tgz:26232.got - 2010.04.16 13:43:02.
