data_PCOD8208873
_publ_section_title
;
Structure prediction by ZEFSAII (Michael W. Deem and Ramdas Pophale) SiO2 
 PCOD8208873
Probable space group: P M M A
;
_chemical_formula_sum "Si O2"
_cell_formula_units_Z 48
_cell_length_a 18.448044
_cell_length_b 8.910391
_cell_length_c 16.071273
_cell_angle_alpha 90.000000
_cell_angle_beta 90.000000
_cell_angle_gamma 90.000000
_cell_volume 2641.784368
_symmetry_space_group_name_H-M "P M M A"
_symmetry_group_IT_number 51
_symmetry_cell_setting 'orthorhombic'
loop_
_space_group_symop_operation_xyz
x,y,z
1/2-x,-y,z
1/2+x,-y,-z
-x,y,-z
-x,-y,-z
1/2+x,y,-z
1/2-x,y,z
x,-y,z
loop_
_atom_site_type_symbol
_atom_site_label
_atom_site_fract_x
_atom_site_fract_y
_atom_site_fract_z
Si Si1 0.091240 0.322606 0.333238
Si Si2 0.037193 0.824315 0.083422
Si Si3 0.831803 0.676723 0.835653
Si Si4 0.665775 0.825719 0.511102
Si Si5 0.040958 0.823525 0.747669
Si Si6 0.166402 0.324508 0.662004
O O1 0.086009 0.500000 0.343656
O O2 0.143502 0.276307 0.256949
O O3 0.121101 0.251452 0.416590
O O4 0.011884 0.255528 0.318287
O O5 0.115723 0.749510 0.095766
O O6 0.983803 0.784082 0.159085
O O7 0.051085 0.000000 0.075929
O O8 0.000000 0.760454 0.000000
O O9 0.750000 0.735564 0.849697
O O10 0.836243 0.500000 0.846741
O O11 0.750000 0.800422 0.530088
O O12 0.643376 0.747484 0.425420
O O13 0.645625 0.000000 0.505370
O O14 0.120674 0.754657 0.734981
O O15 0.041332 0.000000 0.731283
O O16 0.250000 0.291871 0.682249
O O17 0.149486 0.500000 0.658918
#
# Coordination Sequence:
#
# PCOD8208873 Si02
#       6
#     8   8   8   8   8   8
#     4  10  19  32  51  75 105 138 171 208 252 302
#     4   9  19  36  56  78 104 134 168 207 253 305
#     4   9  18  32  51  77 107 137 169 206 250 301
#     4  10  20  33  50  74 104 137 174 214 254 296
#     4  10  20  35  55  77 101 130 167 210 256 305
#     4  10  21  37  55  74  99 133 173 214 255 300
#
# _framework density 18.169536999999998
#
# number of rings (size 3 to 8) (size 9 to 14) (size 15 to 20)
#    0.000    2.333    0.000    2.500    0.000    5.333 
#    0.000    4.167    0.000    5.000    0.000    0.000 
#    0.000    0.000    0.000    0.000    0.000    0.000 
#
# Total GULP energy -595359.812174 kJ/mol
# GULP energy per Si atom -12403.329420 kJ/mol
# Density = 1.812818 g / cm^3
# Si number density = 18.169537 Si / 1000 Ang^3
#
#
#
# Elastic Constant Matrix: (Units=GPa)
#
#
# Indices 1 2 3 4 5 6 
#
# 1 127.2939 56.0517 70.2327 0.0000 0.0000 0.0000
# 2 56.0517 87.2983 45.1471 0.0000 0.0000 0.0000
# 3 70.2327 45.1471 92.9912 0.0000 0.0000 0.0000
# 4 0.0000 0.0000 0.0000 26.1272 0.0000 0.0000
# 5 0.0000 0.0000 0.0000 0.0000 29.6206 0.0000
# 6 0.0000 0.0000 0.0000 0.0000 0.0000 34.2361
#
#
#
# Elastic Compliance Matrix: (Units=1/GPa)
#
#
# Indices 1 2 3 4 5 6 
#
# 1 0.014953 -0.005021 -0.008855 0.000000 0.000000 0.000000
# 2 -0.005021 0.016981 -0.004452 0.000000 0.000000 0.000000
# 3 -0.008855 -0.004452 0.019603 0.000000 0.000000 0.000000
# 4 0.000000 0.000000 0.000000 0.038274 0.000000 0.000000
# 5 0.000000 0.000000 0.000000 0.000000 0.033760 0.000000
# 6 0.000000 0.000000 0.000000 0.000000 0.000000 0.029209
#
#
# Mechanical properties :
#
#
# Convention : Reuss Voigt Hill
#
# Bulk Modulus (GPa) = 67.20424 72.27183 69.73803
# Shear Modulus (GPa) = 25.72040 27.07359 26.39699
#
# Velocity S-wave (km/s) = 3.76650 3.86431 3.81572
# Velocity P-wave (km/s) = 7.48218 7.73132 7.60777
#
# Compressibility (1/GPa) = 0.01488001
#
# Stress axis : x y z
#
# Youngs Moduli (GPa) = 66.87795 58.88832 51.01134
#
# Poissons Ratio (x) = 0.29567 0.45173
# Poissons Ratio (y) = 0.33579 0.22712
# Poissons Ratio (z) = 0.59224 0.26219
#
# Static dielectric constant tensor:
#      x y z
#    x 3.485080 0.000000 0.000000 
#    y 0.000000 3.395500 0.000000 
#    z 0.000000 0.000000 3.302020 
# 
# 
# High freq. dielectric constant tensor:
#      x y z
#    x 1.707150 0.000000 0.000000 
#    y 0.000000 1.713230 0.000000 
#    z 0.000000 0.000000 1.690870 
# 
# From -- ./inp_files/24715.got.cif
#   From: 2010.03.12/outbox.cif.g09.slc.cpg/sg51_13_cif.got.tgz:24715.got - 2010.04.16 13:43:02.
