data_PCOD8208801
_publ_section_title
;
Structure prediction by ZEFSAII (Michael W. Deem and Ramdas Pophale) SiO2 
 PCOD8208801
Probable space group: P M M A
;
_chemical_formula_sum "Si O2"
_cell_formula_units_Z 48
_cell_length_a 18.226499
_cell_length_b 13.041666
_cell_length_c 11.367313
_cell_angle_alpha 90.000000
_cell_angle_beta 90.000000
_cell_angle_gamma 90.000000
_cell_volume 2702.054773
_symmetry_space_group_name_H-M "P M M A"
_symmetry_group_IT_number 51
_symmetry_cell_setting 'orthorhombic'
loop_
_space_group_symop_operation_xyz
x,y,z
1/2-x,-y,z
1/2+x,-y,-z
-x,y,-z
-x,-y,-z
1/2+x,y,-z
1/2-x,y,z
x,-y,z
loop_
_atom_site_type_symbol
_atom_site_label
_atom_site_fract_x
_atom_site_fract_y
_atom_site_fract_z
Si Si1 0.834811 0.117231 0.902733
Si Si2 0.666757 0.201420 0.407235
Si Si3 0.430361 0.261785 0.932878
Si Si4 0.462375 0.114020 0.728025
Si Si5 0.834506 0.616060 0.241032
Si Si6 0.381913 0.882156 0.358290
O O1 0.750000 0.129866 0.935396
O O2 0.846989 0.145964 0.766857
O O3 0.860725 0.000000 0.925701
O O4 0.879414 0.195032 0.982823
O O5 0.750000 0.170021 0.377103
O O6 0.613261 0.121614 0.343405
O O7 0.649669 0.315208 0.356926
O O8 0.653415 0.195360 0.546906
O O9 0.466861 0.188710 0.837172
O O10 0.382788 0.349831 0.870742
O O11 0.500000 0.312136 0.000000
O O12 0.530690 0.136818 0.642059
O O13 0.469618 0.000000 0.779203
O O14 0.750000 0.625500 0.202423
O O15 0.855302 0.500000 0.274797
O O16 0.363301 0.000000 0.392083
#
# Coordination Sequence:
#
# PCOD8208801 Si02
#       6
#     8   8   8   8   8   8
#     4  10  20  32  49  77 112 147 179 208 245 300
#     4  10  20  33  52  76 100 131 175 222 262 304
#     4  11  20  33  54  78 104 138 174 216 257 308
#     4  10  20  32  49  74 108 145 177 207 248 301
#     4   9  20  39  59  77  98 128 170 222 275 316
#     4  10  19  32  50  74 109 147 174 201 245 304
#
# _framework density 17.764258000000002
#
# number of rings (size 3 to 8) (size 9 to 14) (size 15 to 20)
#    0.000    2.000    1.667    2.500    0.000    5.000 
#    0.000    0.000    0.000    9.000    0.000    2.333 
#    0.000    0.000    0.000    0.000    0.000    0.000 
#
# Total GULP energy -595164.748990 kJ/mol
# GULP energy per Si atom -12399.265604 kJ/mol
# Density = 1.772383 g / cm^3
# Si number density = 17.764258 Si / 1000 Ang^3
#
#
#
# Elastic Constant Matrix: (Units=GPa)
#
#
# Indices 1 2 3 4 5 6 
#
# 1 88.2177 37.2249 27.5291 0.0000 0.0000 0.0000
# 2 37.2249 82.6246 42.7522 0.0000 0.0000 0.0000
# 3 27.5291 42.7522 89.6017 0.0000 0.0000 0.0000
# 4 0.0000 0.0000 0.0000 21.3148 0.0000 0.0000
# 5 0.0000 0.0000 0.0000 0.0000 29.8786 0.0000
# 6 0.0000 0.0000 0.0000 0.0000 0.0000 19.8934
#
#
#
# Elastic Compliance Matrix: (Units=1/GPa)
#
#
# Indices 1 2 3 4 5 6 
#
# 1 0.014198 -0.005496 -0.001740 0.000000 0.000000 0.000000
# 2 -0.005496 0.018198 -0.006994 0.000000 0.000000 0.000000
# 3 -0.001740 -0.006994 0.015032 0.000000 0.000000 0.000000
# 4 0.000000 0.000000 0.000000 0.046916 0.000000 0.000000
# 5 0.000000 0.000000 0.000000 0.000000 0.033469 0.000000
# 6 0.000000 0.000000 0.000000 0.000000 0.000000 0.050268
#
#
# Mechanical properties :
#
#
# Convention : Reuss Voigt Hill
#
# Bulk Modulus (GPa) = 52.72144 52.82846 52.77495
# Shear Modulus (GPa) = 23.48919 24.41322 23.95120
#
# Velocity S-wave (km/s) = 3.64025 3.71116 3.67588
# Velocity P-wave (km/s) = 6.88559 6.94023 6.91297
#
# Compressibility (1/GPa) = 0.01896762
#
# Stress axis : x y z
#
# Youngs Moduli (GPa) = 70.43374 54.95014 66.52373
#
# Poissons Ratio (x) = 0.30203 0.11572
# Poissons Ratio (y) = 0.38713 0.46529
# Poissons Ratio (z) = 0.12252 0.38434
#
# Static dielectric constant tensor:
#      x y z
#    x 3.527710 0.000000 0.000000 
#    y 0.000000 3.054800 0.000000 
#    z 0.000000 0.000000 3.342110 
# 
# 
# High freq. dielectric constant tensor:
#      x y z
#    x 1.707010 0.000000 0.000000 
#    y 0.000000 1.651280 0.000000 
#    z 0.000000 0.000000 1.687990 
# 
# From -- ./inp_files/17277.got.cif
#   From: 2010.03.12/outbox.cif.g09.slc.cpg/sg51_9_cif.got.tgz:17277.got - 2010.04.16 13:43:02.
