data_PCOD8208385
_publ_section_title
;
Structure prediction by ZEFSAII (Michael W. Deem and Ramdas Pophale) SiO2 
 PCOD8208385
Probable space group: P M M A
;
_chemical_formula_sum "Si O2"
_cell_formula_units_Z 64
_cell_length_a 8.746861
_cell_length_b 22.916397
_cell_length_c 15.860552
_cell_angle_alpha 90.000000
_cell_angle_beta 90.000000
_cell_angle_gamma 90.000000
_cell_volume 3179.192758
_symmetry_space_group_name_H-M "P M M A"
_symmetry_group_IT_number 51
_symmetry_cell_setting 'orthorhombic'
loop_
_space_group_symop_operation_xyz
x,y,z
1/2-x,-y,z
1/2+x,-y,-z
-x,y,-z
-x,-y,-z
1/2+x,y,-z
1/2-x,y,z
x,-y,z
loop_
_atom_site_type_symbol
_atom_site_label
_atom_site_fract_x
_atom_site_fract_y
_atom_site_fract_z
Si Si1 0.925079 0.102213 0.093076
Si Si2 0.929842 0.564292 0.242902
Si Si3 0.572834 0.322261 0.805486
Si Si4 0.930412 0.384026 0.419622
Si Si5 0.924565 0.066458 0.737289
Si Si6 0.068458 0.856469 0.589538
Si Si7 0.069036 0.267814 0.368976
Si Si8 0.422422 0.230735 0.915015
O O1 0.750000 0.081079 0.084184
O O2 0.927809 0.168404 0.131549
O O3 0.008836 0.067180 0.167456
O O4 0.000000 0.092953 0.000000
O O5 0.750000 0.564415 0.232935
O O6 0.994905 0.500000 0.219523
O O7 0.979044 0.579230 0.338131
O O8 0.995962 0.614366 0.182664
O O9 0.750000 0.334349 0.801445
O O10 0.515774 0.285862 0.724925
O O11 0.528590 0.282265 0.882774
O O12 0.750000 0.375602 0.424593
O O13 0.000000 0.418714 0.500000
O O14 0.014867 0.321580 0.425364
O O15 0.750000 0.088989 0.740740
O O16 0.013781 0.105012 0.668560
O O17 0.933379 0.000000 0.705514
O O18 0.250000 0.860058 0.583951
O O19 0.000000 0.878942 0.500000
O O20 0.018818 0.789830 0.603443
O O21 0.250000 0.257459 0.376437
O O22 0.250000 0.254502 0.922760
O O23 0.500000 0.211609 0.000000
#
# Coordination Sequence:
#
# PCOD8208385 Si02
#       8
#     8   8   8   8   8   8   8   8
#     4  10  21  38  63  94 126 159 193 232 283 341
#     4   9  19  35  52  70  96 135 181 224 266 315
#     4  10  20  33  53  80 109 142 178 221 272 325
#     4  10  19  31  48  72 103 136 173 218 269 324
#     4  11  25  44  64  87 117 154 197 243 288 338
#     4  12  25  41  62  86 114 150 193 242 295 348
#     4  10  20  35  55  80 110 142 179 224 276 333
#     4  10  20  34  55  84 116 146 176 214 262 320
#
# _framework density 20.130897000000001
#
# number of rings (size 3 to 8) (size 9 to 14) (size 15 to 20)
#    0.000    1.750    0.000    4.500    0.000    7.500 
#    0.000    0.000    0.000    0.375    0.000    0.000 
#    0.000    0.000    0.000    0.000    0.000    0.000 
#
# Total GULP energy -793219.211246 kJ/mol
# GULP energy per Si atom -12394.050176 kJ/mol
# Density = 2.008508 g / cm^3
# Si number density = 20.130897 Si / 1000 Ang^3
#
#
#
# Elastic Constant Matrix: (Units=GPa)
#
#
# Indices 1 2 3 4 5 6 
#
# 1 93.2848 30.5308 31.1952 0.0000 0.0000 0.0000
# 2 30.5308 82.9253 26.1431 0.0000 0.0000 0.0000
# 3 31.1952 26.1431 67.7284 0.0000 0.0000 0.0000
# 4 0.0000 0.0000 0.0000 16.0376 0.0000 0.0000
# 5 0.0000 0.0000 0.0000 0.0000 35.0873 0.0000
# 6 0.0000 0.0000 0.0000 0.0000 0.0000 26.6843
#
#
#
# Elastic Compliance Matrix: (Units=1/GPa)
#
#
# Indices 1 2 3 4 5 6 
#
# 1 0.013473 -0.003420 -0.004885 0.000000 0.000000 0.000000
# 2 -0.003420 0.014598 -0.004060 0.000000 0.000000 0.000000
# 3 -0.004885 -0.004060 0.018582 0.000000 0.000000 0.000000
# 4 0.000000 0.000000 0.000000 0.062354 0.000000 0.000000
# 5 0.000000 0.000000 0.000000 0.000000 0.028500 0.000000
# 6 0.000000 0.000000 0.000000 0.000000 0.000000 0.037475
#
#
# Mechanical properties :
#
#
# Convention : Reuss Voigt Hill
#
# Bulk Modulus (GPa) = 45.61449 46.63075 46.12262
# Shear Modulus (GPa) = 24.15227 25.96647 25.05937
#
# Velocity S-wave (km/s) = 3.46751 3.59539 3.53203
# Velocity P-wave (km/s) = 6.22412 6.36002 6.29244
#
# Compressibility (1/GPa) = 0.02192286
#
# Stress axis : x y z
#
# Youngs Moduli (GPa) = 74.22282 68.50217 53.81555
#
# Poissons Ratio (x) = 0.23429 0.26291
# Poissons Ratio (y) = 0.25386 0.21847
# Poissons Ratio (z) = 0.36260 0.27809
#
# Static dielectric constant tensor:
#      x y z
#    x 3.680410 0.000000 0.000000 
#    y 0.000000 3.688950 0.000000 
#    z 0.000000 0.000000 3.622550 
# 
# 
# High freq. dielectric constant tensor:
#      x y z
#    x 1.795440 0.000000 0.000000 
#    y 0.000000 1.783280 0.000000 
#    z 0.000000 0.000000 1.776790 
# 
# From -- ./inp_files/22277.got.cif
#   From: 2010.03.12/outbox.cif.g09.slc.cpg/sg51_12_cif.got.tgz:22277.got - 2010.04.16 13:43:02.
