data_PCOD8208722
_publ_section_title
;
Structure prediction by ZEFSAII (Michael W. Deem and Ramdas Pophale) SiO2 
 PCOD8208722
Probable space group: P M M A
;
_chemical_formula_sum "Si O2"
_cell_formula_units_Z 44
_cell_length_a 8.692707
_cell_length_b 15.449026
_cell_length_c 17.861424
_cell_angle_alpha 90.000000
_cell_angle_beta 90.000000
_cell_angle_gamma 90.000000
_cell_volume 2398.679511
_symmetry_space_group_name_H-M "P M M A"
_symmetry_group_IT_number 51
_symmetry_cell_setting 'orthorhombic'
loop_
_space_group_symop_operation_xyz
x,y,z
1/2-x,-y,z
1/2+x,-y,-z
-x,y,-z
-x,-y,-z
1/2+x,y,-z
1/2-x,y,z
x,-y,z
loop_
_atom_site_type_symbol
_atom_site_label
_atom_site_fract_x
_atom_site_fract_y
_atom_site_fract_z
Si Si1 0.431062 0.902477 0.079476
Si Si2 0.069591 0.171312 0.638243
Si Si3 0.930773 0.406207 0.734720
Si Si4 0.068892 0.000000 0.418723
Si Si5 0.067574 0.663079 0.423684
Si Si6 0.931458 0.773822 0.790237
O O1 0.250000 0.901289 0.071789
O O2 0.484728 0.828040 0.137266
O O3 0.485462 0.000000 0.103569
O O4 0.500000 0.876372 0.000000
O O5 0.250000 0.166391 0.622358
O O6 0.993803 0.239039 0.581082
O O7 0.036657 0.193467 0.723747
O O8 0.988830 0.080937 0.627114
O O9 0.750000 0.413465 0.726805
O O10 0.998296 0.500000 0.761080
O O11 0.994025 0.385862 0.650878
O O12 0.968631 0.329994 0.795093
O O13 0.000000 0.000000 0.500000
O O14 0.250000 0.000000 0.424126
O O15 0.250000 0.662137 0.428019
O O16 0.000000 0.620467 0.500000
O O17 0.750000 0.788214 0.773307
#
# Coordination Sequence:
#
# PCOD8208722 Si02
#       6
#     8   8   8   4   8   8
#     4   9  18  32  51  77 106 136 167 201 245 298
#     4  11  22  35  50  72  98 129 170 211 254 304
#     4   8  15  29  49  72  97 127 169 215 258 306
#     4  12  24  38  52  68  95 130 171 216 258 300
#     4  10  19  32  49  69  95 129 167 211 264 311
#     4   9  18  33  53  76 101 134 169 206 254 302
#
# _framework density 18.343425
#
# number of rings (size 3 to 8) (size 9 to 14) (size 15 to 20)
#    0.000    2.364    0.000    4.636    1.273    1.091 
#    0.000    0.000    0.000   13.636    0.000    0.000 
#    0.000    0.000    0.000    0.000    0.000    0.000 
#
# Total GULP energy -545251.361856 kJ/mol
# GULP energy per Si atom -12392.076406 kJ/mol
# Density = 1.830168 g / cm^3
# Si number density = 18.343425 Si / 1000 Ang^3
#
#
#
# Elastic Constant Matrix: (Units=GPa)
#
#
# Indices 1 2 3 4 5 6 
#
# 1 63.5285 21.0076 17.0954 0.0000 0.0000 0.0000
# 2 21.0076 153.2659 59.1245 0.0000 0.0000 0.0000
# 3 17.0954 59.1245 96.5085 0.0000 0.0000 0.0000
# 4 0.0000 0.0000 0.0000 20.6639 0.0000 0.0000
# 5 0.0000 0.0000 0.0000 0.0000 28.6683 0.0000
# 6 0.0000 0.0000 0.0000 0.0000 0.0000 12.6639
#
#
#
# Elastic Compliance Matrix: (Units=1/GPa)
#
#
# Indices 1 2 3 4 5 6 
#
# 1 0.016792 -0.001511 -0.002049 0.000000 0.000000 0.000000
# 2 -0.001511 0.008680 -0.005050 0.000000 0.000000 0.000000
# 3 -0.002049 -0.005050 0.013818 0.000000 0.000000 0.000000
# 4 0.000000 0.000000 0.000000 0.048394 0.000000 0.000000
# 5 0.000000 0.000000 0.000000 0.000000 0.034882 0.000000
# 6 0.000000 0.000000 0.000000 0.000000 0.000000 0.078964
#
#
# Mechanical properties :
#
#
# Convention : Reuss Voigt Hill
#
# Bulk Modulus (GPa) = 45.30914 56.41755 50.86335
# Shear Modulus (GPa) = 22.11350 26.80426 24.45888
#
# Velocity S-wave (km/s) = 3.47584 3.82677 3.65552
# Velocity P-wave (km/s) = 6.39239 7.09568 6.75320
#
# Compressibility (1/GPa) = 0.02207060
#
# Stress axis : x y z
#
# Youngs Moduli (GPa) = 59.55215 115.20999 72.36741
#
# Poissons Ratio (x) = 0.17412 0.14825
# Poissons Ratio (y) = 0.09000 0.36544
# Poissons Ratio (z) = 0.12200 0.58179
#
# Static dielectric constant tensor:
#      x y z
#    x 3.218720 0.000000 0.000000 
#    y 0.000000 3.844350 0.000000 
#    z 0.000000 0.000000 2.773340 
# 
# 
# High freq. dielectric constant tensor:
#      x y z
#    x 1.696720 0.000000 0.000000 
#    y 0.000000 1.719060 0.000000 
#    z 0.000000 0.000000 1.688040 
# 
# From -- ./inp_files/27352.got.cif
#   From: 2010.03.12/outbox.cif.g09.slc.cpg/sg51_14_cif.got.tgz:27352.got - 2010.04.16 13:43:02.
