data_PCOD8208657
_publ_section_title
;
Structure prediction by ZEFSAII (Michael W. Deem and Ramdas Pophale) SiO2 
 PCOD8208657
Probable space group: P M M A
;
_chemical_formula_sum "Si O2"
_cell_formula_units_Z 64
_cell_length_a 17.011277
_cell_length_b 21.505931
_cell_length_c 9.397319
_cell_angle_alpha 90.000000
_cell_angle_beta 90.000000
_cell_angle_gamma 90.000000
_cell_volume 3437.946658
_symmetry_space_group_name_H-M "P M M A"
_symmetry_group_IT_number 51
_symmetry_cell_setting 'orthorhombic'
loop_
_space_group_symop_operation_xyz
x,y,z
1/2-x,-y,z
1/2+x,-y,-z
-x,y,-z
-x,-y,-z
1/2+x,y,-z
1/2-x,y,z
x,-y,z
loop_
_atom_site_type_symbol
_atom_site_label
_atom_site_fract_x
_atom_site_fract_y
_atom_site_fract_z
Si Si1 0.508006 0.276219 0.336347
Si Si2 0.660986 0.431698 0.553101
Si Si3 0.983222 0.133715 0.665760
Si Si4 0.924679 0.068508 0.098877
Si Si5 0.839836 0.073888 0.827319
Si Si6 0.389468 0.429107 0.900357
Si Si7 0.336116 0.337438 0.687653
Si Si8 0.444525 0.605997 0.198429
O O1 0.500000 0.294832 0.500000
O O2 0.477673 0.207114 0.308902
O O3 0.599834 0.283176 0.289874
O O4 0.455010 0.321755 0.240883
O O5 0.750000 0.419608 0.604573
O O6 0.654291 0.500000 0.480253
O O7 0.634879 0.378274 0.445504
O O8 0.603993 0.431590 0.686407
O O9 0.899622 0.105044 0.714252
O O10 0.000000 0.117593 0.500000
O O11 0.056412 0.109673 0.761952
O O12 0.900840 0.000000 0.154934
O O13 0.857340 0.095272 0.991720
O O14 0.000000 0.063867 0.000000
O O15 0.750000 0.092656 0.789431
O O16 0.852610 0.000000 0.816543
O O17 0.359247 0.500000 0.912180
O O18 0.328142 0.385515 0.818388
O O19 0.472187 0.428145 0.817000
O O20 0.396752 0.397154 0.053103
O O21 0.250000 0.307234 0.663620
#
# Coordination Sequence:
#
# PCOD8208657 Si02
#       8
#     8   8   8   8   8   8   8   8
#     4  10  20  38  56  76 105 148 190 226 264 318
#     4  10  19  31  52  78  99 127 173 225 275 331
#     4  10  20  34  56  85 116 154 198 236 275 326
#     4   8  15  31  54  81 112 148 185 222 268 321
#     4   9  18  36  60  88 123 155 186 231 282 326
#     4  10  20  33  52  76 104 134 166 218 285 344
#     4  10  21  37  54  75 105 138 174 223 280 330
#     4  10  19  35  52  73 104 136 176 220 267 328
#
# _framework density 18.615763000000001
#
# number of rings (size 3 to 8) (size 9 to 14) (size 15 to 20)
#    0.000    2.375    1.250    3.000    0.000    2.250 
#   13.500    6.250    0.000    1.500    0.000    0.000 
#    0.000    0.000    0.000    0.000    0.000    0.000 
#
# Total GULP energy -793211.186888 kJ/mol
# GULP energy per Si atom -12393.924795 kJ/mol
# Density = 1.857339 g / cm^3
# Si number density = 18.615763 Si / 1000 Ang^3
#
#
#
# Elastic Constant Matrix: (Units=GPa)
#
#
# Indices 1 2 3 4 5 6 
#
# 1 80.6849 32.2438 32.1800 0.0000 0.0000 0.0000
# 2 32.2438 81.7768 39.3346 0.0000 0.0000 0.0000
# 3 32.1800 39.3346 98.3403 0.0000 0.0000 0.0000
# 4 0.0000 0.0000 0.0000 27.7975 0.0000 0.0000
# 5 0.0000 0.0000 0.0000 0.0000 29.2947 0.0000
# 6 0.0000 0.0000 0.0000 0.0000 0.0000 10.2718
#
#
#
# Elastic Compliance Matrix: (Units=1/GPa)
#
#
# Indices 1 2 3 4 5 6 
#
# 1 0.015511 -0.004550 -0.003256 0.000000 0.000000 0.000000
# 2 -0.004550 0.016476 -0.005101 0.000000 0.000000 0.000000
# 3 -0.003256 -0.005101 0.013275 0.000000 0.000000 0.000000
# 4 0.000000 0.000000 0.000000 0.035974 0.000000 0.000000
# 5 0.000000 0.000000 0.000000 0.000000 0.034136 0.000000
# 6 0.000000 0.000000 0.000000 0.000000 0.000000 0.097354
#
#
# Mechanical properties :
#
#
# Convention : Reuss Voigt Hill
#
# Bulk Modulus (GPa) = 51.42001 52.03542 51.72772
# Shear Modulus (GPa) = 20.40633 23.94236 22.17435
#
# Velocity S-wave (km/s) = 3.31446 3.59016 3.45506
# Velocity P-wave (km/s) = 6.50609 6.72300 6.61544
#
# Compressibility (1/GPa) = 0.01944768
#
# Stress axis : x y z
#
# Youngs Moduli (GPa) = 64.47219 60.69420 75.33168
#
# Poissons Ratio (x) = 0.27614 0.24526
# Poissons Ratio (y) = 0.29333 0.38430
# Poissons Ratio (z) = 0.20991 0.30962
#
# Static dielectric constant tensor:
#      x y z
#    x 3.463570 0.000000 0.000000 
#    y 0.000000 3.259710 0.000000 
#    z 0.000000 0.000000 3.548410 
# 
# 
# High freq. dielectric constant tensor:
#      x y z
#    x 1.713760 0.000000 0.000000 
#    y 0.000000 1.704970 0.000000 
#    z 0.000000 0.000000 1.722300 
# 
# From -- ./inp_files/10064.got.cif
#   From: 2010.03.12/outbox.cif.g09.slc.cpg/sg51_6_cif.got.tgz:10064.got - 2010.04.16 13:43:02.
