data_PCOD8208127
_publ_section_title
;
Structure prediction by ZEFSAII (Michael W. Deem and Ramdas Pophale) SiO2 
 PCOD8208127
Probable space group: P M M A
;
_chemical_formula_sum "Si O2"
_cell_formula_units_Z 64
_cell_length_a 9.153043
_cell_length_b 14.340273
_cell_length_c 28.049960
_cell_angle_alpha 90.000000
_cell_angle_beta 90.000000
_cell_angle_gamma 90.000000
_cell_volume 3681.757398
_symmetry_space_group_name_H-M "P M M A"
_symmetry_group_IT_number 51
_symmetry_cell_setting 'orthorhombic'
loop_
_space_group_symop_operation_xyz
x,y,z
1/2-x,-y,z
1/2+x,-y,-z
-x,y,-z
-x,-y,-z
1/2+x,y,-z
1/2-x,y,z
x,-y,z
loop_
_atom_site_type_symbol
_atom_site_label
_atom_site_fract_x
_atom_site_fract_y
_atom_site_fract_z
Si Si1 0.082346 0.392208 0.716150
Si Si2 0.922926 0.724672 0.638211
Si Si3 0.578319 0.893077 0.952257
Si Si4 0.579484 0.394723 0.174246
Si Si5 0.917051 0.107515 0.770976
Si Si6 0.922563 0.776424 0.862062
Si Si7 0.421249 0.606565 0.452523
Si Si8 0.078438 0.106630 0.674463
O O1 0.250000 0.362630 0.706819
O O2 0.060017 0.500000 0.702747
O O3 0.038664 0.374757 0.770860
O O4 0.974787 0.330733 0.684663
O O5 0.750000 0.736022 0.640222
O O6 0.974273 0.669599 0.591306
O O7 0.997802 0.826589 0.636586
O O8 0.750000 0.881864 0.959551
O O9 0.520631 0.830043 0.908797
O O10 0.536461 0.000000 0.941017
O O11 0.500000 0.857663 0.000000
O O12 0.750000 0.379391 0.166146
O O13 0.534582 0.500000 0.160713
O O14 0.492168 0.326048 0.139488
O O15 0.750000 0.132075 0.757113
O O16 0.973407 0.166316 0.815744
O O17 0.020690 0.132277 0.726901
O O18 0.930522 0.000000 0.785611
O O19 0.750000 0.766850 0.863401
O O20 0.500000 0.643192 0.500000
O O21 0.250000 0.615661 0.460877
O O22 0.466391 0.500000 0.441388
O O23 0.250000 0.125158 0.673114
O O24 0.040039 0.000000 0.661249
#
# Coordination Sequence:
#
# PCOD8208127 Si02
#       8
#     8   8   8   8   8   8   8   8
#     4   9  18  32  49  71 101 135 167 198 236 284
#     4  11  21  32  50  75 101 129 163 203 244 288
#     4   9  18  33  51  72  99 126 152 187 233 285
#     4   9  19  34  48  65  94 130 165 201 238 276
#     4   9  17  30  48  71 100 131 160 192 236 288
#     4  10  19  30  48  73  97 124 159 197 237 282
#     4   9  19  35  53  75 102 128 155 191 237 288
#     4  10  21  35  49  68  97 132 169 207 242 280
#
# _framework density 17.383002999999999
#
# number of rings (size 3 to 8) (size 9 to 14) (size 15 to 20)
#    0.000    2.500    0.000    3.000    0.000    7.750 
#    0.000    2.500    0.000    4.500    0.000    0.000 
#    0.000    0.000    0.000    0.000    0.000    0.000 
#
# Total GULP energy -793736.588273 kJ/mol
# GULP energy per Si atom -12402.134192 kJ/mol
# Density = 1.734344 g / cm^3
# Si number density = 17.383003 Si / 1000 Ang^3
#
#
#
# Elastic Constant Matrix: (Units=GPa)
#
#
# Indices 1 2 3 4 5 6 
#
# 1 53.8429 45.1719 43.6819 0.0000 0.0000 0.0000
# 2 45.1719 113.6438 75.0866 0.0000 0.0000 0.0000
# 3 43.6819 75.0866 100.8296 0.0000 0.0000 0.0000
# 4 0.0000 0.0000 0.0000 31.2486 0.0000 0.0000
# 5 0.0000 0.0000 0.0000 0.0000 28.8348 0.0000
# 6 0.0000 0.0000 0.0000 0.0000 0.0000 31.2734
#
#
#
# Elastic Compliance Matrix: (Units=1/GPa)
#
#
# Indices 1 2 3 4 5 6 
#
# 1 0.031104 -0.006812 -0.008402 0.000000 0.000000 0.000000
# 2 -0.006812 0.018814 -0.011060 0.000000 0.000000 0.000000
# 3 -0.008402 -0.011060 0.021794 0.000000 0.000000 0.000000
# 4 0.000000 0.000000 0.000000 0.032001 0.000000 0.000000
# 5 0.000000 0.000000 0.000000 0.000000 0.034680 0.000000
# 6 0.000000 0.000000 0.000000 0.000000 0.000000 0.031976
#
#
# Mechanical properties :
#
#
# Convention : Reuss Voigt Hill
#
# Bulk Modulus (GPa) = 52.18001 66.24410 59.21206
# Shear Modulus (GPa) = 21.80485 25.22975 23.51730
#
# Velocity S-wave (km/s) = 3.54556 3.81386 3.68216
# Velocity P-wave (km/s) = 6.84429 7.58850 7.22598
#
# Compressibility (1/GPa) = 0.01916443
#
# Stress axis : x y z
#
# Youngs Moduli (GPa) = 32.15006 53.15050 45.88421
#
# Poissons Ratio (x) = 0.36205 0.38554
# Poissons Ratio (y) = 0.21900 0.50747
# Poissons Ratio (z) = 0.27014 0.58784
#
# Static dielectric constant tensor:
#      x y z
#    x 3.132790 0.000000 0.000000 
#    y 0.000000 3.360980 0.000000 
#    z 0.000000 0.000000 3.149600 
# 
# 
# High freq. dielectric constant tensor:
#      x y z
#    x 1.669230 0.000000 0.000000 
#    y 0.000000 1.675270 0.000000 
#    z 0.000000 0.000000 1.650920 
# 
# From -- ./inp_files/34884.got.cif
#   From: 2010.03.12/outbox.cif.g09.slc.cpg/sg51_18_cif.got.tgz:34884.got - 2010.04.16 13:43:02.
