data_PCOD8208351
_publ_section_title
;
Structure prediction by ZEFSAII (Michael W. Deem and Ramdas Pophale) SiO2 
 PCOD8208351
Probable space group: P M M A
;
_chemical_formula_sum "Si O2"
_cell_formula_units_Z 52
_cell_length_a 8.976062
_cell_length_b 22.556040
_cell_length_c 15.348320
_cell_angle_alpha 90.000000
_cell_angle_beta 90.000000
_cell_angle_gamma 90.000000
_cell_volume 3107.488607
_symmetry_space_group_name_H-M "P M M A"
_symmetry_group_IT_number 51
_symmetry_cell_setting 'orthorhombic'
loop_
_space_group_symop_operation_xyz
x,y,z
1/2-x,-y,z
1/2+x,-y,-z
-x,y,-z
-x,-y,-z
1/2+x,y,-z
1/2-x,y,z
x,-y,z
loop_
_atom_site_type_symbol
_atom_site_label
_atom_site_fract_x
_atom_site_fract_y
_atom_site_fract_z
Si Si1 0.926166 0.871425 0.594850
Si Si2 0.073418 0.343756 0.261094
Si Si3 0.919675 0.000000 0.589715
Si Si4 0.413105 0.789322 0.918153
Si Si5 0.075604 0.567140 0.412448
Si Si6 0.071275 0.781408 0.727284
Si Si7 0.582972 0.351235 0.084166
O O1 0.750000 0.857380 0.588710
O O2 0.000000 0.866666 0.500000
O O3 0.008021 0.825265 0.655945
O O4 0.955729 0.937352 0.637503
O O5 0.250000 0.334132 0.253794
O O6 0.027522 0.392493 0.331813
O O7 0.996015 0.283057 0.290666
O O8 0.011463 0.367719 0.169438
O O9 0.000000 0.000000 0.500000
O O10 0.750000 0.000000 0.562602
O O11 0.250000 0.817365 0.924241
O O12 0.481799 0.804536 0.823095
O O13 0.406827 0.718949 0.926606
O O14 0.500000 0.817493 0.000000
O O15 0.250000 0.570197 0.427892
O O16 0.022582 0.500000 0.392957
O O17 0.000000 0.591854 0.500000
O O18 0.250000 0.777289 0.723139
O O19 0.750000 0.377740 0.091195
O O20 0.500000 0.378805 0.000000
#
# Coordination Sequence:
#
# PCOD8208351 Si02
#       7
#     8   8   4   8   8   8   8
#     4  10  19  32  49  69  94 125 158 193 233 277
#     4  10  19  31  48  70  96 125 155 191 237 283
#     4   8  16  30  48  68  89 116 155 196 231 272
#     4   8  15  26  41  61  87 118 150 185 223 264
#     4   9  19  35  53  71  90 116 154 197 237 279
#     4  10  20  32  45  68 100 128 156 191 231 278
#     4   9  16  27  44  67  94 123 154 188 228 276
#
# _framework density 16.733768999999999
#
# number of rings (size 3 to 8) (size 9 to 14) (size 15 to 20)
#    0.000    2.769    0.000    2.769    0.000    6.769 
#    0.000    1.538    0.000    0.462    0.000    0.538 
#    0.000    0.000    0.000    0.000    0.000    0.000 
#
# Total GULP energy -644363.293578 kJ/mol
# GULP energy per Si atom -12391.601800 kJ/mol
# Density = 1.669568 g / cm^3
# Si number density = 16.733769 Si / 1000 Ang^3
#
#
#
# Elastic Constant Matrix: (Units=GPa)
#
#
# Indices 1 2 3 4 5 6 
#
# 1 86.8775 41.4111 58.7439 0.0000 0.0000 0.0000
# 2 41.4111 73.5358 66.8010 0.0000 0.0000 0.0000
# 3 58.7439 66.8010 139.3025 0.0000 0.0000 0.0000
# 4 0.0000 0.0000 0.0000 -3.5035 0.0000 0.0000
# 5 0.0000 0.0000 0.0000 0.0000 33.5403 0.0000
# 6 0.0000 0.0000 0.0000 0.0000 0.0000 11.8310
#
#
#
# Elastic Compliance Matrix: (Units=1/GPa)
#
#
# Indices 1 2 3 4 5 6 
#
# 1 0.017277 -0.005512 -0.004642 0.000000 0.000000 0.000000
# 2 -0.005512 0.025854 -0.010073 0.000000 0.000000 0.000000
# 3 -0.004642 -0.010073 0.013967 0.000000 0.000000 0.000000
# 4 0.000000 0.000000 0.000000 -0.285430 0.000000 0.000000
# 5 0.000000 0.000000 0.000000 0.000000 0.029815 0.000000
# 6 0.000000 0.000000 0.000000 0.000000 0.000000 0.084523
#
#
# Mechanical properties :
#
#
# Convention : Reuss Voigt Hill
#
# Bulk Modulus (GPa) = 60.09004 70.40309 65.24656
# Shear Modulus (GPa) = -73.53932 17.22423 -28.15754
#
# Velocity S-wave (km/s) = -6.63642 3.21177 -4.10650
# Velocity P-wave (km/s) = 4.76816 7.47782 4.07323
#
# Compressibility (1/GPa) = 0.01664169
#
# Stress axis : x y z
#
# Youngs Moduli (GPa) = 57.88069 38.67909 71.59781
#
# Poissons Ratio (x) = 0.21321 0.33238
# Poissons Ratio (y) = 0.31905 0.72123
# Poissons Ratio (z) = 0.26870 0.38963
#
# Static dielectric constant tensor:
#      x y z
#    x 3.341040 0.000000 0.000000 
#    y 0.000000 3.114180 0.000000 
#    z 0.000000 0.000000 3.254920 
# 
# 
# High freq. dielectric constant tensor:
#      x y z
#    x 1.658700 0.000000 0.000000 
#    y 0.000000 1.606920 0.000000 
#    z 0.000000 0.000000 1.645000 
# 
# From -- ./inp_files/22102.got.cif
#   From: 2010.03.12/outbox.cif.g09.slc.cpg/sg51_12_cif.got.tgz:22102.got - 2010.04.16 13:43:02.
