data_PCOD8208618
_publ_section_title
;
Structure prediction by ZEFSAII (Michael W. Deem and Ramdas Pophale) SiO2 
 PCOD8208618
Probable space group: P M M A
;
_chemical_formula_sum "Si O2"
_cell_formula_units_Z 56
_cell_length_a 18.519657
_cell_length_b 30.891978
_cell_length_c 5.092074
_cell_angle_alpha 90.000000
_cell_angle_beta 90.000000
_cell_angle_gamma 90.000000
_cell_volume 2913.220532
_symmetry_space_group_name_H-M "P M M A"
_symmetry_group_IT_number 51
_symmetry_cell_setting 'orthorhombic'
loop_
_space_group_symop_operation_xyz
x,y,z
1/2-x,-y,z
1/2+x,-y,-z
-x,y,-z
-x,-y,-z
1/2+x,y,-z
1/2-x,y,z
x,-y,z
loop_
_atom_site_type_symbol
_atom_site_label
_atom_site_fract_x
_atom_site_fract_y
_atom_site_fract_z
Si Si1 0.915211 0.690116 0.998624
Si Si2 0.831629 0.117424 0.826551
Si Si3 0.584419 0.256795 0.495840
Si Si4 0.835568 0.451685 0.467436
Si Si5 0.331018 0.173239 0.684302
Si Si6 0.547136 0.951127 0.742086
Si Si7 0.835527 0.398879 0.971420
O O1 0.892544 0.707031 0.284448
O O2 0.892333 0.726179 0.782802
O O3 0.872676 0.646945 0.932188
O O4 0.000000 0.680129 0.000000
O O5 0.750000 0.103412 0.905359
O O6 0.832255 0.137849 0.540974
O O7 0.881158 0.075485 0.806014
O O8 0.860951 0.151310 0.047129
O O9 0.500000 0.247665 0.500000
O O10 0.620694 0.212420 0.413401
O O11 0.750000 0.454869 0.447736
O O12 0.868699 0.500000 0.448636
O O13 0.860030 0.430187 0.737721
O O14 0.864892 0.421737 0.233512
O O15 0.250000 0.190637 0.733774
O O16 0.500000 0.931642 0.500000
O O17 0.571052 0.000000 0.670003
O O18 0.500000 0.950184 0.000000
O O19 0.750000 0.391521 0.975984
#
# Coordination Sequence:
#
# PCOD8208618 Si02
#       7
#     8   8   8   8   8   8   8
#     4  10  21  36  52  72 102 135 167 209 258 305
#     4  10  21  37  56  81 112 145 180 219 272 330
#     4  10  21  36  53  74 100 135 175 211 256 314
#     4   9  17  30  49  74 102 128 159 204 251 295
#     4  10  21  36  55  80 109 139 175 222 269 315
#     4  10  21  37  57  83 113 145 185 230 271 314
#     4  10  19  31  51  76  97 126 168 205 245 301
#
# _framework density 19.222712000000001
#
# number of rings (size 3 to 8) (size 9 to 14) (size 15 to 20)
#    0.000    2.143    0.000    3.000    0.000    4.857 
#    0.000    0.000    0.000    7.714    0.000    0.000 
#    0.000    0.000    0.000    0.000    0.000    0.000 
#
# Total GULP energy -694413.012258 kJ/mol
# GULP energy per Si atom -12400.232362 kJ/mol
# Density = 1.917896 g / cm^3
# Si number density = 19.222712 Si / 1000 Ang^3
#
#
#
# Elastic Constant Matrix: (Units=GPa)
#
#
# Indices 1 2 3 4 5 6 
#
# 1 54.8535 55.1739 26.4636 0.0000 0.0000 0.0000
# 2 55.1739 108.0617 21.4323 0.0000 0.0000 0.0000
# 3 26.4636 21.4323 105.4528 0.0000 0.0000 0.0000
# 4 0.0000 0.0000 0.0000 33.2332 0.0000 0.0000
# 5 0.0000 0.0000 0.0000 0.0000 19.3368 0.0000
# 6 0.0000 0.0000 0.0000 0.0000 0.0000 57.7699
#
#
#
# Elastic Compliance Matrix: (Units=1/GPa)
#
#
# Indices 1 2 3 4 5 6 
#
# 1 0.041148 -0.019758 -0.006311 0.000000 0.000000 0.000000
# 2 -0.019758 0.019129 0.001070 0.000000 0.000000 0.000000
# 3 -0.006311 0.001070 0.010849 0.000000 0.000000 0.000000
# 4 0.000000 0.000000 0.000000 0.030090 0.000000 0.000000
# 5 0.000000 0.000000 0.000000 0.000000 0.051715 0.000000
# 6 0.000000 0.000000 0.000000 0.000000 0.000000 0.017310
#
#
# Mechanical properties :
#
#
# Convention : Reuss Voigt Hill
#
# Bulk Modulus (GPa) = 47.32458 52.72305 50.02382
# Shear Modulus (GPa) = 21.99920 33.08785 27.54353
#
# Velocity S-wave (km/s) = 3.38662 4.15334 3.78943
# Velocity P-wave (km/s) = 6.32178 7.10545 6.72504
#
# Compressibility (1/GPa) = 0.02113067
#
# Stress axis : x y z
#
# Youngs Moduli (GPa) = 24.30261 52.27539 92.17406
#
# Poissons Ratio (x) = 1.03283 0.58167
# Poissons Ratio (y) = 0.48016 -0.09866
# Poissons Ratio (z) = 0.15336 -0.05595
#
# Static dielectric constant tensor:
#      x y z
#    x 3.269640 0.000000 0.000000 
#    y 0.000000 3.470860 0.000000 
#    z 0.000000 0.000000 3.890710 
# 
# 
# High freq. dielectric constant tensor:
#      x y z
#    x 1.721390 0.000000 0.000000 
#    y 0.000000 1.748390 0.000000 
#    z 0.000000 0.000000 1.772220 
# 
# From -- ./inp_files/1483.got.cif
#   From: 2010.03.12/outbox.cif.g09.slc.cpg/sg51_1_cif.got.tgz:1483.got - 2010.04.16 13:43:02.
