data_PCOD8208465
_publ_section_title
;
Structure prediction by ZEFSAII (Michael W. Deem and Ramdas Pophale) SiO2 
 PCOD8208465
Probable space group: P M M A
;
_chemical_formula_sum "Si O2"
_cell_formula_units_Z 64
_cell_length_a 21.952183
_cell_length_b 18.754970
_cell_length_c 8.153889
_cell_angle_alpha 90.000000
_cell_angle_beta 90.000000
_cell_angle_gamma 90.000000
_cell_volume 3357.058299
_symmetry_space_group_name_H-M "P M M A"
_symmetry_group_IT_number 51
_symmetry_cell_setting 'orthorhombic'
loop_
_space_group_symop_operation_xyz
x,y,z
1/2-x,-y,z
1/2+x,-y,-z
-x,y,-z
-x,-y,-z
1/2+x,y,-z
1/2-x,y,z
x,-y,z
loop_
_atom_site_type_symbol
_atom_site_label
_atom_site_fract_x
_atom_site_fract_y
_atom_site_fract_z
Si Si1 0.899742 0.418599 0.816426
Si Si2 0.136934 0.311139 0.690096
Si Si3 0.320794 0.839786 0.186181
Si Si4 0.973226 0.581173 0.319315
Si Si5 0.684566 0.579314 0.526170
Si Si6 0.819954 0.306111 0.966519
Si Si7 0.677597 0.919425 0.132902
Si Si8 0.822858 0.828458 0.448531
O O1 0.883918 0.500000 0.857169
O O2 0.869946 0.396279 0.643224
O O3 0.971985 0.405896 0.810048
O O4 0.866943 0.371546 0.952592
O O5 0.073220 0.353800 0.709365
O O6 0.185423 0.369523 0.629548
O O7 0.164698 0.276129 0.854032
O O8 0.136980 0.244024 0.566333
O O9 0.250000 0.854591 0.168723
O O10 0.341185 0.861427 0.371678
O O11 0.334514 0.755715 0.163811
O O12 0.350816 0.884170 0.034529
O O13 0.946657 0.500000 0.291556
O O14 0.000000 0.585201 0.500000
O O15 0.750000 0.584775 0.617627
O O16 0.672543 0.500000 0.461508
O O17 0.750000 0.331233 0.951269
O O18 0.750000 0.917003 0.125299
O O19 0.656766 0.881110 0.301862
O O20 0.653061 0.000000 0.140462
O O21 0.750000 0.812328 0.444160
#
# Coordination Sequence:
#
# PCOD8208465 Si02
#       8
#     8   8   8   8   8   8   8   8
#     4  10  21  37  54  71  99 140 184 233 286 339
#     4  12  21  33  54  76 106 146 187 233 285 333
#     4   9  18  32  49  73 110 151 184 219 269 329
#     4  10  21  39  57  74 101 142 194 247 293 337
#     4  10  19  31  49  73  98 132 180 226 275 337
#     4  11  22  35  52  78 112 144 180 231 288 343
#     4   9  17  31  51  78 115 153 186 220 263 329
#     4  10  19  32  52  80 114 150 187 228 282 340
#
# _framework density 19.064309999999999
#
# number of rings (size 3 to 8) (size 9 to 14) (size 15 to 20)
#    0.000    1.875    2.500    2.625    0.000    3.750 
#    0.000    3.750    0.000    0.000    0.000    0.000 
#    0.000    2.500    0.000    0.000    0.000    0.000 
#
# Total GULP energy -792881.864697 kJ/mol
# GULP energy per Si atom -12388.779136 kJ/mol
# Density = 1.902092 g / cm^3
# Si number density = 19.064310 Si / 1000 Ang^3
#
#
#
# Elastic Constant Matrix: (Units=GPa)
#
#
# Indices 1 2 3 4 5 6 
#
# 1 56.0500 26.7862 14.2451 0.0000 0.0000 0.0000
# 2 26.7862 93.9068 57.1436 0.0000 0.0000 0.0000
# 3 14.2451 57.1436 124.9255 0.0000 0.0000 0.0000
# 4 0.0000 0.0000 0.0000 27.8325 0.0000 0.0000
# 5 0.0000 0.0000 0.0000 0.0000 17.3196 0.0000
# 6 0.0000 0.0000 0.0000 0.0000 0.0000 14.9192
#
#
#
# Elastic Compliance Matrix: (Units=1/GPa)
#
#
# Indices 1 2 3 4 5 6 
#
# 1 0.020677 -0.006185 0.000471 0.000000 0.000000 0.000000
# 2 -0.006185 0.016606 -0.006891 0.000000 0.000000 0.000000
# 3 0.000471 -0.006891 0.011103 0.000000 0.000000 0.000000
# 4 0.000000 0.000000 0.000000 0.035929 0.000000 0.000000
# 5 0.000000 0.000000 0.000000 0.000000 0.057738 0.000000
# 6 0.000000 0.000000 0.000000 0.000000 0.000000 0.067028
#
#
# Mechanical properties :
#
#
# Convention : Reuss Voigt Hill
#
# Bulk Modulus (GPa) = 43.14482 52.35913 47.75197
# Shear Modulus (GPa) = 20.65980 23.79475 22.22727
#
# Velocity S-wave (km/s) = 3.29552 3.53672 3.41825
# Velocity P-wave (km/s) = 6.09597 6.64846 6.37820
#
# Compressibility (1/GPa) = 0.02317775
#
# Stress axis : x y z
#
# Youngs Moduli (GPa) = 48.36256 60.21874 90.06568
#
# Poissons Ratio (x) = 0.37244 -0.04244
# Poissons Ratio (y) = 0.29911 0.62062
# Poissons Ratio (z) = -0.02279 0.41495
#
# Static dielectric constant tensor:
#      x y z
#    x 3.749300 0.000000 0.000000 
#    y 0.000000 3.419080 0.000000 
#    z 0.000000 0.000000 3.738130 
# 
# 
# High freq. dielectric constant tensor:
#      x y z
#    x 1.692610 0.000000 0.000000 
#    y 0.000000 1.727050 0.000000 
#    z 0.000000 0.000000 1.753020 
# 
# From -- ./inp_files/11226.got.cif
#   From: 2010.03.12/outbox.cif.g09.slc.cpg/sg51_6_cif.got.tgz:11226.got - 2010.04.16 13:43:02.
