data_PCOD8208430
_publ_section_title
;
Structure prediction by ZEFSAII (Michael W. Deem and Ramdas Pophale) SiO2 
 PCOD8208430
Probable space group: P M M A
;
_chemical_formula_sum "Si O2"
_cell_formula_units_Z 36
_cell_length_a 9.114115
_cell_length_b 16.035949
_cell_length_c 13.419408
_cell_angle_alpha 90.000000
_cell_angle_beta 90.000000
_cell_angle_gamma 90.000000
_cell_volume 1961.293223
_symmetry_space_group_name_H-M "P M M A"
_symmetry_group_IT_number 51
_symmetry_cell_setting 'orthorhombic'
loop_
_space_group_symop_operation_xyz
x,y,z
1/2-x,-y,z
1/2+x,-y,-z
-x,y,-z
-x,-y,-z
1/2+x,y,-z
1/2-x,y,z
x,-y,z
loop_
_atom_site_type_symbol
_atom_site_label
_atom_site_fract_x
_atom_site_fract_y
_atom_site_fract_z
Si Si1 0.918020 0.593112 0.218436
Si Si2 0.077823 0.755059 0.897096
Si Si3 0.579927 0.166664 0.716948
Si Si4 0.579931 0.666924 0.602593
Si Si5 0.922242 0.000000 0.605362
O O1 0.750000 0.607763 0.251248
O O2 0.941938 0.500000 0.175120
O O3 0.961356 0.659901 0.133718
O O4 0.018694 0.603818 0.314960
O O5 0.250000 0.769083 0.909458
O O6 0.017742 0.818765 0.814496
O O7 0.000000 0.776086 0.000000
O O8 0.750000 0.165220 0.749071
O O9 0.550041 0.238311 0.635872
O O10 0.529004 0.080395 0.668149
O O11 0.500000 0.648759 0.500000
O O12 0.750000 0.648207 0.587953
O O13 0.000000 0.000000 0.500000
O O14 0.750000 0.000000 0.584886
#
# Coordination Sequence:
#
# PCOD8208430 Si02
#       5
#     8   8   8   8   4
#     4   9  19  35  52  72  99 130 167 210 253 300
#     4  10  20  35  56  78 101 132 168 208 255 304
#     4   9  19  35  53  76 105 135 170 210 250 296
#     4  10  19  31  49  72 100 135 171 207 250 300
#     4  10  20  34  55  82 111 140 169 206 250 296
#
# _framework density 18.355236000000001
#
# number of rings (size 3 to 8) (size 9 to 14) (size 15 to 20)
#    0.000    2.444    0.000    2.000    0.000    4.000 
#    0.000    0.556    0.000    0.000    0.000    0.000 
#    0.000    0.000    0.000    0.000    0.000    0.000 
#
# Total GULP energy -446507.006900 kJ/mol
# GULP energy per Si atom -12402.972414 kJ/mol
# Density = 1.831346 g / cm^3
# Si number density = 18.355236 Si / 1000 Ang^3
#
#
#
# Elastic Constant Matrix: (Units=GPa)
#
#
# Indices 1 2 3 4 5 6 
#
# 1 84.3735 30.2297 62.9361 0.0000 0.0000 0.0000
# 2 30.2297 106.2291 40.3484 0.0000 0.0000 0.0000
# 3 62.9361 40.3484 123.9835 0.0000 0.0000 0.0000
# 4 0.0000 0.0000 0.0000 13.3794 0.0000 0.0000
# 5 0.0000 0.0000 0.0000 0.0000 34.9894 0.0000
# 6 0.0000 0.0000 0.0000 0.0000 0.0000 24.6026
#
#
#
# Elastic Compliance Matrix: (Units=1/GPa)
#
#
# Indices 1 2 3 4 5 6 
#
# 1 0.019453 -0.002037 -0.009212 0.000000 0.000000 0.000000
# 2 -0.002037 0.010955 -0.002531 0.000000 0.000000 0.000000
# 3 -0.009212 -0.002531 0.013565 0.000000 0.000000 0.000000
# 4 0.000000 0.000000 0.000000 0.074742 0.000000 0.000000
# 5 0.000000 0.000000 0.000000 0.000000 0.028580 0.000000
# 6 0.000000 0.000000 0.000000 0.000000 0.000000 0.040646
#
#
# Mechanical properties :
#
#
# Convention : Reuss Voigt Hill
#
# Bulk Modulus (GPa) = 60.92532 64.62383 62.77458
# Shear Modulus (GPa) = 22.62730 26.66574 24.64652
#
# Velocity S-wave (km/s) = 3.51485 3.81564 3.66833
# Velocity P-wave (km/s) = 7.05242 7.39567 7.22608
#
# Compressibility (1/GPa) = 0.01641354
#
# Stress axis : x y z
#
# Youngs Moduli (GPa) = 51.40536 91.28583 73.71703
#
# Poissons Ratio (x) = 0.18594 0.67907
# Poissons Ratio (y) = 0.10471 0.18658
# Poissons Ratio (z) = 0.47354 0.23105
#
# Static dielectric constant tensor:
#      x y z
#    x 3.422960 0.000000 0.000000 
#    y 0.000000 3.419450 0.000000 
#    z 0.000000 0.000000 3.206100 
# 
# 
# High freq. dielectric constant tensor:
#      x y z
#    x 1.717500 0.000000 0.000000 
#    y 0.000000 1.707840 0.000000 
#    z 0.000000 0.000000 1.705050 
# 
# From -- ./inp_files/20334.got.cif
#   From: 2010.03.12/outbox.cif.g09.slc.cpg/sg51_11_cif.got.tgz:20334.got - 2010.04.16 13:43:02.
