data_PCOD8208969
_publ_section_title
;
Structure prediction by ZEFSAII (Michael W. Deem and Ramdas Pophale) SiO2 
 PCOD8208969
Probable space group: P M M A
;
_chemical_formula_sum "Si O2"
_cell_formula_units_Z 48
_cell_length_a 9.101642
_cell_length_b 30.748010
_cell_length_c 9.582857
_cell_angle_alpha 90.000000
_cell_angle_beta 90.000000
_cell_angle_gamma 90.000000
_cell_volume 2681.833246
_symmetry_space_group_name_H-M "P M M A"
_symmetry_group_IT_number 51
_symmetry_cell_setting 'orthorhombic'
loop_
_space_group_symop_operation_xyz
x,y,z
1/2-x,-y,z
1/2+x,-y,-z
-x,y,-z
-x,-y,-z
1/2+x,y,-z
1/2-x,y,z
x,-y,z
loop_
_atom_site_type_symbol
_atom_site_label
_atom_site_fract_x
_atom_site_fract_y
_atom_site_fract_z
Si Si1 0.582176 0.292773 0.357507
Si Si2 0.076947 0.613424 0.649080
Si Si3 0.419423 0.550601 0.142391
Si Si4 0.421807 0.049373 0.640305
Si Si5 0.077556 0.198463 0.648828
Si Si6 0.576813 0.877100 0.148271
O O1 0.500000 0.294719 0.500000
O O2 0.750000 0.291468 0.400838
O O3 0.550855 0.338601 0.277402
O O4 0.542402 0.246638 0.283754
O O5 0.250000 0.603234 0.634281
O O6 0.000000 0.612696 0.500000
O O7 0.000275 0.576502 0.737528
O O8 0.250000 0.564786 0.130674
O O9 0.434162 0.500000 0.178765
O O10 0.500000 0.562354 0.000000
O O11 0.500000 0.066040 0.500000
O O12 0.250000 0.053415 0.611766
O O13 0.469144 0.079014 0.770590
O O14 0.468911 0.000000 0.675736
O O15 0.250000 0.191526 0.623084
O O16 0.019371 0.163668 0.760608
O O17 0.000000 0.191823 0.500000
O O18 0.750000 0.874529 0.123846
O O19 0.500000 0.876694 0.000000
#
# Coordination Sequence:
#
# PCOD8208969 Si02
#       6
#     8   8   8   8   8   8
#     4   8  15  28  47  71  98 126 157 197 242 286
#     4  10  19  32  52  77 104 132 163 202 247 293
#     4  10  21  37  55  74  98 130 167 205 246 294
#     4   9  18  33  52  74  98 124 159 202 244 288
#     4   9  17  31  51  73  96 124 162 203 241 285
#     4  10  21  34  48  69  99 132 163 199 242 288
#
# _framework density 17.898205000000001
#
# number of rings (size 3 to 8) (size 9 to 14) (size 15 to 20)
#    0.000    2.667    0.000    1.500    0.000    3.667 
#    0.000    0.833    0.000    2.000    0.000    0.000 
#    0.000    0.000    0.000    0.000    0.000    0.000 
#
# Total GULP energy -594741.540455 kJ/mol
# GULP energy per Si atom -12390.448759 kJ/mol
# Density = 1.785747 g / cm^3
# Si number density = 17.898205 Si / 1000 Ang^3
#
#
#
# Elastic Constant Matrix: (Units=GPa)
#
#
# Indices 1 2 3 4 5 6 
#
# 1 72.0411 49.8082 49.0262 0.0000 0.0000 0.0000
# 2 49.8082 113.0388 73.6282 0.0000 0.0000 0.0000
# 3 49.0262 73.6282 113.8690 0.0000 0.0000 0.0000
# 4 0.0000 0.0000 0.0000 6.5822 0.0000 0.0000
# 5 0.0000 0.0000 0.0000 0.0000 32.1601 0.0000
# 6 0.0000 0.0000 0.0000 0.0000 0.0000 6.2595
#
#
#
# Elastic Compliance Matrix: (Units=1/GPa)
#
#
# Indices 1 2 3 4 5 6 
#
# 1 0.021776 -0.006026 -0.005479 0.000000 0.000000 0.000000
# 2 -0.006026 0.016951 -0.008366 0.000000 0.000000 0.000000
# 3 -0.005479 -0.008366 0.016550 0.000000 0.000000 0.000000
# 4 0.000000 0.000000 0.000000 0.151924 0.000000 0.000000
# 5 0.000000 0.000000 0.000000 0.000000 0.031094 0.000000
# 6 0.000000 0.000000 0.000000 0.000000 0.000000 0.159756
#
#
# Mechanical properties :
#
#
# Convention : Reuss Voigt Hill
#
# Bulk Modulus (GPa) = 64.37105 71.54158 67.95631
# Shear Modulus (GPa) = 11.28734 17.43280 14.36007
#
# Velocity S-wave (km/s) = 2.51398 3.12428 2.83560
# Velocity P-wave (km/s) = 6.66858 7.28512 6.98366
#
# Compressibility (1/GPa) = 0.01553493
#
# Stress axis : x y z
#
# Youngs Moduli (GPa) = 45.92170 58.99289 60.42117
#
# Poissons Ratio (x) = 0.35552 0.33105
# Poissons Ratio (y) = 0.27675 0.50548
# Poissons Ratio (z) = 0.25160 0.49354
#
# Static dielectric constant tensor:
#      x y z
#    x 3.388420 0.000000 0.000000 
#    y 0.000000 4.031670 0.000000 
#    z 0.000000 0.000000 2.941540 
# 
# 
# High freq. dielectric constant tensor:
#      x y z
#    x 1.696750 0.000000 0.000000 
#    y 0.000000 1.717160 0.000000 
#    z 0.000000 0.000000 1.659570 
# 
# From -- ./inp_files/6080.got.cif
#   From: 2010.03.12/outbox.cif.g09.slc.cpg/sg51_4_cif.got.tgz:6080.got - 2010.04.16 13:43:02.
