data_PCOD8208526
_publ_section_title
;
Structure prediction by ZEFSAII (Michael W. Deem and Ramdas Pophale) SiO2 
 PCOD8208526
Probable space group: P M M A
;
_chemical_formula_sum "Si O2"
_cell_formula_units_Z 64
_cell_length_a 9.087414
_cell_length_b 27.611649
_cell_length_c 13.329149
_cell_angle_alpha 90.000000
_cell_angle_beta 90.000000
_cell_angle_gamma 90.000000
_cell_volume 3344.529883
_symmetry_space_group_name_H-M "P M M A"
_symmetry_group_IT_number 51
_symmetry_cell_setting 'orthorhombic'
loop_
_space_group_symop_operation_xyz
x,y,z
1/2-x,-y,z
1/2+x,-y,-z
-x,y,-z
-x,-y,-z
1/2+x,y,-z
1/2-x,y,z
x,-y,z
loop_
_atom_site_type_symbol
_atom_site_label
_atom_site_fract_x
_atom_site_fract_y
_atom_site_fract_z
Si Si1 0.081749 0.946465 0.210932
Si Si2 0.920899 0.810017 0.293677
Si Si3 0.075464 0.374742 0.752548
Si Si4 0.909446 0.447959 0.402588
Si Si5 0.423431 0.289587 0.606798
Si Si6 0.579161 0.089924 0.396815
Si Si7 0.423694 0.849652 0.104429
Si Si8 0.577881 0.445928 0.894934
O O1 0.250000 0.937311 0.243629
O O2 0.035089 0.905492 0.130711
O O3 0.982623 0.944484 0.309949
O O4 0.061575 0.000000 0.162493
O O5 0.750000 0.806805 0.262538
O O6 0.971689 0.763660 0.357544
O O7 0.952435 0.854779 0.366752
O O8 0.015062 0.814584 0.191672
O O9 0.250000 0.377829 0.773939
O O10 0.012272 0.411805 0.671007
O O11 0.031634 0.323149 0.702978
O O12 0.988956 0.396001 0.847472
O O13 0.750000 0.426564 0.431057
O O14 0.894541 0.500000 0.349266
O O15 0.000000 0.453926 0.500000
O O16 0.500000 0.302930 0.500000
O O17 0.250000 0.293713 0.587229
O O18 0.500000 0.077280 0.500000
O O19 0.750000 0.079024 0.410211
O O20 0.250000 0.841649 0.094039
O O21 0.500000 0.835750 0.000000
O O22 0.750000 0.436225 0.907525
O O23 0.553159 0.500000 0.843022
O O24 0.500000 0.449539 0.000000
#
# Coordination Sequence:
#
# PCOD8208526 Si02
#       8
#     8   8   8   8   8   8   8   8
#     4   9  19  35  52  73 104 139 174 212 256 311
#     4   9  19  36  55  77 105 137 178 224 267 313
#     4  10  20  34  52  76 107 140 173 212 259 309
#     4   9  17  28  43  65  95 131 167 202 241 288
#     4  10  21  36  56  82 112 145 178 216 263 314
#     4  10  19  31  50  74 101 136 177 222 268 314
#     4  10  20  35  57  82 106 135 172 215 263 313
#     4  10  21  37  58  82 106 136 176 221 267 315
#
# _framework density 19.135724
#
# number of rings (size 3 to 8) (size 9 to 14) (size 15 to 20)
#    0.000    2.375    0.000    2.250    0.000    4.500 
#    0.000    1.875    0.000    0.000    0.000    0.000 
#    0.000    0.000    0.000    0.000    0.000    0.000 
#
# Total GULP energy -792850.332952 kJ/mol
# GULP energy per Si atom -12388.286452 kJ/mol
# Density = 1.909217 g / cm^3
# Si number density = 19.135724 Si / 1000 Ang^3
#
#
#
# Elastic Constant Matrix: (Units=GPa)
#
#
# Indices 1 2 3 4 5 6 
#
# 1 77.8097 20.9914 40.7134 0.0000 0.0000 0.0000
# 2 20.9914 80.8526 17.6864 0.0000 0.0000 0.0000
# 3 40.7134 17.6864 79.9348 0.0000 0.0000 0.0000
# 4 0.0000 0.0000 0.0000 21.8129 0.0000 0.0000
# 5 0.0000 0.0000 0.0000 0.0000 32.5317 0.0000
# 6 0.0000 0.0000 0.0000 0.0000 0.0000 24.0158
#
#
#
# Elastic Compliance Matrix: (Units=1/GPa)
#
#
# Indices 1 2 3 4 5 6 
#
# 1 0.018114 -0.002821 -0.008602 0.000000 0.000000 0.000000
# 2 -0.002821 0.013437 -0.001536 0.000000 0.000000 0.000000
# 3 -0.008602 -0.001536 0.017231 0.000000 0.000000 0.000000
# 4 0.000000 0.000000 0.000000 0.045844 0.000000 0.000000
# 5 0.000000 0.000000 0.000000 0.000000 0.030739 0.000000
# 6 0.000000 0.000000 0.000000 0.000000 0.000000 0.041639
#
#
# Mechanical properties :
#
#
# Convention : Reuss Voigt Hill
#
# Bulk Modulus (GPa) = 43.73753 44.15330 43.94542
# Shear Modulus (GPa) = 24.93220 26.28578 25.60899
#
# Velocity S-wave (km/s) = 3.61351 3.71030 3.66222
# Velocity P-wave (km/s) = 6.34949 6.44041 6.39511
#
# Compressibility (1/GPa) = 0.02286366
#
# Stress axis : x y z
#
# Youngs Moduli (GPa) = 55.20660 74.42326 58.03422
#
# Poissons Ratio (x) = 0.20996 0.49919
# Poissons Ratio (y) = 0.15575 0.08915
# Poissons Ratio (z) = 0.47487 0.11432
#
# Static dielectric constant tensor:
#      x y z
#    x 3.441050 0.000000 0.000000 
#    y 0.000000 3.686350 0.000000 
#    z 0.000000 0.000000 3.113890 
# 
# 
# High freq. dielectric constant tensor:
#      x y z
#    x 1.743090 0.000000 0.000000 
#    y 0.000000 1.743110 0.000000 
#    z 0.000000 0.000000 1.731910 
# 
# From -- ./inp_files/14832.got.cif
#   From: 2010.03.12/outbox.cif.g09.slc.cpg/sg51_8_cif.got.tgz:14832.got - 2010.04.16 13:43:02.
