data_PCOD8208196
_publ_section_title
;
Structure prediction by ZEFSAII (Michael W. Deem and Ramdas Pophale) SiO2 
 PCOD8208196
Probable space group: P M M A
;
_chemical_formula_sum "Si O2"
_cell_formula_units_Z 64
_cell_length_a 28.437798
_cell_length_b 9.047909
_cell_length_c 15.571018
_cell_angle_alpha 90.000000
_cell_angle_beta 90.000000
_cell_angle_gamma 90.000000
_cell_volume 4006.463548
_symmetry_space_group_name_H-M "P M M A"
_symmetry_group_IT_number 51
_symmetry_cell_setting 'orthorhombic'
loop_
_space_group_symop_operation_xyz
x,y,z
1/2-x,-y,z
1/2+x,-y,-z
-x,y,-z
-x,-y,-z
1/2+x,y,-z
1/2-x,y,z
x,-y,z
loop_
_atom_site_type_symbol
_atom_site_label
_atom_site_fract_x
_atom_site_fract_y
_atom_site_fract_z
Si Si1 0.050676 0.673486 0.172221
Si Si2 0.441265 0.326611 0.831166
Si Si3 0.602896 0.325566 0.661276
Si Si4 0.944924 0.670944 0.488316
Si Si5 0.602693 0.172951 0.329988
Si Si6 0.301458 0.673995 0.407551
Si Si7 0.444154 0.166564 0.002171
Si Si8 0.802392 0.169850 0.416157
O O1 0.059063 0.500000 0.159516
O O2 0.078184 0.740484 0.254313
O O3 0.995885 0.708721 0.186145
O O4 0.072381 0.754249 0.089383
O O5 0.431816 0.500000 0.835278
O O6 0.410458 0.256797 0.756398
O O7 0.424269 0.255690 0.920750
O O8 0.595301 0.500000 0.663625
O O9 0.579129 0.265191 0.574440
O O10 0.658225 0.280432 0.660671
O O11 0.931372 0.500000 0.471588
O O12 0.928176 0.767093 0.408324
O O13 0.000000 0.690019 0.500000
O O14 0.658245 0.204173 0.344798
O O15 0.592159 0.000000 0.319265
O O16 0.250000 0.731247 0.376346
O O17 0.301064 0.500000 0.418983
O O18 0.314714 0.736765 0.500071
O O19 0.424380 0.000000 0.999860
O O20 0.500000 0.168172 0.000000
O O21 0.750000 0.209387 0.380732
O O22 0.804790 0.000000 0.444351
#
# Coordination Sequence:
#
# PCOD8208196 Si02
#       8
#     8   8   8   8   8   8   8   8
#     4   9  17  30  47  66  89 121 156 185 220 272
#     4  10  19  31  48  67  90 122 157 187 222 274
#     4   9  16  27  43  64  89 117 151 188 222 262
#     4  10  19  31  45  61  88 127 163 189 219 265
#     4  11  21  31  45  67  93 121 154 193 234 273
#     4   9  16  27  45  66  86 112 150 195 235 266
#     4   9  17  30  47  68  93 117 145 188 235 269
#     4   9  18  32  47  63  87 119 153 190 234 280
#
# _framework density 15.974188
#
# number of rings (size 3 to 8) (size 9 to 14) (size 15 to 20)
#    0.000    2.500    1.250    1.875    0.000    4.750 
#    0.000    1.250    0.000    0.000    0.000    0.875 
#    0.000    3.000    0.000    0.000    0.000    0.000 
#
# Total GULP energy -793429.104761 kJ/mol
# GULP energy per Si atom -12397.329762 kJ/mol
# Density = 1.593783 g / cm^3
# Si number density = 15.974188 Si / 1000 Ang^3
#
#
#
# Elastic Constant Matrix: (Units=GPa)
#
#
# Indices 1 2 3 4 5 6 
#
# 1 79.9830 32.3162 50.8094 0.0000 0.0000 0.0000
# 2 32.3162 56.8875 40.6842 0.0000 0.0000 0.0000
# 3 50.8094 40.6842 122.2552 0.0000 0.0000 0.0000
# 4 0.0000 0.0000 0.0000 15.8620 0.0000 0.0000
# 5 0.0000 0.0000 0.0000 0.0000 12.3270 0.0000
# 6 0.0000 0.0000 0.0000 0.0000 0.0000 12.0068
#
#
#
# Elastic Compliance Matrix: (Units=1/GPa)
#
#
# Indices 1 2 3 4 5 6 
#
# 1 0.018730 -0.006657 -0.005569 0.000000 0.000000 0.000000
# 2 -0.006657 0.025435 -0.005697 0.000000 0.000000 0.000000
# 3 -0.005569 -0.005697 0.012390 0.000000 0.000000 0.000000
# 4 0.000000 0.000000 0.000000 0.063044 0.000000 0.000000
# 5 0.000000 0.000000 0.000000 0.000000 0.081123 0.000000
# 6 0.000000 0.000000 0.000000 0.000000 0.000000 0.083286
#
#
# Mechanical properties :
#
#
# Convention : Reuss Voigt Hill
#
# Bulk Modulus (GPa) = 48.29089 56.30503 52.29796
# Shear Modulus (GPa) = 15.30185 17.06022 16.18103
#
# Velocity S-wave (km/s) = 3.09837 3.27155 3.18614
# Velocity P-wave (km/s) = 6.56476 7.04235 6.80775
#
# Compressibility (1/GPa) = 0.02070784
#
# Stress axis : x y z
#
# Youngs Moduli (GPa) = 53.38999 39.31575 80.71006
#
# Poissons Ratio (x) = 0.26174 0.44946
# Poissons Ratio (y) = 0.35544 0.45985
# Poissons Ratio (z) = 0.29732 0.22400
#
# Static dielectric constant tensor:
#      x y z
#    x 3.158800 0.000000 0.000000 
#    y 0.000000 3.021440 0.000000 
#    z 0.000000 0.000000 3.074180 
# 
# 
# High freq. dielectric constant tensor:
#      x y z
#    x 1.597860 0.000000 0.000000 
#    y 0.000000 1.609560 0.000000 
#    z 0.000000 0.000000 1.602760 
# 
# From -- ./inp_files/26736.got.cif
#   From: 2010.03.12/outbox.cif.g09.slc.cpg/sg51_14_cif.got.tgz:26736.got - 2010.04.16 13:43:02.
