data_PCOD8208906
_publ_section_title
;
Structure prediction by ZEFSAII (Michael W. Deem and Ramdas Pophale) SiO2 
 PCOD8208906
Probable space group: P M M A
;
_chemical_formula_sum "Si O2"
_cell_formula_units_Z 64
_cell_length_a 15.460083
_cell_length_b 18.346780
_cell_length_c 12.775143
_cell_angle_alpha 90.000000
_cell_angle_beta 90.000000
_cell_angle_gamma 90.000000
_cell_volume 3623.576585
_symmetry_space_group_name_H-M "P M M A"
_symmetry_group_IT_number 51
_symmetry_cell_setting 'orthorhombic'
loop_
_space_group_symop_operation_xyz
x,y,z
1/2-x,-y,z
1/2+x,-y,-z
-x,y,-z
-x,-y,-z
1/2+x,y,-z
1/2-x,y,z
x,-y,z
loop_
_atom_site_type_symbol
_atom_site_label
_atom_site_fract_x
_atom_site_fract_y
_atom_site_fract_z
Si Si1 0.498897 0.581125 0.748655
Si Si2 0.149499 0.218441 0.245516
Si Si3 0.352364 0.081211 0.115505
Si Si4 0.851879 0.222030 0.228895
Si Si5 0.498389 0.722040 0.622856
Si Si6 0.343874 0.632191 0.136954
Si Si7 0.852162 0.920428 0.116864
Si Si8 0.915507 0.336161 0.068860
O O1 0.474348 0.500000 0.709572
O O2 0.499603 0.636137 0.650846
O O3 0.593055 0.578839 0.801356
O O4 0.433222 0.606623 0.838627
O O5 0.250000 0.213054 0.283534
O O6 0.114322 0.143348 0.194717
O O7 0.085181 0.236726 0.340343
O O8 0.137687 0.282680 0.161169
O O9 0.250000 0.087348 0.111859
O O10 0.380319 0.000000 0.154159
O O11 0.390522 0.095563 0.999160
O O12 0.750000 0.230506 0.257524
O O13 0.879119 0.139174 0.202439
O O14 0.873037 0.265975 0.122773
O O15 0.910714 0.245184 0.327084
O O16 0.500000 0.731662 0.500000
O O17 0.250000 0.607851 0.174843
O O18 0.349855 0.625005 0.011203
O O19 0.750000 0.920515 0.104808
O O20 0.884856 0.000000 0.155609
O O21 0.000000 0.314903 0.000000
#
# Coordination Sequence:
#
# PCOD8208906 Si02
#       8
#     8   8   8   8   8   8   8   8
#     4   9  19  34  49  68  94 121 152 194 243 292
#     4   9  17  31  51  73  99 129 162 204 248 287
#     4   8  13  23  44  75 107 136 163 190 226 278
#     4  10  19  32  52  74 100 134 169 208 248 287
#     4  10  22  38  55  73  89 115 163 215 260 303
#     4   9  16  26  44  71 100 130 160 187 221 276
#     4   8  14  25  44  73 106 137 165 190 224 277
#     4   9  17  28  46  71 102 136 164 188 222 280
#
# _framework density 17.662108
#
# number of rings (size 3 to 8) (size 9 to 14) (size 15 to 20)
#    0.000    3.000    0.000    2.625    0.000    5.250 
#    0.000    0.625    0.000   12.375    0.000    8.750 
#    0.000    0.000    0.000    0.000    0.000    0.000 
#
# Total GULP energy -793021.482055 kJ/mol
# GULP energy per Si atom -12390.960657 kJ/mol
# Density = 1.762191 g / cm^3
# Si number density = 17.662108 Si / 1000 Ang^3
#
#
#
# Elastic Constant Matrix: (Units=GPa)
#
#
# Indices 1 2 3 4 5 6 
#
# 1 66.6898 32.5507 34.5745 0.0000 0.0000 0.0000
# 2 32.5507 118.2675 43.1124 0.0000 0.0000 0.0000
# 3 34.5745 43.1124 101.1752 0.0000 0.0000 0.0000
# 4 0.0000 0.0000 0.0000 12.8831 0.0000 0.0000
# 5 0.0000 0.0000 0.0000 0.0000 17.3118 0.0000
# 6 0.0000 0.0000 0.0000 0.0000 0.0000 13.8286
#
#
#
# Elastic Compliance Matrix: (Units=1/GPa)
#
#
# Indices 1 2 3 4 5 6 
#
# 1 0.019344 -0.003450 -0.005140 0.000000 0.000000 0.000000
# 2 -0.003450 0.010626 -0.003349 0.000000 0.000000 0.000000
# 3 -0.005140 -0.003349 0.013067 0.000000 0.000000 0.000000
# 4 0.000000 0.000000 0.000000 0.077621 0.000000 0.000000
# 5 0.000000 0.000000 0.000000 0.000000 0.057764 0.000000
# 6 0.000000 0.000000 0.000000 0.000000 0.000000 0.072314
#
#
# Mechanical properties :
#
#
# Convention : Reuss Voigt Hill
#
# Bulk Modulus (GPa) = 52.19593 56.28975 54.24284
# Shear Modulus (GPa) = 17.79357 20.53101 19.16229
#
# Velocity S-wave (km/s) = 3.17747 3.41315 3.29741
# Velocity P-wave (km/s) = 6.56341 6.89001 6.72869
#
# Compressibility (1/GPa) = 0.01915858
#
# Stress axis : x y z
#
# Youngs Moduli (GPa) = 51.69659 94.11106 76.52675
#
# Poissons Ratio (x) = 0.32470 0.39335
# Poissons Ratio (y) = 0.17836 0.25627
# Poissons Ratio (z) = 0.26572 0.31516
#
# Static dielectric constant tensor:
#      x y z
#    x 3.288990 0.000000 0.000000 
#    y 0.000000 3.404390 0.000000 
#    z 0.000000 0.000000 2.915400 
# 
# 
# High freq. dielectric constant tensor:
#      x y z
#    x 1.679590 0.000000 0.000000 
#    y 0.000000 1.682710 0.000000 
#    z 0.000000 0.000000 1.641150 
# 
# From -- ./inp_files/17699.got.cif
#   From: 2010.03.12/outbox.cif.g09.slc.cpg/sg51_9_cif.got.tgz:17699.got - 2010.04.16 13:43:02.
