data_PCOD8208301
_publ_section_title
;
Structure prediction by ZEFSAII (Michael W. Deem and Ramdas Pophale) SiO2 
 PCOD8208301
Probable space group: P M M A
;
_chemical_formula_sum "Si O2"
_cell_formula_units_Z 64
_cell_length_a 8.829769
_cell_length_b 20.820381
_cell_length_c 17.649759
_cell_angle_alpha 90.000000
_cell_angle_beta 90.000000
_cell_angle_gamma 90.000000
_cell_volume 3244.716776
_symmetry_space_group_name_H-M "P M M A"
_symmetry_group_IT_number 51
_symmetry_cell_setting 'orthorhombic'
loop_
_space_group_symop_operation_xyz
x,y,z
1/2-x,-y,z
1/2+x,-y,-z
-x,y,-z
-x,-y,-z
1/2+x,y,-z
1/2-x,y,z
x,-y,z
loop_
_atom_site_type_symbol
_atom_site_label
_atom_site_fract_x
_atom_site_fract_y
_atom_site_fract_z
Si Si1 0.573151 0.355481 0.073277
Si Si2 0.426136 0.197685 0.289833
Si Si3 0.416911 0.426868 0.199060
Si Si4 0.572649 0.929167 0.242001
Si Si5 0.926973 0.100235 0.075301
Si Si6 0.430674 0.707568 0.422288
Si Si7 0.429401 0.429613 0.370591
Si Si8 0.573861 0.773464 0.880888
O O1 0.750000 0.341487 0.063231
O O2 0.547091 0.397991 0.146995
O O3 0.473704 0.292041 0.081154
O O4 0.500000 0.390886 0.000000
O O5 0.250000 0.187617 0.302934
O O6 0.497924 0.126200 0.293570
O O7 0.489789 0.245938 0.354596
O O8 0.462480 0.229610 0.208896
O O9 0.250000 0.393109 0.189694
O O10 0.396749 0.500000 0.176279
O O11 0.477349 0.419537 0.283973
O O12 0.750000 0.914877 0.241383
O O13 0.512609 0.929444 0.154728
O O14 0.536396 0.000000 0.276236
O O15 0.750000 0.089785 0.067829
O O16 0.970994 0.174648 0.077166
O O17 0.000000 0.067861 0.000000
O O18 0.500000 0.734926 0.500000
O O19 0.250000 0.708256 0.424917
O O20 0.491438 0.633564 0.413822
O O21 0.250000 0.432235 0.376286
O O22 0.492792 0.500000 0.399832
O O23 0.750000 0.788790 0.895270
#
# Coordination Sequence:
#
# PCOD8208301 Si02
#       8
#     8   8   8   8   8   8   8   8
#     4  12  24  35  48  68  96 129 167 214 266 314
#     4   9  19  35  56  79 104 137 175 217 260 309
#     4   9  18  35  57  75  92 122 166 212 258 308
#     4   9  19  35  54  77 105 137 175 221 270 316
#     4  10  19  31  47  71 105 140 173 210 256 307
#     4  10  20  34  53  81 114 143 173 208 250 302
#     4   8  15  31  56  81 106 140 177 210 248 300
#     4  10  19  34  54  73  95 127 171 216 259 307
#
# _framework density 19.724371999999999
#
# number of rings (size 3 to 8) (size 9 to 14) (size 15 to 20)
#    0.000    2.375    0.000    3.750    0.000    4.750 
#    0.000    1.875    0.000    1.125    0.000    0.000 
#    0.000    0.000    0.000    0.000    0.000    0.000 
#
# Total GULP energy -793157.566775 kJ/mol
# GULP energy per Si atom -12393.086981 kJ/mol
# Density = 1.967948 g / cm^3
# Si number density = 19.724372 Si / 1000 Ang^3
#
#
#
# Elastic Constant Matrix: (Units=GPa)
#
#
# Indices 1 2 3 4 5 6 
#
# 1 43.0434 21.5015 22.5247 0.0000 0.0000 0.0000
# 2 21.5015 93.3821 44.1281 0.0000 0.0000 0.0000
# 3 22.5247 44.1281 81.6451 0.0000 0.0000 0.0000
# 4 0.0000 0.0000 0.0000 -2.0186 0.0000 0.0000
# 5 0.0000 0.0000 0.0000 0.0000 27.6408 0.0000
# 6 0.0000 0.0000 0.0000 0.0000 0.0000 22.9127
#
#
#
# Elastic Compliance Matrix: (Units=1/GPa)
#
#
# Indices 1 2 3 4 5 6 
#
# 1 0.028107 -0.003770 -0.005717 0.000000 0.000000 0.000000
# 2 -0.003770 0.014888 -0.007006 0.000000 0.000000 0.000000
# 3 -0.005717 -0.007006 0.017612 0.000000 0.000000 0.000000
# 4 0.000000 0.000000 0.000000 -0.495401 0.000000 0.000000
# 5 0.000000 0.000000 0.000000 0.000000 0.036178 0.000000
# 6 0.000000 0.000000 0.000000 0.000000 0.000000 0.043644
#
#
# Mechanical properties :
#
#
# Convention : Reuss Voigt Hill
#
# Bulk Modulus (GPa) = 36.20514 43.81993 40.01254
# Shear Modulus (GPa) = -15.98577 18.36807 1.19115
#
# Velocity S-wave (km/s) = -2.84994 3.05493 0.77795
# Velocity P-wave (km/s) = 2.75060 5.89133 4.59748
#
# Compressibility (1/GPa) = 0.02762039
#
# Stress axis : x y z
#
# Youngs Moduli (GPa) = 35.57798 67.16929 56.77901
#
# Poissons Ratio (x) = 0.25326 0.32458
# Poissons Ratio (y) = 0.13414 0.39782
# Poissons Ratio (z) = 0.20338 0.47062
#
# Static dielectric constant tensor:
#      x y z
#    x 3.547500 0.000000 0.000000 
#    y 0.000000 3.748310 0.000000 
#    z 0.000000 0.000000 3.628220 
# 
# 
# High freq. dielectric constant tensor:
#      x y z
#    x 1.746650 0.000000 0.000000 
#    y 0.000000 1.768140 0.000000 
#    z 0.000000 0.000000 1.755580 
# 
# From -- ./inp_files/28465.got.cif
#   From: 2010.03.12/outbox.cif.g09.slc.cpg/sg51_15_cif.got.tgz:28465.got - 2010.04.16 13:43:02.
