data_PCOD8208964
_publ_section_title
;
Structure prediction by ZEFSAII (Michael W. Deem and Ramdas Pophale) SiO2 
 PCOD8208964
Probable space group: P M M A
;
_chemical_formula_sum "Si O2"
_cell_formula_units_Z 56
_cell_length_a 23.194276
_cell_length_b 9.305474
_cell_length_c 13.865647
_cell_angle_alpha 90.000000
_cell_angle_beta 90.000000
_cell_angle_gamma 90.000000
_cell_volume 2992.674342
_symmetry_space_group_name_H-M "P M M A"
_symmetry_group_IT_number 51
_symmetry_cell_setting 'orthorhombic'
loop_
_space_group_symop_operation_xyz
x,y,z
1/2-x,-y,z
1/2+x,-y,-z
-x,y,-z
-x,-y,-z
1/2+x,y,-z
1/2-x,y,z
x,-y,z
loop_
_atom_site_type_symbol
_atom_site_label
_atom_site_fract_x
_atom_site_fract_y
_atom_site_fract_z
Si Si1 0.893251 0.337071 0.051672
Si Si2 0.479289 0.829430 0.824199
Si Si3 0.684874 0.332339 0.878846
Si Si4 0.604087 0.832747 0.350567
Si Si5 0.314361 0.341383 0.764690
Si Si6 0.566083 0.338850 0.528252
Si Si7 0.584186 0.332228 0.745418
O O1 0.914870 0.500000 0.028772
O O2 0.849432 0.337286 0.138396
O O3 0.947517 0.237162 0.081655
O O4 0.857065 0.269368 0.962438
O O5 0.445946 0.789168 0.725059
O O6 0.542138 0.758014 0.815537
O O7 0.484128 0.000000 0.838501
O O8 0.750000 0.263645 0.875567
O O9 0.692225 0.500000 0.899657
O O10 0.650568 0.305569 0.778377
O O11 0.664601 0.776789 0.310710
O O12 0.597876 0.764510 0.455032
O O13 0.606837 0.000000 0.365758
O O14 0.250000 0.301716 0.793553
O O15 0.319302 0.500000 0.717327
O O16 0.500000 0.337405 0.500000
O O17 0.591171 0.500000 0.520031
O O18 0.576776 0.278640 0.635770
O O19 0.567175 0.500000 0.754475
#
# Coordination Sequence:
#
# PCOD8208964 Si02
#       7
#     8   8   8   8   8   8   8
#     4   9  17  31  54  79 104 134 169 210 257 310
#     4  10  20  33  50  77 110 138 168 210 260 310
#     4   9  18  34  56  80 103 131 174 221 258 300
#     4  10  20  32  49  74 104 136 170 211 259 312
#     4   9  17  30  50  75 102 133 169 209 254 305
#     4  10  19  32  52  76 103 135 173 216 261 315
#     4  10  20  34  54  78 104 137 174 216 265 312
#
# _framework density 18.71236
#
# number of rings (size 3 to 8) (size 9 to 14) (size 15 to 20)
#    0.000    2.429    1.429    1.286    0.000    4.571 
#    0.000    4.286    0.000    5.143    0.000    0.000 
#    0.000    0.000    0.000    0.000    0.000    0.000 
#
# Total GULP energy -694152.067294 kJ/mol
# GULP energy per Si atom -12395.572630 kJ/mol
# Density = 1.866977 g / cm^3
# Si number density = 18.712360 Si / 1000 Ang^3
#
#
#
# Elastic Constant Matrix: (Units=GPa)
#
#
# Indices 1 2 3 4 5 6 
#
# 1 84.5392 29.8271 37.8706 0.0000 0.0000 0.0000
# 2 29.8271 49.7357 28.2902 0.0000 0.0000 0.0000
# 3 37.8706 28.2902 93.2073 0.0000 0.0000 0.0000
# 4 0.0000 0.0000 0.0000 6.4013 0.0000 0.0000
# 5 0.0000 0.0000 0.0000 0.0000 16.6409 0.0000
# 6 0.0000 0.0000 0.0000 0.0000 0.0000 19.4888
#
#
#
# Elastic Compliance Matrix: (Units=1/GPa)
#
#
# Indices 1 2 3 4 5 6 
#
# 1 0.016398 -0.007305 -0.004445 0.000000 0.000000 0.000000
# 2 -0.007305 0.027557 -0.005396 0.000000 0.000000 0.000000
# 3 -0.004445 -0.005396 0.014173 0.000000 0.000000 0.000000
# 4 0.000000 0.000000 0.000000 0.156218 0.000000 0.000000
# 5 0.000000 0.000000 0.000000 0.000000 0.060093 0.000000
# 6 0.000000 0.000000 0.000000 0.000000 0.000000 0.051312
#
#
# Mechanical properties :
#
#
# Convention : Reuss Voigt Hill
#
# Bulk Modulus (GPa) = 41.95643 46.60644 44.28143
# Shear Modulus (GPa) = 13.58745 17.27248 15.42997
#
# Velocity S-wave (km/s) = 2.69759 3.04147 2.87468
# Velocity P-wave (km/s) = 5.67213 6.10696 5.89356
#
# Compressibility (1/GPa) = 0.02383425
#
# Stress axis : x y z
#
# Youngs Moduli (GPa) = 60.98468 36.28906 70.55902
#
# Poissons Ratio (x) = 0.26511 0.31364
# Poissons Ratio (y) = 0.44552 0.38072
# Poissons Ratio (z) = 0.27108 0.19580
#
# Static dielectric constant tensor:
#      x y z
#    x 3.525660 0.000000 0.000000 
#    y 0.000000 3.297190 0.000000 
#    z 0.000000 0.000000 3.545650 
# 
# 
# High freq. dielectric constant tensor:
#      x y z
#    x 1.718710 0.000000 0.000000 
#    y 0.000000 1.701950 0.000000 
#    z 0.000000 0.000000 1.725460 
# 
# From -- ./inp_files/25773.got.cif
#   From: 2010.03.12/outbox.cif.g09.slc.cpg/sg51_13_cif.got.tgz:25773.got - 2010.04.16 13:43:02.
