data_PCOD8208539
_publ_section_title
;
Structure prediction by ZEFSAII (Michael W. Deem and Ramdas Pophale) SiO2 
 PCOD8208539
Probable space group: P M M A
;
_chemical_formula_sum "Si O2"
_cell_formula_units_Z 40
_cell_length_a 33.336477
_cell_length_b 9.228217
_cell_length_c 7.357147
_cell_angle_alpha 90.000000
_cell_angle_beta 90.000000
_cell_angle_gamma 90.000000
_cell_volume 2263.325068
_symmetry_space_group_name_H-M "P M M A"
_symmetry_group_IT_number 51
_symmetry_cell_setting 'orthorhombic'
loop_
_space_group_symop_operation_xyz
x,y,z
1/2-x,-y,z
1/2+x,-y,-z
-x,y,-z
-x,-y,-z
1/2+x,y,-z
1/2-x,y,z
x,-y,z
loop_
_atom_site_type_symbol
_atom_site_label
_atom_site_fract_x
_atom_site_fract_y
_atom_site_fract_z
Si Si1 0.704261 0.169493 0.307132
Si Si2 0.295516 0.335140 0.330155
Si Si3 0.561924 0.327976 0.999820
Si Si4 0.499853 0.327615 0.295195
Si Si5 0.847626 0.670420 0.014210
O O1 0.750000 0.205932 0.250830
O O2 0.695356 0.226020 0.508041
O O3 0.695858 0.000000 0.301722
O O4 0.673960 0.248747 0.175950
O O5 0.250000 0.317512 0.259116
O O6 0.303219 0.500000 0.395286
O O7 0.325395 0.290404 0.171160
O O8 0.561919 0.500000 0.995136
O O9 0.539078 0.272412 0.817822
O O10 0.607146 0.268837 0.000526
O O11 0.539240 0.275601 0.183463
O O12 0.500000 0.261443 0.500000
O O13 0.499319 0.500000 0.307644
O O14 0.846355 0.500000 0.054759
#
# Coordination Sequence:
#
# PCOD8208539 Si02
#       5
#     8   8   8   8   8
#     4  10  21  35  50  69  95 129 166 201 239 286
#     4   9  18  32  49  69  94 125 160 198 241 288
#     4   8  15  25  38  64  96 122 153 189 229 282
#     4   8  13  23  39  59  90 128 155 181 225 279
#     4  10  19  31  50  75 101 127 158 201 248 288
#
# _framework density 17.673114000000002
#
# number of rings (size 3 to 8) (size 9 to 14) (size 15 to 20)
#    0.000    3.000    0.000    2.400    0.000    4.400 
#    0.000    8.000    0.000    0.000    0.000    2.800 
#    0.000    8.000    0.000    0.000    0.000    0.000 
#
# Total GULP energy -495857.260184 kJ/mol
# GULP energy per Si atom -12396.431505 kJ/mol
# Density = 1.763289 g / cm^3
# Si number density = 17.673114 Si / 1000 Ang^3
#
#
#
# Elastic Constant Matrix: (Units=GPa)
#
#
# Indices 1 2 3 4 5 6 
#
# 1 164.1187 34.7115 95.9226 0.0000 0.0000 0.0000
# 2 34.7115 23.8163 28.1676 0.0000 0.0000 0.0000
# 3 95.9226 28.1676 142.9566 0.0000 0.0000 0.0000
# 4 0.0000 0.0000 0.0000 -4.8523 0.0000 0.0000
# 5 0.0000 0.0000 0.0000 0.0000 41.0049 0.0000
# 6 0.0000 0.0000 0.0000 0.0000 0.0000 20.3377
#
#
#
# Elastic Compliance Matrix: (Units=1/GPa)
#
#
# Indices 1 2 3 4 5 6 
#
# 1 0.011619 -0.010057 -0.005814 0.000000 0.000000 0.000000
# 2 -0.010057 0.063451 -0.005754 0.000000 0.000000 0.000000
# 3 -0.005814 -0.005754 0.012030 0.000000 0.000000 0.000000
# 4 0.000000 0.000000 0.000000 -0.206088 0.000000 0.000000
# 5 0.000000 0.000000 0.000000 0.000000 0.024387 0.000000
# 6 0.000000 0.000000 0.000000 0.000000 0.000000 0.049170
#
#
# Mechanical properties :
#
#
# Convention : Reuss Voigt Hill
#
# Bulk Modulus (GPa) = 22.80547 72.05502 47.43024
# Shear Modulus (GPa) = 402.05133 22.77071 212.41102
#
# Velocity S-wave (km/s) = 15.09924 3.59338 10.97496
# Velocity P-wave (km/s) = 17.80210 7.62076 13.69290
#
# Compressibility (1/GPa) = 0.04384914
#
# Stress axis : x y z
#
# Youngs Moduli (GPa) = 86.06916 15.76019 83.12383
#
# Poissons Ratio (x) = 0.15850 0.48331
# Poissons Ratio (y) = 0.86560 0.47829
# Poissons Ratio (z) = 0.50044 0.09068
#
# Static dielectric constant tensor:
#      x y z
#    x 3.557400 0.000000 0.000000 
#    y 0.000000 2.838540 0.000000 
#    z 0.000000 0.000000 3.423130 
# 
# 
# High freq. dielectric constant tensor:
#      x y z
#    x 1.688570 0.000000 0.000000 
#    y 0.000000 1.634180 0.000000 
#    z 0.000000 0.000000 1.689920 
# 
# From -- ./inp_files/12586.got.cif
#   From: 2010.03.12/outbox.cif.g09.slc.cpg/sg51_7_cif.got.tgz:12586.got - 2010.04.16 13:43:02.
