data_PCOD8208855
_publ_section_title
;
Structure prediction by ZEFSAII (Michael W. Deem and Ramdas Pophale) SiO2 
 PCOD8208855
Probable space group: P M M A
;
_chemical_formula_sum "Si O2"
_cell_formula_units_Z 48
_cell_length_a 17.874340
_cell_length_b 9.109801
_cell_length_c 16.397739
_cell_angle_alpha 90.000000
_cell_angle_beta 90.000000
_cell_angle_gamma 90.000000
_cell_volume 2670.071396
_symmetry_space_group_name_H-M "P M M A"
_symmetry_group_IT_number 51
_symmetry_cell_setting 'orthorhombic'
loop_
_space_group_symop_operation_xyz
x,y,z
1/2-x,-y,z
1/2+x,-y,-z
-x,y,-z
-x,-y,-z
1/2+x,y,-z
1/2-x,y,z
x,-y,z
loop_
_atom_site_type_symbol
_atom_site_label
_atom_site_fract_x
_atom_site_fract_y
_atom_site_fract_z
Si Si1 0.665738 0.673284 0.152662
Si Si2 0.050225 0.166992 0.744893
Si Si3 0.035377 0.172466 0.414769
Si Si4 0.605595 0.170448 0.825454
Si Si5 0.086058 0.327388 0.011534
Si Si6 0.164515 0.669698 0.329189
O O1 0.750000 0.732770 0.158496
O O2 0.662595 0.500000 0.157725
O O3 0.619717 0.734015 0.229167
O O4 0.630589 0.727296 0.067725
O O5 0.024950 0.213164 0.654381
O O6 0.981812 0.192455 0.806573
O O7 0.077393 0.000000 0.746566
O O8 0.112421 0.258689 0.398814
O O9 0.000000 0.222420 0.500000
O O10 0.054259 0.000000 0.412560
O O11 0.622434 0.242536 0.912564
O O12 0.655009 0.249635 0.757142
O O13 0.627961 0.000000 0.826648
O O14 0.095412 0.500000 0.027078
O O15 0.000000 0.283614 0.000000
O O16 0.250000 0.686856 0.358225
O O17 0.142260 0.500000 0.318163
#
# Coordination Sequence:
#
# PCOD8208855 Si02
#       6
#     8   8   8   8   8   8
#     4  10  21  35  50  71 101 138 179 221 264 311
#     4   9  18  33  53  76 101 132 169 211 256 311
#     4   9  19  37  60  85 110 138 175 216 263 323
#     4  10  20  33  53  79 105 137 179 222 266 319
#     4  10  19  32  51  74 102 140 182 222 267 318
#     4  10  21  36  55  81 113 145 178 220 270 322
#
# _framework density 17.977048
#
# number of rings (size 3 to 8) (size 9 to 14) (size 15 to 20)
#    0.000    2.333    1.667    2.000    0.000    6.333 
#    0.000    2.500    0.000    5.000    0.000    0.000 
#    0.000    0.000    0.000    0.000    0.000    0.000 
#
# Total GULP energy -595326.982391 kJ/mol
# GULP energy per Si atom -12402.645466 kJ/mol
# Density = 1.793613 g / cm^3
# Si number density = 17.977048 Si / 1000 Ang^3
#
#
#
# Elastic Constant Matrix: (Units=GPa)
#
#
# Indices 1 2 3 4 5 6 
#
# 1 115.7665 48.0906 58.8664 0.0000 0.0000 0.0000
# 2 48.0906 71.2359 46.7921 0.0000 0.0000 0.0000
# 3 58.8664 46.7921 125.0767 0.0000 0.0000 0.0000
# 4 0.0000 0.0000 0.0000 29.6133 0.0000 0.0000
# 5 0.0000 0.0000 0.0000 0.0000 20.6452 0.0000
# 6 0.0000 0.0000 0.0000 0.0000 0.0000 23.9855
#
#
#
# Elastic Compliance Matrix: (Units=1/GPa)
#
#
# Indices 1 2 3 4 5 6 
#
# 1 0.013260 -0.006433 -0.003834 0.000000 0.000000 0.000000
# 2 -0.006433 0.021733 -0.005103 0.000000 0.000000 0.000000
# 3 -0.003834 -0.005103 0.011708 0.000000 0.000000 0.000000
# 4 0.000000 0.000000 0.000000 0.033769 0.000000 0.000000
# 5 0.000000 0.000000 0.000000 0.000000 0.048437 0.000000
# 6 0.000000 0.000000 0.000000 0.000000 0.000000 0.041692
#
#
# Mechanical properties :
#
#
# Convention : Reuss Voigt Hill
#
# Bulk Modulus (GPa) = 62.65116 68.84191 65.74654
# Shear Modulus (GPa) = 24.19440 25.40412 24.79926
#
# Velocity S-wave (km/s) = 3.67256 3.76326 3.71819
# Velocity P-wave (km/s) = 7.27392 7.56705 7.42193
#
# Compressibility (1/GPa) = 0.01596140
#
# Stress axis : x y z
#
# Youngs Moduli (GPa) = 75.41401 46.01381 85.40857
#
# Poissons Ratio (x) = 0.29602 0.32746
# Poissons Ratio (y) = 0.48517 0.43580
# Poissons Ratio (z) = 0.28914 0.23479
#
# Static dielectric constant tensor:
#      x y z
#    x 3.250690 0.000000 0.000000 
#    y 0.000000 3.273830 0.000000 
#    z 0.000000 0.000000 3.277500 
# 
# 
# High freq. dielectric constant tensor:
#      x y z
#    x 1.686920 0.000000 0.000000 
#    y 0.000000 1.695940 0.000000 
#    z 0.000000 0.000000 1.689740 
# 
# From -- ./inp_files/24731.got.cif
#   From: 2010.03.12/outbox.cif.g09.slc.cpg/sg51_13_cif.got.tgz:24731.got - 2010.04.16 13:43:02.
