data_PCOD8208008
_publ_section_title
;
Structure prediction by ZEFSAII (Michael W. Deem and Ramdas Pophale) SiO2 
 PCOD8208008
Probable space group: P M M A
;
_chemical_formula_sum "Si O2"
_cell_formula_units_Z 56
_cell_length_a 9.376286
_cell_length_b 18.791559
_cell_length_c 18.814935
_cell_angle_alpha 90.000000
_cell_angle_beta 90.000000
_cell_angle_gamma 90.000000
_cell_volume 3315.098066
_symmetry_space_group_name_H-M "P M M A"
_symmetry_group_IT_number 51
_symmetry_cell_setting 'orthorhombic'
loop_
_space_group_symop_operation_xyz
x,y,z
1/2-x,-y,z
1/2+x,-y,-z
-x,y,-z
-x,-y,-z
1/2+x,y,-z
1/2-x,y,z
x,-y,z
loop_
_atom_site_type_symbol
_atom_site_label
_atom_site_fract_x
_atom_site_fract_y
_atom_site_fract_z
Si Si1 0.916030 0.229682 0.072534
Si Si2 0.586330 0.419685 0.309492
Si Si3 0.584040 0.712743 0.218166
Si Si4 0.413738 0.209769 0.334119
Si Si5 0.584067 0.346192 0.572710
Si Si6 0.586355 0.925371 0.071181
Si Si7 0.583964 0.919175 0.570923
O O1 0.750000 0.238551 0.054014
O O2 0.963609 0.283111 0.135479
O O3 0.950354 0.150814 0.106481
O O4 0.000000 0.246127 0.000000
O O5 0.750000 0.407651 0.333892
O O6 0.562066 0.500000 0.282315
O O7 0.547594 0.366715 0.244804
O O8 0.482309 0.405236 0.375272
O O9 0.750000 0.730851 0.224893
O O10 0.504996 0.772264 0.264816
O O11 0.250000 0.208002 0.310072
O O12 0.438801 0.268116 0.395137
O O13 0.462784 0.133535 0.365582
O O14 0.500000 0.350456 0.500000
O O15 0.750000 0.363687 0.560484
O O16 0.750000 0.924004 0.048867
O O17 0.554770 0.000000 0.115280
O O18 0.500000 0.929595 0.000000
O O19 0.500000 0.898680 0.500000
O O20 0.750000 0.908747 0.553512
O O21 0.549621 0.000000 0.594862
#
# Coordination Sequence:
#
# PCOD8208008 Si02
#       7
#     8   8   8   8   8   8   8
#     4   9  17  29  46  68  91 115 145 182 222 263
#     4   9  18  33  51  68  88 118 152 183 219 264
#     4   9  18  32  49  69  91 115 147 186 225 269
#     4   9  18  31  46  65  90 121 155 189 227 269
#     4  10  19  30  46  69  95 121 150 185 223 264
#     4   8  13  22  37  57  82 110 137 166 202 245
#     4   9  17  29  45  65  90 121 158 198 234 267
#
# _framework density 16.892410999999999
#
# number of rings (size 3 to 8) (size 9 to 14) (size 15 to 20)
#    0.000    3.000    0.000    0.857    0.000    2.286 
#    0.000    0.714    0.000    1.286    0.000    4.000 
#    0.000    0.000    0.000    0.000    0.000    0.000 
#
# Total GULP energy -693851.508857 kJ/mol
# GULP energy per Si atom -12390.205515 kJ/mol
# Density = 1.685396 g / cm^3
# Si number density = 16.892411 Si / 1000 Ang^3
#
#
#
# Elastic Constant Matrix: (Units=GPa)
#
#
# Indices 1 2 3 4 5 6 
#
# 1 60.3671 39.6113 52.6439 0.0000 0.0000 0.0000
# 2 39.6113 98.3022 61.7048 0.0000 0.0000 0.0000
# 3 52.6439 61.7048 119.9859 0.0000 0.0000 0.0000
# 4 0.0000 0.0000 0.0000 11.1010 0.0000 0.0000
# 5 0.0000 0.0000 0.0000 0.0000 24.2402 0.0000
# 6 0.0000 0.0000 0.0000 0.0000 0.0000 20.6527
#
#
#
# Elastic Compliance Matrix: (Units=1/GPa)
#
#
# Indices 1 2 3 4 5 6 
#
# 1 0.028647 -0.005396 -0.009794 0.000000 0.000000 0.000000
# 2 -0.005396 0.016038 -0.005881 0.000000 0.000000 0.000000
# 3 -0.009794 -0.005881 0.015656 0.000000 0.000000 0.000000
# 4 0.000000 0.000000 0.000000 0.090082 0.000000 0.000000
# 5 0.000000 0.000000 0.000000 0.000000 0.041254 0.000000
# 6 0.000000 0.000000 0.000000 0.000000 0.000000 0.048420
#
#
# Mechanical properties :
#
#
# Convention : Reuss Voigt Hill
#
# Bulk Modulus (GPa) = 54.94448 65.17502 60.05975
# Shear Modulus (GPa) = 17.34287 19.51180 18.42733
#
# Velocity S-wave (km/s) = 3.20764 3.40231 3.30641
# Velocity P-wave (km/s) = 6.80554 7.35530 7.08575
#
# Compressibility (1/GPa) = 0.01820019
#
# Stress axis : x y z
#
# Youngs Moduli (GPa) = 34.90794 62.35129 63.87483
#
# Poissons Ratio (x) = 0.33642 0.62559
# Poissons Ratio (y) = 0.18835 0.37562
# Poissons Ratio (z) = 0.34189 0.36666
#
# Static dielectric constant tensor:
#      x y z
#    x 3.211220 0.000000 0.000000 
#    y 0.000000 3.562520 0.000000 
#    z 0.000000 0.000000 2.895530 
# 
# 
# High freq. dielectric constant tensor:
#      x y z
#    x 1.653560 0.000000 0.000000 
#    y 0.000000 1.654370 0.000000 
#    z 0.000000 0.000000 1.620030 
# 
# From -- ./inp_files/28237.got.cif
#   From: 2010.03.12/outbox.cif.g09.slc.cpg/sg51_15_cif.got.tgz:28237.got - 2010.04.16 13:43:02.
