data_PCOD8208667
_publ_section_title
;
Structure prediction by ZEFSAII (Michael W. Deem and Ramdas Pophale) SiO2 
 PCOD8208667
Probable space group: P M M A
;
_chemical_formula_sum "Si O2"
_cell_formula_units_Z 48
_cell_length_a 14.824966
_cell_length_b 14.013653
_cell_length_c 11.851538
_cell_angle_alpha 90.000000
_cell_angle_beta 90.000000
_cell_angle_gamma 90.000000
_cell_volume 2462.179884
_symmetry_space_group_name_H-M "P M M A"
_symmetry_group_IT_number 51
_symmetry_cell_setting 'orthorhombic'
loop_
_space_group_symop_operation_xyz
x,y,z
1/2-x,-y,z
1/2+x,-y,-z
-x,y,-z
-x,-y,-z
1/2+x,y,-z
1/2-x,y,z
x,-y,z
loop_
_atom_site_type_symbol
_atom_site_label
_atom_site_fract_x
_atom_site_fract_y
_atom_site_fract_z
Si Si1 0.593731 0.391886 0.061266
Si Si2 0.142510 0.802996 0.233848
Si Si3 0.356897 0.220226 0.788880
Si Si4 0.643743 0.104173 0.996089
Si Si5 0.150808 0.602156 0.175930
Si Si6 0.511205 0.110684 0.369036
O O1 0.595461 0.500000 0.107543
O O2 0.616389 0.326708 0.170070
O O3 0.500000 0.366562 0.000000
O O4 0.663693 0.377064 0.958307
O O5 0.250000 0.814644 0.254491
O O6 0.112309 0.833974 0.109369
O O7 0.108157 0.692352 0.241900
O O8 0.088345 0.867647 0.320801
O O9 0.250000 0.215052 0.762042
O O10 0.412781 0.182715 0.680557
O O11 0.389183 0.151616 0.889116
O O12 0.750000 0.095513 0.996703
O O13 0.598946 0.000000 0.987497
O O14 0.250000 0.590573 0.226229
O O15 0.097877 0.500000 0.194520
O O16 0.500000 0.131754 0.500000
O O17 0.537456 0.000000 0.346031
#
# Coordination Sequence:
#
# PCOD8208667 Si02
#       6
#     8   8   8   8   8   8
#     4  10  19  31  52  86 126 162 193 226 275 346
#     4  10  19  35  59  86 117 149 184 235 296 358
#     4  11  22  37  59  87 121 158 194 242 300 359
#     4   9  17  29  49  82 116 145 179 222 286 359
#     4   9  16  28  50  82 118 150 179 215 267 339
#     4  11  26  44  60  80 106 147 206 258 300 352
#
# _framework density 19.49492
#
# number of rings (size 3 to 8) (size 9 to 14) (size 15 to 20)
#    0.000    2.000    1.667    2.500    0.000    3.667 
#    0.000    3.333    0.000    2.000    0.000    2.333 
#    0.000    0.000    0.000    0.000    0.000    0.000 
#
# Total GULP energy -594630.080959 kJ/mol
# GULP energy per Si atom -12388.126687 kJ/mol
# Density = 1.945055 g / cm^3
# Si number density = 19.494920 Si / 1000 Ang^3
#
#
#
# Elastic Constant Matrix: (Units=GPa)
#
#
# Indices 1 2 3 4 5 6 
#
# 1 85.1294 35.9684 36.0764 0.0000 0.0000 0.0000
# 2 35.9684 132.1513 42.9344 0.0000 0.0000 0.0000
# 3 36.0764 42.9344 90.3259 0.0000 0.0000 0.0000
# 4 0.0000 0.0000 0.0000 23.6616 0.0000 0.0000
# 5 0.0000 0.0000 0.0000 0.0000 20.6719 0.0000
# 6 0.0000 0.0000 0.0000 0.0000 0.0000 19.9412
#
#
#
# Elastic Compliance Matrix: (Units=1/GPa)
#
#
# Indices 1 2 3 4 5 6 
#
# 1 0.014804 -0.002493 -0.004728 0.000000 0.000000 0.000000
# 2 -0.002493 0.009369 -0.003458 0.000000 0.000000 0.000000
# 3 -0.004728 -0.003458 0.014603 0.000000 0.000000 0.000000
# 4 0.000000 0.000000 0.000000 0.042263 0.000000 0.000000
# 5 0.000000 0.000000 0.000000 0.000000 0.048375 0.000000
# 6 0.000000 0.000000 0.000000 0.000000 0.000000 0.050148
#
#
# Mechanical properties :
#
#
# Convention : Reuss Voigt Hill
#
# Bulk Modulus (GPa) = 57.40947 59.72943 58.56945
# Shear Modulus (GPa) = 24.18693 25.69675 24.94184
#
# Velocity S-wave (km/s) = 3.52615 3.63454 3.58075
# Velocity P-wave (km/s) = 6.78901 6.95112 6.87055
#
# Compressibility (1/GPa) = 0.01741873
#
# Stress axis : x y z
#
# Youngs Moduli (GPa) = 67.55058 106.73488 68.48075
#
# Poissons Ratio (x) = 0.26612 0.32374
# Poissons Ratio (y) = 0.16842 0.23677
# Poissons Ratio (z) = 0.31935 0.36904
#
# Static dielectric constant tensor:
#      x y z
#    x 3.561320 0.000000 0.000000 
#    y 0.000000 4.028730 0.000000 
#    z 0.000000 0.000000 3.174530 
# 
# 
# High freq. dielectric constant tensor:
#      x y z
#    x 1.760240 0.000000 0.000000 
#    y 0.000000 1.781380 0.000000 
#    z 0.000000 0.000000 1.701510 
# 
# From -- ./inp_files/16448.got.cif
#   From: 2010.03.12/outbox.cif.g09.slc.cpg/sg51_9_cif.got.tgz:16448.got - 2010.04.16 13:43:02.
