data_PCOD8208112
_publ_section_title
;
Structure prediction by ZEFSAII (Michael W. Deem and Ramdas Pophale) SiO2 
 PCOD8208112
Probable space group: P M M A
;
_chemical_formula_sum "Si O2"
_cell_formula_units_Z 64
_cell_length_a 23.894069
_cell_length_b 8.954938
_cell_length_c 16.727251
_cell_angle_alpha 90.000000
_cell_angle_beta 90.000000
_cell_angle_gamma 90.000000
_cell_volume 3579.128332
_symmetry_space_group_name_H-M "P M M A"
_symmetry_group_IT_number 51
_symmetry_cell_setting 'orthorhombic'
loop_
_space_group_symop_operation_xyz
x,y,z
1/2-x,-y,z
1/2+x,-y,-z
-x,y,-z
-x,-y,-z
1/2+x,y,-z
1/2-x,y,z
x,-y,z
loop_
_atom_site_type_symbol
_atom_site_label
_atom_site_fract_x
_atom_site_fract_y
_atom_site_fract_z
Si Si1 0.629872 0.175976 0.779472
Si Si2 0.474105 0.175491 0.321147
Si Si3 0.314553 0.323596 0.072145
Si Si4 0.100772 0.826739 0.464511
Si Si5 0.816346 0.167587 0.089021
Si Si6 0.314725 0.668971 0.365134
Si Si7 0.314415 0.675635 0.750477
Si Si8 0.094532 0.173538 0.649127
O O1 0.566297 0.218909 0.753002
O O2 0.644615 0.259763 0.860689
O O3 0.672140 0.227890 0.710836
O O4 0.636699 0.000000 0.792424
O O5 0.447972 0.232851 0.405059
O O6 0.537492 0.235489 0.308705
O O7 0.479791 0.000000 0.328995
O O8 0.250000 0.276883 0.089133
O O9 0.320326 0.500000 0.068886
O O10 0.336686 0.257474 0.988607
O O11 0.156022 0.731987 0.444599
O O12 0.084097 0.799814 0.555463
O O13 0.113547 0.000000 0.447017
O O14 0.750000 0.165111 0.090322
O O15 0.837933 0.249149 0.168667
O O16 0.840944 0.000000 0.086415
O O17 0.250000 0.675002 0.384057
O O18 0.334385 0.500000 0.346661
O O19 0.250000 0.721216 0.733471
O O20 0.320198 0.500000 0.760429
O O21 0.352260 0.732119 0.677541
O O22 0.106288 0.000000 0.668032
#
# Coordination Sequence:
#
# PCOD8208112 Si02
#       8
#     8   8   8   8   8   8   8   8
#     4  10  19  31  49  72  98 130 168 206 242 284
#     4   8  16  32  52  73  97 126 162 206 252 290
#     4  10  19  30  47  74 107 138 165 196 240 290
#     4   9  18  32  51  73  95 124 164 208 250 293
#     4   9  17  31  52  76 100 128 165 204 240 284
#     4  10  20  32  45  64  96 135 167 199 246 297
#     4  10  21  36  52  73 104 135 160 194 245 298
#     4  10  19  33  55  77  96 123 163 207 247 293
#
# _framework density 17.881450000000001
#
# number of rings (size 3 to 8) (size 9 to 14) (size 15 to 20)
#    0.000    2.500    0.000    3.375    0.000    8.000 
#    0.000    5.625    0.000    4.500    0.000    5.250 
#    0.000    0.000    0.000    0.000    0.000    0.000 
#
# Total GULP energy -793456.436792 kJ/mol
# GULP energy per Si atom -12397.756825 kJ/mol
# Density = 1.784075 g / cm^3
# Si number density = 17.881450 Si / 1000 Ang^3
#
#
#
# Elastic Constant Matrix: (Units=GPa)
#
#
# Indices 1 2 3 4 5 6 
#
# 1 91.3075 38.4409 40.4722 0.0000 0.0000 0.0000
# 2 38.4409 74.2415 33.7531 0.0000 0.0000 0.0000
# 3 40.4722 33.7531 79.9229 0.0000 0.0000 0.0000
# 4 0.0000 0.0000 0.0000 25.1851 0.0000 0.0000
# 5 0.0000 0.0000 0.0000 0.0000 19.8469 0.0000
# 6 0.0000 0.0000 0.0000 0.0000 0.0000 16.3952
#
#
#
# Elastic Compliance Matrix: (Units=1/GPa)
#
#
# Indices 1 2 3 4 5 6 
#
# 1 0.015819 -0.005630 -0.005633 0.000000 0.000000 0.000000
# 2 -0.005630 0.018674 -0.005035 0.000000 0.000000 0.000000
# 3 -0.005633 -0.005035 0.017491 0.000000 0.000000 0.000000
# 4 0.000000 0.000000 0.000000 0.039706 0.000000 0.000000
# 5 0.000000 0.000000 0.000000 0.000000 0.050386 0.000000
# 6 0.000000 0.000000 0.000000 0.000000 0.000000 0.060993
#
#
# Mechanical properties :
#
#
# Convention : Reuss Voigt Hill
#
# Bulk Modulus (GPa) = 51.57978 52.31158 51.94568
# Shear Modulus (GPa) = 20.65021 21.13917 20.89469
#
# Velocity S-wave (km/s) = 3.40198 3.44202 3.42206
# Velocity P-wave (km/s) = 6.65878 6.71676 6.68783
#
# Compressibility (1/GPa) = 0.01938744
#
# Stress axis : x y z
#
# Youngs Moduli (GPa) = 63.21503 53.55071 57.17172
#
# Poissons Ratio (x) = 0.30148 0.32205
# Poissons Ratio (y) = 0.35589 0.28789
# Poissons Ratio (z) = 0.35609 0.26965
#
# Static dielectric constant tensor:
#      x y z
#    x 3.310500 0.000000 0.000000 
#    y 0.000000 3.341570 0.000000 
#    z 0.000000 0.000000 3.284230 
# 
# 
# High freq. dielectric constant tensor:
#      x y z
#    x 1.672370 0.000000 0.000000 
#    y 0.000000 1.689600 0.000000 
#    z 0.000000 0.000000 1.686790 
# 
# From -- ./inp_files/30809.got.cif
#   From: 2010.03.12/outbox.cif.g09.slc.cpg/sg51_16_cif.got.tgz:30809.got - 2010.04.16 13:43:02.
