data_PCOD8208935
_publ_section_title
;
Structure prediction by ZEFSAII (Michael W. Deem and Ramdas Pophale) SiO2 
 PCOD8208935
Probable space group: P M M A
;
_chemical_formula_sum "Si O2"
_cell_formula_units_Z 48
_cell_length_a 30.747452
_cell_length_b 9.170941
_cell_length_c 9.504604
_cell_angle_alpha 90.000000
_cell_angle_beta 90.000000
_cell_angle_gamma 90.000000
_cell_volume 2680.137398
_symmetry_space_group_name_H-M "P M M A"
_symmetry_group_IT_number 51
_symmetry_cell_setting 'orthorhombic'
loop_
_space_group_symop_operation_xyz
x,y,z
1/2-x,-y,z
1/2+x,-y,-z
-x,y,-z
-x,-y,-z
1/2+x,y,-z
1/2-x,y,z
x,-y,z
loop_
_atom_site_type_symbol
_atom_site_label
_atom_site_fract_x
_atom_site_fract_y
_atom_site_fract_z
Si Si1 0.390707 0.168442 0.199074
Si Si2 0.066737 0.329449 0.714611
Si Si3 0.361032 0.666680 0.940252
Si Si4 0.988357 0.829438 0.839895
Si Si5 0.369282 0.170647 0.515922
Si Si6 0.800308 0.670542 0.308253
O O1 0.439949 0.228244 0.192074
O O2 0.369901 0.199275 0.349941
O O3 0.391870 0.000000 0.160660
O O4 0.360093 0.242480 0.083191
O O5 0.062694 0.500000 0.680605
O O6 0.095000 0.301019 0.854211
O O7 0.089396 0.250987 0.583184
O O8 0.019488 0.260520 0.736342
O O9 0.358046 0.500000 0.985313
O O10 0.319804 0.711171 0.844366
O O11 0.993831 0.000000 0.805749
O O12 0.000000 0.793884 0.000000
O O13 0.324117 0.236435 0.571910
O O14 0.371967 0.000000 0.552384
O O15 0.750000 0.712447 0.309653
O O16 0.808563 0.500000 0.339300
#
# Coordination Sequence:
#
# PCOD8208935 Si02
#       6
#     8   8   8   8   8   8
#     4  10  21  35  51  76 108 142 177 219 266 311
#     4  10  20  34  52  76 105 140 183 224 263 306
#     4   9  18  32  53  78 103 133 169 213 260 309
#     4  10  19  32  52  75 103 143 187 225 265 309
#     4  10  21  36  54  77 109 143 176 216 264 316
#     4   9  19  38  61  83 106 133 170 214 261 319
#
# _framework density 17.909531000000001
#
# number of rings (size 3 to 8) (size 9 to 14) (size 15 to 20)
#    0.000    2.333    1.667    2.000    0.000    6.000 
#    0.000    4.167    0.000    3.000    0.000    0.000 
#    0.000    0.000    0.000    0.000    0.000    0.000 
#
# Total GULP energy -595329.266300 kJ/mol
# GULP energy per Si atom -12402.693048 kJ/mol
# Density = 1.786877 g / cm^3
# Si number density = 17.909531 Si / 1000 Ang^3
#
#
#
# Elastic Constant Matrix: (Units=GPa)
#
#
# Indices 1 2 3 4 5 6 
#
# 1 115.2097 46.4196 57.1870 0.0000 0.0000 0.0000
# 2 46.4196 79.4652 62.2351 0.0000 0.0000 0.0000
# 3 57.1870 62.2351 107.1587 0.0000 0.0000 0.0000
# 4 0.0000 0.0000 0.0000 28.0933 0.0000 0.0000
# 5 0.0000 0.0000 0.0000 0.0000 18.3147 0.0000
# 6 0.0000 0.0000 0.0000 0.0000 0.0000 27.4438
#
#
#
# Elastic Compliance Matrix: (Units=1/GPa)
#
#
# Indices 1 2 3 4 5 6 
#
# 1 0.012397 -0.003779 -0.004421 0.000000 0.000000 0.000000
# 2 -0.003779 0.024236 -0.012059 0.000000 0.000000 0.000000
# 3 -0.004421 -0.012059 0.018695 0.000000 0.000000 0.000000
# 4 0.000000 0.000000 0.000000 0.035596 0.000000 0.000000
# 5 0.000000 0.000000 0.000000 0.000000 0.054601 0.000000
# 6 0.000000 0.000000 0.000000 0.000000 0.000000 0.036438
#
#
# Mechanical properties :
#
#
# Convention : Reuss Voigt Hill
#
# Bulk Modulus (GPa) = 67.52369 70.39077 68.95723
# Shear Modulus (GPa) = 21.98608 23.83649 22.91129
#
# Velocity S-wave (km/s) = 3.50754 3.65216 3.58058
# Velocity P-wave (km/s) = 7.36127 7.56130 7.46195
#
# Compressibility (1/GPa) = 0.01480962
#
# Stress axis : x y z
#
# Youngs Moduli (GPa) = 80.66469 41.26114 53.49132
#
# Poissons Ratio (x) = 0.15594 0.23648
# Poissons Ratio (y) = 0.30486 0.64503
# Poissons Ratio (z) = 0.35661 0.49755
#
# Static dielectric constant tensor:
#      x y z
#    x 3.247380 0.000000 0.000000 
#    y 0.000000 3.288020 0.000000 
#    z 0.000000 0.000000 3.179330 
# 
# 
# High freq. dielectric constant tensor:
#      x y z
#    x 1.683240 0.000000 0.000000 
#    y 0.000000 1.694970 0.000000 
#    z 0.000000 0.000000 1.687720 
# 
# From -- ./inp_files/12721.got.cif
#   From: 2010.03.12/outbox.cif.g09.slc.cpg/sg51_7_cif.got.tgz:12721.got - 2010.04.16 13:43:02.
