data_PCOD8208886
_publ_section_title
;
Structure prediction by ZEFSAII (Michael W. Deem and Ramdas Pophale) SiO2 
 PCOD8208886
Probable space group: P M M A
;
_chemical_formula_sum "Si O2"
_cell_formula_units_Z 56
_cell_length_a 21.282636
_cell_length_b 12.915865
_cell_length_c 11.129091
_cell_angle_alpha 90.000000
_cell_angle_beta 90.000000
_cell_angle_gamma 90.000000
_cell_volume 3059.205193
_symmetry_space_group_name_H-M "P M M A"
_symmetry_group_IT_number 51
_symmetry_cell_setting 'orthorhombic'
loop_
_space_group_symop_operation_xyz
x,y,z
1/2-x,-y,z
1/2+x,-y,-z
-x,y,-z
-x,-y,-z
1/2+x,y,-z
1/2-x,y,z
x,-y,z
loop_
_atom_site_type_symbol
_atom_site_label
_atom_site_fract_x
_atom_site_fract_y
_atom_site_fract_z
Si Si1 0.639280 0.246277 0.618504
Si Si2 0.049990 0.380099 0.225839
Si Si3 0.180492 0.615102 0.582209
Si Si4 0.428331 0.770657 0.014498
Si Si5 0.820633 0.119431 0.842198
Si Si6 0.934578 0.114712 0.434213
Si Si7 0.420213 0.713172 0.751173
O O1 0.582887 0.316457 0.668409
O O2 0.683241 0.322990 0.543082
O O3 0.677231 0.190248 0.723740
O O4 0.615246 0.159874 0.527086
O O5 0.070302 0.500000 0.226945
O O6 0.068130 0.331452 0.097207
O O7 0.975849 0.370758 0.249218
O O8 0.250000 0.612238 0.636649
O O9 0.155299 0.500000 0.555127
O O10 0.138702 0.666975 0.683535
O O11 0.377946 0.851634 0.068622
O O12 0.500000 0.816907 0.000000
O O13 0.400253 0.739046 0.886516
O O14 0.750000 0.135240 0.898103
O O15 0.830418 0.000000 0.806205
O O16 0.942151 0.181525 0.313552
O O17 0.000000 0.109672 0.500000
O O18 0.912389 0.000000 0.395835
#
# Coordination Sequence:
#
# PCOD8208886 Si02
#       7
#     8   8   8   8   8   8   8
#     4  10  19  35  53  78 108 137 172 220 262 315
#     4  10  19  33  55  80 104 136 174 217 266 316
#     4  10  21  34  51  75 104 141 178 214 261 314
#     4   9  21  37  54  80 109 139 177 220 269 319
#     4  10  21  37  58  81 106 141 182 223 267 315
#     4  10  19  32  51  76 107 138 168 208 260 318
#     4  10  20  35  52  77 105 136 173 217 264 315
#
# _framework density 18.305409000000001
#
# number of rings (size 3 to 8) (size 9 to 14) (size 15 to 20)
#    0.000    2.143    1.429    1.714    0.000    4.571 
#    0.000    2.143    0.000    7.714    0.000    0.000 
#    0.000    0.000    0.000    0.000    0.000    0.000 
#
# Total GULP energy -694212.556257 kJ/mol
# GULP energy per Si atom -12396.652790 kJ/mol
# Density = 1.826374 g / cm^3
# Si number density = 18.305409 Si / 1000 Ang^3
#
#
#
# Elastic Constant Matrix: (Units=GPa)
#
#
# Indices 1 2 3 4 5 6 
#
# 1 85.8825 39.5155 39.9914 0.0000 0.0000 0.0000
# 2 39.5155 126.6959 45.9775 0.0000 0.0000 0.0000
# 3 39.9914 45.9775 102.0589 0.0000 0.0000 0.0000
# 4 0.0000 0.0000 0.0000 17.5534 0.0000 0.0000
# 5 0.0000 0.0000 0.0000 0.0000 23.0011 0.0000
# 6 0.0000 0.0000 0.0000 0.0000 0.0000 25.5391
#
#
#
# Elastic Compliance Matrix: (Units=1/GPa)
#
#
# Indices 1 2 3 4 5 6 
#
# 1 0.015186 -0.003081 -0.004563 0.000000 0.000000 0.000000
# 2 -0.003081 0.010060 -0.003325 0.000000 0.000000 0.000000
# 3 -0.004563 -0.003325 0.013084 0.000000 0.000000 0.000000
# 4 0.000000 0.000000 0.000000 0.056969 0.000000 0.000000
# 5 0.000000 0.000000 0.000000 0.000000 0.043476 0.000000
# 6 0.000000 0.000000 0.000000 0.000000 0.000000 0.039156
#
#
# Mechanical properties :
#
#
# Convention : Reuss Voigt Hill
#
# Bulk Modulus (GPa) = 60.99948 62.84512 61.92230
# Shear Modulus (GPa) = 24.35076 25.82892 25.08984
#
# Velocity S-wave (km/s) = 3.65122 3.76040 3.70621
# Velocity P-wave (km/s) = 7.15337 7.29796 7.22602
#
# Compressibility (1/GPa) = 0.01639358
#
# Stress axis : x y z
#
# Youngs Moduli (GPa) = 65.85072 99.39987 76.42861
#
# Poissons Ratio (x) = 0.30621 0.34872
# Poissons Ratio (y) = 0.20286 0.25413
# Poissons Ratio (z) = 0.30046 0.33051
#
# Static dielectric constant tensor:
#      x y z
#    x 3.218630 0.000000 0.000000 
#    y 0.000000 3.524100 0.000000 
#    z 0.000000 0.000000 3.384060 
# 
# 
# High freq. dielectric constant tensor:
#      x y z
#    x 1.705720 0.000000 0.000000 
#    y 0.000000 1.712390 0.000000 
#    z 0.000000 0.000000 1.707910 
# 
# From -- ./inp_files/18228.got.cif
#   From: 2010.03.12/outbox.cif.g09.slc.cpg/sg51_10_cif.got.tgz:18228.got - 2010.04.16 13:43:02.
