data_PCOD8208448
_publ_section_title
;
Structure prediction by ZEFSAII (Michael W. Deem and Ramdas Pophale) SiO2 
 PCOD8208448
Probable space group: P M M A
;
_chemical_formula_sum "Si O2"
_cell_formula_units_Z 64
_cell_length_a 8.829652
_cell_length_b 13.859508
_cell_length_c 28.900811
_cell_angle_alpha 90.000000
_cell_angle_beta 90.000000
_cell_angle_gamma 90.000000
_cell_volume 3536.726126
_symmetry_space_group_name_H-M "P M M A"
_symmetry_group_IT_number 51
_symmetry_cell_setting 'orthorhombic'
loop_
_space_group_symop_operation_xyz
x,y,z
1/2-x,-y,z
1/2+x,-y,-z
-x,y,-z
-x,-y,-z
1/2+x,y,-z
1/2-x,y,z
x,-y,z
loop_
_atom_site_type_symbol
_atom_site_label
_atom_site_fract_x
_atom_site_fract_y
_atom_site_fract_z
Si Si1 0.926847 0.888752 0.363910
Si Si2 0.926376 0.100822 0.049379
Si Si3 0.429757 0.204906 0.451535
Si Si4 0.928869 0.393793 0.597601
Si Si5 0.929289 0.280774 0.687220
Si Si6 0.428566 0.309579 0.949567
Si Si7 0.573447 0.613207 0.227987
Si Si8 0.916229 0.389096 0.863959
O O1 0.750000 0.866622 0.369731
O O2 0.009293 0.866233 0.412230
O O3 0.994265 0.822854 0.322781
O O4 0.956228 0.000000 0.350716
O O5 0.750000 0.102831 0.040282
O O6 0.970842 0.203124 0.072126
O O7 0.970578 0.000000 0.076634
O O8 0.000000 0.096990 0.000000
O O9 0.500000 0.172638 0.500000
O O10 0.250000 0.195309 0.453226
O O11 0.480748 0.315569 0.440644
O O12 0.750000 0.402857 0.597041
O O13 0.001246 0.500000 0.587903
O O14 0.981561 0.356272 0.647782
O O15 0.750000 0.265924 0.687238
O O16 0.982321 0.323033 0.735646
O O17 0.250000 0.327317 0.953621
O O18 0.499871 0.382215 0.913099
O O19 0.500000 0.326093 0.000000
O O20 0.750000 0.635060 0.232711
O O21 0.538880 0.500000 0.235720
O O22 0.518981 0.651534 0.177770
O O23 0.750000 0.338512 0.865200
O O24 0.891618 0.500000 0.853577
#
# Coordination Sequence:
#
# PCOD8208448 Si02
#       8
#     8   8   8   8   8   8   8   8
#     4  10  21  37  56  77 102 133 171 217 265 311
#     4   8  14  25  42  65  91 118 150 189 234 282
#     4  10  20  33  50  72 100 136 176 218 262 309
#     4   8  15  28  46  70 100 132 165 201 244 296
#     4  10  19  32  54  81 107 134 164 204 252 306
#     4  10  19  31  49  72  99 132 169 210 254 301
#     4  10  20  34  54  80 108 136 166 203 249 302
#     4  10  21  36  52  71  98 133 172 212 253 298
#
# _framework density 18.095829999999999
#
# number of rings (size 3 to 8) (size 9 to 14) (size 15 to 20)
#    0.000    2.500    0.000    3.375    0.000    4.250 
#    0.000    0.000    0.000    7.875    0.000    1.750 
#    0.000    0.000    0.000    0.000    0.000    0.000 
#
# Total GULP energy -793026.659674 kJ/mol
# GULP energy per Si atom -12391.041557 kJ/mol
# Density = 1.805464 g / cm^3
# Si number density = 18.095830 Si / 1000 Ang^3
#
#
#
# Elastic Constant Matrix: (Units=GPa)
#
#
# Indices 1 2 3 4 5 6 
#
# 1 89.4341 34.3315 36.4904 0.0000 0.0000 0.0000
# 2 34.3315 70.4664 24.2142 0.0000 0.0000 0.0000
# 3 36.4904 24.2142 95.7906 0.0000 0.0000 0.0000
# 4 0.0000 0.0000 0.0000 17.2854 0.0000 0.0000
# 5 0.0000 0.0000 0.0000 0.0000 29.4859 0.0000
# 6 0.0000 0.0000 0.0000 0.0000 0.0000 22.9062
#
#
#
# Elastic Compliance Matrix: (Units=1/GPa)
#
#
# Indices 1 2 3 4 5 6 
#
# 1 0.015212 -0.005936 -0.004294 0.000000 0.000000 0.000000
# 2 -0.005936 0.017857 -0.002253 0.000000 0.000000 0.000000
# 3 -0.004294 -0.002253 0.012645 0.000000 0.000000 0.000000
# 4 0.000000 0.000000 0.000000 0.057852 0.000000 0.000000
# 5 0.000000 0.000000 0.000000 0.000000 0.033914 0.000000
# 6 0.000000 0.000000 0.000000 0.000000 0.000000 0.043656
#
#
# Mechanical properties :
#
#
# Convention : Reuss Voigt Hill
#
# Bulk Modulus (GPa) = 48.19705 49.52926 48.86315
# Shear Modulus (GPa) = 23.47202 24.64583 24.05893
#
# Velocity S-wave (km/s) = 3.60543 3.69448 3.65023
# Velocity P-wave (km/s) = 6.63508 6.75491 6.69527
#
# Compressibility (1/GPa) = 0.02074816
#
# Stress axis : x y z
#
# Youngs Moduli (GPa) = 65.73666 55.99984 79.08360
#
# Poissons Ratio (x) = 0.33240 0.33962
# Poissons Ratio (y) = 0.39020 0.17816
# Poissons Ratio (z) = 0.28230 0.12616
#
# Static dielectric constant tensor:
#      x y z
#    x 3.407770 0.000000 0.000000 
#    y 0.000000 3.758480 0.000000 
#    z 0.000000 0.000000 3.123800 
# 
# 
# High freq. dielectric constant tensor:
#      x y z
#    x 1.707080 0.000000 0.000000 
#    y 0.000000 1.698520 0.000000 
#    z 0.000000 0.000000 1.676940 
# 
# From -- ./inp_files/34959.got.cif
#   From: 2010.03.12/outbox.cif.g09.slc.cpg/sg51_18_cif.got.tgz:34959.got - 2010.04.16 13:43:02.
