data_PCOD8208191
_publ_section_title
;
Structure prediction by ZEFSAII (Michael W. Deem and Ramdas Pophale) SiO2 
 PCOD8208191
Probable space group: P M M A
;
_chemical_formula_sum "Si O2"
_cell_formula_units_Z 36
_cell_length_a 9.109703
_cell_length_b 18.590572
_cell_length_c 14.179859
_cell_angle_alpha 90.000000
_cell_angle_beta 90.000000
_cell_angle_gamma 90.000000
_cell_volume 2401.424200
_symmetry_space_group_name_H-M "P M M A"
_symmetry_group_IT_number 51
_symmetry_cell_setting 'orthorhombic'
loop_
_space_group_symop_operation_xyz
x,y,z
1/2-x,-y,z
1/2+x,-y,-z
-x,y,-z
-x,-y,-z
1/2+x,y,-z
1/2-x,y,z
x,-y,z
loop_
_atom_site_type_symbol
_atom_site_label
_atom_site_fract_x
_atom_site_fract_y
_atom_site_fract_z
Si Si1 0.578014 0.083379 0.595904
Si Si2 0.579429 0.424096 0.098349
Si Si3 0.577829 0.268346 0.099898
Si Si4 0.422994 0.864638 0.776084
Si Si5 0.421592 0.000000 0.900831
O O1 0.500000 0.107829 0.500000
O O2 0.750000 0.098329 0.586678
O O3 0.510892 0.131181 0.678918
O O4 0.544052 0.000000 0.617145
O O5 0.750000 0.422963 0.075808
O O6 0.540576 0.500000 0.154005
O O7 0.538542 0.347276 0.146318
O O8 0.500000 0.426482 0.000000
O O9 0.750000 0.259629 0.080856
O O10 0.525540 0.208933 0.174264
O O11 0.500000 0.256465 0.000000
O O12 0.250000 0.866688 0.754364
O O13 0.470468 0.930013 0.843099
O O14 0.250000 0.000000 0.920617
O O15 0.500000 0.000000 0.000000
#
# Coordination Sequence:
#
# PCOD8208191 Si02
#       5
#     8   8   8   8   4
#     4  10  20  33  50  68  83 103 133 172 215 257
#     4   8  13  22  36  54  77 106 140 174 207 243
#     4   9  17  27  40  59  84 115 146 177 210 243
#     4  10  19  31  44  60  84 112 142 175 210 247
#     4  10  20  30  41  56  79 112 145 176 204 234
#
# _framework density 14.991104
#
# number of rings (size 3 to 8) (size 9 to 14) (size 15 to 20)
#    0.000    2.667    1.111    1.333    0.000    2.667 
#    0.000    0.000    0.000    0.000    0.000    0.000 
#    0.000    0.889    0.000    1.556    0.000    2.667 
#
# Total GULP energy -446000.583967 kJ/mol
# GULP energy per Si atom -12388.905110 kJ/mol
# Density = 1.495698 g / cm^3
# Si number density = 14.991104 Si / 1000 Ang^3
#
#
#
# Elastic Constant Matrix: (Units=GPa)
#
#
# Indices 1 2 3 4 5 6 
#
# 1 40.1470 33.7519 39.5035 0.0000 0.0000 0.0000
# 2 33.7519 153.0189 64.5731 0.0000 0.0000 0.0000
# 3 39.5035 64.5731 99.7724 0.0000 0.0000 0.0000
# 4 0.0000 0.0000 0.0000 7.0576 0.0000 0.0000
# 5 0.0000 0.0000 0.0000 0.0000 26.3204 0.0000
# 6 0.0000 0.0000 0.0000 0.0000 0.0000 11.3376
#
#
#
# Elastic Compliance Matrix: (Units=1/GPa)
#
#
# Indices 1 2 3 4 5 6 
#
# 1 0.041834 -0.003079 -0.014571 0.000000 0.000000 0.000000
# 2 -0.003079 0.009217 -0.004746 0.000000 0.000000 0.000000
# 3 -0.014571 -0.004746 0.018864 0.000000 0.000000 0.000000
# 4 0.000000 0.000000 0.000000 0.141690 0.000000 0.000000
# 5 0.000000 0.000000 0.000000 0.000000 0.037993 0.000000
# 6 0.000000 0.000000 0.000000 0.000000 0.000000 0.088202
#
#
# Mechanical properties :
#
#
# Convention : Reuss Voigt Hill
#
# Bulk Modulus (GPa) = 39.80422 63.17724 51.49073
# Shear Modulus (GPa) = 12.78877 19.28379 16.03628
#
# Velocity S-wave (km/s) = 2.92394 3.59046 3.27421
# Velocity P-wave (km/s) = 6.16513 7.70864 6.97968
#
# Compressibility (1/GPa) = 0.02512297
#
# Stress axis : x y z
#
# Youngs Moduli (GPa) = 23.90378 108.49307 53.01087
#
# Poissons Ratio (x) = 0.33400 0.77244
# Poissons Ratio (y) = 0.07359 0.25162
# Poissons Ratio (z) = 0.34831 0.51496
#
# Static dielectric constant tensor:
#      x y z
#    x 2.857110 0.000000 0.000000 
#    y 0.000000 3.553210 0.000000 
#    z 0.000000 0.000000 2.586480 
# 
# 
# High freq. dielectric constant tensor:
#      x y z
#    x 1.578290 0.000000 0.000000 
#    y 0.000000 1.582130 0.000000 
#    z 0.000000 0.000000 1.532890 
# 
# From -- ./inp_files/14166.got.cif
#   From: 2010.03.12/outbox.cif.g09.slc.cpg/sg51_8_cif.got.tgz:14166.got - 2010.04.16 13:43:02.
