data_PCOD8208787
_publ_section_title
;
Structure prediction by ZEFSAII (Michael W. Deem and Ramdas Pophale) SiO2 
 PCOD8208787
Probable space group: P M M A
;
_chemical_formula_sum "Si O2"
_cell_formula_units_Z 64
_cell_length_a 8.922885
_cell_length_b 24.861593
_cell_length_c 14.970120
_cell_angle_alpha 90.000000
_cell_angle_beta 90.000000
_cell_angle_gamma 90.000000
_cell_volume 3320.928535
_symmetry_space_group_name_H-M "P M M A"
_symmetry_group_IT_number 51
_symmetry_cell_setting 'orthorhombic'
loop_
_space_group_symop_operation_xyz
x,y,z
1/2-x,-y,z
1/2+x,-y,-z
-x,y,-z
-x,-y,-z
1/2+x,y,-z
1/2-x,y,z
x,-y,z
loop_
_atom_site_type_symbol
_atom_site_label
_atom_site_fract_x
_atom_site_fract_y
_atom_site_fract_z
Si Si1 0.578036 0.704741 0.348920
Si Si2 0.426028 0.810385 0.412635
Si Si3 0.077292 0.558894 0.233745
Si Si4 0.423681 0.845102 0.218252
Si Si5 0.581529 0.412167 0.412345
Si Si6 0.574593 0.671014 0.829830
Si Si7 0.425759 0.060471 0.091169
Si Si8 0.073921 0.765225 0.911530
O O1 0.750000 0.716211 0.317968
O O2 0.511598 0.753948 0.404339
O O3 0.572456 0.652410 0.410926
O O4 0.470031 0.695479 0.265261
O O5 0.500000 0.839092 0.500000
O O6 0.250000 0.800838 0.427862
O O7 0.454378 0.847039 0.324591
O O8 0.250000 0.567463 0.259000
O O9 0.049846 0.500000 0.188886
O O10 0.030002 0.607405 0.166766
O O11 0.987634 0.561220 0.325042
O O12 0.250000 0.832418 0.198579
O O13 0.472193 0.901830 0.174360
O O14 0.521498 0.797564 0.175794
O O15 0.500000 0.434146 0.500000
O O16 0.750000 0.432723 0.417137
O O17 0.750000 0.680462 0.846757
O O18 0.481084 0.703219 0.904432
O O19 0.250000 0.061660 0.075238
O O20 0.481771 0.000000 0.113152
O O21 0.500000 0.082015 0.000000
O O22 0.250000 0.768026 0.921026
O O23 0.000000 0.791181 0.000000
#
# Coordination Sequence:
#
# PCOD8208787 Si02
#       8
#     8   8   8   8   8   8   8   8
#     4  10  19  32  50  73 101 136 180 222 269 325
#     4  11  22  34  51  74 107 148 192 237 280 328
#     4   9  19  35  54  73  94 127 169 213 266 325
#     4  10  21  37  56  82 116 152 190 232 280 330
#     4  10  20  31  45  67  95 128 168 216 268 322
#     4  10  19  34  55  78 107 138 172 216 267 325
#     4   9  18  34  57  85 116 150 189 231 278 334
#     4  12  24  37  57  84 116 149 182 220 272 334
#
# _framework density 19.271718
#
# number of rings (size 3 to 8) (size 9 to 14) (size 15 to 20)
#    0.000    1.875    1.250    3.375    0.000    5.500 
#    0.000    0.000    0.000    0.750    0.000    0.000 
#    0.000    0.000    0.000    0.000    0.000    0.125 
#
# Total GULP energy -793511.451678 kJ/mol
# GULP energy per Si atom -12398.616432 kJ/mol
# Density = 1.922785 g / cm^3
# Si number density = 19.271718 Si / 1000 Ang^3
#
#
#
# Elastic Constant Matrix: (Units=GPa)
#
#
# Indices 1 2 3 4 5 6 
#
# 1 92.0090 37.2512 37.3907 0.0000 0.0000 0.0000
# 2 37.2512 100.8781 43.3355 0.0000 0.0000 0.0000
# 3 37.3907 43.3355 94.2197 0.0000 0.0000 0.0000
# 4 0.0000 0.0000 0.0000 15.7563 0.0000 0.0000
# 5 0.0000 0.0000 0.0000 0.0000 31.0993 0.0000
# 6 0.0000 0.0000 0.0000 0.0000 0.0000 16.8533
#
#
#
# Elastic Compliance Matrix: (Units=1/GPa)
#
#
# Indices 1 2 3 4 5 6 
#
# 1 0.013850 -0.003431 -0.003918 0.000000 0.000000 0.000000
# 2 -0.003431 0.013204 -0.004711 0.000000 0.000000 0.000000
# 3 -0.003918 -0.004711 0.014335 0.000000 0.000000 0.000000
# 4 0.000000 0.000000 0.000000 0.063466 0.000000 0.000000
# 5 0.000000 0.000000 0.000000 0.000000 0.032155 0.000000
# 6 0.000000 0.000000 0.000000 0.000000 0.000000 0.059336
#
#
# Mechanical properties :
#
#
# Convention : Reuss Voigt Hill
#
# Bulk Modulus (GPa) = 57.91131 58.11795 58.01463
# Shear Modulus (GPa) = 22.10202 24.01709 23.05955
#
# Velocity S-wave (km/s) = 3.39021 3.53403 3.46287
# Velocity P-wave (km/s) = 6.74091 6.84654 6.79393
#
# Compressibility (1/GPa) = 0.01726778
#
# Stress axis : x y z
#
# Youngs Moduli (GPa) = 72.20261 75.73515 69.75765
#
# Poissons Ratio (x) = 0.25986 0.27332
# Poissons Ratio (y) = 0.24774 0.32865
# Poissons Ratio (z) = 0.28290 0.35682
#
# Static dielectric constant tensor:
#      x y z
#    x 3.603740 0.000000 0.000000 
#    y 0.000000 3.660030 0.000000 
#    z 0.000000 0.000000 3.431180 
# 
# 
# High freq. dielectric constant tensor:
#      x y z
#    x 1.756210 0.000000 0.000000 
#    y 0.000000 1.735010 0.000000 
#    z 0.000000 0.000000 1.732510 
# 
# From -- ./inp_files/22224.got.cif
#   From: 2010.03.12/outbox.cif.g09.slc.cpg/sg51_12_cif.got.tgz:22224.got - 2010.04.16 13:43:02.
