data_PCOD8208273
_publ_section_title
;
Structure prediction by ZEFSAII (Michael W. Deem and Ramdas Pophale) SiO2 
 PCOD8208273
Probable space group: P M M A
;
_chemical_formula_sum "Si O2"
_cell_formula_units_Z 64
_cell_length_a 9.152550
_cell_length_b 19.520518
_cell_length_c 19.135099
_cell_angle_alpha 90.000000
_cell_angle_beta 90.000000
_cell_angle_gamma 90.000000
_cell_volume 3418.724951
_symmetry_space_group_name_H-M "P M M A"
_symmetry_group_IT_number 51
_symmetry_cell_setting 'orthorhombic'
loop_
_space_group_symop_operation_xyz
x,y,z
1/2-x,-y,z
1/2+x,-y,-z
-x,y,-z
-x,-y,-z
1/2+x,y,-z
1/2-x,y,z
x,-y,z
loop_
_atom_site_type_symbol
_atom_site_label
_atom_site_fract_x
_atom_site_fract_y
_atom_site_fract_z
Si Si1 0.917326 0.079071 0.292867
Si Si2 0.087078 0.576424 0.801481
Si Si3 0.412913 0.205255 0.934111
Si Si4 0.078124 0.574086 0.338198
Si Si5 0.422017 0.806276 0.212995
Si Si6 0.908827 0.363005 0.061449
Si Si7 0.922262 0.274821 0.649438
Si Si8 0.081137 0.158310 0.569375
O O1 0.750000 0.094448 0.270731
O O2 0.940397 0.098963 0.373659
O O3 0.026694 0.121365 0.244353
O O4 0.957137 0.000000 0.283483
O O5 0.250000 0.600552 0.776657
O O6 0.096407 0.500000 0.831312
O O7 0.021044 0.624484 0.862444
O O8 0.971324 0.580440 0.740670
O O9 0.250000 0.171848 0.927068
O O10 0.497983 0.202167 0.860839
O O11 0.392888 0.283562 0.954588
O O12 0.500000 0.170302 0.000000
O O13 0.250000 0.570423 0.339904
O O14 0.017788 0.500000 0.369998
O O15 0.029442 0.646804 0.371566
O O16 0.250000 0.808517 0.198782
O O17 0.461634 0.746276 0.269790
O O18 0.750000 0.398483 0.062462
O O19 0.000000 0.398824 0.000000
O O20 0.750000 0.263628 0.637851
O O21 0.011433 0.229098 0.595693
O O22 0.250000 0.172029 0.552701
O O23 0.000000 0.132916 0.500000
#
# Coordination Sequence:
#
# PCOD8208273 Si02
#       8
#     8   8   8   8   8   8   8   8
#     4   9  19  36  56  79 108 141 173 201 234 282
#     4   9  17  28  40  56  81 112 147 190 241 297
#     4  10  19  31  47  67  93 125 163 209 258 305
#     4   9  17  29  46  68  92 120 157 202 251 298
#     4  10  19  31  50  76 103 132 168 209 253 300
#     4   9  18  29  40  56  79 110 149 193 242 295
#     4   9  18  32  50  73 102 134 168 209 254 300
#     4  10  20  34  54  80 109 140 172 204 239 283
#
# _framework density 18.720431000000001
#
# number of rings (size 3 to 8) (size 9 to 14) (size 15 to 20)
#    0.000    2.625    0.000    1.875    0.000    3.250 
#    0.000    0.000    0.000    0.750    0.000    0.000 
#    0.000    0.000    0.000    0.000    0.000    0.000 
#
# Total GULP energy -792848.321069 kJ/mol
# GULP energy per Si atom -12388.255017 kJ/mol
# Density = 1.867782 g / cm^3
# Si number density = 18.720431 Si / 1000 Ang^3
#
#
#
# Elastic Constant Matrix: (Units=GPa)
#
#
# Indices 1 2 3 4 5 6 
#
# 1 60.6688 19.9601 27.8273 0.0000 0.0000 0.0000
# 2 19.9601 69.7974 -4.6839 0.0000 0.0000 0.0000
# 3 27.8273 -4.6839 54.9990 0.0000 0.0000 0.0000
# 4 0.0000 0.0000 0.0000 13.1356 0.0000 0.0000
# 5 0.0000 0.0000 0.0000 0.0000 34.1013 0.0000
# 6 0.0000 0.0000 0.0000 0.0000 0.0000 21.0957
#
#
#
# Elastic Compliance Matrix: (Units=1/GPa)
#
#
# Indices 1 2 3 4 5 6 
#
# 1 0.025378 -0.008166 -0.013536 0.000000 0.000000 0.000000
# 2 -0.008166 0.017037 0.005582 0.000000 0.000000 0.000000
# 3 -0.013536 0.005582 0.025506 0.000000 0.000000 0.000000
# 4 0.000000 0.000000 0.000000 0.076129 0.000000 0.000000
# 5 0.000000 0.000000 0.000000 0.000000 0.029324 0.000000
# 6 0.000000 0.000000 0.000000 0.000000 0.000000 0.047403
#
#
# Mechanical properties :
#
#
# Convention : Reuss Voigt Hill
#
# Bulk Modulus (GPa) = 28.02443 30.18582 29.10513
# Shear Modulus (GPa) = 18.87437 23.15729 21.01583
#
# Velocity S-wave (km/s) = 3.17870 3.52093 3.35418
# Velocity P-wave (km/s) = 5.33616 5.71741 5.53007
#
# Compressibility (1/GPa) = 0.03568315
#
# Stress axis : x y z
#
# Youngs Moduli (GPa) = 39.40431 58.69583 39.20637
#
# Poissons Ratio (x) = 0.47929 0.53068
# Poissons Ratio (y) = 0.32177 -0.21887
# Poissons Ratio (z) = 0.53336 -0.32767
#
# Static dielectric constant tensor:
#      x y z
#    x 3.634960 0.000000 0.000000 
#    y 0.000000 3.499450 0.000000 
#    z 0.000000 0.000000 3.241390 
# 
# 
# High freq. dielectric constant tensor:
#      x y z
#    x 1.730180 0.000000 0.000000 
#    y 0.000000 1.710490 0.000000 
#    z 0.000000 0.000000 1.708670 
# 
# From -- ./inp_files/28350.got.cif
#   From: 2010.03.12/outbox.cif.g09.slc.cpg/sg51_15_cif.got.tgz:28350.got - 2010.04.16 13:43:02.
