data_PCOD8208682
_publ_section_title
;
Structure prediction by ZEFSAII (Michael W. Deem and Ramdas Pophale) SiO2 
 PCOD8208682
Probable space group: P M M A
;
_chemical_formula_sum "Si O2"
_cell_formula_units_Z 64
_cell_length_a 24.321341
_cell_length_b 14.140440
_cell_length_c 9.434063
_cell_angle_alpha 90.000000
_cell_angle_beta 90.000000
_cell_angle_gamma 90.000000
_cell_volume 3244.510712
_symmetry_space_group_name_H-M "P M M A"
_symmetry_group_IT_number 51
_symmetry_cell_setting 'orthorhombic'
loop_
_space_group_symop_operation_xyz
x,y,z
1/2-x,-y,z
1/2+x,-y,-z
-x,y,-z
-x,-y,-z
1/2+x,y,-z
1/2-x,y,z
x,-y,z
loop_
_atom_site_type_symbol
_atom_site_label
_atom_site_fract_x
_atom_site_fract_y
_atom_site_fract_z
Si Si1 0.410222 0.703786 0.842202
Si Si2 0.814491 0.391651 0.644836
Si Si3 0.134949 0.103616 0.532300
Si Si4 0.044808 0.894362 0.757353
Si Si5 0.187083 0.283810 0.635001
Si Si6 0.582460 0.104103 0.765671
Si Si7 0.601068 0.696752 0.843759
Si Si8 0.503459 0.389131 0.664510
O O1 0.435034 0.810280 0.861091
O O2 0.349498 0.702077 0.774694
O O3 0.447580 0.639347 0.742085
O O4 0.406754 0.655782 0.997715
O O5 0.750000 0.378439 0.665216
O O6 0.833275 0.500000 0.650043
O O7 0.833036 0.352301 0.491700
O O8 0.841972 0.337087 0.775862
O O9 0.077357 0.121045 0.611757
O O10 0.181499 0.176858 0.578997
O O11 0.121845 0.113895 0.368429
O O12 0.158685 0.000000 0.567516
O O13 0.980921 0.883253 0.721596
O O14 0.056259 0.000000 0.822375
O O15 0.250000 0.304168 0.677237
O O16 0.600948 0.189468 0.866729
O O17 0.590980 0.000000 0.836697
O O18 0.553188 0.665825 0.737673
O O19 0.500000 0.359266 0.500000
O O20 0.514015 0.500000 0.680786
#
# Coordination Sequence:
#
# PCOD8208682 Si02
#       8
#     8   8   8   8   8   8   8   8
#     4  11  24  37  58  88 123 158 193 242 296 353
#     4  10  22  42  66  87 110 148 198 249 299 352
#     4   9  17  31  54  86 116 150 196 246 291 333
#     4   9  18  32  52  81 120 162 198 232 279 342
#     4  10  21  39  62  86 113 151 198 247 293 350
#     4  10  19  31  54  86 122 158 194 235 285 344
#     4  12  23  38  60  90 124 157 193 239 297 355
#     4  11  25  42  62  86 116 157 199 242 295 353
#
# _framework density 19.725625000000001
#
# number of rings (size 3 to 8) (size 9 to 14) (size 15 to 20)
#    0.000    1.750    2.500    1.875    1.750    5.750 
#    0.000    1.250    0.000    1.875    0.000    1.750 
#    0.000    0.000    0.000    0.000    0.000    0.000 
#
# Total GULP energy -793445.044822 kJ/mol
# GULP energy per Si atom -12397.578825 kJ/mol
# Density = 1.968073 g / cm^3
# Si number density = 19.725625 Si / 1000 Ang^3
#
#
#
# Elastic Constant Matrix: (Units=GPa)
#
#
# Indices 1 2 3 4 5 6 
#
# 1 66.0487 30.0828 36.7370 0.0000 0.0000 0.0000
# 2 30.0828 107.0635 43.3749 0.0000 0.0000 0.0000
# 3 36.7370 43.3749 119.7159 0.0000 0.0000 0.0000
# 4 0.0000 0.0000 0.0000 12.8886 0.0000 0.0000
# 5 0.0000 0.0000 0.0000 0.0000 19.3439 0.0000
# 6 0.0000 0.0000 0.0000 0.0000 0.0000 26.0936
#
#
#
# Elastic Compliance Matrix: (Units=1/GPa)
#
#
# Indices 1 2 3 4 5 6 
#
# 1 0.019344 -0.003552 -0.004649 0.000000 0.000000 0.000000
# 2 -0.003552 0.011599 -0.003113 0.000000 0.000000 0.000000
# 3 -0.004649 -0.003113 0.010908 0.000000 0.000000 0.000000
# 4 0.000000 0.000000 0.000000 0.077588 0.000000 0.000000
# 5 0.000000 0.000000 0.000000 0.000000 0.051696 0.000000
# 6 0.000000 0.000000 0.000000 0.000000 0.000000 0.038324
#
#
# Mechanical properties :
#
#
# Convention : Reuss Voigt Hill
#
# Bulk Modulus (GPa) = 52.01946 57.02418 54.52182
# Shear Modulus (GPa) = 20.96497 23.84079 22.40288
#
# Velocity S-wave (km/s) = 3.26364 3.48029 3.37371
# Velocity P-wave (km/s) = 6.37421 6.71724 6.54797
#
# Compressibility (1/GPa) = 0.01922357
#
# Stress axis : x y z
#
# Youngs Moduli (GPa) = 51.69565 86.21235 91.67945
#
# Poissons Ratio (x) = 0.30620 0.42624
# Poissons Ratio (y) = 0.18361 0.28537
# Poissons Ratio (z) = 0.24034 0.26835
#
# Static dielectric constant tensor:
#      x y z
#    x 3.383760 0.000000 0.000000 
#    y 0.000000 3.973790 0.000000 
#    z 0.000000 0.000000 3.357340 
# 
# 
# High freq. dielectric constant tensor:
#      x y z
#    x 1.753250 0.000000 0.000000 
#    y 0.000000 1.783940 0.000000 
#    z 0.000000 0.000000 1.754990 
# 
# From -- ./inp_files/11915.got.cif
#   From: 2010.03.12/outbox.cif.g09.slc.cpg/sg51_6_cif.got.tgz:11915.got - 2010.04.16 13:43:02.
