data_PCOD8208904
_publ_section_title
;
Structure prediction by ZEFSAII (Michael W. Deem and Ramdas Pophale) SiO2 
 PCOD8208904
Probable space group: P M M A
;
_chemical_formula_sum "Si O2"
_cell_formula_units_Z 56
_cell_length_a 13.703488
_cell_length_b 8.867894
_cell_length_c 23.984300
_cell_angle_alpha 90.000000
_cell_angle_beta 90.000000
_cell_angle_gamma 90.000000
_cell_volume 2914.598015
_symmetry_space_group_name_H-M "P M M A"
_symmetry_group_IT_number 51
_symmetry_cell_setting 'orthorhombic'
loop_
_space_group_symop_operation_xyz
x,y,z
1/2-x,-y,z
1/2+x,-y,-z
-x,y,-z
-x,-y,-z
1/2+x,y,-z
1/2-x,y,z
x,-y,z
loop_
_atom_site_type_symbol
_atom_site_label
_atom_site_fract_x
_atom_site_fract_y
_atom_site_fract_z
Si Si1 0.449093 0.178504 0.193559
Si Si2 0.364922 0.666677 0.087967
Si Si3 0.634401 0.832726 0.019313
Si Si4 0.963448 0.179785 0.580222
Si Si5 0.140149 0.820736 0.307619
Si Si6 0.856911 0.820518 0.141326
Si Si7 0.637853 0.677341 0.476524
O O1 0.385183 0.235059 0.142364
O O2 0.408874 0.245847 0.251540
O O3 0.562123 0.230239 0.186246
O O4 0.440480 0.000000 0.194352
O O5 0.250000 0.658467 0.079601
O O6 0.409170 0.500000 0.095996
O O7 0.412429 0.738547 0.031881
O O8 0.750000 0.839738 0.012866
O O9 0.590001 0.000000 0.015039
O O10 0.610628 0.759462 0.080074
O O11 0.923740 0.233069 0.640014
O O12 0.888389 0.241160 0.534263
O O13 0.070367 0.252901 0.572153
O O14 0.970688 0.000000 0.575001
O O15 0.250000 0.756671 0.312905
O O16 0.142953 0.000000 0.305488
O O17 0.750000 0.756911 0.158892
O O18 0.850771 0.000000 0.136691
O O19 0.750000 0.710384 0.461312
O O20 0.617358 0.500000 0.482481
#
# Coordination Sequence:
#
# PCOD8208904 Si02
#       7
#     8   8   8   8   8   8   8
#     4  10  19  32  52  73  94 126 165 201 241 291
#     4  10  20  32  45  66  97 126 154 196 248 297
#     4   8  14  27  47  67  88 118 155 194 240 296
#     4  10  19  32  53  79 107 140 178 217 255 297
#     4   9  18  32  50  75 105 133 164 203 245 290
#     4   8  15  29  49  72  94 117 154 203 246 287
#     4  10  20  34  53  79 111 143 174 211 255 302
#
# _framework density 19.213626999999999
#
# number of rings (size 3 to 8) (size 9 to 14) (size 15 to 20)
#    0.000    2.714    0.000    3.857    0.000    3.714 
#    0.000    5.714    0.000    7.286    0.000    0.000 
#    0.000    0.000    0.000    0.000    0.000    0.000 
#
# Total GULP energy -694147.566377 kJ/mol
# GULP energy per Si atom -12395.492257 kJ/mol
# Density = 1.916990 g / cm^3
# Si number density = 19.213627 Si / 1000 Ang^3
#
#
#
# Elastic Constant Matrix: (Units=GPa)
#
#
# Indices 1 2 3 4 5 6 
#
# 1 120.1234 31.6147 74.4613 0.0000 0.0000 0.0000
# 2 31.6147 51.1003 28.4440 0.0000 0.0000 0.0000
# 3 74.4613 28.4440 150.5588 0.0000 0.0000 0.0000
# 4 0.0000 0.0000 0.0000 -3.9482 0.0000 0.0000
# 5 0.0000 0.0000 0.0000 0.0000 30.2195 0.0000
# 6 0.0000 0.0000 0.0000 0.0000 0.0000 18.6109
#
#
#
# Elastic Compliance Matrix: (Units=1/GPa)
#
#
# Indices 1 2 3 4 5 6 
#
# 1 0.013061 -0.005012 -0.005513 0.000000 0.000000 0.000000
# 2 -0.005012 0.023792 -0.002016 0.000000 0.000000 0.000000
# 3 -0.005513 -0.002016 0.009749 0.000000 0.000000 0.000000
# 4 0.000000 0.000000 0.000000 -0.253281 0.000000 0.000000
# 5 0.000000 0.000000 0.000000 0.000000 0.033091 0.000000
# 6 0.000000 0.000000 0.000000 0.000000 0.000000 0.053732
#
#
# Mechanical properties :
#
#
# Convention : Reuss Voigt Hill
#
# Bulk Modulus (GPa) = 46.46635 65.64694 56.05665
# Shear Modulus (GPa) = -57.07765 21.46060 -17.80853
#
# Velocity S-wave (km/s) = -5.45631 3.34570 -3.04776
# Velocity P-wave (km/s) = 3.93174 7.01185 4.10533
#
# Compressibility (1/GPa) = 0.02152095
#
# Stress axis : x y z
#
# Youngs Moduli (GPa) = 76.56379 42.03016 102.57268
#
# Poissons Ratio (x) = 0.21066 0.56545
# Poissons Ratio (y) = 0.38374 0.20680
# Poissons Ratio (z) = 0.42207 0.08474
#
# Static dielectric constant tensor:
#      x y z
#    x 3.679780 0.000000 0.000000 
#    y 0.000000 3.364060 0.000000 
#    z 0.000000 0.000000 3.586790 
# 
# 
# High freq. dielectric constant tensor:
#      x y z
#    x 1.757690 0.000000 0.000000 
#    y 0.000000 1.716440 0.000000 
#    z 0.000000 0.000000 1.735400 
# 
# From -- ./inp_files/33491.got.cif
#   From: 2010.03.12/outbox.cif.g09.slc.cpg/sg51_17_cif.got.tgz:33491.got - 2010.04.16 13:43:02.
