data_PCOD8208135
_publ_section_title
;
Structure prediction by ZEFSAII (Michael W. Deem and Ramdas Pophale) SiO2 
 PCOD8208135
Probable space group: P M M A
;
_chemical_formula_sum "Si O2"
_cell_formula_units_Z 48
_cell_length_a 20.530595
_cell_length_b 9.096680
_cell_length_c 14.106321
_cell_angle_alpha 90.000000
_cell_angle_beta 90.000000
_cell_angle_gamma 90.000000
_cell_volume 2634.500078
_symmetry_space_group_name_H-M "P M M A"
_symmetry_group_IT_number 51
_symmetry_cell_setting 'orthorhombic'
loop_
_space_group_symop_operation_xyz
x,y,z
1/2-x,-y,z
1/2+x,-y,-z
-x,y,-z
-x,-y,-z
1/2+x,y,-z
1/2-x,y,z
x,-y,z
loop_
_atom_site_type_symbol
_atom_site_label
_atom_site_fract_x
_atom_site_fract_y
_atom_site_fract_z
Si Si1 0.675620 0.339503 0.201376
Si Si2 0.174309 0.826504 0.983248
Si Si3 0.516805 0.669972 0.714088
Si Si4 0.057473 0.670436 0.070836
Si Si5 0.930512 0.163662 0.551358
Si Si6 0.888493 0.173554 0.354609
O O1 0.750000 0.368773 0.181327
O O2 0.639731 0.500000 0.204007
O O3 0.648450 0.241204 0.115750
O O4 0.670136 0.253048 0.300449
O O5 0.250000 0.785510 0.006264
O O6 0.166098 0.000000 0.977859
O O7 0.124909 0.760380 0.060454
O O8 0.503325 0.500000 0.693103
O O9 0.536910 0.697849 0.821447
O O10 0.572740 0.725785 0.640504
O O11 0.453274 0.764947 0.694425
O O12 0.072379 0.500000 0.050552
O O13 0.000000 0.725550 0.000000
O O14 0.881399 0.211652 0.466696
O O15 0.000000 0.163736 0.500000
O O16 0.914079 0.000000 0.588571
O O17 0.886688 0.000000 0.338796
#
# Coordination Sequence:
#
# PCOD8208135 Si02
#       6
#     8   8   8   8   8   8
#     4  10  20  33  50  72  98 128 160 198 246 296
#     4  10  21  36  54  76 101 133 173 210 248 302
#     4  10  19  30  48  74 101 130 165 204 246 294
#     4  10  21  35  51  75 106 136 169 211 256 300
#     4   8  16  30  46  67  96 128 159 193 239 293
#     4  10  19  31  49  72  99 130 162 199 245 295
#
# _framework density 18.219776
#
# number of rings (size 3 to 8) (size 9 to 14) (size 15 to 20)
#    0.000    2.333    0.000    4.000    0.000    8.667 
#    0.000    0.000    0.000    1.000    0.000    0.000 
#    0.000    0.000    0.000    0.000    0.000    0.000 
#
# Total GULP energy -594889.682684 kJ/mol
# GULP energy per Si atom -12393.535056 kJ/mol
# Density = 1.817831 g / cm^3
# Si number density = 18.219776 Si / 1000 Ang^3
#
#
#
# Elastic Constant Matrix: (Units=GPa)
#
#
# Indices 1 2 3 4 5 6 
#
# 1 49.7222 34.8953 27.2327 0.0000 0.0000 0.0000
# 2 34.8953 107.3030 55.8276 0.0000 0.0000 0.0000
# 3 27.2327 55.8276 109.8103 0.0000 0.0000 0.0000
# 4 0.0000 0.0000 0.0000 33.9246 0.0000 0.0000
# 5 0.0000 0.0000 0.0000 0.0000 26.1878 0.0000
# 6 0.0000 0.0000 0.0000 0.0000 0.0000 26.3638
#
#
#
# Elastic Compliance Matrix: (Units=1/GPa)
#
#
# Indices 1 2 3 4 5 6 
#
# 1 0.026771 -0.007141 -0.003009 0.000000 0.000000 0.000000
# 2 -0.007141 0.014576 -0.005639 0.000000 0.000000 0.000000
# 3 -0.003009 -0.005639 0.012720 0.000000 0.000000 0.000000
# 4 0.000000 0.000000 0.000000 0.029477 0.000000 0.000000
# 5 0.000000 0.000000 0.000000 0.000000 0.038186 0.000000
# 6 0.000000 0.000000 0.000000 0.000000 0.000000 0.037931
#
#
# Mechanical properties :
#
#
# Convention : Reuss Voigt Hill
#
# Bulk Modulus (GPa) = 44.46658 55.86073 50.16365
# Shear Modulus (GPa) = 25.15926 27.22058 26.18992
#
# Velocity S-wave (km/s) = 3.72005 3.86944 3.79548
# Velocity P-wave (km/s) = 6.55060 7.11965 6.84104
#
# Compressibility (1/GPa) = 0.02248880
#
# Stress axis : x y z
#
# Youngs Moduli (GPa) = 37.35386 68.60777 78.61704
#
# Poissons Ratio (x) = 0.48990 0.23655
# Poissons Ratio (y) = 0.26673 0.44335
# Poissons Ratio (z) = 0.11239 0.38691
#
# Static dielectric constant tensor:
#      x y z
#    x 3.225220 0.000000 0.000000 
#    y 0.000000 3.598200 0.000000 
#    z 0.000000 0.000000 3.757200 
# 
# 
# High freq. dielectric constant tensor:
#      x y z
#    x 1.670510 0.000000 0.000000 
#    y 0.000000 1.717940 0.000000 
#    z 0.000000 0.000000 1.707170 
# 
# From -- ./inp_files/25506.got.cif
#   From: 2010.03.12/outbox.cif.g09.slc.cpg/sg51_13_cif.got.tgz:25506.got - 2010.04.16 13:43:02.
