data_PCOD8208985
_publ_section_title
;
Structure prediction by ZEFSAII (Michael W. Deem and Ramdas Pophale) SiO2 
 PCOD8208985
Probable space group: P M M A
;
_chemical_formula_sum "Si O2"
_cell_formula_units_Z 64
_cell_length_a 33.612010
_cell_length_b 8.952041
_cell_length_c 11.457596
_cell_angle_alpha 90.000000
_cell_angle_beta 90.000000
_cell_angle_gamma 90.000000
_cell_volume 3447.545856
_symmetry_space_group_name_H-M "P M M A"
_symmetry_group_IT_number 51
_symmetry_cell_setting 'orthorhombic'
loop_
_space_group_symop_operation_xyz
x,y,z
1/2-x,-y,z
1/2+x,-y,-z
-x,y,-z
-x,-y,-z
1/2+x,y,-z
1/2-x,y,z
x,-y,z
loop_
_atom_site_type_symbol
_atom_site_label
_atom_site_fract_x
_atom_site_fract_y
_atom_site_fract_z
Si Si1 0.793376 0.177434 0.452098
Si Si2 0.623077 0.176410 0.362345
Si Si3 0.915382 0.669113 0.576373
Si Si4 0.704952 0.829926 0.715371
Si Si5 0.067642 0.327949 0.813645
Si Si6 0.932665 0.823571 0.942804
Si Si7 0.981403 0.329105 0.747042
Si Si8 0.365806 0.670141 0.190710
O O1 0.750000 0.233292 0.402974
O O2 0.831057 0.233474 0.376146
O O3 0.798531 0.235506 0.584266
O O4 0.793073 0.000000 0.455831
O O5 0.596781 0.218600 0.474576
O O6 0.605577 0.253271 0.247489
O O7 0.621297 0.000000 0.346050
O O8 0.914451 0.500000 0.526763
O O9 0.959482 0.710733 0.624911
O O10 0.884983 0.688426 0.682384
O O11 0.750000 0.820297 0.760300
O O12 0.679021 0.730464 0.802957
O O13 0.689363 0.000000 0.718508
O O14 0.077571 0.500000 0.837832
O O15 0.028734 0.310799 0.730646
O O16 0.056991 0.247355 0.933371
O O17 0.966316 0.775748 0.851030
O O18 0.889368 0.767657 0.903415
O O19 0.932618 0.000000 0.954808
O O20 0.969948 0.500000 0.780755
O O21 0.365726 0.500000 0.147913
#
# Coordination Sequence:
#
# PCOD8208985 Si02
#       8
#     8   8   8   8   8   8   8   8
#     4   8  15  29  50  76 107 141 174 211 258 310
#     4  11  21  33  53  79 109 140 179 223 263 311
#     4   9  18  33  51  74 104 139 177 211 258 317
#     4   9  16  28  49  78 110 141 174 214 265 320
#     4  11  23  39  56  74 104 143 181 218 264 318
#     4  11  22  36  57  81 104 131 174 228 273 313
#     4   9  20  38  58  78 103 140 178 215 264 324
#     4  10  19  32  52  77 108 142 176 214 263 322
#
# _framework density 18.563931
#
# number of rings (size 3 to 8) (size 9 to 14) (size 15 to 20)
#    0.000    2.250    1.250    4.125    0.000    5.250 
#    0.000    2.500    0.000    2.250    0.000    1.750 
#    0.000    0.000    0.000    0.000    0.000    0.000 
#
# Total GULP energy -793511.149581 kJ/mol
# GULP energy per Si atom -12398.611712 kJ/mol
# Density = 1.852168 g / cm^3
# Si number density = 18.563931 Si / 1000 Ang^3
#
#
#
# Elastic Constant Matrix: (Units=GPa)
#
#
# Indices 1 2 3 4 5 6 
#
# 1 113.6774 35.0155 21.4324 0.0000 0.0000 0.0000
# 2 35.0155 95.2198 22.8258 0.0000 0.0000 0.0000
# 3 21.4324 22.8258 37.0391 0.0000 0.0000 0.0000
# 4 0.0000 0.0000 0.0000 30.0185 0.0000 0.0000
# 5 0.0000 0.0000 0.0000 0.0000 20.5392 0.0000
# 6 0.0000 0.0000 0.0000 0.0000 0.0000 26.8834
#
#
#
# Elastic Compliance Matrix: (Units=1/GPa)
#
#
# Indices 1 2 3 4 5 6 
#
# 1 0.010480 -0.002816 -0.004329 0.000000 0.000000 0.000000
# 2 -0.002816 0.013079 -0.006431 0.000000 0.000000 0.000000
# 3 -0.004329 -0.006431 0.033466 0.000000 0.000000 0.000000
# 4 0.000000 0.000000 0.000000 0.033313 0.000000 0.000000
# 5 0.000000 0.000000 0.000000 0.000000 0.048687 0.000000
# 6 0.000000 0.000000 0.000000 0.000000 0.000000 0.037198
#
#
# Mechanical properties :
#
#
# Convention : Reuss Voigt Hill
#
# Bulk Modulus (GPa) = 33.47340 44.94262 39.20801
# Shear Modulus (GPa) = 23.43747 26.59905 25.01826
#
# Velocity S-wave (km/s) = 3.55706 3.78939 3.67506
# Velocity P-wave (km/s) = 5.91107 6.58849 6.25895
#
# Compressibility (1/GPa) = 0.02987447
#
# Stress axis : x y z
#
# Youngs Moduli (GPa) = 95.41552 76.45742 29.88079
#
# Poissons Ratio (x) = 0.21533 0.12935
# Poissons Ratio (y) = 0.26872 0.19215
# Poissons Ratio (z) = 0.41304 0.49166
#
# Static dielectric constant tensor:
#      x y z
#    x 3.687500 0.000000 0.000000 
#    y 0.000000 3.306800 0.000000 
#    z 0.000000 0.000000 3.127950 
# 
# 
# High freq. dielectric constant tensor:
#      x y z
#    x 1.728270 0.000000 0.000000 
#    y 0.000000 1.712080 0.000000 
#    z 0.000000 0.000000 1.686970 
# 
# From -- ./inp_files/19470.got.cif
#   From: 2010.03.12/outbox.cif.g09.slc.cpg/sg51_10_cif.got.tgz:19470.got - 2010.04.16 13:43:02.
