data_PCOD8208474
_publ_section_title
;
Structure prediction by ZEFSAII (Michael W. Deem and Ramdas Pophale) SiO2 
 PCOD8208474
Probable space group: P M M A
;
_chemical_formula_sum "Si O2"
_cell_formula_units_Z 36
_cell_length_a 8.977250
_cell_length_b 23.110668
_cell_length_c 9.733340
_cell_angle_alpha 90.000000
_cell_angle_beta 90.000000
_cell_angle_gamma 90.000000
_cell_volume 2019.378428
_symmetry_space_group_name_H-M "P M M A"
_symmetry_group_IT_number 51
_symmetry_cell_setting 'orthorhombic'
loop_
_space_group_symop_operation_xyz
x,y,z
1/2-x,-y,z
1/2+x,-y,-z
-x,y,-z
-x,-y,-z
1/2+x,y,-z
1/2-x,y,z
x,-y,z
loop_
_atom_site_type_symbol
_atom_site_label
_atom_site_fract_x
_atom_site_fract_y
_atom_site_fract_z
Si Si1 0.925339 0.271694 0.141706
Si Si2 0.573551 0.813720 0.648796
Si Si3 0.074388 0.500000 0.647635
Si Si4 0.422842 0.938898 0.355098
Si Si5 0.923508 0.595480 0.140144
O O1 0.750000 0.260348 0.132929
O O2 0.963463 0.338314 0.174292
O O3 0.997105 0.234887 0.261559
O O4 0.000000 0.252114 0.000000
O O5 0.500000 0.810202 0.500000
O O6 0.750000 0.802175 0.638637
O O7 0.537944 0.877476 0.717661
O O8 0.250000 0.500000 0.625077
O O9 0.021750 0.556603 0.732303
O O10 0.000000 0.500000 0.500000
O O11 0.500000 0.940244 0.500000
O O12 0.250000 0.938177 0.387487
O O13 0.464115 0.000000 0.275020
O O14 0.750000 0.586616 0.115581
O O15 0.000000 0.574600 0.000000
#
# Coordination Sequence:
#
# PCOD8208474 Si02
#       5
#     8   8   4   8   8
#     4  10  20  35  53  74 100 131 167 206 248 295
#     4  10  19  31  49  74 102 132 165 204 250 296
#     4  10  21  36  52  76 106 132 161 198 242 288
#     4   8  14  25  42  65  93 124 159 199 242 289
#     4   9  19  35  55  76  98 127 165 204 241 288
#
# _framework density 17.827268
#
# number of rings (size 3 to 8) (size 9 to 14) (size 15 to 20)
#    0.000    2.667    0.000    1.667    0.000    3.556 
#    0.000    2.222    0.000    0.667    0.000    0.000 
#    0.000    0.000    0.000    0.000    0.000    0.000 
#
# Total GULP energy -445979.435067 kJ/mol
# GULP energy per Si atom -12388.317641 kJ/mol
# Density = 1.778669 g / cm^3
# Si number density = 17.827268 Si / 1000 Ang^3
#
#
#
# Elastic Constant Matrix: (Units=GPa)
#
#
# Indices 1 2 3 4 5 6 
#
# 1 64.0580 49.9579 45.4343 0.0000 0.0000 0.0000
# 2 49.9579 134.6741 80.0329 0.0000 0.0000 0.0000
# 3 45.4343 80.0329 111.7724 0.0000 0.0000 0.0000
# 4 0.0000 0.0000 0.0000 -1.8501 0.0000 0.0000
# 5 0.0000 0.0000 0.0000 0.0000 32.2372 0.0000
# 6 0.0000 0.0000 0.0000 0.0000 0.0000 -114.0486
#
#
#
# Elastic Compliance Matrix: (Units=1/GPa)
#
#
# Indices 1 2 3 4 5 6 
#
# 1 0.024001 -0.005406 -0.005886 0.000000 0.000000 0.000000
# 2 -0.005406 0.014143 -0.007929 0.000000 0.000000 0.000000
# 3 -0.005886 -0.007929 0.017017 0.000000 0.000000 0.000000
# 4 0.000000 0.000000 0.000000 -0.540523 0.000000 0.000000
# 5 0.000000 0.000000 0.000000 0.000000 0.031020 0.000000
# 6 0.000000 0.000000 0.000000 0.000000 0.000000 -0.008768
#
#
# Mechanical properties :
#
#
# Convention : Reuss Voigt Hill
#
# Bulk Modulus (GPa) = 59.81016 73.48384 66.64700
# Shear Modulus (GPa) = -11.93045 -7.72701 -9.82873
#
# Velocity S-wave (km/s) = -2.58974 -2.08417 -2.35059
# Velocity P-wave (km/s) = 4.96793 5.95967 5.48625
#
# Compressibility (1/GPa) = 0.01671957
#
# Stress axis : x y z
#
# Youngs Moduli (GPa) = 41.66475 70.70733 58.76526
#
# Poissons Ratio (x) = 0.38222 0.34586
# Poissons Ratio (y) = 0.22523 0.46597
# Poissons Ratio (z) = 0.24522 0.56067
#
# Static dielectric constant tensor:
#      x y z
#    x 3.397180 0.000000 0.000000 
#    y 0.000000 4.053680 0.000000 
#    z 0.000000 0.000000 2.980880 
# 
# 
# High freq. dielectric constant tensor:
#      x y z
#    x 1.696580 0.000000 0.000000 
#    y 0.000000 1.716640 0.000000 
#    z 0.000000 0.000000 1.650890 
# 
# From -- ./inp_files/5260.got.cif
#   From: 2010.03.12/outbox.cif.g09.slc.cpg/sg51_3_cif.got.tgz:5260.got - 2010.04.16 13:43:02.
