data_PCOD8208443
_publ_section_title
;
Structure prediction by ZEFSAII (Michael W. Deem and Ramdas Pophale) SiO2 
 PCOD8208443
Probable space group: P M M A
;
_chemical_formula_sum "Si O2"
_cell_formula_units_Z 64
_cell_length_a 17.604819
_cell_length_b 9.063500
_cell_length_c 22.840269
_cell_angle_alpha 90.000000
_cell_angle_beta 90.000000
_cell_angle_gamma 90.000000
_cell_volume 3644.422489
_symmetry_space_group_name_H-M "P M M A"
_symmetry_group_IT_number 51
_symmetry_cell_setting 'orthorhombic'
loop_
_space_group_symop_operation_xyz
x,y,z
1/2-x,-y,z
1/2+x,-y,-z
-x,y,-z
-x,-y,-z
1/2+x,y,-z
1/2-x,y,z
x,-y,z
loop_
_atom_site_type_symbol
_atom_site_label
_atom_site_fract_x
_atom_site_fract_y
_atom_site_fract_z
Si Si1 0.666596 0.332091 0.674146
Si Si2 0.523209 0.330280 0.748216
Si Si3 0.480052 0.173478 0.131348
Si Si4 0.836824 0.172874 0.944942
Si Si5 0.958648 0.331428 0.372592
Si Si6 0.926122 0.334677 0.039577
Si Si7 0.096207 0.825760 0.429265
Si Si8 0.164214 0.329861 0.538560
O O1 0.750000 0.306681 0.700960
O O2 0.654971 0.500000 0.652739
O O3 0.607168 0.293676 0.724589
O O4 0.657837 0.228342 0.617830
O O5 0.516091 0.500000 0.768672
O O6 0.510323 0.223241 0.802162
O O7 0.462747 0.292035 0.696578
O O8 0.396988 0.220990 0.105666
O O9 0.550979 0.245425 0.097469
O O10 0.489743 0.000000 0.126961
O O11 0.750000 0.213911 0.926352
O O12 0.844285 0.000000 0.957342
O O13 0.857326 0.255705 0.005314
O O14 0.987065 0.500000 0.380058
O O15 0.873689 0.310513 0.397167
O O16 0.013358 0.229461 0.410878
O O17 0.900171 0.500000 0.056455
O O18 0.000000 0.338554 0.000000
O O19 0.117111 0.765187 0.492738
O O20 0.096016 0.000000 0.432131
O O21 0.250000 0.271176 0.543237
O O22 0.161986 0.500000 0.518761
#
# Coordination Sequence:
#
# PCOD8208443 Si02
#       8
#     8   8   8   8   8   8   8   8
#     4   9  18  33  50  67  93 131 168 200 240 291
#     4   9  18  32  49  69  93 124 164 207 243 276
#     4  10  19  31  49  72  98 132 169 199 235 287
#     4   9  18  32  49  72 104 135 159 190 236 288
#     4   9  19  36  54  70  93 127 164 202 245 293
#     4   9  17  30  49  72  97 126 162 202 237 270
#     4  11  21  31  47  73 101 127 157 195 241 294
#     4  10  20  34  53  74  94 120 156 198 247 302
#
# _framework density 17.561081000000001
#
# number of rings (size 3 to 8) (size 9 to 14) (size 15 to 20)
#    0.000    2.500    0.000    3.375    0.000    8.750 
#    0.000    0.000    0.000    0.750    0.000    1.750 
#    0.000    0.000    0.000    0.000    0.000    0.000 
#
# Total GULP energy -793440.646758 kJ/mol
# GULP energy per Si atom -12397.510106 kJ/mol
# Density = 1.752111 g / cm^3
# Si number density = 17.561081 Si / 1000 Ang^3
#
#
#
# Elastic Constant Matrix: (Units=GPa)
#
#
# Indices 1 2 3 4 5 6 
#
# 1 48.3980 23.9635 40.3388 0.0000 0.0000 0.0000
# 2 23.9635 79.8972 47.0148 0.0000 0.0000 0.0000
# 3 40.3388 47.0148 113.8355 0.0000 0.0000 0.0000
# 4 0.0000 0.0000 0.0000 22.0610 0.0000 0.0000
# 5 0.0000 0.0000 0.0000 0.0000 14.0806 0.0000
# 6 0.0000 0.0000 0.0000 0.0000 0.0000 10.9026
#
#
#
# Elastic Compliance Matrix: (Units=1/GPa)
#
#
# Indices 1 2 3 4 5 6 
#
# 1 0.030101 -0.003635 -0.009165 0.000000 0.000000 0.000000
# 2 -0.003635 0.016973 -0.005722 0.000000 0.000000 0.000000
# 3 -0.009165 -0.005722 0.014396 0.000000 0.000000 0.000000
# 4 0.000000 0.000000 0.000000 0.045329 0.000000 0.000000
# 5 0.000000 0.000000 0.000000 0.000000 0.071020 0.000000
# 6 0.000000 0.000000 0.000000 0.000000 0.000000 0.091721
#
#
# Mechanical properties :
#
#
# Convention : Reuss Voigt Hill
#
# Bulk Modulus (GPa) = 40.94097 51.64054 46.29076
# Shear Modulus (GPa) = 15.88684 18.12976 17.00830
#
# Velocity S-wave (km/s) = 3.01102 3.21656 3.11549
# Velocity P-wave (km/s) = 5.95419 6.57762 6.27366
#
# Compressibility (1/GPa) = 0.02442541
#
# Stress axis : x y z
#
# Youngs Moduli (GPa) = 33.22166 58.91582 69.46534
#
# Poissons Ratio (x) = 0.21415 0.63667
# Poissons Ratio (y) = 0.12076 0.39748
# Poissons Ratio (z) = 0.30449 0.33712
#
# Static dielectric constant tensor:
#      x y z
#    x 3.308120 0.000000 0.000000 
#    y 0.000000 3.249290 0.000000 
#    z 0.000000 0.000000 3.155320 
# 
# 
# High freq. dielectric constant tensor:
#      x y z
#    x 1.663520 0.000000 0.000000 
#    y 0.000000 1.677210 0.000000 
#    z 0.000000 0.000000 1.665080 
# 
# From -- ./inp_files/33772.got.cif
#   From: 2010.03.12/outbox.cif.g09.slc.cpg/sg51_17_cif.got.tgz:33772.got - 2010.04.16 13:43:02.
