data_PCOD8208086
_publ_section_title
;
Structure prediction by ZEFSAII (Michael W. Deem and Ramdas Pophale) SiO2 
 PCOD8208086
Probable space group: P M M A
;
_chemical_formula_sum "Si O2"
_cell_formula_units_Z 64
_cell_length_a 9.003771
_cell_length_b 18.936342
_cell_length_c 23.411470
_cell_angle_alpha 90.000000
_cell_angle_beta 90.000000
_cell_angle_gamma 90.000000
_cell_volume 3991.620212
_symmetry_space_group_name_H-M "P M M A"
_symmetry_group_IT_number 51
_symmetry_cell_setting 'orthorhombic'
loop_
_space_group_symop_operation_xyz
x,y,z
1/2-x,-y,z
1/2+x,-y,-z
-x,y,-z
-x,-y,-z
1/2+x,y,-z
1/2-x,y,z
x,-y,z
loop_
_atom_site_type_symbol
_atom_site_label
_atom_site_fract_x
_atom_site_fract_y
_atom_site_fract_z
Si Si1 0.424557 0.080961 0.558727
Si Si2 0.420006 0.277241 0.720831
Si Si3 0.922084 0.081451 0.778792
Si Si4 0.075434 0.422298 0.116296
Si Si5 0.078168 0.797939 0.839355
Si Si6 0.078238 0.577971 0.764765
Si Si7 0.422653 0.843255 0.338197
Si Si8 0.573994 0.718817 0.941033
O O1 0.500000 0.104984 0.500000
O O2 0.250000 0.091509 0.552644
O O3 0.484824 0.130718 0.608157
O O4 0.466271 0.000000 0.572904
O O5 0.250000 0.262130 0.703211
O O6 0.449187 0.252938 0.785648
O O7 0.458640 0.361104 0.718266
O O8 0.526772 0.236296 0.677242
O O9 0.750000 0.096024 0.792377
O O10 0.959185 0.105260 0.714430
O O11 0.022231 0.123677 0.823774
O O12 0.964296 0.000000 0.784932
O O13 0.250000 0.419294 0.123729
O O14 0.023958 0.500000 0.094021
O O15 0.022819 0.361752 0.072607
O O16 0.010773 0.406556 0.178136
O O17 0.250000 0.801035 0.856980
O O18 0.982315 0.770822 0.892090
O O19 0.250000 0.583076 0.781891
O O20 0.039665 0.500000 0.739590
O O21 0.250000 0.843045 0.353904
O O22 0.750000 0.725678 0.946004
O O23 0.500000 0.742203 0.000000
#
# Coordination Sequence:
#
# PCOD8208086 Si02
#       8
#     8   8   8   8   8   8   8   8
#     4  10  20  33  49  69  97 134 171 204 237 274
#     4   9  17  29  45  67  95 124 156 194 236 279
#     4   9  18  32  50  72  97 124 152 186 230 277
#     4   9  18  31  46  65  89 117 150 188 228 272
#     4  10  19  32  49  69  92 117 149 187 230 279
#     4   9  16  27  45  67  92 123 156 190 231 279
#     4  10  19  30  47  71  99 130 164 199 234 271
#     4  11  22  34  49  66  88 117 151 189 230 277
#
# _framework density 16.033588999999999
#
# number of rings (size 3 to 8) (size 9 to 14) (size 15 to 20)
#    0.000    2.375    1.250    1.875    0.000    3.750 
#    0.000    0.000    0.000    0.375    0.000    0.000 
#    0.000    0.500    0.000    1.375    0.000    2.000 
#
# Total GULP energy -793562.631366 kJ/mol
# GULP energy per Si atom -12399.416115 kJ/mol
# Density = 1.599710 g / cm^3
# Si number density = 16.033589 Si / 1000 Ang^3
#
#
#
# Elastic Constant Matrix: (Units=GPa)
#
#
# Indices 1 2 3 4 5 6 
#
# 1 45.6121 33.5093 33.9867 0.0000 0.0000 0.0000
# 2 33.5093 102.4741 45.2748 0.0000 0.0000 0.0000
# 3 33.9867 45.2748 78.5437 0.0000 0.0000 0.0000
# 4 0.0000 0.0000 0.0000 18.3962 0.0000 0.0000
# 5 0.0000 0.0000 0.0000 0.0000 27.2733 0.0000
# 6 0.0000 0.0000 0.0000 0.0000 0.0000 23.3156
#
#
#
# Elastic Compliance Matrix: (Units=1/GPa)
#
#
# Indices 1 2 3 4 5 6 
#
# 1 0.035249 -0.006424 -0.011550 0.000000 0.000000 0.000000
# 2 -0.006424 0.014264 -0.005442 0.000000 0.000000 0.000000
# 3 -0.011550 -0.005442 0.020867 0.000000 0.000000 0.000000
# 4 0.000000 0.000000 0.000000 0.054359 0.000000 0.000000
# 5 0.000000 0.000000 0.000000 0.000000 0.036666 0.000000
# 6 0.000000 0.000000 0.000000 0.000000 0.000000 0.042890
#
#
# Mechanical properties :
#
#
# Convention : Reuss Voigt Hill
#
# Bulk Modulus (GPa) = 42.46707 50.24129 46.35418
# Shear Modulus (GPa) = 19.30682 21.38763 20.34723
#
# Velocity S-wave (km/s) = 3.47385 3.65626 3.56622
# Velocity P-wave (km/s) = 6.52947 7.01622 6.77722
#
# Compressibility (1/GPa) = 0.02354766
#
# Stress axis : x y z
#
# Youngs Moduli (GPa) = 28.36928 70.10819 47.92315
#
# Poissons Ratio (x) = 0.45035 0.55351
# Poissons Ratio (y) = 0.18223 0.26082
# Poissons Ratio (z) = 0.32767 0.38156
#
# Static dielectric constant tensor:
#      x y z
#    x 3.113280 0.000000 0.000000 
#    y 0.000000 3.245260 0.000000 
#    z 0.000000 0.000000 2.759300 
# 
# 
# High freq. dielectric constant tensor:
#      x y z
#    x 1.626150 0.000000 0.000000 
#    y 0.000000 1.616800 0.000000 
#    z 0.000000 0.000000 1.580470 
# 
# From -- ./inp_files/32662.got.cif
#   From: 2010.03.12/outbox.cif.g09.slc.cpg/sg51_17_cif.got.tgz:32662.got - 2010.04.16 13:43:02.
