data_PCOD8208569
_publ_section_title
;
Structure prediction by ZEFSAII (Michael W. Deem and Ramdas Pophale) SiO2 
 PCOD8208569
Probable space group: P M M A
;
_chemical_formula_sum "Si O2"
_cell_formula_units_Z 52
_cell_length_a 9.342148
_cell_length_b 19.766558
_cell_length_c 14.541986
_cell_angle_alpha 90.000000
_cell_angle_beta 90.000000
_cell_angle_gamma 90.000000
_cell_volume 2685.353823
_symmetry_space_group_name_H-M "P M M A"
_symmetry_group_IT_number 51
_symmetry_cell_setting 'orthorhombic'
loop_
_space_group_symop_operation_xyz
x,y,z
1/2-x,-y,z
1/2+x,-y,-z
-x,y,-z
-x,-y,-z
1/2+x,y,-z
1/2-x,y,z
x,-y,z
loop_
_atom_site_type_symbol
_atom_site_label
_atom_site_fract_x
_atom_site_fract_y
_atom_site_fract_z
Si Si1 0.416341 0.131612 0.787687
Si Si2 0.418094 0.674486 0.590695
Si Si3 0.587685 0.615375 0.915206
Si Si4 0.418051 0.771483 0.089606
Si Si5 0.586151 0.575683 0.715198
Si Si6 0.413810 0.169706 0.588048
Si Si7 0.083244 0.000000 0.903825
O O1 0.250000 0.150763 0.803604
O O2 0.517995 0.191345 0.822102
O O3 0.445886 0.124113 0.678143
O O4 0.459042 0.063875 0.841464
O O5 0.500000 0.649969 0.500000
O O6 0.250000 0.661850 0.578454
O O7 0.475971 0.628534 0.672821
O O8 0.454069 0.752632 0.611597
O O9 0.750000 0.609570 0.946480
O O10 0.546748 0.693127 0.896146
O O11 0.556202 0.572948 0.824023
O O12 0.500000 0.584588 0.000000
O O13 0.250000 0.786812 0.079780
O O14 0.500000 0.800071 0.000000
O O15 0.750000 0.599236 0.696705
O O16 0.560777 0.500000 0.676126
O O17 0.500000 0.142114 0.500000
O O18 0.250000 0.164651 0.558657
O O19 0.250000 0.000000 0.928280
O O20 0.000000 0.000000 0.000000
#
# Coordination Sequence:
#
# PCOD8208569 Si02
#       7
#     8   8   8   8   8   8   4
#     4  10  20  35  54  77 106 140 175 212 255 301
#     4  10  20  35  56  80 104 132 167 210 259 309
#     4   9  19  34  51  73 101 132 168 212 261 309
#     4  10  19  31  50  76 103 132 168 213 262 309
#     4  10  21  36  52  72 101 136 172 211 256 307
#     4   9  19  35  56  81 107 134 168 212 260 307
#     4  10  22  38  55  76 108 146 179 212 251 298
#
# _framework density 19.364301000000001
#
# number of rings (size 3 to 8) (size 9 to 14) (size 15 to 20)
#    0.000    2.308    0.000    2.308    0.000    5.231 
#    0.000    0.385    0.000    0.000    0.000    0.000 
#    0.000    0.000    0.000    0.000    0.000    0.000 
#
# Total GULP energy -644851.409561 kJ/mol
# GULP energy per Si atom -12400.988645 kJ/mol
# Density = 1.932023 g / cm^3
# Si number density = 19.364301 Si / 1000 Ang^3
#
#
#
# Elastic Constant Matrix: (Units=GPa)
#
#
# Indices 1 2 3 4 5 6 
#
# 1 80.8734 33.1660 53.2469 0.0000 0.0000 0.0000
# 2 33.1660 57.1863 42.6484 0.0000 0.0000 0.0000
# 3 53.2469 42.6484 115.0914 0.0000 0.0000 0.0000
# 4 0.0000 0.0000 0.0000 22.9772 0.0000 0.0000
# 5 0.0000 0.0000 0.0000 0.0000 41.1050 0.0000
# 6 0.0000 0.0000 0.0000 0.0000 0.0000 14.8202
#
#
#
# Elastic Compliance Matrix: (Units=1/GPa)
#
#
# Indices 1 2 3 4 5 6 
#
# 1 0.019276 -0.006258 -0.006599 0.000000 0.000000 0.000000
# 2 -0.006258 0.026197 -0.006812 0.000000 0.000000 0.000000
# 3 -0.006599 -0.006812 0.014266 0.000000 0.000000 0.000000
# 4 0.000000 0.000000 0.000000 0.043521 0.000000 0.000000
# 5 0.000000 0.000000 0.000000 0.000000 0.024328 0.000000
# 6 0.000000 0.000000 0.000000 0.000000 0.000000 0.067475
#
#
# Mechanical properties :
#
#
# Convention : Reuss Voigt Hill
#
# Bulk Modulus (GPa) = 49.01893 56.80818 52.91355
# Shear Modulus (GPa) = 20.72948 24.05314 22.39131
#
# Velocity S-wave (km/s) = 3.27540 3.52822 3.40416
# Velocity P-wave (km/s) = 6.29868 6.78218 6.54490
#
# Compressibility (1/GPa) = 0.02040028
#
# Stress axis : x y z
#
# Youngs Moduli (GPa) = 51.87723 38.17303 70.09597
#
# Poissons Ratio (x) = 0.23889 0.46257
# Poissons Ratio (y) = 0.32465 0.47750
# Poissons Ratio (z) = 0.34235 0.26004
#
# Static dielectric constant tensor:
#      x y z
#    x 3.507110 0.000000 0.000000 
#    y 0.000000 3.400480 0.000000 
#    z 0.000000 0.000000 3.572530 
# 
# 
# High freq. dielectric constant tensor:
#      x y z
#    x 1.752070 0.000000 0.000000 
#    y 0.000000 1.737660 0.000000 
#    z 0.000000 0.000000 1.758070 
# 
# From -- ./inp_files/21584.got.cif
#   From: 2010.03.12/outbox.cif.g09.slc.cpg/sg51_11_cif.got.tgz:21584.got - 2010.04.16 13:43:02.
