data_PCOD8208200
_publ_section_title
;
Structure prediction by ZEFSAII (Michael W. Deem and Ramdas Pophale) SiO2 
 PCOD8208200
Probable space group: P M M A
;
_chemical_formula_sum "Si O2"
_cell_formula_units_Z 56
_cell_length_a 8.429238
_cell_length_b 29.632082
_cell_length_c 13.714571
_cell_angle_alpha 90.000000
_cell_angle_beta 90.000000
_cell_angle_gamma 90.000000
_cell_volume 3425.568925
_symmetry_space_group_name_H-M "P M M A"
_symmetry_group_IT_number 51
_symmetry_cell_setting 'orthorhombic'
loop_
_space_group_symop_operation_xyz
x,y,z
1/2-x,-y,z
1/2+x,-y,-z
-x,y,-z
-x,-y,-z
1/2+x,y,-z
1/2-x,y,z
x,-y,z
loop_
_atom_site_type_symbol
_atom_site_label
_atom_site_fract_x
_atom_site_fract_y
_atom_site_fract_z
Si Si1 0.564072 0.216824 0.104896
Si Si2 0.436350 0.864886 0.221880
Si Si3 0.937359 0.949847 0.895373
Si Si4 0.936447 0.268216 0.720173
Si Si5 0.935429 0.186298 0.395650
Si Si6 0.562122 0.355027 0.608649
Si Si7 0.437484 0.452380 0.391690
O O1 0.750000 0.207020 0.101438
O O2 0.473947 0.171780 0.138780
O O3 0.528882 0.257372 0.180154
O O4 0.500000 0.231765 0.000000
O O5 0.250000 0.863861 0.244194
O O6 0.494492 0.913987 0.185373
O O7 0.531752 0.854390 0.320532
O O8 0.750000 0.949753 0.901201
O O9 0.001322 0.000000 0.868222
O O10 0.000000 0.934247 0.000000
O O11 0.750000 0.269007 0.741992
O O12 0.000854 0.316246 0.680912
O O13 0.971706 0.230824 0.638321
O O14 0.750000 0.196960 0.399614
O O15 0.000000 0.170943 0.500000
O O16 0.500000 0.346845 0.500000
O O17 0.750000 0.352065 0.602679
O O18 0.505517 0.404145 0.652940
O O19 0.500000 0.453577 0.500000
O O20 0.250000 0.451937 0.394432
O O21 0.493927 0.500000 0.339320
#
# Coordination Sequence:
#
# PCOD8208200 Si02
#       7
#     8   8   8   8   8   8   8
#     4  11  21  33  48  66  89 116 146 178 216 259
#     4  10  19  32  50  71  94 119 148 180 215 255
#     4   9  18  31  48  71  97 122 146 175 213 257
#     4  10  19  31  45  64  89 115 147 182 218 259
#     4  11  21  33  48  66  89 117 151 186 221 258
#     4   9  17  26  39  59  84 115 147 180 214 251
#     4   8  13  22  35  52  76 107 142 176 210 248
#
# _framework density 16.347648
#
# number of rings (size 3 to 8) (size 9 to 14) (size 15 to 20)
#    0.000    2.286    0.000    6.000    0.000    4.571 
#    0.000    0.000    0.000    0.429    0.000    0.000 
#    0.000    0.571    0.000    1.000    0.000    1.714 
#
# Total GULP energy -693947.683155 kJ/mol
# GULP energy per Si atom -12391.922913 kJ/mol
# Density = 1.631044 g / cm^3
# Si number density = 16.347648 Si / 1000 Ang^3
#
#
#
# Elastic Constant Matrix: (Units=GPa)
#
#
# Indices 1 2 3 4 5 6 
#
# 1 31.5859 8.7457 11.1035 0.0000 0.0000 0.0000
# 2 8.7457 135.7872 55.6990 0.0000 0.0000 0.0000
# 3 11.1035 55.6990 92.8514 0.0000 0.0000 0.0000
# 4 0.0000 0.0000 0.0000 5.8727 0.0000 0.0000
# 5 0.0000 0.0000 0.0000 0.0000 24.1000 0.0000
# 6 0.0000 0.0000 0.0000 0.0000 0.0000 9.8156
#
#
#
# Elastic Compliance Matrix: (Units=1/GPa)
#
#
# Indices 1 2 3 4 5 6 
#
# 1 0.033095 -0.000674 -0.003553 0.000000 0.000000 0.000000
# 2 -0.000674 0.009782 -0.005787 0.000000 0.000000 0.000000
# 3 -0.003553 -0.005787 0.014666 0.000000 0.000000 0.000000
# 4 0.000000 0.000000 0.000000 0.170280 0.000000 0.000000
# 5 0.000000 0.000000 0.000000 0.000000 0.041494 0.000000
# 6 0.000000 0.000000 0.000000 0.000000 0.000000 0.101878
#
#
# Mechanical properties :
#
#
# Convention : Reuss Voigt Hill
#
# Bulk Modulus (GPa) = 26.65640 45.70234 36.17937
# Shear Modulus (GPa) = 12.38452 20.26941 16.32696
#
# Velocity S-wave (km/s) = 2.75539 3.52504 3.16370
# Velocity P-wave (km/s) = 5.14434 6.67721 5.96026
#
# Compressibility (1/GPa) = 0.03751444
#
# Stress axis : x y z
#
# Youngs Moduli (GPa) = 30.21562 102.23128 68.18313
#
# Poissons Ratio (x) = 0.06891 0.24228
# Poissons Ratio (y) = 0.02037 0.39459
# Poissons Ratio (z) = 0.10737 0.59163
#
# Static dielectric constant tensor:
#      x y z
#    x 3.075120 0.000000 0.000000 
#    y 0.000000 3.752910 0.000000 
#    z 0.000000 0.000000 2.967870 
# 
# 
# High freq. dielectric constant tensor:
#      x y z
#    x 1.636350 0.000000 0.000000 
#    y 0.000000 1.634020 0.000000 
#    z 0.000000 0.000000 1.592980 
# 
# From -- ./inp_files/22519.got.cif
#   From: 2010.03.12/outbox.cif.g09.slc.cpg/sg51_12_cif.got.tgz:22519.got - 2010.04.16 13:43:02.
