data_PCOD8208171
_publ_section_title
;
Structure prediction by ZEFSAII (Michael W. Deem and Ramdas Pophale) SiO2 
 PCOD8208171
Probable space group: P M M A
;
_chemical_formula_sum "Si O2"
_cell_formula_units_Z 40
_cell_length_a 14.909308
_cell_length_b 9.540789
_cell_length_c 15.355824
_cell_angle_alpha 90.000000
_cell_angle_beta 90.000000
_cell_angle_gamma 90.000000
_cell_volume 2184.313167
_symmetry_space_group_name_H-M "P M M A"
_symmetry_group_IT_number 51
_symmetry_cell_setting 'orthorhombic'
loop_
_space_group_symop_operation_xyz
x,y,z
1/2-x,-y,z
1/2+x,-y,-z
-x,y,-z
-x,-y,-z
1/2+x,y,-z
1/2-x,y,z
x,-y,z
loop_
_atom_site_type_symbol
_atom_site_label
_atom_site_fract_x
_atom_site_fract_y
_atom_site_fract_z
Si Si1 0.415958 0.660016 0.728619
Si Si2 0.348961 0.847805 0.187910
Si Si3 0.750000 0.169649 0.339148
Si Si4 0.250000 0.659845 0.487497
Si Si5 0.977325 0.656531 0.900113
Si Si6 0.392643 0.659038 0.342627
O O1 0.381204 0.500000 0.717206
O O2 0.338260 0.770824 0.708374
O O3 0.444238 0.687089 0.829452
O O4 0.499599 0.686094 0.661450
O O5 0.250000 0.867968 0.151854
O O6 0.399152 0.766470 0.112449
O O7 0.345193 0.763627 0.277258
O O8 0.393918 0.000000 0.204140
O O9 0.750000 0.225224 0.437506
O O10 0.750000 0.000000 0.337102
O O11 0.250000 0.500000 0.523942
O O12 0.343287 0.684047 0.434736
O O13 0.941806 0.500000 0.882166
O O14 0.000000 0.675506 0.000000
O O15 0.374266 0.500000 0.311994
#
# Coordination Sequence:
#
# PCOD8208171 Si02
#       6
#     8   8   4   4   8   8
#     4   9  19  38  61  82 110 145 184 232 283 331
#     4  10  19  30  49  80 117 149 173 209 271 336
#     4  12  26  40  54  77 112 157 196 227 270 331
#     4  10  20  36  60  87 114 143 184 235 282 331
#     4   9  19  37  60  84 106 136 184 235 278 324
#     4   9  18  34  60  87 109 140 183 233 281 324
#
# _framework density 18.312391000000002
#
# number of rings (size 3 to 8) (size 9 to 14) (size 15 to 20)
#    0.000    2.400    1.000    2.700    0.000    6.400 
#    1.800    4.000    0.000    0.000    0.000    0.000 
#    0.000    0.000    0.000    0.000    0.000    0.000 
#
# Total GULP energy -495578.418693 kJ/mol
# GULP energy per Si atom -12389.460467 kJ/mol
# Density = 1.827071 g / cm^3
# Si number density = 18.312391 Si / 1000 Ang^3
#
#
#
# Elastic Constant Matrix: (Units=GPa)
#
#
# Indices 1 2 3 4 5 6 
#
# 1 110.1559 71.8716 51.2680 0.0000 0.0000 0.0000
# 2 71.8716 153.7798 63.1591 0.0000 0.0000 0.0000
# 3 51.2680 63.1591 108.6006 0.0000 0.0000 0.0000
# 4 0.0000 0.0000 0.0000 -30.8138 0.0000 0.0000
# 5 0.0000 0.0000 0.0000 0.0000 16.8759 0.0000
# 6 0.0000 0.0000 0.0000 0.0000 0.0000 26.4120
#
#
#
# Elastic Compliance Matrix: (Units=1/GPa)
#
#
# Indices 1 2 3 4 5 6 
#
# 1 0.014116 -0.005072 -0.003714 0.000000 0.000000 0.000000
# 2 -0.005072 0.010366 -0.003634 0.000000 0.000000 0.000000
# 3 -0.003714 -0.003634 0.013075 0.000000 0.000000 0.000000
# 4 0.000000 0.000000 0.000000 -0.032453 0.000000 0.000000
# 5 0.000000 0.000000 0.000000 0.000000 0.059256 0.000000
# 6 0.000000 0.000000 0.000000 0.000000 0.000000 0.037862
#
#
# Mechanical properties :
#
#
# Convention : Reuss Voigt Hill
#
# Bulk Modulus (GPa) = 78.63923 82.79263 80.71593
# Shear Modulus (GPa) = 38.08072 14.91068 26.49570
#
# Velocity S-wave (km/s) = 4.56511 2.85658 3.80790
# Velocity P-wave (km/s) = 8.41566 7.49597 7.96909
#
# Compressibility (1/GPa) = 0.01271630
#
# Stress axis : x y z
#
# Youngs Moduli (GPa) = 70.84280 96.47123 76.48212
#
# Poissons Ratio (x) = 0.48928 0.28406
# Poissons Ratio (y) = 0.35930 0.27795
# Poissons Ratio (z) = 0.26312 0.35059
#
# Static dielectric constant tensor:
#      x y z
#    x 3.405150 0.000000 0.000000 
#    y 0.000000 3.540780 0.000000 
#    z 0.000000 0.000000 3.264040 
# 
# 
# High freq. dielectric constant tensor:
#      x y z
#    x 1.705050 0.000000 0.000000 
#    y 0.000000 1.714910 0.000000 
#    z 0.000000 0.000000 1.696080 
# 
# From -- ./inp_files/23764.got.cif
#   From: 2010.03.12/outbox.cif.g09.slc.cpg/sg51_12_cif.got.tgz:23764.got - 2010.04.16 13:43:02.
