data_PCOD8208596
_publ_section_title
;
Structure prediction by ZEFSAII (Michael W. Deem and Ramdas Pophale) SiO2 
 PCOD8208596
Probable space group: P M M A
;
_chemical_formula_sum "Si O2"
_cell_formula_units_Z 48
_cell_length_a 9.514089
_cell_length_b 29.323146
_cell_length_c 9.135553
_cell_angle_alpha 90.000000
_cell_angle_beta 90.000000
_cell_angle_gamma 90.000000
_cell_volume 2548.664173
_symmetry_space_group_name_H-M "P M M A"
_symmetry_group_IT_number 51
_symmetry_cell_setting 'orthorhombic'
loop_
_space_group_symop_operation_xyz
x,y,z
1/2-x,-y,z
1/2+x,-y,-z
-x,y,-z
-x,-y,-z
1/2+x,y,-z
1/2-x,y,z
x,-y,z
loop_
_atom_site_type_symbol
_atom_site_label
_atom_site_fract_x
_atom_site_fract_y
_atom_site_fract_z
Si Si1 0.750000 0.054865 0.332174
Si Si2 0.583678 0.450105 0.152612
Si Si3 0.994948 0.899676 0.825996
Si Si4 0.916871 0.368364 0.848956
Si Si5 0.250000 0.946909 0.334491
Si Si6 0.090136 0.713229 0.362798
Si Si7 0.915196 0.183310 0.645246
O O1 0.626618 0.077341 0.244709
O O2 0.750000 0.072871 0.500036
O O3 0.750000 0.000000 0.321759
O O4 0.750000 0.438180 0.131937
O O5 0.570298 0.500000 0.229762
O O6 0.497914 0.409969 0.238584
O O7 0.500000 0.452465 0.000000
O O8 0.877984 0.931736 0.761516
O O9 0.971797 0.847251 0.778323
O O10 0.000000 0.901320 0.000000
O O11 0.750000 0.378812 0.868289
O O12 0.941224 0.320939 0.768268
O O13 0.000000 0.362645 0.000000
O O14 0.250000 0.000000 0.353986
O O15 0.250000 0.710506 0.414987
O O16 0.052913 0.764396 0.310951
O O17 0.000000 0.697554 0.500000
O O18 0.750000 0.174385 0.619043
O O19 0.000000 0.169692 0.500000
#
# Coordination Sequence:
#
# PCOD8208596 Si02
#       7
#     4   8   8   8   4   8   8
#     4  11  25  43  65  89 117 157 201 233 274 343
#     4   9  16  26  43  69 102 140 183 230 279 334
#     4  12  25  39  61  91 123 152 185 240 296 336
#     4  10  19  31  50  77 109 144 181 228 281 333
#     4  11  23  43  65  87 115 157 201 235 276 337
#     4   9  20  37  57  81 108 142 184 227 273 328
#     4  10  21  40  63  85 111 147 189 231 277 342
#
# _framework density 18.833394999999999
#
# number of rings (size 3 to 8) (size 9 to 14) (size 15 to 20)
#    0.000    1.833    0.833    4.500    1.167    6.333 
#    0.000    0.000    0.000    0.500    0.000    0.000 
#    0.000    0.000    0.000    0.000    0.000    0.000 
#
# Total GULP energy -594643.088234 kJ/mol
# GULP energy per Si atom -12388.397672 kJ/mol
# Density = 1.879053 g / cm^3
# Si number density = 18.833395 Si / 1000 Ang^3
#
#
#
# Elastic Constant Matrix: (Units=GPa)
#
#
# Indices 1 2 3 4 5 6 
#
# 1 153.9470 62.8267 63.4924 0.0000 0.0000 0.0000
# 2 62.8267 117.9583 61.2640 0.0000 0.0000 0.0000
# 3 63.4924 61.2640 126.4722 0.0000 0.0000 0.0000
# 4 0.0000 0.0000 0.0000 21.2045 0.0000 0.0000
# 5 0.0000 0.0000 0.0000 0.0000 29.1540 0.0000
# 6 0.0000 0.0000 0.0000 0.0000 0.0000 31.9637
#
#
#
# Elastic Compliance Matrix: (Units=1/GPa)
#
#
# Indices 1 2 3 4 5 6 
#
# 1 0.009056 -0.003290 -0.002953 0.000000 0.000000 0.000000
# 2 -0.003290 0.012523 -0.004414 0.000000 0.000000 0.000000
# 3 -0.002953 -0.004414 0.011528 0.000000 0.000000 0.000000
# 4 0.000000 0.000000 0.000000 0.047160 0.000000 0.000000
# 5 0.000000 0.000000 0.000000 0.000000 0.034301 0.000000
# 6 0.000000 0.000000 0.000000 0.000000 0.000000 0.031285
#
#
# Mechanical properties :
#
#
# Convention : Reuss Voigt Hill
#
# Bulk Modulus (GPa) = 84.80198 85.94931 85.37564
# Shear Modulus (GPa) = 29.22317 30.51740 29.87029
#
# Velocity S-wave (km/s) = 3.94339 4.02977 3.98682
# Velocity P-wave (km/s) = 8.11536 8.20901 8.16232
#
# Compressibility (1/GPa) = 0.01179218
#
# Stress axis : x y z
#
# Youngs Moduli (GPa) = 110.42163 79.85608 86.74815
#
# Poissons Ratio (x) = 0.26272 0.25615
# Poissons Ratio (y) = 0.36328 0.38294
# Poissons Ratio (z) = 0.32605 0.35252
#
# Static dielectric constant tensor:
#      x y z
#    x 3.694460 0.000000 0.000000 
#    y 0.000000 4.336680 0.000000 
#    z 0.000000 0.000000 3.194000 
# 
# 
# High freq. dielectric constant tensor:
#      x y z
#    x 1.753230 0.000000 0.000000 
#    y 0.000000 1.756650 0.000000 
#    z 0.000000 0.000000 1.695040 
# 
# From -- ./inp_files/6229.got.cif
#   From: 2010.03.12/outbox.cif.g09.slc.cpg/sg51_4_cif.got.tgz:6229.got - 2010.04.16 13:43:02.
