data_PCOD8208242
_publ_section_title
;
Structure prediction by ZEFSAII (Michael W. Deem and Ramdas Pophale) SiO2 
 PCOD8208242
Probable space group: P M M A
;
_chemical_formula_sum "Si O2"
_cell_formula_units_Z 56
_cell_length_a 9.174037
_cell_length_b 18.195114
_cell_length_c 21.268815
_cell_angle_alpha 90.000000
_cell_angle_beta 90.000000
_cell_angle_gamma 90.000000
_cell_volume 3550.246942
_symmetry_space_group_name_H-M "P M M A"
_symmetry_group_IT_number 51
_symmetry_cell_setting 'orthorhombic'
loop_
_space_group_symop_operation_xyz
x,y,z
1/2-x,-y,z
1/2+x,-y,-z
-x,y,-z
-x,-y,-z
1/2+x,y,-z
1/2-x,y,z
x,-y,z
loop_
_atom_site_type_symbol
_atom_site_label
_atom_site_fract_x
_atom_site_fract_y
_atom_site_fract_z
Si Si1 0.085061 0.205364 0.625755
Si Si2 0.920131 0.828384 0.815553
Si Si3 0.580547 0.084573 0.690514
Si Si4 0.919693 0.584225 0.687384
Si Si5 0.086040 0.295213 0.753918
Si Si6 0.078739 0.084089 0.062473
Si Si7 0.921549 0.670185 0.561691
O O1 0.250000 0.195516 0.600863
O O2 0.082365 0.249058 0.690495
O O3 0.012177 0.126041 0.637014
O O4 0.990048 0.249667 0.575044
O O5 0.750000 0.810011 0.817467
O O6 0.956345 0.884454 0.759375
O O7 0.974237 0.866308 0.879527
O O8 0.004482 0.751364 0.807721
O O9 0.750000 0.095773 0.674925
O O10 0.534342 0.000000 0.689185
O O11 0.750000 0.594184 0.701734
O O12 0.969262 0.500000 0.689989
O O13 0.956846 0.614556 0.618217
O O14 0.005892 0.627537 0.741687
O O15 0.250000 0.311239 0.776369
O O16 0.250000 0.091086 0.052230
O O17 0.033977 0.000000 0.076615
O O18 0.000000 0.113371 0.000000
O O19 0.750000 0.678504 0.550106
O O20 0.000000 0.637313 0.500000
#
# Coordination Sequence:
#
# PCOD8208242 Si02
#       7
#     8   8   8   8   8   8   8
#     4   9  17  29  43  60  83 109 138 173 213 255
#     4   9  16  27  43  61  84 116 151 183 215 256
#     4   9  16  26  42  63  84 107 138 177 219 260
#     4   9  18  32  48  66  90 118 143 168 204 252
#     4   9  17  28  43  64  87 111 141 178 217 253
#     4   9  17  28  41  59  86 121 158 192 225 259
#     4  10  19  31  47  65  85 111 143 174 204 244
#
# _framework density 15.773548999999999
#
# number of rings (size 3 to 8) (size 9 to 14) (size 15 to 20)
#    0.000    2.857    0.000    1.714    0.000    7.143 
#    0.000    0.000    0.000    3.000    0.000    0.000 
#    0.000    0.571    0.000    1.857    0.000    2.286 
#
# Total GULP energy -694396.014126 kJ/mol
# GULP energy per Si atom -12399.928824 kJ/mol
# Density = 1.573765 g / cm^3
# Si number density = 15.773549 Si / 1000 Ang^3
#
#
#
# Elastic Constant Matrix: (Units=GPa)
#
#
# Indices 1 2 3 4 5 6 
#
# 1 77.7151 55.6844 35.6701 0.0000 0.0000 0.0000
# 2 55.6844 121.1588 46.6078 0.0000 0.0000 0.0000
# 3 35.6701 46.6078 59.5113 0.0000 0.0000 0.0000
# 4 0.0000 0.0000 0.0000 19.4765 0.0000 0.0000
# 5 0.0000 0.0000 0.0000 0.0000 24.7796 0.0000
# 6 0.0000 0.0000 0.0000 0.0000 0.0000 21.3111
#
#
#
# Elastic Compliance Matrix: (Units=1/GPa)
#
#
# Indices 1 2 3 4 5 6 
#
# 1 0.021169 -0.006939 -0.007254 0.000000 0.000000 0.000000
# 2 -0.006939 0.014087 -0.006874 0.000000 0.000000 0.000000
# 3 -0.007254 -0.006874 0.026535 0.000000 0.000000 0.000000
# 4 0.000000 0.000000 0.000000 0.051344 0.000000 0.000000
# 5 0.000000 0.000000 0.000000 0.000000 0.040356 0.000000
# 6 0.000000 0.000000 0.000000 0.000000 0.000000 0.046924
#
#
# Mechanical properties :
#
#
# Convention : Reuss Voigt Hill
#
# Bulk Modulus (GPa) = 50.87039 59.36775 55.11907
# Shear Modulus (GPa) = 20.07240 21.14163 20.60701
#
# Velocity S-wave (km/s) = 3.57113 3.66501 3.61838
# Velocity P-wave (km/s) = 7.02313 7.45848 7.24408
#
# Compressibility (1/GPa) = 0.01965780
#
# Stress axis : x y z
#
# Youngs Moduli (GPa) = 47.23976 70.98888 37.68661
#
# Poissons Ratio (x) = 0.49256 0.27338
# Poissons Ratio (y) = 0.32778 0.25904
# Poissons Ratio (z) = 0.34268 0.48794
#
# Static dielectric constant tensor:
#      x y z
#    x 3.075630 0.000000 0.000000 
#    y 0.000000 2.971160 0.000000 
#    z 0.000000 0.000000 2.830110 
# 
# 
# High freq. dielectric constant tensor:
#      x y z
#    x 1.612280 0.000000 0.000000 
#    y 0.000000 1.592330 0.000000 
#    z 0.000000 0.000000 1.573760 
# 
# From -- ./inp_files/32213.got.cif
#   From: 2010.03.12/outbox.cif.g09.slc.cpg/sg51_17_cif.got.tgz:32213.got - 2010.04.16 13:43:02.
