data_PCOD8208073
_publ_section_title
;
Structure prediction by ZEFSAII (Michael W. Deem and Ramdas Pophale) SiO2 
 PCOD8208073
Probable space group: P M M A
;
_chemical_formula_sum "Si O2"
_cell_formula_units_Z 64
_cell_length_a 28.138533
_cell_length_b 13.758882
_cell_length_c 10.303963
_cell_angle_alpha 90.000000
_cell_angle_beta 90.000000
_cell_angle_gamma 90.000000
_cell_volume 3989.228273
_symmetry_space_group_name_H-M "P M M A"
_symmetry_group_IT_number 51
_symmetry_cell_setting 'orthorhombic'
loop_
_space_group_symop_operation_xyz
x,y,z
1/2-x,-y,z
1/2+x,-y,-z
-x,y,-z
-x,-y,-z
1/2+x,y,-z
1/2-x,y,z
x,-y,z
loop_
_atom_site_type_symbol
_atom_site_label
_atom_site_fract_x
_atom_site_fract_y
_atom_site_fract_z
Si Si1 0.980225 0.115704 0.864116
Si Si2 0.306214 0.267210 0.112110
Si Si3 0.193609 0.610170 0.862767
Si Si4 0.693711 0.717664 0.393037
Si Si5 0.967087 0.115325 0.387299
Si Si6 0.693613 0.607294 0.644182
Si Si7 0.374877 0.113578 0.209351
Si Si8 0.365397 0.112979 0.514287
O O1 0.926612 0.151314 0.836087
O O2 0.015119 0.155469 0.751401
O O3 0.980850 0.000000 0.865525
O O4 0.000000 0.157746 0.000000
O O5 0.250000 0.244485 0.111497
O O6 0.322429 0.327606 0.986679
O O7 0.322936 0.330088 0.234320
O O8 0.334800 0.166333 0.122363
O O9 0.250000 0.603222 0.857405
O O10 0.172875 0.500000 0.868954
O O11 0.173945 0.666948 0.736983
O O12 0.750000 0.723111 0.389749
O O13 0.674190 0.653736 0.512055
O O14 0.675690 0.827365 0.413206
O O15 0.913517 0.147064 0.415431
O O16 0.000000 0.160071 0.500000
O O17 0.971706 0.000000 0.390211
O O18 0.750000 0.601790 0.640046
O O19 0.671718 0.500000 0.658156
O O20 0.367829 0.135765 0.361436
O O21 0.369072 0.000000 0.180928
O O22 0.354670 0.000000 0.537976
#
# Coordination Sequence:
#
# PCOD8208073 Si02
#       8
#     8   8   8   8   8   8   8   8
#     4   9  17  29  46  68  92 120 157 205 249 276
#     4  10  19  31  47  70  98 130 164 194 228 284
#     4   9  18  33  51  68  92 126 159 201 256 291
#     4  10  19  31  46  69  98 128 162 197 233 280
#     4   9  15  27  46  64  86 121 162 200 240 276
#     4   9  16  27  45  67  90 117 155 203 244 272
#     4  10  19  31  47  69 101 135 163 194 232 278
#     4  10  19  30  47  70  98 134 167 194 229 279
#
# _framework density 16.043202000000001
#
# number of rings (size 3 to 8) (size 9 to 14) (size 15 to 20)
#    0.000    2.500    2.500    0.750    0.000    4.500 
#    0.000    3.125    0.000    2.250    0.000    0.000 
#    0.000   20.000    0.000    0.000    0.000    0.000 
#
# Total GULP energy -793402.225607 kJ/mol
# GULP energy per Si atom -12396.909775 kJ/mol
# Density = 1.600669 g / cm^3
# Si number density = 16.043202 Si / 1000 Ang^3
#
#
#
# Elastic Constant Matrix: (Units=GPa)
#
#
# Indices 1 2 3 4 5 6 
#
# 1 47.6891 35.9678 34.4156 0.0000 0.0000 0.0000
# 2 35.9678 79.4168 45.9550 0.0000 0.0000 0.0000
# 3 34.4156 45.9550 132.9542 0.0000 0.0000 0.0000
# 4 0.0000 0.0000 0.0000 23.7396 0.0000 0.0000
# 5 0.0000 0.0000 0.0000 0.0000 20.3631 0.0000
# 6 0.0000 0.0000 0.0000 0.0000 0.0000 3.1679
#
#
#
# Elastic Compliance Matrix: (Units=1/GPa)
#
#
# Indices 1 2 3 4 5 6 
#
# 1 0.033716 -0.012775 -0.004312 0.000000 0.000000 0.000000
# 2 -0.012775 0.020580 -0.003807 0.000000 0.000000 0.000000
# 3 -0.004312 -0.003807 0.009953 0.000000 0.000000 0.000000
# 4 0.000000 0.000000 0.000000 0.042124 0.000000 0.000000
# 5 0.000000 0.000000 0.000000 0.000000 0.049108 0.000000
# 6 0.000000 0.000000 0.000000 0.000000 0.000000 0.315663
#
#
# Mechanical properties :
#
#
# Convention : Reuss Voigt Hill
#
# Bulk Modulus (GPa) = 44.51829 54.74854 49.63342
# Shear Modulus (GPa) = 9.60765 19.03556 14.32160
#
# Velocity S-wave (km/s) = 2.44982 3.44833 2.99103
# Velocity P-wave (km/s) = 5.98426 7.07491 6.55232
#
# Compressibility (1/GPa) = 0.02246268
#
# Stress axis : x y z
#
# Youngs Moduli (GPa) = 29.65964 48.59033 100.46914
#
# Poissons Ratio (x) = 0.62073 0.43321
# Poissons Ratio (y) = 0.37889 0.38245
# Poissons Ratio (z) = 0.12789 0.18497
#
# Static dielectric constant tensor:
#      x y z
#    x 2.811460 0.000000 0.000000 
#    y 0.000000 2.879990 0.000000 
#    z 0.000000 0.000000 3.295760 
# 
# 
# High freq. dielectric constant tensor:
#      x y z
#    x 1.585360 0.000000 0.000000 
#    y 0.000000 1.590190 0.000000 
#    z 0.000000 0.000000 1.630800 
# 
# From -- ./inp_files/13266.got.cif
#   From: 2010.03.12/outbox.cif.g09.slc.cpg/sg51_7_cif.got.tgz:13266.got - 2010.04.16 13:43:02.
