data_PCOD8208892
_publ_section_title
;
Structure prediction by ZEFSAII (Michael W. Deem and Ramdas Pophale) SiO2 
 PCOD8208892
Probable space group: P M M A
;
_chemical_formula_sum "Si O2"
_cell_formula_units_Z 40
_cell_length_a 8.800885
_cell_length_b 25.643556
_cell_length_c 9.238720
_cell_angle_alpha 90.000000
_cell_angle_beta 90.000000
_cell_angle_gamma 90.000000
_cell_volume 2085.049645
_symmetry_space_group_name_H-M "P M M A"
_symmetry_group_IT_number 51
_symmetry_cell_setting 'orthorhombic'
loop_
_space_group_symop_operation_xyz
x,y,z
1/2-x,-y,z
1/2+x,-y,-z
-x,y,-z
-x,-y,-z
1/2+x,y,-z
1/2-x,y,z
x,-y,z
loop_
_atom_site_type_symbol
_atom_site_label
_atom_site_fract_x
_atom_site_fract_y
_atom_site_fract_z
Si Si1 0.929765 0.644347 0.844820
Si Si2 0.072110 0.943491 0.842775
Si Si3 0.071101 0.257268 0.343351
Si Si4 0.426937 0.560745 0.650583
Si Si5 0.930070 0.840956 0.841178
O O1 0.750000 0.640182 0.859035
O O2 0.981763 0.691300 0.741351
O O3 0.994509 0.590481 0.782490
O O4 0.000000 0.655529 0.000000
O O5 0.250000 0.931713 0.856177
O O6 0.990582 0.894521 0.764216
O O7 0.044559 0.000000 0.764609
O O8 0.000000 0.946813 0.000000
O O9 0.250000 0.255779 0.360250
O O10 0.012760 0.206779 0.256520
O O11 0.000000 0.257841 0.500000
O O12 0.500000 0.579389 0.500000
O O13 0.250000 0.574237 0.645241
O O14 0.457448 0.500000 0.677277
O O15 0.750000 0.842497 0.853968
O O16 0.000000 0.834227 0.000000
#
# Coordination Sequence:
#
# PCOD8208892 Si02
#       5
#     8   8   8   8   8
#     4  11  23  39  59  84 113 145 183 226 274 324
#     4   9  16  26  43  70 102 135 171 211 257 308
#     4  10  23  39  56  79 106 139 178 220 267 321
#     4  10  21  38  60  86 116 150 187 226 269 319
#     4  10  19  32  51  77 106 136 173 215 262 313
#
# _framework density 19.184194999999999
#
# number of rings (size 3 to 8) (size 9 to 14) (size 15 to 20)
#    0.000    2.000    0.000    4.800    0.000    7.600 
#    0.000    0.000    0.000    0.600    0.000    0.000 
#    0.000    0.000    0.000    0.000    0.000    0.000 
#
# Total GULP energy -495948.065901 kJ/mol
# GULP energy per Si atom -12398.701648 kJ/mol
# Density = 1.914053 g / cm^3
# Si number density = 19.184195 Si / 1000 Ang^3
#
#
#
# Elastic Constant Matrix: (Units=GPa)
#
#
# Indices 1 2 3 4 5 6 
#
# 1 92.7929 57.4679 46.2448 0.0000 0.0000 0.0000
# 2 57.4679 135.5676 67.4105 0.0000 0.0000 0.0000
# 3 46.2448 67.4105 114.2401 0.0000 0.0000 0.0000
# 4 0.0000 0.0000 0.0000 21.4647 0.0000 0.0000
# 5 0.0000 0.0000 0.0000 0.0000 32.1033 0.0000
# 6 0.0000 0.0000 0.0000 0.0000 0.0000 24.9998
#
#
#
# Elastic Compliance Matrix: (Units=1/GPa)
#
#
# Indices 1 2 3 4 5 6 
#
# 1 0.015488 -0.004880 -0.003390 0.000000 0.000000 0.000000
# 2 -0.004880 0.011977 -0.005092 0.000000 0.000000 0.000000
# 3 -0.003390 -0.005092 0.013131 0.000000 0.000000 0.000000
# 4 0.000000 0.000000 0.000000 0.046588 0.000000 0.000000
# 5 0.000000 0.000000 0.000000 0.000000 0.031149 0.000000
# 6 0.000000 0.000000 0.000000 0.000000 0.000000 0.040000
#
#
# Mechanical properties :
#
#
# Convention : Reuss Voigt Hill
#
# Bulk Modulus (GPa) = 72.08885 76.09409 74.09147
# Shear Modulus (GPa) = 26.35993 27.14539 26.75266
#
# Velocity S-wave (km/s) = 3.71083 3.76571 3.73837
# Velocity P-wave (km/s) = 7.48459 7.65889 7.57224
#
# Compressibility (1/GPa) = 0.01387177
#
# Stress axis : x y z
#
# Youngs Moduli (GPa) = 64.56431 83.49386 76.15835
#
# Poissons Ratio (x) = 0.40743 0.25820
# Poissons Ratio (y) = 0.31506 0.38779
# Poissons Ratio (z) = 0.21889 0.42515
#
# Static dielectric constant tensor:
#      x y z
#    x 3.554410 0.000000 0.000000 
#    y 0.000000 4.213650 0.000000 
#    z 0.000000 0.000000 3.134850 
# 
# 
# High freq. dielectric constant tensor:
#      x y z
#    x 1.757730 0.000000 0.000000 
#    y 0.000000 1.771450 0.000000 
#    z 0.000000 0.000000 1.714270 
# 
# From -- ./inp_files/5229.got.cif
#   From: 2010.03.12/outbox.cif.g09.slc.cpg/sg51_3_cif.got.tgz:5229.got - 2010.04.16 13:43:02.
