data_PCOD8208578
_publ_section_title
;
Structure prediction by ZEFSAII (Michael W. Deem and Ramdas Pophale) SiO2 
 PCOD8208578
Probable space group: P M M A
;
_chemical_formula_sum "Si O2"
_cell_formula_units_Z 48
_cell_length_a 8.724288
_cell_length_b 30.447096
_cell_length_c 9.660122
_cell_angle_alpha 90.000000
_cell_angle_beta 90.000000
_cell_angle_gamma 90.000000
_cell_volume 2566.010810
_symmetry_space_group_name_H-M "P M M A"
_symmetry_group_IT_number 51
_symmetry_cell_setting 'orthorhombic'
loop_
_space_group_symop_operation_xyz
x,y,z
1/2-x,-y,z
1/2+x,-y,-z
-x,y,-z
-x,-y,-z
1/2+x,y,-z
1/2-x,y,z
x,-y,z
loop_
_atom_site_type_symbol
_atom_site_label
_atom_site_fract_x
_atom_site_fract_y
_atom_site_fract_z
Si Si1 0.930899 0.359001 0.848492
Si Si2 0.071264 0.290827 0.643524
Si Si3 0.929743 0.546377 0.849811
Si Si4 0.930330 0.810464 0.353807
Si Si5 0.068000 0.880146 0.152619
Si Si6 0.071784 0.948739 0.645918
O O1 0.750000 0.352425 0.855956
O O2 0.975449 0.406907 0.778917
O O3 0.001708 0.319661 0.763759
O O4 0.000000 0.356206 0.000000
O O5 0.250000 0.298860 0.635247
O O6 0.030784 0.240294 0.673951
O O7 0.000000 0.306616 0.500000
O O8 0.750000 0.546668 0.870251
O O9 0.978513 0.500000 0.772286
O O10 0.000000 0.545653 0.000000
O O11 0.750000 0.819794 0.355965
O O12 0.000000 0.825965 0.500000
O O13 0.008577 0.837055 0.230794
O O14 0.250000 0.879358 0.144519
O O15 0.013192 0.923757 0.231142
O O16 0.000000 0.880545 0.000000
O O17 0.250000 0.935945 0.644639
O O18 0.000000 0.934175 0.500000
O O19 0.045912 0.000000 0.672791
#
# Coordination Sequence:
#
# PCOD8208578 Si02
#       6
#     8   8   8   8   8   8
#     4  10  19  31  50  76 106 138 173 216 264 315
#     4  10  21  37  57  79 105 138 176 219 266 319
#     4   8  14  25  42  66  96 130 168 210 256 306
#     4  10  21  39  61  83 107 139 180 222 266 319
#     4  12  25  40  59  84 116 150 184 226 275 324
#     4  10  21  39  63  89 117 151 191 231 270 317
#
# _framework density 18.70608
#
# number of rings (size 3 to 8) (size 9 to 14) (size 15 to 20)
#    0.000    2.000    0.000    4.000    0.000    4.667 
#    0.000    0.000    0.000    0.500    0.000    0.000 
#    0.000    0.000    0.000    0.000    0.000    0.000 
#
# Total GULP energy -594911.178255 kJ/mol
# GULP energy per Si atom -12393.982880 kJ/mol
# Density = 1.866350 g / cm^3
# Si number density = 18.706080 Si / 1000 Ang^3
#
#
#
# Elastic Constant Matrix: (Units=GPa)
#
#
# Indices 1 2 3 4 5 6 
#
# 1 105.7490 55.4664 58.2844 0.0000 0.0000 0.0000
# 2 55.4664 121.5003 72.6337 0.0000 0.0000 0.0000
# 3 58.2844 72.6337 126.0258 0.0000 0.0000 0.0000
# 4 0.0000 0.0000 0.0000 8.5607 0.0000 0.0000
# 5 0.0000 0.0000 0.0000 0.0000 34.9563 0.0000
# 6 0.0000 0.0000 0.0000 0.0000 0.0000 36.9471
#
#
#
# Elastic Compliance Matrix: (Units=1/GPa)
#
#
# Indices 1 2 3 4 5 6 
#
# 1 0.013739 -0.003774 -0.004179 0.000000 0.000000 0.000000
# 2 -0.003774 0.013593 -0.006089 0.000000 0.000000 0.000000
# 3 -0.004179 -0.006089 0.013377 0.000000 0.000000 0.000000
# 4 0.000000 0.000000 0.000000 0.116813 0.000000 0.000000
# 5 0.000000 0.000000 0.000000 0.000000 0.028607 0.000000
# 6 0.000000 0.000000 0.000000 0.000000 0.000000 0.027066
#
#
# Mechanical properties :
#
#
# Convention : Reuss Voigt Hill
#
# Bulk Modulus (GPa) = 79.20455 80.67156 79.93805
# Shear Modulus (GPa) = 20.36762 27.21885 23.79323
#
# Velocity S-wave (km/s) = 3.30331 3.81869 3.57031
# Velocity P-wave (km/s) = 7.54869 7.91597 7.73451
#
# Compressibility (1/GPa) = 0.01262554
#
# Stress axis : x y z
#
# Youngs Moduli (GPa) = 72.78518 73.56561 74.75524
#
# Poissons Ratio (x) = 0.27762 0.31241
# Poissons Ratio (y) = 0.27468 0.45519
# Poissons Ratio (z) = 0.30417 0.44795
#
# Static dielectric constant tensor:
#      x y z
#    x 3.629040 0.000000 0.000000 
#    y 0.000000 3.991120 0.000000 
#    z 0.000000 0.000000 3.222480 
# 
# 
# High freq. dielectric constant tensor:
#      x y z
#    x 1.743040 0.000000 0.000000 
#    y 0.000000 1.751930 0.000000 
#    z 0.000000 0.000000 1.697490 
# 
# From -- ./inp_files/5979.got.cif
#   From: 2010.03.12/outbox.cif.g09.slc.cpg/sg51_3_cif.got.tgz:5979.got - 2010.04.16 13:43:02.
