data_PCOD8208039
_publ_section_title
;
Structure prediction by ZEFSAII (Michael W. Deem and Ramdas Pophale) SiO2 
 PCOD8208039
Probable space group: P M M A
;
_chemical_formula_sum "Si O2"
_cell_formula_units_Z 56
_cell_length_a 9.039237
_cell_length_b 19.097905
_cell_length_c 18.442090
_cell_angle_alpha 90.000000
_cell_angle_beta 90.000000
_cell_angle_gamma 90.000000
_cell_volume 3183.667024
_symmetry_space_group_name_H-M "P M M A"
_symmetry_group_IT_number 51
_symmetry_cell_setting 'orthorhombic'
loop_
_space_group_symop_operation_xyz
x,y,z
1/2-x,-y,z
1/2+x,-y,-z
-x,y,-z
-x,-y,-z
1/2+x,y,-z
1/2-x,y,z
x,-y,z
loop_
_atom_site_type_symbol
_atom_site_label
_atom_site_fract_x
_atom_site_fract_y
_atom_site_fract_z
Si Si1 0.423241 0.075717 0.077523
Si Si2 0.422883 0.922121 0.574857
Si Si3 0.575779 0.660804 0.572746
Si Si4 0.579043 0.300191 0.211424
Si Si5 0.575992 0.578529 0.714980
Si Si6 0.423960 0.209567 0.922891
Si Si7 0.077284 0.782948 0.648823
O O1 0.250000 0.092112 0.068738
O O2 0.505095 0.140566 0.116534
O O3 0.446456 0.000000 0.117022
O O4 0.500000 0.071905 0.000000
O O5 0.500000 0.901346 0.500000
O O6 0.250000 0.921165 0.559050
O O7 0.464161 0.864773 0.636469
O O8 0.473083 0.000000 0.601163
O O9 0.500000 0.632226 0.500000
O O10 0.750000 0.665344 0.561480
O O11 0.530834 0.606826 0.635950
O O12 0.514545 0.737648 0.591227
O O13 0.750000 0.318000 0.220549
O O14 0.491384 0.372088 0.223006
O O15 0.542832 0.273712 0.130715
O O16 0.533010 0.240289 0.269705
O O17 0.750000 0.579760 0.725103
O O18 0.513367 0.500000 0.723853
O O19 0.250000 0.197721 0.933807
O O20 0.500000 0.225697 0.000000
O O21 0.250000 0.769792 0.634001
#
# Coordination Sequence:
#
# PCOD8208039 Si02
#       7
#     8   8   8   8   8   8   8
#     4   9  16  26  42  65  93 124 157 192 231 276
#     4   9  17  28  43  63  87 118 156 197 237 273
#     4  10  19  30  46  70  98 126 157 192 229 272
#     4   9  19  34  51  73  97 122 155 194 236 284
#     4   9  19  35  53  73  97 126 158 190 229 280
#     4  10  19  31  49  73  99 126 159 198 240 288
#     4   9  17  31  48  65  90 122 157 197 238 281
#
# _framework density 17.589779
#
# number of rings (size 3 to 8) (size 9 to 14) (size 15 to 20)
#    0.000    2.714    0.000    2.571    0.000    4.857 
#    0.000    0.714    0.000    3.000    0.000    2.000 
#    0.000    0.000    0.000    0.000    0.000    0.000 
#
# Total GULP energy -694074.588818 kJ/mol
# GULP energy per Si atom -12394.189086 kJ/mol
# Density = 1.754974 g / cm^3
# Si number density = 17.589779 Si / 1000 Ang^3
#
#
#
# Elastic Constant Matrix: (Units=GPa)
#
#
# Indices 1 2 3 4 5 6 
#
# 1 67.0260 47.4639 36.0726 0.0000 0.0000 0.0000
# 2 47.4639 149.6463 57.6942 0.0000 0.0000 0.0000
# 3 36.0726 57.6942 75.9469 0.0000 0.0000 0.0000
# 4 0.0000 0.0000 0.0000 19.3219 0.0000 0.0000
# 5 0.0000 0.0000 0.0000 0.0000 23.5673 0.0000
# 6 0.0000 0.0000 0.0000 0.0000 0.0000 27.4041
#
#
#
# Elastic Compliance Matrix: (Units=1/GPa)
#
#
# Indices 1 2 3 4 5 6 
#
# 1 0.021697 -0.004113 -0.007181 0.000000 0.000000 0.000000
# 2 -0.004113 0.010230 -0.005818 0.000000 0.000000 0.000000
# 3 -0.007181 -0.005818 0.020997 0.000000 0.000000 0.000000
# 4 0.000000 0.000000 0.000000 0.051755 0.000000 0.000000
# 5 0.000000 0.000000 0.000000 0.000000 0.042432 0.000000
# 6 0.000000 0.000000 0.000000 0.000000 0.000000 0.036491
#
#
# Mechanical properties :
#
#
# Convention : Reuss Voigt Hill
#
# Bulk Modulus (GPa) = 53.47360 63.89781 58.68570
# Shear Modulus (GPa) = 22.31562 24.15122 23.23342
#
# Velocity S-wave (km/s) = 3.56570 3.70946 3.63829
# Velocity P-wave (km/s) = 6.88612 7.39948 7.14741
#
# Compressibility (1/GPa) = 0.01870082
#
# Stress axis : x y z
#
# Youngs Moduli (GPa) = 46.08945 97.75201 47.62536
#
# Poissons Ratio (x) = 0.40208 0.34198
# Poissons Ratio (y) = 0.18958 0.27707
# Poissons Ratio (z) = 0.33096 0.56869
#
# Static dielectric constant tensor:
#      x y z
#    x 3.309730 0.000000 0.000000 
#    y 0.000000 3.631130 0.000000 
#    z 0.000000 0.000000 3.036700 
# 
# 
# High freq. dielectric constant tensor:
#      x y z
#    x 1.684430 0.000000 0.000000 
#    y 0.000000 1.680960 0.000000 
#    z 0.000000 0.000000 1.647550 
# 
# From -- ./inp_files/28260.got.cif
#   From: 2010.03.12/outbox.cif.g09.slc.cpg/sg51_15_cif.got.tgz:28260.got - 2010.04.16 13:43:02.
