data_PCOD8208616
_publ_section_title
;
Structure prediction by ZEFSAII (Michael W. Deem and Ramdas Pophale) SiO2 
 PCOD8208616
Probable space group: P M M A
;
_chemical_formula_sum "Si O2"
_cell_formula_units_Z 56
_cell_length_a 15.364794
_cell_length_b 9.050955
_cell_length_c 21.330252
_cell_angle_alpha 90.000000
_cell_angle_beta 90.000000
_cell_angle_gamma 90.000000
_cell_volume 2966.314085
_symmetry_space_group_name_H-M "P M M A"
_symmetry_group_IT_number 51
_symmetry_cell_setting 'orthorhombic'
loop_
_space_group_symop_operation_xyz
x,y,z
1/2-x,-y,z
1/2+x,-y,-z
-x,y,-z
-x,-y,-z
1/2+x,y,-z
1/2-x,y,z
x,-y,z
loop_
_atom_site_type_symbol
_atom_site_label
_atom_site_fract_x
_atom_site_fract_y
_atom_site_fract_z
Si Si1 0.846466 0.175487 0.077691
Si Si2 0.992294 0.823701 0.842770
Si Si3 0.002627 0.675490 0.289609
Si Si4 0.150581 0.171086 0.641025
Si Si5 0.846926 0.175256 0.937967
Si Si6 0.098719 0.826549 0.502868
Si Si7 0.346501 0.330091 0.381835
O O1 0.750000 0.229981 0.098013
O O2 0.916581 0.232628 0.127790
O O3 0.848975 0.000000 0.075610
O O4 0.868974 0.235040 0.007848
O O5 0.978213 0.746886 0.776914
O O6 0.915965 0.764062 0.888063
O O7 0.990316 0.000000 0.834559
O O8 0.001567 0.500000 0.283435
O O9 0.910004 0.730052 0.315147
O O10 0.080262 0.732326 0.334819
O O11 0.250000 0.196683 0.661990
O O12 0.140024 0.220326 0.569008
O O13 0.123547 0.000000 0.649070
O O14 0.750000 0.227231 0.918234
O O15 0.852084 0.000000 0.939160
O O16 0.152974 0.752716 0.447823
O O17 0.000000 0.769226 0.500000
O O18 0.104235 0.000000 0.492374
O O19 0.250000 0.308589 0.352193
O O20 0.366414 0.500000 0.395656
#
# Coordination Sequence:
#
# PCOD8208616 Si02
#       7
#     8   8   8   8   8   8   8
#     4   8  14  26  47  76 105 130 161 207 261 312
#     4  10  19  31  51  76 102 134 174 214 259 310
#     4  11  24  39  53  73 106 146 185 223 262 307
#     4  10  21  38  59  82 108 138 173 215 265 320
#     4   8  14  26  47  77 107 130 161 211 264 312
#     4  10  19  34  60  88 112 133 163 215 275 325
#     4  10  22  39  57  77 104 142 185 223 262 313
#
# _framework density 18.878648999999999
#
# number of rings (size 3 to 8) (size 9 to 14) (size 15 to 20)
#    0.000    2.429    1.429    2.143    0.000    5.429 
#    0.000    1.429    0.000    1.714    0.000    2.000 
#    0.000    0.000    0.000    0.000    0.000    0.000 
#
# Total GULP energy -694328.974952 kJ/mol
# GULP energy per Si atom -12398.731696 kJ/mol
# Density = 1.883568 g / cm^3
# Si number density = 18.878649 Si / 1000 Ang^3
#
#
#
# Elastic Constant Matrix: (Units=GPa)
#
#
# Indices 1 2 3 4 5 6 
#
# 1 96.6144 17.3328 29.4632 0.0000 0.0000 0.0000
# 2 17.3328 29.4764 20.3917 0.0000 0.0000 0.0000
# 3 29.4632 20.3917 86.4875 0.0000 0.0000 0.0000
# 4 0.0000 0.0000 0.0000 0.5299 0.0000 0.0000
# 5 0.0000 0.0000 0.0000 0.0000 17.0975 0.0000
# 6 0.0000 0.0000 0.0000 0.0000 0.0000 18.6958
#
#
#
# Elastic Compliance Matrix: (Units=1/GPa)
#
#
# Indices 1 2 3 4 5 6 
#
# 1 0.012165 -0.005122 -0.002937 0.000000 0.000000 0.000000
# 2 -0.005122 0.042694 -0.008321 0.000000 0.000000 0.000000
# 3 -0.002937 -0.008321 0.014525 0.000000 0.000000 0.000000
# 4 0.000000 0.000000 0.000000 1.887177 0.000000 0.000000
# 5 0.000000 0.000000 0.000000 0.000000 0.058488 0.000000
# 6 0.000000 0.000000 0.000000 0.000000 0.000000 0.053488
#
#
# Mechanical properties :
#
#
# Convention : Reuss Voigt Hill
#
# Bulk Modulus (GPa) = 27.30446 38.55043 32.92744
# Shear Modulus (GPa) = 2.36574 16.95735 9.66154
#
# Velocity S-wave (km/s) = 1.12065 3.00030 2.26469
# Velocity P-wave (km/s) = 4.02107 5.69797 4.93132
#
# Compressibility (1/GPa) = 0.03662405
#
# Stress axis : x y z
#
# Youngs Moduli (GPa) = 82.20462 23.42260 68.84802
#
# Poissons Ratio (x) = 0.11996 0.20217
# Poissons Ratio (y) = 0.42102 0.57292
# Poissons Ratio (z) = 0.24140 0.19491
#
# Static dielectric constant tensor:
#      x y z
#    x 3.795740 0.000000 0.000000 
#    y 0.000000 3.037160 0.000000 
#    z 0.000000 0.000000 3.484740 
# 
# 
# High freq. dielectric constant tensor:
#      x y z
#    x 1.750730 0.000000 0.000000 
#    y 0.000000 1.689840 0.000000 
#    z 0.000000 0.000000 1.731710 
# 
# From -- ./inp_files/33429.got.cif
#   From: 2010.03.12/outbox.cif.g09.slc.cpg/sg51_17_cif.got.tgz:33429.got - 2010.04.16 13:43:02.
