data_PCOD8208770
_publ_section_title
;
Structure prediction by ZEFSAII (Michael W. Deem and Ramdas Pophale) SiO2 
 PCOD8208770
Probable space group: P M M A
;
_chemical_formula_sum "Si O2"
_cell_formula_units_Z 48
_cell_length_a 8.909599
_cell_length_b 15.903731
_cell_length_c 18.389733
_cell_angle_alpha 90.000000
_cell_angle_beta 90.000000
_cell_angle_gamma 90.000000
_cell_volume 2605.749140
_symmetry_space_group_name_H-M "P M M A"
_symmetry_group_IT_number 51
_symmetry_cell_setting 'orthorhombic'
loop_
_space_group_symop_operation_xyz
x,y,z
1/2-x,-y,z
1/2+x,-y,-z
-x,y,-z
-x,-y,-z
1/2+x,y,-z
1/2-x,y,z
x,-y,z
loop_
_atom_site_type_symbol
_atom_site_label
_atom_site_fract_x
_atom_site_fract_y
_atom_site_fract_z
Si Si1 0.071164 0.000000 0.420186
Si Si2 0.427384 0.837786 0.646717
Si Si3 0.422618 0.744561 0.789543
Si Si4 0.919293 0.595635 0.717731
Si Si5 0.075534 0.316212 0.078152
Si Si6 0.578675 0.318160 0.571747
Si Si7 0.921849 0.500000 0.924317
O O1 0.000000 0.000000 0.500000
O O2 0.017051 0.079513 0.374331
O O3 0.250000 0.000000 0.427501
O O4 0.250000 0.849761 0.634178
O O5 0.463046 0.817710 0.731777
O O6 0.485520 0.763076 0.596405
O O7 0.250000 0.747298 0.810633
O O8 0.458820 0.654971 0.753994
O O9 0.514521 0.753216 0.864944
O O10 0.750000 0.618145 0.745232
O O11 0.957805 0.500000 0.738095
O O12 0.927349 0.607773 0.630937
O O13 0.250000 0.301045 0.066721
O O14 0.040238 0.410038 0.113920
O O15 0.000000 0.304868 0.000000
O O16 0.500000 0.354691 0.500000
O O17 0.750000 0.290823 0.556309
O O18 0.750000 0.500000 0.944355
O O19 0.000000 0.500000 0.000000
#
# Coordination Sequence:
#
# PCOD8208770 Si02
#       7
#     4   8   8   8   8   8   4
#     4  12  24  38  60  88 115 140 171 208 256 314
#     4  10  21  38  56  77 107 138 171 208 253 310
#     4  10  21  35  52  75 103 137 174 215 262 310
#     4   9  19  34  49  66  92 130 175 217 259 307
#     4  10  19  32  50  73 103 138 179 222 267 315
#     4  10  19  32  50  71  97 130 168 212 259 305
#     4   8  16  28  42  64  94 130 169 214 263 306
#
# _framework density 18.420807
#
# number of rings (size 3 to 8) (size 9 to 14) (size 15 to 20)
#    0.000    2.167    0.000    3.250    1.167    4.000 
#    0.000    0.000    0.000    0.000    0.000    0.583 
#    0.000    0.000    0.000    0.000    0.000    0.000 
#
# Total GULP energy -594936.096046 kJ/mol
# GULP energy per Si atom -12394.502001 kJ/mol
# Density = 1.837888 g / cm^3
# Si number density = 18.420807 Si / 1000 Ang^3
#
#
#
# Elastic Constant Matrix: (Units=GPa)
#
#
# Indices 1 2 3 4 5 6 
#
# 1 106.4157 32.1884 54.6530 0.0000 0.0000 0.0000
# 2 32.1884 63.3683 22.7148 0.0000 0.0000 0.0000
# 3 54.6530 22.7148 95.5175 0.0000 0.0000 0.0000
# 4 0.0000 0.0000 0.0000 23.9667 0.0000 0.0000
# 5 0.0000 0.0000 0.0000 0.0000 36.0317 0.0000
# 6 0.0000 0.0000 0.0000 0.0000 0.0000 23.8008
#
#
#
# Elastic Compliance Matrix: (Units=1/GPa)
#
#
# Indices 1 2 3 4 5 6 
#
# 1 0.014537 -0.004813 -0.007173 0.000000 0.000000 0.000000
# 2 -0.004813 0.018845 -0.001728 0.000000 0.000000 0.000000
# 3 -0.007173 -0.001728 0.014984 0.000000 0.000000 0.000000
# 4 0.000000 0.000000 0.000000 0.041725 0.000000 0.000000
# 5 0.000000 0.000000 0.000000 0.000000 0.027753 0.000000
# 6 0.000000 0.000000 0.000000 0.000000 0.000000 0.042015
#
#
# Mechanical properties :
#
#
# Convention : Reuss Voigt Hill
#
# Bulk Modulus (GPa) = 47.75816 53.82378 50.79097
# Shear Modulus (GPa) = 25.73787 27.14286 26.44037
#
# Velocity S-wave (km/s) = 3.74199 3.84277 3.79272
# Velocity P-wave (km/s) = 6.68225 6.99797 6.84193
#
# Compressibility (1/GPa) = 0.02093883
#
# Stress axis : x y z
#
# Youngs Moduli (GPa) = 68.79053 53.06518 66.73588
#
# Poissons Ratio (x) = 0.25539 0.47871
# Poissons Ratio (y) = 0.33108 0.11529
# Poissons Ratio (z) = 0.49344 0.09168
#
# Static dielectric constant tensor:
#      x y z
#    x 3.461600 0.000000 0.000000 
#    y 0.000000 3.516160 0.000000 
#    z 0.000000 0.000000 3.501670 
# 
# 
# High freq. dielectric constant tensor:
#      x y z
#    x 1.726800 0.000000 0.000000 
#    y 0.000000 1.675290 0.000000 
#    z 0.000000 0.000000 1.723670 
# 
# From -- ./inp_files/27691.got.cif
#   From: 2010.03.12/outbox.cif.g09.slc.cpg/sg51_14_cif.got.tgz:27691.got - 2010.04.16 13:43:02.
