data_PCOD8208098
_publ_section_title
;
Structure prediction by ZEFSAII (Michael W. Deem and Ramdas Pophale) SiO2 
 PCOD8208098
Probable space group: P M M A
;
_chemical_formula_sum "Si O2"
_cell_formula_units_Z 64
_cell_length_a 9.050964
_cell_length_b 24.780039
_cell_length_c 15.147125
_cell_angle_alpha 90.000000
_cell_angle_beta 90.000000
_cell_angle_gamma 90.000000
_cell_volume 3397.246285
_symmetry_space_group_name_H-M "P M M A"
_symmetry_group_IT_number 51
_symmetry_cell_setting 'orthorhombic'
loop_
_space_group_symop_operation_xyz
x,y,z
1/2-x,-y,z
1/2+x,-y,-z
-x,y,-z
-x,-y,-z
1/2+x,y,-z
1/2-x,y,z
x,-y,z
loop_
_atom_site_type_symbol
_atom_site_label
_atom_site_fract_x
_atom_site_fract_y
_atom_site_fract_z
Si Si1 0.077320 0.560906 0.588669
Si Si2 0.581718 0.939056 0.258756
Si Si3 0.077390 0.096104 0.086844
Si Si4 0.416846 0.217356 0.127179
Si Si5 0.576562 0.653667 0.280299
Si Si6 0.580563 0.239642 0.671724
Si Si7 0.074709 0.142179 0.588750
Si Si8 0.077618 0.677162 0.915015
O O1 0.250000 0.563355 0.570383
O O2 0.025127 0.500000 0.610707
O O3 0.034182 0.597813 0.672127
O O4 0.000000 0.582512 0.500000
O O5 0.750000 0.924862 0.233068
O O6 0.482354 0.933892 0.172472
O O7 0.525265 0.898673 0.334302
O O8 0.568573 0.000000 0.295032
O O9 0.250000 0.084968 0.080931
O O10 0.039549 0.159424 0.090081
O O11 0.000000 0.071636 0.000000
O O12 0.250000 0.234480 0.100952
O O13 0.432202 0.213799 0.232053
O O14 0.531206 0.260111 0.087419
O O15 0.750000 0.667054 0.286823
O O16 0.487692 0.700612 0.329471
O O17 0.529254 0.648845 0.177062
O O18 0.750000 0.242814 0.639575
O O19 0.487643 0.202034 0.606416
O O20 0.250000 0.144708 0.577837
O O21 0.000000 0.119818 0.500000
O O22 0.250000 0.672588 0.930005
O O23 0.000000 0.649023 0.000000
#
# Coordination Sequence:
#
# PCOD8208098 Si02
#       8
#     8   8   8   8   8   8   8   8
#     4   9  18  34  56  80 107 140 181 228 274 322
#     4  10  23  43  63  82 106 138 178 225 274 325
#     4  11  22  36  56  83 111 142 179 220 269 324
#     4   9  18  32  51  76 106 139 176 216 260 315
#     4   9  19  34  52  78 111 148 186 221 268 326
#     4  10  19  34  55  81 113 144 178 219 266 319
#     4  11  23  39  61  85 111 142 177 220 271 327
#     4  10  19  30  47  72 105 144 183 222 264 312
#
# _framework density 18.838787
#
# number of rings (size 3 to 8) (size 9 to 14) (size 15 to 20)
#    0.000    2.125    1.250    1.875    0.000    5.250 
#    0.000    1.250    0.000    0.375    0.000    0.000 
#    0.000    0.000    0.000    0.000    0.000    0.375 
#
# Total GULP energy -793722.457300 kJ/mol
# GULP energy per Si atom -12401.913395 kJ/mol
# Density = 1.879591 g / cm^3
# Si number density = 18.838787 Si / 1000 Ang^3
#
#
#
# Elastic Constant Matrix: (Units=GPa)
#
#
# Indices 1 2 3 4 5 6 
#
# 1 74.7476 40.5298 48.3207 0.0000 0.0000 0.0000
# 2 40.5298 81.9991 57.6301 0.0000 0.0000 0.0000
# 3 48.3207 57.6301 123.0194 0.0000 0.0000 0.0000
# 4 0.0000 0.0000 0.0000 13.6166 0.0000 0.0000
# 5 0.0000 0.0000 0.0000 0.0000 35.0911 0.0000
# 6 0.0000 0.0000 0.0000 0.0000 0.0000 21.7144
#
#
#
# Elastic Compliance Matrix: (Units=1/GPa)
#
#
# Indices 1 2 3 4 5 6 
#
# 1 0.020021 -0.006513 -0.004813 0.000000 0.000000 0.000000
# 2 -0.006513 0.020300 -0.006952 0.000000 0.000000 0.000000
# 3 -0.004813 -0.006952 0.013276 0.000000 0.000000 0.000000
# 4 0.000000 0.000000 0.000000 0.073440 0.000000 0.000000
# 5 0.000000 0.000000 0.000000 0.000000 0.028497 0.000000
# 6 0.000000 0.000000 0.000000 0.000000 0.000000 0.046052
#
#
# Mechanical properties :
#
#
# Convention : Reuss Voigt Hill
#
# Bulk Modulus (GPa) = 58.67939 63.63636 61.15787
# Shear Modulus (GPa) = 20.50666 22.97013 21.73840
#
# Velocity S-wave (km/s) = 3.30287 3.49564 3.40062
# Velocity P-wave (km/s) = 6.76469 7.08134 6.92483
#
# Compressibility (1/GPa) = 0.01704176
#
# Stress axis : x y z
#
# Youngs Moduli (GPa) = 49.94670 49.26042 75.32521
#
# Poissons Ratio (x) = 0.32085 0.36253
# Poissons Ratio (y) = 0.32532 0.52363
# Poissons Ratio (z) = 0.24039 0.34244
#
# Static dielectric constant tensor:
#      x y z
#    x 3.454020 0.000000 0.000000 
#    y 0.000000 3.296850 0.000000 
#    z 0.000000 0.000000 3.592730 
# 
# 
# High freq. dielectric constant tensor:
#      x y z
#    x 1.735640 0.000000 0.000000 
#    y 0.000000 1.707120 0.000000 
#    z 0.000000 0.000000 1.738710 
# 
# From -- ./inp_files/22209.got.cif
#   From: 2010.03.12/outbox.cif.g09.slc.cpg/sg51_12_cif.got.tgz:22209.got - 2010.04.16 13:43:02.
