data_PCOD8208429
_publ_section_title
;
Structure prediction by ZEFSAII (Michael W. Deem and Ramdas Pophale) SiO2 
 PCOD8208429
Probable space group: P M M A
;
_chemical_formula_sum "Si O2"
_cell_formula_units_Z 36
_cell_length_a 9.154141
_cell_length_b 16.084789
_cell_length_c 13.287489
_cell_angle_alpha 90.000000
_cell_angle_beta 90.000000
_cell_angle_gamma 90.000000
_cell_volume 1956.482122
_symmetry_space_group_name_H-M "P M M A"
_symmetry_group_IT_number 51
_symmetry_cell_setting 'orthorhombic'
loop_
_space_group_symop_operation_xyz
x,y,z
1/2-x,-y,z
1/2+x,-y,-z
-x,y,-z
-x,-y,-z
1/2+x,y,-z
1/2-x,y,z
x,-y,z
loop_
_atom_site_type_symbol
_atom_site_label
_atom_site_fract_x
_atom_site_fract_y
_atom_site_fract_z
Si Si1 0.919807 0.500000 0.894523
Si Si2 0.418637 0.095073 0.694259
Si Si3 0.419498 0.674523 0.194121
Si Si4 0.080172 0.822774 0.902155
Si Si5 0.579594 0.756854 0.598721
O O1 0.750000 0.500000 0.919681
O O2 0.963542 0.420180 0.828198
O O3 0.000000 0.500000 0.000000
O O4 0.250000 0.113941 0.669006
O O5 0.450049 0.113962 0.811221
O O6 0.518850 0.151549 0.623662
O O7 0.459731 0.000000 0.672562
O O8 0.250000 0.692649 0.170855
O O9 0.515863 0.732146 0.122332
O O10 0.454728 0.693298 0.310772
O O11 0.250000 0.812627 0.925673
O O12 0.000000 0.859850 0.000000
O O13 0.500000 0.721154 0.500000
O O14 0.750000 0.764844 0.576772
#
# Coordination Sequence:
#
# PCOD8208429 Si02
#       5
#     4   8   8   8   8
#     4  10  20  34  53  78 106 134 165 202 243 288
#     4   9  19  35  52  72  99 130 167 210 251 294
#     4   9  19  35  53  74 101 132 167 206 247 293
#     4  10  19  31  49  72 100 134 169 205 247 296
#     4  10  20  35  55  76  99 130 166 205 251 299
#
# _framework density 18.400372000000001
#
# number of rings (size 3 to 8) (size 9 to 14) (size 15 to 20)
#    0.000    2.444    0.000    2.000    0.000    5.778 
#    0.000    0.556    0.000    0.000    0.000    0.000 
#    0.000    0.000    0.000    0.000    0.000    0.000 
#
# Total GULP energy -446512.229393 kJ/mol
# GULP energy per Si atom -12403.117483 kJ/mol
# Density = 1.835849 g / cm^3
# Si number density = 18.400372 Si / 1000 Ang^3
#
#
#
# Elastic Constant Matrix: (Units=GPa)
#
#
# Indices 1 2 3 4 5 6 
#
# 1 79.5153 30.5106 48.8741 0.0000 0.0000 0.0000
# 2 30.5106 97.7206 33.8334 0.0000 0.0000 0.0000
# 3 48.8741 33.8334 109.1138 0.0000 0.0000 0.0000
# 4 0.0000 0.0000 0.0000 15.7173 0.0000 0.0000
# 5 0.0000 0.0000 0.0000 0.0000 38.1079 0.0000
# 6 0.0000 0.0000 0.0000 0.0000 0.0000 24.5379
#
#
#
# Elastic Compliance Matrix: (Units=1/GPa)
#
#
# Indices 1 2 3 4 5 6 
#
# 1 0.018208 -0.003205 -0.007162 0.000000 0.000000 0.000000
# 2 -0.003205 0.012028 -0.002294 0.000000 0.000000 0.000000
# 3 -0.007162 -0.002294 0.013084 0.000000 0.000000 0.000000
# 4 0.000000 0.000000 0.000000 0.063624 0.000000 0.000000
# 5 0.000000 0.000000 0.000000 0.000000 0.026241 0.000000
# 6 0.000000 0.000000 0.000000 0.000000 0.000000 0.040753
#
#
# Mechanical properties :
#
#
# Convention : Reuss Voigt Hill
#
# Bulk Modulus (GPa) = 55.56149 56.97620 56.26884
# Shear Modulus (GPa) = 24.35927 27.21473 25.78700
#
# Velocity S-wave (km/s) = 3.64242 3.84999 3.74764
# Velocity P-wave (km/s) = 6.92467 7.12707 7.02660
#
# Compressibility (1/GPa) = 0.01799808
#
# Stress axis : x y z
#
# Youngs Moduli (GPa) = 54.92042 83.13760 76.42949
#
# Poissons Ratio (x) = 0.26649 0.54738
# Poissons Ratio (y) = 0.17604 0.17532
# Poissons Ratio (z) = 0.39333 0.19071
#
# Static dielectric constant tensor:
#      x y z
#    x 3.434450 0.000000 0.000000 
#    y 0.000000 3.298370 0.000000 
#    z 0.000000 0.000000 3.487500 
# 
# 
# High freq. dielectric constant tensor:
#      x y z
#    x 1.718550 0.000000 0.000000 
#    y 0.000000 1.698650 0.000000 
#    z 0.000000 0.000000 1.719350 
# 
# From -- ./inp_files/20318.got.cif
#   From: 2010.03.12/outbox.cif.g09.slc.cpg/sg51_11_cif.got.tgz:20318.got - 2010.04.16 13:43:02.
