data_PCOD8208122
_publ_section_title
;
Structure prediction by ZEFSAII (Michael W. Deem and Ramdas Pophale) SiO2 
 PCOD8208122
Probable space group: P M M A
;
_chemical_formula_sum "Si O2"
_cell_formula_units_Z 40
_cell_length_a 19.288403
_cell_length_b 9.285357
_cell_length_c 12.856322
_cell_angle_alpha 90.000000
_cell_angle_beta 90.000000
_cell_angle_gamma 90.000000
_cell_volume 2302.563514
_symmetry_space_group_name_H-M "P M M A"
_symmetry_group_IT_number 51
_symmetry_cell_setting 'orthorhombic'
loop_
_space_group_symop_operation_xyz
x,y,z
1/2-x,-y,z
1/2+x,-y,-z
-x,y,-z
-x,-y,-z
1/2+x,y,-z
1/2-x,y,z
x,-y,z
loop_
_atom_site_type_symbol
_atom_site_label
_atom_site_fract_x
_atom_site_fract_y
_atom_site_fract_z
Si Si1 0.829310 0.332934 0.606656
Si Si2 0.829171 0.831358 0.403419
Si Si3 0.428574 0.669625 0.205365
Si Si4 0.571619 0.169691 0.218152
Si Si5 0.917796 0.841486 0.991544
O O1 0.750000 0.291840 0.631875
O O2 0.837424 0.500000 0.580526
O O3 0.856824 0.246774 0.506652
O O4 0.874571 0.288540 0.705429
O O5 0.750000 0.786972 0.379790
O O6 0.875180 0.780264 0.306502
O O7 0.836456 0.000000 0.422509
O O8 0.439761 0.500000 0.194563
O O9 0.500972 0.743196 0.233790
O O10 0.396131 0.728061 0.096962
O O11 0.554266 0.000000 0.224118
O O12 0.607977 0.205837 0.106715
O O13 0.888392 0.000000 0.962288
O O14 0.000000 0.848985 0.000000
#
# Coordination Sequence:
#
# PCOD8208122 Si02
#       5
#     8   8   8   8   8
#     4   9  19  35  50  65  92 127 156 188 234 277
#     4   9  18  33  52  71  91 120 158 193 226 272
#     4  10  19  30  48  72  94 120 157 195 226 267
#     4   9  18  32  49  70  97 124 149 187 236 276
#     4   8  15  29  47  67  94 125 151 181 230 280
#
# _framework density 17.371942000000001
#
# number of rings (size 3 to 8) (size 9 to 14) (size 15 to 20)
#    0.000    3.000    0.000    1.800    0.000    6.800 
#    0.000    5.000    0.000    1.200    0.000    0.000 
#    0.000    0.000    0.000    0.000    0.000    0.000 
#
# Total GULP energy -495886.498428 kJ/mol
# GULP energy per Si atom -12397.162461 kJ/mol
# Density = 1.733240 g / cm^3
# Si number density = 17.371942 Si / 1000 Ang^3
#
#
#
# Elastic Constant Matrix: (Units=GPa)
#
#
# Indices 1 2 3 4 5 6 
#
# 1 63.2905 41.4691 73.8551 0.0000 0.0000 0.0000
# 2 41.4691 65.8117 71.3690 0.0000 0.0000 0.0000
# 3 73.8551 71.3690 183.3497 0.0000 0.0000 0.0000
# 4 0.0000 0.0000 0.0000 25.5417 0.0000 0.0000
# 5 0.0000 0.0000 0.0000 0.0000 10.9724 0.0000
# 6 0.0000 0.0000 0.0000 0.0000 0.0000 18.2076
#
#
#
# Elastic Compliance Matrix: (Units=1/GPa)
#
#
# Indices 1 2 3 4 5 6 
#
# 1 0.034146 -0.011421 -0.009309 0.000000 0.000000 0.000000
# 2 -0.011421 0.030115 -0.007121 0.000000 0.000000 0.000000
# 3 -0.009309 -0.007121 0.011976 0.000000 0.000000 0.000000
# 4 0.000000 0.000000 0.000000 0.039152 0.000000 0.000000
# 5 0.000000 0.000000 0.000000 0.000000 0.091138 0.000000
# 6 0.000000 0.000000 0.000000 0.000000 0.000000 0.054922
#
#
# Mechanical properties :
#
#
# Convention : Reuss Voigt Hill
#
# Bulk Modulus (GPa) = 48.70122 76.20427 62.45274
# Shear Modulus (GPa) = 15.43233 19.32826 17.38030
#
# Velocity S-wave (km/s) = 2.98375 3.33920 3.16647
# Velocity P-wave (km/s) = 6.32184 7.66998 7.02831
#
# Compressibility (1/GPa) = 0.02053337
#
# Stress axis : x y z
#
# Youngs Moduli (GPa) = 29.28594 33.20654 83.50264
#
# Poissons Ratio (x) = 0.37927 0.77729
# Poissons Ratio (y) = 0.33449 0.59466
# Poissons Ratio (z) = 0.27261 0.23648
#
# Static dielectric constant tensor:
#      x y z
#    x 3.026820 0.000000 0.000000 
#    y 0.000000 3.209120 0.000000 
#    z 0.000000 0.000000 3.701060 
# 
# 
# High freq. dielectric constant tensor:
#      x y z
#    x 1.640820 0.000000 0.000000 
#    y 0.000000 1.668470 0.000000 
#    z 0.000000 0.000000 1.685990 
# 
# From -- ./inp_files/17885.got.cif
#   From: 2010.03.12/outbox.cif.g09.slc.cpg/sg51_9_cif.got.tgz:17885.got - 2010.04.16 13:43:02.
