data_PCOD8208645
_publ_section_title
;
Structure prediction by ZEFSAII (Michael W. Deem and Ramdas Pophale) SiO2 
 PCOD8208645
Probable space group: P M M A
;
_chemical_formula_sum "Si O2"
_cell_formula_units_Z 48
_cell_length_a 14.355353
_cell_length_b 9.258294
_cell_length_c 20.280146
_cell_angle_alpha 90.000000
_cell_angle_beta 90.000000
_cell_angle_gamma 90.000000
_cell_volume 2695.354677
_symmetry_space_group_name_H-M "P M M A"
_symmetry_group_IT_number 51
_symmetry_cell_setting 'orthorhombic'
loop_
_space_group_symop_operation_xyz
x,y,z
1/2-x,-y,z
1/2+x,-y,-z
-x,y,-z
-x,-y,-z
1/2+x,y,-z
1/2-x,y,z
x,-y,z
loop_
_atom_site_type_symbol
_atom_site_label
_atom_site_fract_x
_atom_site_fract_y
_atom_site_fract_z
Si Si1 0.250000 0.836698 0.515506
Si Si2 0.571849 0.666214 0.823925
Si Si3 0.566419 0.332337 0.059679
Si Si4 0.050420 0.166612 0.565805
Si Si5 0.750000 0.170753 0.026718
Si Si6 0.250000 0.329647 0.381607
Si Si7 0.055961 0.668043 0.325487
Si Si8 0.750000 0.170319 0.873796
O O1 0.339435 0.808672 0.560736
O O2 0.250000 0.729993 0.454774
O O3 0.250000 0.000000 0.487648
O O4 0.604813 0.500000 0.830042
O O5 0.486392 0.698773 0.872272
O O6 0.535314 0.701024 0.750788
O O7 0.658874 0.766215 0.839888
O O8 0.593840 0.500000 0.051621
O O9 0.659081 0.237136 0.060890
O O10 0.500000 0.282643 0.000000
O O11 0.000000 0.227729 0.500000
O O12 0.019152 0.250211 0.630606
O O13 0.023046 0.000000 0.574722
O O14 0.750000 0.000000 0.037597
O O15 0.750000 0.214107 0.950228
O O16 0.250000 0.500000 0.386865
O O17 0.340516 0.274759 0.342380
O O18 0.046802 0.500000 0.341765
O O19 0.750000 0.000000 0.863845
#
# Coordination Sequence:
#
# PCOD8208645 Si02
#       8
#     4   8   8   8   4   4   8   4
#     4  10  20  35  54  79 107 137 178 222 265 311
#     4  10  21  38  58  81 113 149 187 232 279 328
#     4  10  20  36  60  84 107 148 196 232 270 327
#     4  10  20  35  56  79 107 145 183 222 266 320
#     4  11  23  36  55  85 119 147 179 234 289 330
#     4  10  19  31  51  80 110 138 169 214 274 327
#     4  10  21  36  55  81 112 143 177 225 279 325
#     4  11  22  34  54  86 118 148 180 224 282 340
#
# _framework density 17.808416999999999
#
# number of rings (size 3 to 8) (size 9 to 14) (size 15 to 20)
#    0.000    1.833    3.333    1.000    0.000    4.667 
#    0.000    1.667    0.000    3.000    0.000    0.000 
#    0.000    0.000    0.000    0.000    0.000    0.000 
#
# Total GULP energy -595406.287727 kJ/mol
# GULP energy per Si atom -12404.297661 kJ/mol
# Density = 1.776788 g / cm^3
# Si number density = 17.808417 Si / 1000 Ang^3
#
#
#
# Elastic Constant Matrix: (Units=GPa)
#
#
# Indices 1 2 3 4 5 6 
#
# 1 130.9296 46.3744 61.6643 0.0000 0.0000 0.0000
# 2 46.3744 49.3842 41.3296 0.0000 0.0000 0.0000
# 3 61.6643 41.3296 130.8024 0.0000 0.0000 0.0000
# 4 0.0000 0.0000 0.0000 20.0609 0.0000 0.0000
# 5 0.0000 0.0000 0.0000 0.0000 60.6510 0.0000
# 6 0.0000 0.0000 0.0000 0.0000 0.0000 19.5797
#
#
#
# Elastic Compliance Matrix: (Units=1/GPa)
#
#
# Indices 1 2 3 4 5 6 
#
# 1 0.012202 -0.009033 -0.002898 0.000000 0.000000 0.000000
# 2 -0.009033 0.034216 -0.006553 0.000000 0.000000 0.000000
# 3 -0.002898 -0.006553 0.011082 0.000000 0.000000 0.000000
# 4 0.000000 0.000000 0.000000 0.049848 0.000000 0.000000
# 5 0.000000 0.000000 0.000000 0.000000 0.016488 0.000000
# 6 0.000000 0.000000 0.000000 0.000000 0.000000 0.051073
#
#
# Mechanical properties :
#
#
# Convention : Reuss Voigt Hill
#
# Bulk Modulus (GPa) = 48.70475 67.76144 58.23310
# Shear Modulus (GPa) = 22.86020 30.84151 26.85086
#
# Velocity S-wave (km/s) = 3.58673 4.16607 3.88720
# Velocity P-wave (km/s) = 6.67544 7.82779 7.27447
#
# Compressibility (1/GPa) = 0.02053188
#
# Stress axis : x y z
#
# Youngs Moduli (GPa) = 81.95317 29.22638 90.23653
#
# Poissons Ratio (x) = 0.26400 0.26154
# Poissons Ratio (y) = 0.74026 0.59130
# Poissons Ratio (z) = 0.23753 0.19151
#
# Static dielectric constant tensor:
#      x y z
#    x 3.262610 0.000000 0.000000 
#    y 0.000000 3.236030 0.000000 
#    z 0.000000 0.000000 3.272380 
# 
# 
# High freq. dielectric constant tensor:
#      x y z
#    x 1.691830 0.000000 0.000000 
#    y 0.000000 1.684270 0.000000 
#    z 0.000000 0.000000 1.686920 
# 
# From -- ./inp_files/29700.got.cif
#   From: 2010.03.12/outbox.cif.g09.slc.cpg/sg51_15_cif.got.tgz:29700.got - 2010.04.16 13:43:02.
