data_PCOD8208754
_publ_section_title
;
Structure prediction by ZEFSAII (Michael W. Deem and Ramdas Pophale) SiO2 
 PCOD8208754
Probable space group: P M M A
;
_chemical_formula_sum "Si O2"
_cell_formula_units_Z 64
_cell_length_a 8.852218
_cell_length_b 14.620456
_cell_length_c 29.420136
_cell_angle_alpha 90.000000
_cell_angle_beta 90.000000
_cell_angle_gamma 90.000000
_cell_volume 3807.655906
_symmetry_space_group_name_H-M "P M M A"
_symmetry_group_IT_number 51
_symmetry_cell_setting 'orthorhombic'
loop_
_space_group_symop_operation_xyz
x,y,z
1/2-x,-y,z
1/2+x,-y,-z
-x,y,-z
-x,-y,-z
1/2+x,y,-z
1/2-x,y,z
x,-y,z
loop_
_atom_site_type_symbol
_atom_site_label
_atom_site_fract_x
_atom_site_fract_y
_atom_site_fract_z
Si Si1 0.074815 0.239435 0.693231
Si Si2 0.581267 0.891617 0.865087
Si Si3 0.580027 0.109127 0.045282
Si Si4 0.422536 0.603377 0.359429
Si Si5 0.579634 0.152893 0.541531
Si Si6 0.429166 0.895495 0.772155
Si Si7 0.929517 0.345963 0.453128
Si Si8 0.918153 0.900833 0.638668
O O1 0.250000 0.261929 0.698884
O O2 0.011024 0.180947 0.736371
O O3 0.990382 0.333816 0.681340
O O4 0.046167 0.171608 0.651214
O O5 0.750000 0.851653 0.861431
O O6 0.503588 0.851004 0.910280
O O7 0.487940 0.861838 0.820884
O O8 0.584990 0.000000 0.869010
O O9 0.750000 0.146274 0.045720
O O10 0.576985 0.000000 0.045672
O O11 0.500000 0.146934 0.000000
O O12 0.250000 0.634520 0.368045
O O13 0.430965 0.500000 0.340854
O O14 0.509997 0.606146 0.407328
O O15 0.500000 0.098805 0.500000
O O16 0.750000 0.183643 0.528903
O O17 0.477287 0.241199 0.550808
O O18 0.579948 0.087234 0.584602
O O19 0.250000 0.895517 0.772603
O O20 0.486314 0.000000 0.761198
O O21 0.750000 0.358292 0.454478
O O22 0.000000 0.388494 0.500000
O O23 0.750000 0.868585 0.654455
O O24 0.955792 0.000000 0.660025
#
# Coordination Sequence:
#
# PCOD8208754 Si02
#       8
#     8   8   8   8   8   8   8   8
#     4  11  22  36  55  76  97 122 154 195 238 280
#     4   9  16  25  38  58  83 114 156 201 241 282
#     4   9  15  22  33  50  76 112 153 199 247 289
#     4  11  24  41  59  78 100 125 152 185 227 278
#     4  10  19  32  50  70  96 125 154 184 217 259
#     4   9  18  32  48  68  95 125 157 195 239 283
#     4  11  21  35  57  80 102 125 149 179 219 267
#     4  10  21  35  51  71  97 128 158 188 224 268
#
# _framework density 16.808242
#
# number of rings (size 3 to 8) (size 9 to 14) (size 15 to 20)
#    0.000    2.000    1.250    4.125    0.000    6.750 
#    0.000    1.250    0.000    0.000    0.000    0.000 
#    0.000    0.000    0.000    0.000    0.000    0.625 
#
# Total GULP energy -793098.401924 kJ/mol
# GULP energy per Si atom -12392.162530 kJ/mol
# Density = 1.676999 g / cm^3
# Si number density = 16.808242 Si / 1000 Ang^3
#
#
#
# Elastic Constant Matrix: (Units=GPa)
#
#
# Indices 1 2 3 4 5 6 
#
# 1 91.0179 24.8698 42.6892 0.0000 0.0000 0.0000
# 2 24.8698 60.7799 31.4770 0.0000 0.0000 0.0000
# 3 42.6892 31.4770 118.7802 0.0000 0.0000 0.0000
# 4 0.0000 0.0000 0.0000 4.3518 0.0000 0.0000
# 5 0.0000 0.0000 0.0000 0.0000 30.0702 0.0000
# 6 0.0000 0.0000 0.0000 0.0000 0.0000 12.0341
#
#
#
# Elastic Compliance Matrix: (Units=1/GPa)
#
#
# Indices 1 2 3 4 5 6 
#
# 1 0.013856 -0.003582 -0.004031 0.000000 0.000000 0.000000
# 2 -0.003582 0.019996 -0.004012 0.000000 0.000000 0.000000
# 3 -0.004031 -0.004012 0.010931 0.000000 0.000000 0.000000
# 4 0.000000 0.000000 0.000000 0.229792 0.000000 0.000000
# 5 0.000000 0.000000 0.000000 0.000000 0.033255 0.000000
# 6 0.000000 0.000000 0.000000 0.000000 0.000000 0.083097
#
#
# Mechanical properties :
#
#
# Convention : Reuss Voigt Hill
#
# Bulk Modulus (GPa) = 46.43808 52.07221 49.25515
# Shear Modulus (GPa) = 11.86649 20.72734 16.29691
#
# Velocity S-wave (km/s) = 2.65993 3.51545 3.11718
# Velocity P-wave (km/s) = 6.09277 6.89386 6.50566
#
# Compressibility (1/GPa) = 0.02153405
#
# Stress axis : x y z
#
# Youngs Moduli (GPa) = 72.17053 50.00968 91.48682
#
# Poissons Ratio (x) = 0.17915 0.36874
# Poissons Ratio (y) = 0.25853 0.36700
# Poissons Ratio (z) = 0.29088 0.20062
#
# Static dielectric constant tensor:
#      x y z
#    x 3.319290 0.000000 0.000000 
#    y 0.000000 2.774810 0.000000 
#    z 0.000000 0.000000 3.302670 
# 
# 
# High freq. dielectric constant tensor:
#      x y z
#    x 1.662330 0.000000 0.000000 
#    y 0.000000 1.593800 0.000000 
#    z 0.000000 0.000000 1.638230 
# 
# From -- ./inp_files/37550.got.cif
#   From: 2010.03.12/outbox.cif.g09.slc.cpg/sg51_19_cif.got.tgz:37550.got - 2010.04.16 13:43:02.
