data_PCOD8208736
_publ_section_title
;
Structure prediction by ZEFSAII (Michael W. Deem and Ramdas Pophale) SiO2 
 PCOD8208736
Probable space group: P M M A
;
_chemical_formula_sum "Si O2"
_cell_formula_units_Z 52
_cell_length_a 9.294665
_cell_length_b 17.525434
_cell_length_c 17.832154
_cell_angle_alpha 90.000000
_cell_angle_beta 90.000000
_cell_angle_gamma 90.000000
_cell_volume 2904.733739
_symmetry_space_group_name_H-M "P M M A"
_symmetry_group_IT_number 51
_symmetry_cell_setting 'orthorhombic'
loop_
_space_group_symop_operation_xyz
x,y,z
1/2-x,-y,z
1/2+x,-y,-z
-x,y,-z
-x,-y,-z
1/2+x,y,-z
1/2-x,y,z
x,-y,z
loop_
_atom_site_type_symbol
_atom_site_label
_atom_site_fract_x
_atom_site_fract_y
_atom_site_fract_z
Si Si1 0.588301 0.138005 0.655190
Si Si2 0.407555 0.636635 0.686769
Si Si3 0.577213 0.500000 0.418476
Si Si4 0.420818 0.000000 0.723035
Si Si5 0.090124 0.262609 0.215986
Si Si6 0.408711 0.759484 0.563257
Si Si7 0.414380 0.000000 0.127856
Si Si8 0.083075 0.168041 0.073218
O O1 0.750000 0.108534 0.637281
O O2 0.485326 0.073046 0.684105
O O3 0.597489 0.204051 0.716207
O O4 0.509832 0.167562 0.580192
O O5 0.250000 0.609936 0.715690
O O6 0.473939 0.571758 0.632337
O O7 0.501615 0.661095 0.759476
O O8 0.389283 0.711472 0.637546
O O9 0.750000 0.500000 0.432148
O O10 0.500000 0.500000 0.500000
O O11 0.466278 0.000000 0.808847
O O12 0.250000 0.000000 0.716322
O O13 0.250000 0.291618 0.196408
O O14 0.024026 0.217174 0.144302
O O15 0.500000 0.713298 0.500000
O O16 0.250000 0.782733 0.533487
O O17 0.441014 0.076948 0.080927
O O18 0.250000 0.000000 0.160553
O O19 0.250000 0.185565 0.062337
O O20 0.000000 0.196996 0.000000
#
# Coordination Sequence:
#
# PCOD8208736 Si02
#       8
#     8   8   4   4   8   8   4   8
#     4  10  19  34  52  67  90 126 164 206 254 301
#     4   9  19  33  51  75 105 136 170 206 243 295
#     4  10  20  34  52  80 115 146 171 204 251 302
#     4  12  22  31  48  73  95 121 164 211 253 301
#     4   9  18  33  52  72  97 132 173 209 248 300
#     4  10  19  32  49  72  97 125 163 204 246 295
#     4  10  19  35  51  67 101 139 172 209 259 313
#     4  10  20  33  50  74 104 137 172 214 260 311
#
# _framework density 17.901812
#
# number of rings (size 3 to 8) (size 9 to 14) (size 15 to 20)
#    0.000    2.154    1.538    2.308    0.000    3.077 
#    0.000    0.385    0.000    0.000    0.000    0.538 
#    0.000    0.000    0.000    0.000    0.000    0.000 
#
# Total GULP energy -644290.931700 kJ/mol
# GULP energy per Si atom -12390.210225 kJ/mol
# Density = 1.786107 g / cm^3
# Si number density = 17.901812 Si / 1000 Ang^3
#
#
#
# Elastic Constant Matrix: (Units=GPa)
#
#
# Indices 1 2 3 4 5 6 
#
# 1 117.0681 39.1757 44.0814 0.0000 0.0000 0.0000
# 2 39.1757 63.0156 34.4634 0.0000 0.0000 0.0000
# 3 44.0814 34.4634 82.6356 0.0000 0.0000 0.0000
# 4 0.0000 0.0000 0.0000 25.0197 0.0000 0.0000
# 5 0.0000 0.0000 0.0000 0.0000 32.0151 0.0000
# 6 0.0000 0.0000 0.0000 0.0000 0.0000 23.0907
#
#
#
# Elastic Compliance Matrix: (Units=1/GPa)
#
#
# Indices 1 2 3 4 5 6 
#
# 1 0.011811 -0.005048 -0.004195 0.000000 0.000000 0.000000
# 2 -0.005048 0.022716 -0.006781 0.000000 0.000000 0.000000
# 3 -0.004195 -0.006781 0.017167 0.000000 0.000000 0.000000
# 4 0.000000 0.000000 0.000000 0.039968 0.000000 0.000000
# 5 0.000000 0.000000 0.000000 0.000000 0.031235 0.000000
# 6 0.000000 0.000000 0.000000 0.000000 0.000000 0.043308
#
#
# Mechanical properties :
#
#
# Convention : Reuss Voigt Hill
#
# Bulk Modulus (GPa) = 50.90174 55.35113 53.12643
# Shear Modulus (GPa) = 24.41379 25.69171 25.05275
#
# Velocity S-wave (km/s) = 3.69692 3.79244 3.74498
# Velocity P-wave (km/s) = 6.83510 7.08260 6.95995
#
# Compressibility (1/GPa) = 0.01964570
#
# Stress axis : x y z
#
# Youngs Moduli (GPa) = 84.66631 44.02189 58.25107
#
# Poissons Ratio (x) = 0.22224 0.24437
# Poissons Ratio (y) = 0.42743 0.39498
# Poissons Ratio (z) = 0.35518 0.29850
#
# Static dielectric constant tensor:
#      x y z
#    x 3.682290 0.000000 0.000000 
#    y 0.000000 3.207620 0.000000 
#    z 0.000000 0.000000 3.231480 
# 
# 
# High freq. dielectric constant tensor:
#      x y z
#    x 1.700410 0.000000 0.000000 
#    y 0.000000 1.664480 0.000000 
#    z 0.000000 0.000000 1.676550 
# 
# From -- ./inp_files/28011.got.cif
#   From: 2010.03.12/outbox.cif.g09.slc.cpg/sg51_15_cif.got.tgz:28011.got - 2010.04.16 13:43:02.
