data_PCOD8208923
_publ_section_title
;
Structure prediction by ZEFSAII (Michael W. Deem and Ramdas Pophale) SiO2 
 PCOD8208923
Probable space group: P M M A
;
_chemical_formula_sum "Si O2"
_cell_formula_units_Z 64
_cell_length_a 33.336189
_cell_length_b 9.020670
_cell_length_c 11.527155
_cell_angle_alpha 90.000000
_cell_angle_beta 90.000000
_cell_angle_gamma 90.000000
_cell_volume 3466.385650
_symmetry_space_group_name_H-M "P M M A"
_symmetry_group_IT_number 51
_symmetry_cell_setting 'orthorhombic'
loop_
_space_group_symop_operation_xyz
x,y,z
1/2-x,-y,z
1/2+x,-y,-z
-x,y,-z
-x,-y,-z
1/2+x,y,-z
1/2-x,y,z
x,-y,z
loop_
_atom_site_type_symbol
_atom_site_label
_atom_site_fract_x
_atom_site_fract_y
_atom_site_fract_z
Si Si1 0.646284 0.833310 0.352329
Si Si2 0.100053 0.175220 0.874028
Si Si3 0.627992 0.175657 0.876640
Si Si4 0.703711 0.332263 0.507774
Si Si5 0.295037 0.175700 0.255359
Si Si6 0.972476 0.675760 0.245340
Si Si7 0.437746 0.168438 0.537802
Si Si8 0.447157 0.174910 0.272481
O O1 0.632634 0.785171 0.223976
O O2 0.680714 0.723484 0.394070
O O3 0.609498 0.820686 0.441177
O O4 0.663378 0.000000 0.350741
O O5 0.058642 0.258647 0.847703
O O6 0.090900 0.000000 0.874596
O O7 0.117892 0.234706 0.994995
O O8 0.671919 0.234900 0.836718
O O9 0.593816 0.230156 0.787758
O O10 0.629203 0.000000 0.878690
O O11 0.750000 0.317983 0.476548
O O12 0.691270 0.500000 0.535311
O O13 0.692401 0.234838 0.618961
O O14 0.250000 0.230827 0.220460
O O15 0.296049 0.000000 0.262987
O O16 0.972186 0.500000 0.237248
O O17 0.961861 0.725376 0.376044
O O18 0.016201 0.738603 0.212431
O O19 0.445874 0.219232 0.407266
O O20 0.452677 0.000000 0.560049
O O21 0.453084 0.000000 0.254909
#
# Coordination Sequence:
#
# PCOD8208923 Si02
#       8
#     8   8   8   8   8   8   8   8
#     4   9  17  31  52  75  98 127 165 209 252 293
#     4   9  19  37  56  72  96 132 173 211 249 299
#     4   9  18  34  56  79 100 129 171 210 246 296
#     4  10  20  32  48  74 107 138 166 198 242 301
#     4   9  17  32  56  83 108 131 159 202 253 299
#     4  11  22  34  49  72 103 135 170 211 254 297
#     4   9  18  33  53  76 101 129 164 206 255 311
#     4  10  19  32  52  75 101 133 168 206 249 301
#
# _framework density 18.463035000000001
#
# number of rings (size 3 to 8) (size 9 to 14) (size 15 to 20)
#    0.000    2.500    0.000    3.375    0.000    7.250 
#    0.000    6.250    0.000    2.250    0.000    1.750 
#    0.000    0.000    0.000    0.000    0.000    0.000 
#
# Total GULP energy -793604.377199 kJ/mol
# GULP energy per Si atom -12400.068394 kJ/mol
# Density = 1.842101 g / cm^3
# Si number density = 18.463035 Si / 1000 Ang^3
#
#
#
# Elastic Constant Matrix: (Units=GPa)
#
#
# Indices 1 2 3 4 5 6 
#
# 1 125.6383 42.5089 70.3722 0.0000 0.0000 0.0000
# 2 42.5089 51.6747 27.9711 0.0000 0.0000 0.0000
# 3 70.3722 27.9711 89.4423 0.0000 0.0000 0.0000
# 4 0.0000 0.0000 0.0000 7.9404 0.0000 0.0000
# 5 0.0000 0.0000 0.0000 0.0000 22.5421 0.0000
# 6 0.0000 0.0000 0.0000 0.0000 0.0000 17.1548
#
#
#
# Elastic Compliance Matrix: (Units=1/GPa)
#
#
# Indices 1 2 3 4 5 6 
#
# 1 0.016535 -0.007897 -0.010540 0.000000 0.000000 0.000000
# 2 -0.007897 0.027067 -0.002251 0.000000 0.000000 0.000000
# 3 -0.010540 -0.002251 0.020177 0.000000 0.000000 0.000000
# 4 0.000000 0.000000 0.000000 0.125938 0.000000 0.000000
# 5 0.000000 0.000000 0.000000 0.000000 0.044362 0.000000
# 6 0.000000 0.000000 0.000000 0.000000 0.000000 0.058293
#
#
# Mechanical properties :
#
#
# Convention : Reuss Voigt Hill
#
# Bulk Modulus (GPa) = 44.63794 60.93993 52.78894
# Shear Modulus (GPa) = 14.65357 17.92099 16.28728
#
# Velocity S-wave (km/s) = 2.82027 3.11889 2.97333
# Velocity P-wave (km/s) = 5.90209 6.78587 6.35935
#
# Compressibility (1/GPa) = 0.02240247
#
# Stress axis : x y z
#
# Youngs Moduli (GPa) = 60.47893 36.94595 49.56128
#
# Poissons Ratio (x) = 0.29175 0.52236
# Poissons Ratio (y) = 0.47759 0.11158
# Poissons Ratio (z) = 0.63743 0.08318
#
# Static dielectric constant tensor:
#      x y z
#    x 3.555970 0.000000 0.000000 
#    y 0.000000 3.152370 0.000000 
#    z 0.000000 0.000000 3.405460 
# 
# 
# High freq. dielectric constant tensor:
#      x y z
#    x 1.721880 0.000000 0.000000 
#    y 0.000000 1.690870 0.000000 
#    z 0.000000 0.000000 1.707210 
# 
# From -- ./inp_files/19616.got.cif
#   From: 2010.03.12/outbox.cif.g09.slc.cpg/sg51_10_cif.got.tgz:19616.got - 2010.04.16 13:43:02.
