data_PCOD8208826
_publ_section_title
;
Structure prediction by ZEFSAII (Michael W. Deem and Ramdas Pophale) SiO2 
 PCOD8208826
Probable space group: P M M A
;
_chemical_formula_sum "Si O2"
_cell_formula_units_Z 64
_cell_length_a 19.561837
_cell_length_b 9.036610
_cell_length_c 19.640695
_cell_angle_alpha 90.000000
_cell_angle_beta 90.000000
_cell_angle_gamma 90.000000
_cell_volume 3471.938525
_symmetry_space_group_name_H-M "P M M A"
_symmetry_group_IT_number 51
_symmetry_cell_setting 'orthorhombic'
loop_
_space_group_symop_operation_xyz
x,y,z
1/2-x,-y,z
1/2+x,-y,-z
-x,y,-z
-x,-y,-z
1/2+x,y,-z
1/2-x,y,z
x,-y,z
loop_
_atom_site_type_symbol
_atom_site_label
_atom_site_fract_x
_atom_site_fract_y
_atom_site_fract_z
Si Si1 0.671111 0.672810 0.923075
Si Si2 0.425123 0.832613 0.971141
Si Si3 0.826053 0.336034 0.252815
Si Si4 0.528168 0.827452 0.430652
Si Si5 0.039312 0.824940 0.291928
Si Si6 0.937089 0.173499 0.178795
Si Si7 0.175755 0.832779 0.611154
Si Si8 0.827280 0.173557 0.781987
O O1 0.750000 0.706365 0.940109
O O2 0.656698 0.500000 0.916185
O O3 0.650635 0.746777 0.851486
O O4 0.626022 0.736012 0.984072
O O5 0.434789 0.758176 0.896774
O O6 0.395674 0.000000 0.967509
O O7 0.500000 0.833550 0.000000
O O8 0.750000 0.340220 0.223068
O O9 0.859271 0.500000 0.246986
O O10 0.864849 0.211975 0.211056
O O11 0.825581 0.288755 0.330810
O O12 0.500000 0.752874 0.500000
O O13 0.491005 0.758397 0.363037
O O14 0.609871 0.799521 0.435168
O O15 0.510358 0.000000 0.430760
O O16 0.119180 0.783153 0.278426
O O17 0.996349 0.760157 0.227766
O O18 0.028985 0.000000 0.294319
O O19 0.947768 0.000000 0.172245
O O20 0.250000 0.819612 0.572539
O O21 0.168359 0.000000 0.641017
O O22 0.750000 0.219068 0.759507
O O23 0.831751 0.000000 0.797059
#
# Coordination Sequence:
#
# PCOD8208826 Si02
#       8
#     8   8   8   8   8   8   8   8
#     4  10  21  36  53  74 103 137 170 209 259 312
#     4  10  21  36  54  75  99 131 173 216 257 306
#     4  10  20  32  47  70  99 128 160 203 251 293
#     4   9  16  27  47  76 106 135 164 204 257 301
#     4   9  16  29  49  73 101 130 164 207 252 298
#     4  10  19  32  51  72  95 129 169 207 247 295
#     4   9  16  29  50  72  96 131 172 204 235 289
#     4   9  17  31  53  76  97 128 170 213 255 302
#
# _framework density 18.433506999999999
#
# number of rings (size 3 to 8) (size 9 to 14) (size 15 to 20)
#    0.000    2.500    1.250    1.500    0.000    4.750 
#    0.000    5.000    0.000    4.125    0.000    0.000 
#    0.000    4.000    0.000    0.000    0.000    0.000 
#
# Total GULP energy -793001.643023 kJ/mol
# GULP energy per Si atom -12390.650672 kJ/mol
# Density = 1.839155 g / cm^3
# Si number density = 18.433507 Si / 1000 Ang^3
#
#
#
# Elastic Constant Matrix: (Units=GPa)
#
#
# Indices 1 2 3 4 5 6 
#
# 1 128.5064 22.2199 78.3692 0.0000 0.0000 0.0000
# 2 22.2199 22.0460 14.6014 0.0000 0.0000 0.0000
# 3 78.3692 14.6014 120.9299 0.0000 0.0000 0.0000
# 4 0.0000 0.0000 0.0000 7.4555 0.0000 0.0000
# 5 0.0000 0.0000 0.0000 0.0000 28.6645 0.0000
# 6 0.0000 0.0000 0.0000 0.0000 0.0000 16.6775
#
#
#
# Elastic Compliance Matrix: (Units=1/GPa)
#
#
# Indices 1 2 3 4 5 6 
#
# 1 0.014348 -0.009025 -0.008209 0.000000 0.000000 0.000000
# 2 -0.009025 0.054979 -0.000790 0.000000 0.000000 0.000000
# 3 -0.008209 -0.000790 0.013684 0.000000 0.000000 0.000000
# 4 0.000000 0.000000 0.000000 0.134129 0.000000 0.000000
# 5 0.000000 0.000000 0.000000 0.000000 0.034886 0.000000
# 6 0.000000 0.000000 0.000000 0.000000 0.000000 0.059961
#
#
# Mechanical properties :
#
#
# Convention : Reuss Voigt Hill
#
# Bulk Modulus (GPa) = 21.29258 55.76259 38.52759
# Shear Modulus (GPa) = 13.74802 20.97896 17.36349
#
# Velocity S-wave (km/s) = 2.73393 3.37722 3.07245
# Velocity P-wave (km/s) = 4.64133 6.74713 5.79076
#
# Compressibility (1/GPa) = 0.04696472
#
# Stress axis : x y z
#
# Youngs Moduli (GPa) = 69.69486 18.18890 73.07602
#
# Poissons Ratio (x) = 0.16415 0.59987
# Poissons Ratio (y) = 0.62897 0.05772
# Poissons Ratio (z) = 0.57211 0.01437
#
# Static dielectric constant tensor:
#      x y z
#    x 3.652940 0.000000 0.000000 
#    y 0.000000 3.134470 0.000000 
#    z 0.000000 0.000000 3.355880 
# 
# 
# High freq. dielectric constant tensor:
#      x y z
#    x 1.727990 0.000000 0.000000 
#    y 0.000000 1.680060 0.000000 
#    z 0.000000 0.000000 1.695800 
# 
# From -- ./inp_files/33785.got.cif
#   From: 2010.03.12/outbox.cif.g09.slc.cpg/sg51_17_cif.got.tgz:33785.got - 2010.04.16 13:43:02.
