data_PCOD8208528
_publ_section_title
;
Structure prediction by ZEFSAII (Michael W. Deem and Ramdas Pophale) SiO2 
 PCOD8208528
Probable space group: P M M A
;
_chemical_formula_sum "Si O2"
_cell_formula_units_Z 48
_cell_length_a 10.180895
_cell_length_b 13.777943
_cell_length_c 19.208093
_cell_angle_alpha 90.000000
_cell_angle_beta 90.000000
_cell_angle_gamma 90.000000
_cell_volume 2694.353607
_symmetry_space_group_name_H-M "P M M A"
_symmetry_group_IT_number 51
_symmetry_cell_setting 'orthorhombic'
loop_
_space_group_symop_operation_xyz
x,y,z
1/2-x,-y,z
1/2+x,-y,-z
-x,y,-z
-x,-y,-z
1/2+x,y,-z
1/2-x,y,z
x,-y,z
loop_
_atom_site_type_symbol
_atom_site_label
_atom_site_fract_x
_atom_site_fract_y
_atom_site_fract_z
Si Si1 0.594971 0.393425 0.287432
Si Si2 0.399064 0.888904 0.939741
Si Si3 0.395975 0.114863 0.447524
Si Si4 0.897719 0.615368 0.442646
Si Si5 0.098581 0.789708 0.797139
Si Si6 0.607549 0.886581 0.705564
O O1 0.750000 0.404033 0.287584
O O2 0.533054 0.500000 0.270853
O O3 0.552673 0.356116 0.364477
O O4 0.551607 0.317921 0.226737
O O5 0.250000 0.879769 0.968018
O O6 0.422036 0.810385 0.878732
O O7 0.424231 0.000000 0.913983
O O8 0.500000 0.860417 0.000000
O O9 0.500000 0.163952 0.500000
O O10 0.250000 0.142190 0.473048
O O11 0.422833 0.157851 0.370615
O O12 0.414959 0.000000 0.446787
O O13 0.750000 0.656081 0.457207
O O14 0.893165 0.500000 0.447000
O O15 0.000000 0.657318 0.500000
O O16 0.250000 0.807443 0.776182
O O17 0.009652 0.866454 0.757678
O O18 0.750000 0.846433 0.732263
O O19 0.620325 0.000000 0.696679
#
# Coordination Sequence:
#
# PCOD8208528 Si02
#       6
#     8   8   8   8   8   8
#     4   8  15  29  48  69  94 125 160 198 242 287
#     4   9  18  32  50  74 101 125 151 185 226 275
#     4   8  14  25  40  57  79 112 154 193 227 268
#     4   8  13  23  41  63  86 115 153 196 240 284
#     4  10  19  31  50  74  96 120 156 198 232 271
#     4   9  18  31  45  64  93 125 153 186 235 289
#
# _framework density 17.815034000000001
#
# number of rings (size 3 to 8) (size 9 to 14) (size 15 to 20)
#    0.000    3.333    0.000    2.500    0.000    2.333 
#    0.000    5.000    0.000    6.000    0.000    0.000 
#    0.000    0.000    0.000    0.000    0.000    0.000 
#
# Total GULP energy -594692.355365 kJ/mol
# GULP energy per Si atom -12389.424070 kJ/mol
# Density = 1.777449 g / cm^3
# Si number density = 17.815034 Si / 1000 Ang^3
#
#
#
# Elastic Constant Matrix: (Units=GPa)
#
#
# Indices 1 2 3 4 5 6 
#
# 1 101.3735 23.3596 68.7633 0.0000 0.0000 0.0000
# 2 23.3596 54.0849 44.4887 0.0000 0.0000 0.0000
# 3 68.7633 44.4887 116.1079 0.0000 0.0000 0.0000
# 4 0.0000 0.0000 0.0000 -89.5885 0.0000 0.0000
# 5 0.0000 0.0000 0.0000 0.0000 33.1226 0.0000
# 6 0.0000 0.0000 0.0000 0.0000 0.0000 8.3513
#
#
#
# Elastic Compliance Matrix: (Units=1/GPa)
#
#
# Indices 1 2 3 4 5 6 
#
# 1 0.016554 0.001336 -0.010316 0.000000 0.000000 0.000000
# 2 0.001336 0.027107 -0.011177 0.000000 0.000000 0.000000
# 3 -0.010316 -0.011177 0.019005 0.000000 0.000000 0.000000
# 4 0.000000 0.000000 0.000000 -0.011162 0.000000 0.000000
# 5 0.000000 0.000000 0.000000 0.000000 0.030191 0.000000
# 6 0.000000 0.000000 0.000000 0.000000 0.000000 0.119742
#
#
# Mechanical properties :
#
#
# Convention : Reuss Voigt Hill
#
# Bulk Modulus (GPa) = 44.74142 60.53217 52.63680
# Shear Modulus (GPa) = 20.06408 -0.62595 9.71906
#
# Velocity S-wave (km/s) = 3.35960 -0.59340 2.33824
# Velocity P-wave (km/s) = 6.34178 5.79503 6.07456
#
# Compressibility (1/GPa) = 0.02235065
#
# Stress axis : x y z
#
# Youngs Moduli (GPa) = 60.40832 36.89111 52.61843
#
# Poissons Ratio (x) = -0.04927 0.54279
# Poissons Ratio (y) = -0.08068 0.58814
# Poissons Ratio (z) = 0.62315 0.41235
#
# Static dielectric constant tensor:
#      x y z
#    x 3.383090 0.000000 0.000000 
#    y 0.000000 3.249780 0.000000 
#    z 0.000000 0.000000 3.245210 
# 
# 
# High freq. dielectric constant tensor:
#      x y z
#    x 1.682500 0.000000 0.000000 
#    y 0.000000 1.669540 0.000000 
#    z 0.000000 0.000000 1.668120 
# 
# From -- ./inp_files/23235.got.cif
#   From: 2010.03.12/outbox.cif.g09.slc.cpg/sg51_12_cif.got.tgz:23235.got - 2010.04.16 13:43:02.
