data_PCOD8208856
_publ_section_title
;
Structure prediction by ZEFSAII (Michael W. Deem and Ramdas Pophale) SiO2 
 PCOD8208856
Probable space group: P M M A
;
_chemical_formula_sum "Si O2"
_cell_formula_units_Z 56
_cell_length_a 18.105873
_cell_length_b 14.244580
_cell_length_c 13.163305
_cell_angle_alpha 90.000000
_cell_angle_beta 90.000000
_cell_angle_gamma 90.000000
_cell_volume 3394.955317
_symmetry_space_group_name_H-M "P M M A"
_symmetry_group_IT_number 51
_symmetry_cell_setting 'orthorhombic'
loop_
_space_group_symop_operation_xyz
x,y,z
1/2-x,-y,z
1/2+x,-y,-z
-x,y,-z
-x,-y,-z
1/2+x,y,-z
1/2-x,y,z
x,-y,z
loop_
_atom_site_type_symbol
_atom_site_label
_atom_site_fract_x
_atom_site_fract_y
_atom_site_fract_z
Si Si1 0.449842 0.393011 0.248638
Si Si2 0.335444 0.221669 0.942719
Si Si3 0.402634 0.108374 0.115172
Si Si4 0.032073 0.775202 0.807453
Si Si5 0.665380 0.395767 0.923337
Si Si6 0.039919 0.234783 0.393532
Si Si7 0.165433 0.891310 0.331521
O O1 0.474422 0.500000 0.268127
O O2 0.513600 0.336691 0.186750
O O3 0.375679 0.385102 0.183394
O O4 0.436108 0.339515 0.356139
O O5 0.250000 0.220237 0.910589
O O6 0.383496 0.208453 0.840281
O O7 0.352336 0.137345 0.019925
O O8 0.360208 0.319847 0.993952
O O9 0.478461 0.167451 0.116620
O O10 0.354312 0.130053 0.214747
O O11 0.423939 0.000000 0.105619
O O12 0.016392 0.809804 0.691202
O O13 0.750000 0.377988 0.895827
O O14 0.651824 0.500000 0.969148
O O15 0.112475 0.169843 0.404211
O O16 0.000000 0.241706 0.500000
O O17 0.250000 0.862061 0.351016
O O18 0.152606 0.000000 0.357755
#
# Coordination Sequence:
#
# PCOD8208856 Si02
#       7
#     8   8   8   8   8   8   8
#     4   9  18  32  51  74  98 128 167 211 250 293
#     4  11  20  31  47  69 102 135 165 198 234 292
#     4  10  19  32  51  74 103 134 163 198 242 296
#     4   9  20  34  47  72  97 128 171 204 248 289
#     4   9  17  29  47  74 104 130 157 197 250 296
#     4   9  19  35  52  72  99 131 169 208 257 305
#     4   9  17  31  53  81 105 126 161 209 254 295
#
# _framework density 16.495062999999998
#
# number of rings (size 3 to 8) (size 9 to 14) (size 15 to 20)
#    0.857    1.714    1.429    0.857    0.000    4.857 
#    0.000    2.143    0.000    0.000    0.000    0.000 
#    0.000    0.000    0.000    0.000    0.000    0.000 
#
# Total GULP energy -694020.622094 kJ/mol
# GULP energy per Si atom -12393.225395 kJ/mol
# Density = 1.645752 g / cm^3
# Si number density = 16.495063 Si / 1000 Ang^3
#
#
#
# Elastic Constant Matrix: (Units=GPa)
#
#
# Indices 1 2 3 4 5 6 
#
# 1 100.6356 47.5396 43.8628 0.0000 0.0000 0.0000
# 2 47.5396 99.1825 27.7657 0.0000 0.0000 0.0000
# 3 43.8628 27.7657 62.3728 0.0000 0.0000 0.0000
# 4 0.0000 0.0000 0.0000 10.0520 0.0000 0.0000
# 5 0.0000 0.0000 0.0000 0.0000 21.6798 0.0000
# 6 0.0000 0.0000 0.0000 0.0000 0.0000 17.1755
#
#
#
# Elastic Compliance Matrix: (Units=1/GPa)
#
#
# Indices 1 2 3 4 5 6 
#
# 1 0.016461 -0.005311 -0.009211 0.000000 0.000000 0.000000
# 2 -0.005311 0.013231 -0.002155 0.000000 0.000000 0.000000
# 3 -0.009211 -0.002155 0.023470 0.000000 0.000000 0.000000
# 4 0.000000 0.000000 0.000000 0.099483 0.000000 0.000000
# 5 0.000000 0.000000 0.000000 0.000000 0.046126 0.000000
# 6 0.000000 0.000000 0.000000 0.000000 0.000000 0.058223
#
#
# Mechanical properties :
#
#
# Convention : Reuss Voigt Hill
#
# Bulk Modulus (GPa) = 50.48830 55.61413 53.05122
# Shear Modulus (GPa) = 16.83781 19.31630 18.07706
#
# Velocity S-wave (km/s) = 3.19843 3.42575 3.31404
# Velocity P-wave (km/s) = 6.65691 7.03111 6.84657
#
# Compressibility (1/GPa) = 0.01980657
#
# Stress axis : x y z
#
# Youngs Moduli (GPa) = 60.75087 75.57762 42.60797
#
# Poissons Ratio (x) = 0.40140 0.39248
# Poissons Ratio (y) = 0.32266 0.09182
# Poissons Ratio (z) = 0.55960 0.16288
#
# Static dielectric constant tensor:
#      x y z
#    x 2.980370 0.000000 0.000000 
#    y 0.000000 3.270250 0.000000 
#    z 0.000000 0.000000 2.718530 
# 
# 
# High freq. dielectric constant tensor:
#      x y z
#    x 1.625750 0.000000 0.000000 
#    y 0.000000 1.642440 0.000000 
#    z 0.000000 0.000000 1.596340 
# 
# From -- ./inp_files/24333.got.cif
#   From: 2010.03.12/outbox.cif.g09.slc.cpg/sg51_13_cif.got.tgz:24333.got - 2010.04.16 13:43:02.
