data_PCOD8208412
_publ_section_title
;
Structure prediction by ZEFSAII (Michael W. Deem and Ramdas Pophale) SiO2 
 PCOD8208412
Probable space group: P M M A
;
_chemical_formula_sum "Si O2"
_cell_formula_units_Z 64
_cell_length_a 17.839819
_cell_length_b 20.501172
_cell_length_c 9.402292
_cell_angle_alpha 90.000000
_cell_angle_beta 90.000000
_cell_angle_gamma 90.000000
_cell_volume 3438.767929
_symmetry_space_group_name_H-M "P M M A"
_symmetry_group_IT_number 51
_symmetry_cell_setting 'orthorhombic'
loop_
_space_group_symop_operation_xyz
x,y,z
1/2-x,-y,z
1/2+x,-y,-z
-x,y,-z
-x,-y,-z
1/2+x,y,-z
1/2-x,y,z
x,-y,z
loop_
_atom_site_type_symbol
_atom_site_label
_atom_site_fract_x
_atom_site_fract_y
_atom_site_fract_z
Si Si1 0.912769 0.424481 0.995933
Si Si2 0.839581 0.191800 0.681312
Si Si3 0.837333 0.574229 0.702508
Si Si4 0.338729 0.687423 0.500798
Si Si5 0.839181 0.682785 0.179047
Si Si6 0.660874 0.072084 0.500770
Si Si7 0.160657 0.192884 0.998002
Si Si8 0.660823 0.927588 0.181494
O O1 0.895708 0.500000 0.027582
O O2 0.882057 0.404094 0.841970
O O3 0.871162 0.383935 0.116794
O O4 0.000000 0.408631 0.000000
O O5 0.750000 0.192141 0.682445
O O6 0.871205 0.252678 0.591307
O O7 0.871199 0.125606 0.609781
O O8 0.870694 0.196303 0.841686
O O9 0.750000 0.584244 0.737299
O O10 0.855359 0.500000 0.658724
O O11 0.863366 0.619566 0.572199
O O12 0.250000 0.693268 0.506338
O O13 0.370507 0.690280 0.660614
O O14 0.750000 0.678631 0.177002
O O15 0.868472 0.744206 0.087870
O O16 0.750000 0.074611 0.501192
O O17 0.632104 0.087337 0.341276
O O18 0.633515 0.000000 0.548770
O O19 0.250000 0.191567 0.997349
O O20 0.128304 0.127270 0.924428
O O21 0.750000 0.924919 0.180127
O O22 0.634079 0.000000 0.133089
#
# Coordination Sequence:
#
# PCOD8208412 Si02
#       8
#     8   8   8   8   8   8   8   8
#     4  10  21  36  52  71  96 124 153 187 230 280
#     4   9  15  22  33  51  78 110 145 186 228 269
#     4   9  17  31  51  72  94 121 152 186 225 270
#     4   9  17  28  44  67  92 118 151 192 233 272
#     4  10  19  31  49  71  94 121 156 196 234 276
#     4   8  13  20  29  42  66 106 151 187 221 266
#     4   9  16  24  37  59  85 115 152 192 232 274
#     4   8  13  21  32  48  76 114 151 186 226 271
#
# _framework density 18.611315999999999
#
# number of rings (size 3 to 8) (size 9 to 14) (size 15 to 20)
#    0.000    3.000    0.000    2.625    0.000    6.750 
#    0.000    4.375    0.000    2.250    0.000    0.000 
#    0.000    0.500    0.000    0.250    0.000   24.125 
#
# Total GULP energy -793409.724606 kJ/mol
# GULP energy per Si atom -12397.026947 kJ/mol
# Density = 1.856896 g / cm^3
# Si number density = 18.611316 Si / 1000 Ang^3
#
#
#
# Elastic Constant Matrix: (Units=GPa)
#
#
# Indices 1 2 3 4 5 6 
#
# 1 12.8668 17.6581 17.7558 0.0000 0.0000 0.0000
# 2 17.6581 147.9636 106.4990 0.0000 0.0000 0.0000
# 3 17.7558 106.4990 179.9973 0.0000 0.0000 0.0000
# 4 0.0000 0.0000 0.0000 43.9171 0.0000 0.0000
# 5 0.0000 0.0000 0.0000 0.0000 3.0129 0.0000
# 6 0.0000 0.0000 0.0000 0.0000 0.0000 4.1540
#
#
#
# Elastic Compliance Matrix: (Units=1/GPa)
#
#
# Indices 1 2 3 4 5 6 
#
# 1 0.095119 -0.008009 -0.004645 0.000000 0.000000 0.000000
# 2 -0.008009 0.012446 -0.006574 0.000000 0.000000 0.000000
# 3 -0.004645 -0.006574 0.009903 0.000000 0.000000 0.000000
# 4 0.000000 0.000000 0.000000 0.022770 0.000000 0.000000
# 5 0.000000 0.000000 0.000000 0.000000 0.331906 0.000000
# 6 0.000000 0.000000 0.000000 0.000000 0.000000 0.240732
#
#
# Mechanical properties :
#
#
# Convention : Reuss Voigt Hill
#
# Bulk Modulus (GPa) = 12.65589 69.40594 41.03092
# Shear Modulus (GPa) = 6.42947 23.47779 14.95363
#
# Velocity S-wave (km/s) = 1.86067 3.55558 2.83763
# Velocity P-wave (km/s) = 3.38098 7.36407 5.72977
#
# Compressibility (1/GPa) = 0.07901457
#
# Stress axis : x y z
#
# Youngs Moduli (GPa) = 10.51310 80.34891 100.97649
#
# Poissons Ratio (x) = 0.64348 0.46900
# Poissons Ratio (y) = 0.08419 0.66379
# Poissons Ratio (z) = 0.04883 0.52819
#
# Static dielectric constant tensor:
#      x y z
#    x 2.683030 0.000000 0.000000 
#    y 0.000000 3.706000 0.000000 
#    z 0.000000 0.000000 3.640470 
# 
# 
# High freq. dielectric constant tensor:
#      x y z
#    x 1.640860 0.000000 0.000000 
#    y 0.000000 1.739920 0.000000 
#    z 0.000000 0.000000 1.729550 
# 
# From -- ./inp_files/10005.got.cif
#   From: 2010.03.12/outbox.cif.g09.slc.cpg/sg51_6_cif.got.tgz:10005.got - 2010.04.16 13:43:02.
