data_PCOD8208683
_publ_section_title
;
Structure prediction by ZEFSAII (Michael W. Deem and Ramdas Pophale) SiO2 
 PCOD8208683
Probable space group: P M M A
;
_chemical_formula_sum "Si O2"
_cell_formula_units_Z 40
_cell_length_a 9.122657
_cell_length_b 15.702651
_cell_length_c 19.492645
_cell_angle_alpha 90.000000
_cell_angle_beta 90.000000
_cell_angle_gamma 90.000000
_cell_volume 2792.319429
_symmetry_space_group_name_H-M "P M M A"
_symmetry_group_IT_number 51
_symmetry_cell_setting 'orthorhombic'
loop_
_space_group_symop_operation_xyz
x,y,z
1/2-x,-y,z
1/2+x,-y,-z
-x,y,-z
-x,-y,-z
1/2+x,y,-z
1/2-x,y,z
x,-y,z
loop_
_atom_site_type_symbol
_atom_site_label
_atom_site_fract_x
_atom_site_fract_y
_atom_site_fract_z
Si Si1 0.921257 0.349287 0.151860
Si Si2 0.080392 0.000000 0.929203
Si Si3 0.420968 0.183565 0.927867
Si Si4 0.415350 0.601517 0.433955
Si Si5 0.574607 0.500000 0.926269
Si Si6 0.918343 0.402096 0.301367
O O1 0.750000 0.371083 0.137927
O O2 0.967406 0.256027 0.125658
O O3 0.953771 0.349295 0.232926
O O4 0.023333 0.416764 0.114122
O O5 0.039868 0.090597 0.893024
O O6 0.250000 0.000000 0.946296
O O7 0.000000 0.000000 0.000000
O O8 0.250000 0.190263 0.944010
O O9 0.500000 0.198262 0.000000
O O10 0.500000 0.638492 0.500000
O O11 0.250000 0.634861 0.437399
O O12 0.423981 0.500000 0.434256
O O13 0.487394 0.636084 0.363891
O O14 0.750000 0.500000 0.933530
O O15 0.500000 0.500000 0.000000
O O16 0.750000 0.393736 0.323351
O O17 0.959100 0.500000 0.286167
#
# Coordination Sequence:
#
# PCOD8208683 Si02
#       6
#     8   4   8   8   4   8
#     4  10  19  32  45  59  79 107 138 170 205 243
#     4   8  14  26  42  62  80  98 123 160 205 250
#     4   9  17  28  44  61  80 102 131 167 207 248
#     4   9  16  25  38  56  76  98 129 164 196 230
#     4  12  24  34  44  56  75 104 139 178 210 240
#     4   9  16  27  41  54  74 103 132 163 198 233
#
# _framework density 14.325009
#
# number of rings (size 3 to 8) (size 9 to 14) (size 15 to 20)
#    0.000    2.600    1.000    2.100    0.000    5.600 
#    0.000    0.000    0.000    0.000    0.000    0.000 
#    0.000    0.000    0.000    0.900    0.000    6.400 
#
# Total GULP energy -495703.108277 kJ/mol
# GULP energy per Si atom -12392.577707 kJ/mol
# Density = 1.429240 g / cm^3
# Si number density = 14.325009 Si / 1000 Ang^3
#
#
#
# Elastic Constant Matrix: (Units=GPa)
#
#
# Indices 1 2 3 4 5 6 
#
# 1 73.2749 35.4431 51.9145 0.0000 0.0000 0.0000
# 2 35.4431 96.9025 50.2880 0.0000 0.0000 0.0000
# 3 51.9145 50.2880 111.1327 0.0000 0.0000 0.0000
# 4 0.0000 0.0000 0.0000 3.1482 0.0000 0.0000
# 5 0.0000 0.0000 0.0000 0.0000 24.8227 0.0000
# 6 0.0000 0.0000 0.0000 0.0000 0.0000 8.1869
#
#
#
# Elastic Compliance Matrix: (Units=1/GPa)
#
#
# Indices 1 2 3 4 5 6 
#
# 1 0.021233 -0.003422 -0.008370 0.000000 0.000000 0.000000
# 2 -0.003422 0.014038 -0.004754 0.000000 0.000000 0.000000
# 3 -0.008370 -0.004754 0.015059 0.000000 0.000000 0.000000
# 4 0.000000 0.000000 0.000000 0.317638 0.000000 0.000000
# 5 0.000000 0.000000 0.000000 0.000000 0.040286 0.000000
# 6 0.000000 0.000000 0.000000 0.000000 0.000000 0.122147
#
#
# Mechanical properties :
#
#
# Convention : Reuss Voigt Hill
#
# Bulk Modulus (GPa) = 58.01078 61.84459 59.92768
# Shear Modulus (GPa) = 8.78366 16.80919 12.79642
#
# Velocity S-wave (km/s) = 2.47891 3.42923 2.99204
# Velocity P-wave (km/s) = 6.98408 7.67761 7.33904
#
# Compressibility (1/GPa) = 0.01723818
#
# Stress axis : x y z
#
# Youngs Moduli (GPa) = 47.09711 71.23322 66.40438
#
# Poissons Ratio (x) = 0.24379 0.55580
# Poissons Ratio (y) = 0.16119 0.31566
# Poissons Ratio (z) = 0.39420 0.33862
#
# Static dielectric constant tensor:
#      x y z
#    x 2.866190 0.000000 0.000000 
#    y 0.000000 2.948720 0.000000 
#    z 0.000000 0.000000 2.778870 
# 
# 
# High freq. dielectric constant tensor:
#      x y z
#    x 1.554120 0.000000 0.000000 
#    y 0.000000 1.512000 0.000000 
#    z 0.000000 0.000000 1.534440 
# 
# From -- ./inp_files/27777.got.cif
#   From: 2010.03.12/outbox.cif.g09.slc.cpg/sg51_14_cif.got.tgz:27777.got - 2010.04.16 13:43:02.
