data_PCOD8208524
_publ_section_title
;
Structure prediction by ZEFSAII (Michael W. Deem and Ramdas Pophale) SiO2 
 PCOD8208524
Probable space group: P M M A
;
_chemical_formula_sum "Si O2"
_cell_formula_units_Z 56
_cell_length_a 9.086070
_cell_length_b 14.237222
_cell_length_c 23.725348
_cell_angle_alpha 90.000000
_cell_angle_beta 90.000000
_cell_angle_gamma 90.000000
_cell_volume 3069.120405
_symmetry_space_group_name_H-M "P M M A"
_symmetry_group_IT_number 51
_symmetry_cell_setting 'orthorhombic'
loop_
_space_group_symop_operation_xyz
x,y,z
1/2-x,-y,z
1/2+x,-y,-z
-x,y,-z
-x,-y,-z
1/2+x,y,-z
1/2-x,y,z
x,-y,z
loop_
_atom_site_type_symbol
_atom_site_label
_atom_site_fract_x
_atom_site_fract_y
_atom_site_fract_z
Si Si1 0.921999 0.393023 0.056652
Si Si2 0.082521 0.389446 0.268224
Si Si3 0.921206 0.390246 0.380983
Si Si4 0.579232 0.289707 0.168326
Si Si5 0.420108 0.104874 0.772865
Si Si6 0.575197 0.235243 0.556633
Si Si7 0.422084 0.893017 0.339600
O O1 0.750000 0.387048 0.045638
O O2 0.968904 0.500000 0.071968
O O3 0.970716 0.322470 0.106357
O O4 0.000000 0.358094 0.000000
O O5 0.250000 0.355970 0.278125
O O6 0.073074 0.500000 0.260507
O O7 0.986931 0.356198 0.321420
O O8 0.019397 0.344903 0.212150
O O9 0.750000 0.363645 0.382852
O O10 0.947630 0.500000 0.390382
O O11 0.009057 0.338090 0.430632
O O12 0.750000 0.315843 0.178581
O O13 0.552015 0.177592 0.175757
O O14 0.250000 0.101298 0.756894
O O15 0.502563 0.143794 0.717563
O O16 0.476035 0.000000 0.790136
O O17 0.500000 0.196086 0.500000
O O18 0.750000 0.240522 0.549066
O O19 0.525621 0.166672 0.606954
O O20 0.250000 0.882518 0.330167
O O21 0.469151 0.000000 0.351233
#
# Coordination Sequence:
#
# PCOD8208524 Si02
#       7
#     8   8   8   8   8   8   8
#     4   9  18  32  49  70  98 133 172 211 250 293
#     4  10  20  32  48  74 105 132 160 199 248 300
#     4  10  21  37  55  73  97 131 167 204 248 297
#     4  10  19  31  50  74 101 134 170 208 249 294
#     4   9  18  32  51  76 102 128 161 201 246 296
#     4  11  23  37  54  75  99 128 164 206 249 296
#     4   9  19  36  55  75 101 131 161 197 246 300
#
# _framework density 18.246269999999999
#
# number of rings (size 3 to 8) (size 9 to 14) (size 15 to 20)
#    0.000    2.286    0.000    2.571    0.000    7.429 
#    0.000    1.429    0.000    0.429    0.000    0.000 
#    0.000    0.000    0.000    0.000    0.000    0.000 
#
# Total GULP energy -694481.200092 kJ/mol
# GULP energy per Si atom -12401.450002 kJ/mol
# Density = 1.820474 g / cm^3
# Si number density = 18.246270 Si / 1000 Ang^3
#
#
#
# Elastic Constant Matrix: (Units=GPa)
#
#
# Indices 1 2 3 4 5 6 
#
# 1 60.3054 38.7583 38.0882 0.0000 0.0000 0.0000
# 2 38.7583 73.0528 72.4062 0.0000 0.0000 0.0000
# 3 38.0882 72.4062 122.6248 0.0000 0.0000 0.0000
# 4 0.0000 0.0000 0.0000 27.2869 0.0000 0.0000
# 5 0.0000 0.0000 0.0000 0.0000 33.2740 0.0000
# 6 0.0000 0.0000 0.0000 0.0000 0.0000 21.7084
#
#
#
# Elastic Compliance Matrix: (Units=1/GPa)
#
#
# Indices 1 2 3 4 5 6 
#
# 1 0.025164 -0.013511 0.000162 0.000000 0.000000 0.000000
# 2 -0.013511 0.040258 -0.019575 0.000000 0.000000 0.000000
# 3 0.000162 -0.019575 0.019663 0.000000 0.000000 0.000000
# 4 0.000000 0.000000 0.000000 0.036648 0.000000 0.000000
# 5 0.000000 0.000000 0.000000 0.000000 0.030053 0.000000
# 6 0.000000 0.000000 0.000000 0.000000 0.000000 0.046065
#
#
# Mechanical properties :
#
#
# Convention : Reuss Voigt Hill
#
# Bulk Modulus (GPa) = 51.98262 61.60982 56.79622
# Shear Modulus (GPa) = 18.51087 23.56922 21.04005
#
# Velocity S-wave (km/s) = 3.18858 3.59796 3.39944
# Velocity P-wave (km/s) = 6.48902 7.14839 6.82667
#
# Compressibility (1/GPa) = 0.01923720
#
# Stress axis : x y z
#
# Youngs Moduli (GPa) = 39.74005 24.83948 50.85682
#
# Poissons Ratio (x) = 0.33560 -0.00823
# Poissons Ratio (y) = 0.53692 0.99551
# Poissons Ratio (z) = -0.00643 0.48623
#
# Static dielectric constant tensor:
#      x y z
#    x 3.392680 0.000000 0.000000 
#    y 0.000000 3.554800 0.000000 
#    z 0.000000 0.000000 3.310010 
# 
# 
# High freq. dielectric constant tensor:
#      x y z
#    x 1.709780 0.000000 0.000000 
#    y 0.000000 1.708600 0.000000 
#    z 0.000000 0.000000 1.692310 
# 
# From -- ./inp_files/31908.got.cif
#   From: 2010.03.12/outbox.cif.g09.slc.cpg/sg51_16_cif.got.tgz:31908.got - 2010.04.16 13:43:02.
