data_PCOD8208165
_publ_section_title
;
Structure prediction by ZEFSAII (Michael W. Deem and Ramdas Pophale) SiO2 
 PCOD8208165
Probable space group: P M M A
;
_chemical_formula_sum "Si O2"
_cell_formula_units_Z 52
_cell_length_a 11.014217
_cell_length_b 7.979546
_cell_length_c 29.072508
_cell_angle_alpha 90.000000
_cell_angle_beta 90.000000
_cell_angle_gamma 90.000000
_cell_volume 2555.137701
_symmetry_space_group_name_H-M "P M M A"
_symmetry_group_IT_number 51
_symmetry_cell_setting 'orthorhombic'
loop_
_space_group_symop_operation_xyz
x,y,z
1/2-x,-y,z
1/2+x,-y,-z
-x,y,-z
-x,-y,-z
1/2+x,y,-z
1/2-x,y,z
x,-y,z
loop_
_atom_site_type_symbol
_atom_site_label
_atom_site_fract_x
_atom_site_fract_y
_atom_site_fract_z
Si Si1 0.750000 0.813746 0.255560
Si Si2 0.250000 0.800927 0.846151
Si Si3 0.888069 0.199705 0.968395
Si Si4 0.608584 0.000000 0.536629
Si Si5 0.610000 0.185889 0.779946
Si Si6 0.006749 0.800818 0.126282
Si Si7 0.610712 0.307213 0.604254
Si Si8 0.481975 0.310988 0.696227
O O1 0.750000 0.717925 0.205896
O O2 0.864850 0.787479 0.287744
O O3 0.750000 0.000000 0.238250
O O4 0.366420 0.742384 0.875688
O O5 0.250000 0.000000 0.842793
O O6 0.750000 0.261261 0.982148
O O7 0.918303 0.268599 0.917231
O O8 0.889282 0.000000 0.970043
O O9 0.000000 0.267644 0.000000
O O10 0.500000 0.000000 0.500000
O O11 0.587222 0.172331 0.564416
O O12 0.750000 0.000000 0.517748
O O13 0.750000 0.169221 0.788083
O O14 0.556719 0.272422 0.825688
O O15 0.584618 0.297461 0.735289
O O16 0.552407 0.000000 0.772485
O O17 0.020430 0.000000 0.126801
O O18 0.750000 0.301815 0.619933
O O19 0.577619 0.500000 0.589003
O O20 0.532085 0.244368 0.647655
O O21 0.441813 0.500000 0.689517
#
# Coordination Sequence:
#
# PCOD8208165 Si02
#       8
#     4   4   8   4   8   8   8   8
#     4  11  21  35  53  77 109 149 191 231 273 331
#     4   9  16  27  45  65  89 129 175 217 265 319
#     4   9  17  26  37  56  85 121 162 213 276 342
#     4  10  22  42  68  96 126 160 208 256 307 362
#     4  10  19  30  49  74 100 137 183 228 271 327
#     4   9  16  27  42  61  89 124 171 221 269 327
#     4   9  20  39  62  88 121 160 199 245 298 353
#     4  11  22  36  53  79 115 150 186 230 284 341
#
# _framework density 20.351154000000001
#
# number of rings (size 3 to 8) (size 9 to 14) (size 15 to 20)
#    0.000    2.308    1.538    1.615    3.231    3.077 
#    1.385    0.000    0.000    0.000    0.000    0.000 
#    0.000    0.615    0.000    1.385    0.000    2.308 
#
# Total GULP energy -644194.829597 kJ/mol
# GULP energy per Si atom -12388.362108 kJ/mol
# Density = 2.030483 g / cm^3
# Si number density = 20.351154 Si / 1000 Ang^3
#
#
#
# Elastic Constant Matrix: (Units=GPa)
#
#
# Indices 1 2 3 4 5 6 
#
# 1 148.0564 20.1572 67.1931 0.0000 0.0000 0.0000
# 2 20.1572 44.1191 27.2622 0.0000 0.0000 0.0000
# 3 67.1931 27.2622 114.5903 0.0000 0.0000 0.0000
# 4 0.0000 0.0000 0.0000 -4.7309 0.0000 0.0000
# 5 0.0000 0.0000 0.0000 0.0000 76.5114 0.0000
# 6 0.0000 0.0000 0.0000 0.0000 0.0000 12.8774
#
#
#
# Elastic Compliance Matrix: (Units=1/GPa)
#
#
# Indices 1 2 3 4 5 6 
#
# 1 0.009243 -0.001024 -0.005176 0.000000 0.000000 0.000000
# 2 -0.001024 0.026686 -0.005748 0.000000 0.000000 0.000000
# 3 -0.005176 -0.005748 0.013129 0.000000 0.000000 0.000000
# 4 0.000000 0.000000 0.000000 -0.211374 0.000000 0.000000
# 5 0.000000 0.000000 0.000000 0.000000 0.013070 0.000000
# 6 0.000000 0.000000 0.000000 0.000000 0.000000 0.077655
#
#
# Mechanical properties :
#
#
# Convention : Reuss Voigt Hill
#
# Bulk Modulus (GPa) = 39.74435 59.55453 49.64944
# Shear Modulus (GPa) = -127.20385 29.74180 -48.73102
#
# Velocity S-wave (km/s) = -7.91456 3.82701 -4.89868
# Velocity P-wave (km/s) = 7.99678 6.98964 2.74714
#
# Compressibility (1/GPa) = 0.02516081
#
# Stress axis : x y z
#
# Youngs Moduli (GPa) = 108.19354 37.47300 76.16519
#
# Poissons Ratio (x) = 0.03839 0.39423
# Poissons Ratio (y) = 0.11084 0.43781
# Poissons Ratio (z) = 0.56001 0.21540
#
# Static dielectric constant tensor:
#      x y z
#    x 3.925140 0.000000 0.000000 
#    y 0.000000 3.431990 0.000000 
#    z 0.000000 0.000000 3.636590 
# 
# 
# High freq. dielectric constant tensor:
#      x y z
#    x 1.806990 0.000000 0.000000 
#    y 0.000000 1.757890 0.000000 
#    z 0.000000 0.000000 1.780680 
# 
# From -- ./inp_files/36603.got.cif
#   From: 2010.03.12/outbox.cif.g09.slc.cpg/sg51_19_cif.got.tgz:36603.got - 2010.04.16 13:43:02.
