data_PCOD8208141
_publ_section_title
;
Structure prediction by ZEFSAII (Michael W. Deem and Ramdas Pophale) SiO2 
 PCOD8208141
Probable space group: P M M A
;
_chemical_formula_sum "Si O2"
_cell_formula_units_Z 56
_cell_length_a 20.529326
_cell_length_b 16.629968
_cell_length_c 9.305518
_cell_angle_alpha 90.000000
_cell_angle_beta 90.000000
_cell_angle_gamma 90.000000
_cell_volume 3176.922777
_symmetry_space_group_name_H-M "P M M A"
_symmetry_group_IT_number 51
_symmetry_cell_setting 'orthorhombic'
loop_
_space_group_symop_operation_xyz
x,y,z
1/2-x,-y,z
1/2+x,-y,-z
-x,y,-z
-x,-y,-z
1/2+x,y,-z
1/2-x,y,z
x,-y,z
loop_
_atom_site_type_symbol
_atom_site_label
_atom_site_fract_x
_atom_site_fract_y
_atom_site_fract_z
Si Si1 0.504874 0.209686 0.663192
Si Si2 0.119829 0.709985 0.783155
Si Si3 0.823639 0.797363 0.960620
Si Si4 0.618085 0.673906 0.738968
Si Si5 0.425539 0.416349 0.999402
Si Si6 0.441783 0.093272 0.109488
Si Si7 0.326293 0.408273 0.540561
O O1 0.500000 0.182795 0.500000
O O2 0.431614 0.228831 0.714089
O O3 0.551439 0.286574 0.681473
O O4 0.536632 0.134225 0.743005
O O5 0.150374 0.649407 0.668602
O O6 0.172607 0.758380 0.878937
O O7 0.081442 0.658701 0.898253
O O8 0.750000 0.829656 0.941426
O O9 0.837717 0.735874 0.829932
O O10 0.874757 0.870391 0.952025
O O11 0.599737 0.600559 0.841003
O O12 0.657071 0.636187 0.607173
O O13 0.390195 0.500000 0.948730
O O14 0.500000 0.435839 0.000000
O O15 0.429870 0.000000 0.138377
O O16 0.500000 0.110060 0.000000
O O17 0.250000 0.415930 0.553562
O O18 0.355928 0.500000 0.549201
#
# Coordination Sequence:
#
# PCOD8208141 Si02
#       7
#     8   8   8   8   8   8   8
#     4  11  20  35  57  84 110 147 175 226 280 335
#     4  11  20  35  53  79 109 143 189 232 273 336
#     4  10  21  36  60  85 111 148 186 226 275 333
#     4  10  20  34  54  77 109 140 193 231 279 328
#     4  10  19  30  48  74 106 140 179 235 292 328
#     4  10  21  38  62  90 116 141 177 224 274 332
#     4  11  23  37  51  72 108 152 194 238 286 332
#
# _framework density 17.627120000000001
#
# number of rings (size 3 to 8) (size 9 to 14) (size 15 to 20)
#    0.000    1.571    4.286    1.714    0.000    0.571 
#    0.000    0.714    0.000    6.857    0.000    0.000 
#    0.000    0.000    0.000    0.000    0.000    0.000 
#
# Total GULP energy -694019.273355 kJ/mol
# GULP energy per Si atom -12393.201310 kJ/mol
# Density = 1.758700 g / cm^3
# Si number density = 17.627120 Si / 1000 Ang^3
#
#
#
# Elastic Constant Matrix: (Units=GPa)
#
#
# Indices 1 2 3 4 5 6 
#
# 1 3.3264 -13.3401 61.4982 0.0000 0.0000 0.0000
# 2 -13.3401 71.4524 58.9536 0.0000 0.0000 0.0000
# 3 61.4982 58.9536 109.1631 0.0000 0.0000 0.0000
# 4 0.0000 0.0000 0.0000 -2.2820 0.0000 0.0000
# 5 0.0000 0.0000 0.0000 0.0000 22.1999 0.0000
# 6 0.0000 0.0000 0.0000 0.0000 0.0000 21.4524
#
#
#
# Elastic Compliance Matrix: (Units=1/GPa)
#
#
# Indices 1 2 3 4 5 6 
#
# 1 -0.011625 -0.013660 0.013926 0.000000 0.000000 0.000000
# 2 -0.013660 0.009190 0.002732 0.000000 0.000000 0.000000
# 3 0.013926 0.002732 -0.000161 0.000000 0.000000 0.000000
# 4 0.000000 0.000000 0.000000 -0.438207 0.000000 0.000000
# 5 0.000000 0.000000 0.000000 0.000000 0.045045 0.000000
# 6 0.000000 0.000000 0.000000 0.000000 0.000000 0.046615
#
#
# Mechanical properties :
#
#
# Convention : Reuss Voigt Hill
#
# Bulk Modulus (GPa) = 293.97235 44.24057 169.10646
# Shear Modulus (GPa) = -14.12413 13.39607 -0.36403
#
# Velocity S-wave (km/s) = -2.83375 2.75975 -0.45493
# Velocity P-wave (km/s) = 12.50712 5.94200 9.79121
#
# Compressibility (1/GPa) = 0.00340168
#
# Stress axis : x y z
#
# Youngs Moduli (GPa) = -86.02425 108.80886 -6229.00634
#
# Poissons Ratio (x) = 1.48638 86.74636
# Poissons Ratio (y) = -1.17513 17.02059
# Poissons Ratio (z) = 1.19799 -0.29732
#
# Static dielectric constant tensor:
#      x y z
#    x 3.169770 0.000000 0.000000 
#    y 0.000000 4.081740 0.000000 
#    z 0.000000 0.000000 3.428180 
# 
# 
# High freq. dielectric constant tensor:
#      x y z
#    x 1.676550 0.000000 0.000000 
#    y 0.000000 1.676270 0.000000 
#    z 0.000000 0.000000 1.689840 
# 
# From -- ./inp_files/11128.got.cif
#   From: 2010.03.12/outbox.cif.g09.slc.cpg/sg51_6_cif.got.tgz:11128.got - 2010.04.16 13:43:02.
