data_PCOD8208653
_publ_section_title
;
Structure prediction by ZEFSAII (Michael W. Deem and Ramdas Pophale) SiO2 
 PCOD8208653
Probable space group: P M M A
;
_chemical_formula_sum "Si O2"
_cell_formula_units_Z 48
_cell_length_a 29.445962
_cell_length_b 8.867925
_cell_length_c 9.862942
_cell_angle_alpha 90.000000
_cell_angle_beta 90.000000
_cell_angle_gamma 90.000000
_cell_volume 2575.456613
_symmetry_space_group_name_H-M "P M M A"
_symmetry_group_IT_number 51
_symmetry_cell_setting 'orthorhombic'
loop_
_space_group_symop_operation_xyz
x,y,z
1/2-x,-y,z
1/2+x,-y,-z
-x,y,-z
-x,-y,-z
1/2+x,y,-z
1/2-x,y,z
x,-y,z
loop_
_atom_site_type_symbol
_atom_site_label
_atom_site_fract_x
_atom_site_fract_y
_atom_site_fract_z
Si Si1 0.699020 0.179513 0.524886
Si Si2 0.966717 0.324689 0.120343
Si Si3 0.699623 0.179279 0.221479
Si Si4 0.519952 0.827698 0.648424
Si Si5 0.377104 0.820954 0.975623
Si Si6 0.120641 0.821443 0.281215
O O1 0.750000 0.233398 0.565746
O O2 0.687013 0.236503 0.372934
O O3 0.661715 0.247582 0.628649
O O4 0.697280 0.000000 0.528185
O O5 0.954600 0.500000 0.118672
O O6 0.921405 0.229568 0.104206
O O7 0.990270 0.282151 0.260376
O O8 0.000000 0.278472 0.000000
O O9 0.750000 0.235439 0.182585
O O10 0.665409 0.244899 0.109089
O O11 0.697709 0.000000 0.220908
O O12 0.500000 0.811707 0.500000
O O13 0.572499 0.774970 0.652667
O O14 0.516099 0.000000 0.701021
O O15 0.376238 0.000000 0.979811
O O16 0.375924 0.755290 0.128575
O O17 0.125604 0.000000 0.277221
#
# Coordination Sequence:
#
# PCOD8208653 Si02
#       6
#     8   8   8   8   8   8
#     4   8  14  25  41  65 101 136 161 196 251 309
#     4  11  23  38  54  73 104 142 177 214 260 313
#     4   8  15  27  45  73 105 133 163 204 256 308
#     4  10  21  35  54  79 105 134 172 219 264 311
#     4  10  19  31  52  77 103 133 170 216 257 304
#     4   9  17  28  43  70 101 130 166 205 251 303
#
# _framework density 18.63747
#
# number of rings (size 3 to 8) (size 9 to 14) (size 15 to 20)
#    0.000    2.667    1.667    1.500    2.333    1.667 
#    0.000    3.333    0.000    0.500    0.000    0.000 
#    0.000    0.667    0.000    0.000    0.000    0.000 
#
# Total GULP energy -595057.007853 kJ/mol
# GULP energy per Si atom -12397.020997 kJ/mol
# Density = 1.859505 g / cm^3
# Si number density = 18.637470 Si / 1000 Ang^3
#
#
#
# Elastic Constant Matrix: (Units=GPa)
#
#
# Indices 1 2 3 4 5 6 
#
# 1 164.3377 10.6517 91.1512 0.0000 0.0000 0.0000
# 2 10.6517 7.2769 12.6235 0.0000 0.0000 0.0000
# 3 91.1512 12.6235 119.9240 0.0000 0.0000 0.0000
# 4 0.0000 0.0000 0.0000 7.4244 0.0000 0.0000
# 5 0.0000 0.0000 0.0000 0.0000 43.7381 0.0000
# 6 0.0000 0.0000 0.0000 0.0000 0.0000 31.6967
#
#
#
# Elastic Compliance Matrix: (Units=1/GPa)
#
#
# Indices 1 2 3 4 5 6 
#
# 1 0.010541 -0.001873 -0.007815 0.000000 0.000000 0.000000
# 2 -0.001873 0.168452 -0.016308 0.000000 0.000000 0.000000
# 3 -0.007815 -0.016308 0.015995 0.000000 0.000000 0.000000
# 4 0.000000 0.000000 0.000000 0.134690 0.000000 0.000000
# 5 0.000000 0.000000 0.000000 0.000000 0.022863 0.000000
# 6 0.000000 0.000000 0.000000 0.000000 0.000000 0.031549
#
#
# Mechanical properties :
#
#
# Convention : Reuss Voigt Hill
#
# Bulk Modulus (GPa) = 6.99319 57.82127 32.40723
# Shear Modulus (GPa) = 10.33597 28.37932 19.35764
#
# Velocity S-wave (km/s) = 2.35751 3.90642 3.22629
# Velocity P-wave (km/s) = 3.34228 7.17205 5.59505
#
# Compressibility (1/GPa) = 0.14299630
#
# Stress axis : x y z
#
# Youngs Moduli (GPa) = 94.86808 5.93641 62.51936
#
# Poissons Ratio (x) = 0.01112 0.48857
# Poissons Ratio (y) = 0.17769 1.01957
# Poissons Ratio (z) = 0.74137 0.09681
#
# Static dielectric constant tensor:
#      x y z
#    x 3.725260 0.000000 0.000000 
#    y 0.000000 2.814640 0.000000 
#    z 0.000000 0.000000 3.665080 
# 
# 
# High freq. dielectric constant tensor:
#      x y z
#    x 1.737300 0.000000 0.000000 
#    y 0.000000 1.659070 0.000000 
#    z 0.000000 0.000000 1.731720 
# 
# From -- ./inp_files/12292.got.cif
#   From: 2010.03.12/outbox.cif.g09.slc.cpg/sg51_7_cif.got.tgz:12292.got - 2010.04.16 13:43:02.
