data_PCOD8208329
_publ_section_title
;
Structure prediction by ZEFSAII (Michael W. Deem and Ramdas Pophale) SiO2 
 PCOD8208329
Probable space group: P M M A
;
_chemical_formula_sum "Si O2"
_cell_formula_units_Z 56
_cell_length_a 9.050015
_cell_length_b 24.929727
_cell_length_c 15.411366
_cell_angle_alpha 90.000000
_cell_angle_beta 90.000000
_cell_angle_gamma 90.000000
_cell_volume 3477.026144
_symmetry_space_group_name_H-M "P M M A"
_symmetry_group_IT_number 51
_symmetry_cell_setting 'orthorhombic'
loop_
_space_group_symop_operation_xyz
x,y,z
1/2-x,-y,z
1/2+x,-y,-z
-x,y,-z
-x,-y,-z
1/2+x,y,-z
1/2-x,y,z
x,-y,z
loop_
_atom_site_type_symbol
_atom_site_label
_atom_site_fract_x
_atom_site_fract_y
_atom_site_fract_z
Si Si1 0.576001 0.826961 0.907516
Si Si2 0.576644 0.625436 0.758612
Si Si3 0.915826 0.752223 0.416016
Si Si4 0.582806 0.624574 0.415503
Si Si5 0.578981 0.562842 0.088353
Si Si6 0.921873 0.943438 0.909075
Si Si7 0.077767 0.750128 0.243509
O O1 0.750000 0.820428 0.922151
O O2 0.535570 0.886063 0.866069
O O3 0.518032 0.783017 0.839281
O O4 0.500000 0.817111 0.000000
O O5 0.750000 0.613079 0.756793
O O6 0.506250 0.605052 0.668734
O O7 0.500071 0.593404 0.834712
O O8 0.543683 0.687998 0.773676
O O9 0.750000 0.774961 0.416724
O O10 0.915945 0.688366 0.419815
O O11 0.000000 0.775622 0.500000
O O12 0.995393 0.771910 0.328697
O O13 0.500000 0.601126 0.500000
O O14 0.750000 0.602139 0.412216
O O15 0.750000 0.579565 0.083294
O O16 0.559920 0.500000 0.104942
O O17 0.500000 0.580599 0.000000
O O18 0.750000 0.942414 0.928636
O O19 0.961568 0.000000 0.857830
O O20 0.000000 0.945642 0.000000
O O21 0.250000 0.760238 0.259342
#
# Coordination Sequence:
#
# PCOD8208329 Si02
#       7
#     8   8   8   8   8   8   8
#     4   9  17  28  40  56  83 117 148 179 214 251
#     4  10  19  31  48  69  92 118 147 178 214 258
#     4   9  16  26  42  62  84 112 144 179 215 252
#     4   9  16  27  44  67  93 119 147 177 211 253
#     4  10  21  37  55  72  89 111 143 184 225 261
#     4   8  13  22  37  55  74 101 140 181 216 249
#     4   9  18  30  42  61  90 120 147 175 210 255
#
# _framework density 16.105718
#
# number of rings (size 3 to 8) (size 9 to 14) (size 15 to 20)
#    0.000    2.857    0.000    1.714    0.000    6.000 
#    0.000    1.429    0.000    0.429    0.000    0.000 
#    0.000    0.571    0.000    1.000    0.000    1.714 
#
# Total GULP energy -693938.002480 kJ/mol
# GULP energy per Si atom -12391.750044 kJ/mol
# Density = 1.606906 g / cm^3
# Si number density = 16.105718 Si / 1000 Ang^3
#
#
#
# Elastic Constant Matrix: (Units=GPa)
#
#
# Indices 1 2 3 4 5 6 
#
# 1 97.9315 36.7985 69.7077 0.0000 0.0000 0.0000
# 2 36.7985 44.4536 53.1520 0.0000 0.0000 0.0000
# 3 69.7077 53.1520 145.1812 0.0000 0.0000 0.0000
# 4 0.0000 0.0000 0.0000 -2.8980 0.0000 0.0000
# 5 0.0000 0.0000 0.0000 0.0000 32.5909 0.0000
# 6 0.0000 0.0000 0.0000 0.0000 0.0000 14.3082
#
#
#
# Elastic Compliance Matrix: (Units=1/GPa)
#
#
# Indices 1 2 3 4 5 6 
#
# 1 0.016843 -0.007600 -0.005305 0.000000 0.000000 0.000000
# 2 -0.007600 0.043438 -0.012254 0.000000 0.000000 0.000000
# 3 -0.005305 -0.012254 0.013921 0.000000 0.000000 0.000000
# 4 0.000000 0.000000 0.000000 -0.345070 0.000000 0.000000
# 5 0.000000 0.000000 0.000000 0.000000 0.030683 0.000000
# 6 0.000000 0.000000 0.000000 0.000000 0.000000 0.069890
#
#
# Mechanical properties :
#
#
# Convention : Reuss Voigt Hill
#
# Bulk Modulus (GPa) = 41.86667 67.43141 54.64904
# Shear Modulus (GPa) = -44.63660 17.32745 -13.65458
#
# Velocity S-wave (km/s) = -5.27019 3.28358 -2.91488
# Velocity P-wave (km/s) = 3.31389 7.50565 4.76198
#
# Compressibility (1/GPa) = 0.02388535
#
# Stress axis : x y z
#
# Youngs Moduli (GPa) = 59.37294 23.02108 71.83261
#
# Poissons Ratio (x) = 0.17495 0.38104
# Poissons Ratio (y) = 0.45122 0.88025
# Poissons Ratio (z) = 0.31495 0.28210
#
# Static dielectric constant tensor:
#      x y z
#    x 3.169550 0.000000 0.000000 
#    y 0.000000 3.176690 0.000000 
#    z 0.000000 0.000000 3.002820 
# 
# 
# High freq. dielectric constant tensor:
#      x y z
#    x 1.632300 0.000000 0.000000 
#    y 0.000000 1.589470 0.000000 
#    z 0.000000 0.000000 1.606130 
# 
# From -- ./inp_files/21853.got.cif
#   From: 2010.03.12/outbox.cif.g09.slc.cpg/sg51_11_cif.got.tgz:21853.got - 2010.04.16 13:43:02.
