data_PCOD8208775
_publ_section_title
;
Structure prediction by ZEFSAII (Michael W. Deem and Ramdas Pophale) SiO2 
 PCOD8208775
Probable space group: P M M A
;
_chemical_formula_sum "Si O2"
_cell_formula_units_Z 64
_cell_length_a 23.883707
_cell_length_b 9.323771
_cell_length_c 16.167105
_cell_angle_alpha 90.000000
_cell_angle_beta 90.000000
_cell_angle_gamma 90.000000
_cell_volume 3600.191415
_symmetry_space_group_name_H-M "P M M A"
_symmetry_group_IT_number 51
_symmetry_cell_setting 'orthorhombic'
loop_
_space_group_symop_operation_xyz
x,y,z
1/2-x,-y,z
1/2+x,-y,-z
-x,y,-z
-x,-y,-z
1/2+x,y,-z
1/2-x,y,z
x,-y,z
loop_
_atom_site_type_symbol
_atom_site_label
_atom_site_fract_x
_atom_site_fract_y
_atom_site_fract_z
Si Si1 0.186443 0.830094 0.472028
Si Si2 0.390397 0.836715 0.619822
Si Si3 0.969817 0.664702 0.273875
Si Si4 0.186273 0.160422 0.776320
Si Si5 0.916172 0.665436 0.805740
Si Si6 0.563081 0.833781 0.971716
Si Si7 0.313528 0.665126 0.306873
Si Si8 0.892559 0.331843 0.122122
O O1 0.250000 0.785081 0.497687
O O2 0.140386 0.774823 0.538195
O O3 0.170182 0.760734 0.385049
O O4 0.182793 0.000000 0.463446
O O5 0.446192 0.750479 0.646649
O O6 0.344929 0.821008 0.690619
O O7 0.409200 0.000000 0.605745
O O8 0.955595 0.500000 0.291076
O O9 0.940858 0.712884 0.187481
O O10 0.036048 0.692618 0.263881
O O11 0.250000 0.190877 0.756124
O O12 0.166423 0.278465 0.841950
O O13 0.176495 0.000000 0.812084
O O14 0.919308 0.500000 0.835716
O O15 0.926829 0.769872 0.881632
O O16 0.855771 0.702836 0.767424
O O17 0.580066 0.000000 0.970794
O O18 0.500000 0.810744 0.000000
O O19 0.601094 0.748715 0.035891
O O20 0.250000 0.697305 0.276854
O O21 0.320385 0.500000 0.333185
O O22 0.891532 0.500000 0.104936
#
# Coordination Sequence:
#
# PCOD8208775 Si02
#       8
#     8   8   8   8   8   8   8   8
#     4   9  17  31  52  76 102 134 173 214 256 303
#     4   9  17  29  48  74 103 135 172 211 253 299
#     4   9  18  31  48  72 101 134 168 204 252 306
#     4   9  17  30  48  70 101 138 172 209 253 300
#     4  10  20  36  56  76 102 135 169 209 261 314
#     4  11  22  34  53  80 104 127 166 213 254 303
#     4   9  19  36  57  79 101 129 169 215 259 302
#     4  10  19  32  50  72 101 134 169 209 250 301
#
# _framework density 17.776831999999999
#
# number of rings (size 3 to 8) (size 9 to 14) (size 15 to 20)
#    0.000    2.500    1.250    1.125    0.000    4.250 
#    0.000    1.250    0.000    8.250    0.000    0.000 
#    0.000    0.000    0.000    0.000    0.000    0.000 
#
# Total GULP energy -793510.352993 kJ/mol
# GULP energy per Si atom -12398.599266 kJ/mol
# Density = 1.773637 g / cm^3
# Si number density = 17.776832 Si / 1000 Ang^3
#
#
#
# Elastic Constant Matrix: (Units=GPa)
#
#
# Indices 1 2 3 4 5 6 
#
# 1 86.4698 37.2202 41.2106 0.0000 0.0000 0.0000
# 2 37.2202 66.9422 48.7884 0.0000 0.0000 0.0000
# 3 41.2106 48.7884 84.2359 0.0000 0.0000 0.0000
# 4 0.0000 0.0000 0.0000 31.7442 0.0000 0.0000
# 5 0.0000 0.0000 0.0000 0.0000 27.2741 0.0000
# 6 0.0000 0.0000 0.0000 0.0000 0.0000 24.0340
#
#
#
# Elastic Compliance Matrix: (Units=1/GPa)
#
#
# Indices 1 2 3 4 5 6 
#
# 1 0.016207 -0.005594 -0.004689 0.000000 0.000000 0.000000
# 2 -0.005594 0.027781 -0.013354 0.000000 0.000000 0.000000
# 3 -0.004689 -0.013354 0.021900 0.000000 0.000000 0.000000
# 4 0.000000 0.000000 0.000000 0.031502 0.000000 0.000000
# 5 0.000000 0.000000 0.000000 0.000000 0.036665 0.000000
# 6 0.000000 0.000000 0.000000 0.000000 0.000000 0.041608
#
#
# Mechanical properties :
#
#
# Convention : Reuss Voigt Hill
#
# Bulk Modulus (GPa) = 53.72133 54.67624 54.19878
# Shear Modulus (GPa) = 21.82069 23.97238 22.89654
#
# Velocity S-wave (km/s) = 3.50734 3.67620 3.59276
# Velocity P-wave (km/s) = 6.83282 6.98878 6.91124
#
# Compressibility (1/GPa) = 0.01861458
#
# Stress axis : x y z
#
# Youngs Moduli (GPa) = 61.70030 35.99622 45.66262
#
# Poissons Ratio (x) = 0.20136 0.21412
# Poissons Ratio (y) = 0.34514 0.60976
# Poissons Ratio (z) = 0.28933 0.48068
#
# Static dielectric constant tensor:
#      x y z
#    x 3.355280 0.000000 0.000000 
#    y 0.000000 3.339540 0.000000 
#    z 0.000000 0.000000 3.167750 
# 
# 
# High freq. dielectric constant tensor:
#      x y z
#    x 1.681990 0.000000 0.000000 
#    y 0.000000 1.687180 0.000000 
#    z 0.000000 0.000000 1.672850 
# 
# From -- ./inp_files/26266.got.cif
#   From: 2010.03.12/outbox.cif.g09.slc.cpg/sg51_14_cif.got.tgz:26266.got - 2010.04.16 13:43:02.
