data_PCOD8208542
_publ_section_title
;
Structure prediction by ZEFSAII (Michael W. Deem and Ramdas Pophale) SiO2 
 PCOD8208542
Probable space group: P M M A
;
_chemical_formula_sum "Si O2"
_cell_formula_units_Z 40
_cell_length_a 8.873431
_cell_length_b 25.217423
_cell_length_c 9.968210
_cell_angle_alpha 90.000000
_cell_angle_beta 90.000000
_cell_angle_gamma 90.000000
_cell_volume 2230.537139
_symmetry_space_group_name_H-M "P M M A"
_symmetry_group_IT_number 51
_symmetry_cell_setting 'orthorhombic'
loop_
_space_group_symop_operation_xyz
x,y,z
1/2-x,-y,z
1/2+x,-y,-z
-x,y,-z
-x,-y,-z
1/2+x,y,-z
1/2-x,y,z
x,-y,z
loop_
_atom_site_type_symbol
_atom_site_label
_atom_site_fract_x
_atom_site_fract_y
_atom_site_fract_z
Si Si1 0.574474 0.134740 0.855117
Si Si2 0.071390 0.355068 0.853620
Si Si3 0.924889 0.061862 0.362235
Si Si4 0.427260 0.560050 0.637543
Si Si5 0.925141 0.748368 0.856433
O O1 0.750000 0.121741 0.871027
O O2 0.499051 0.092109 0.760243
O O3 0.551812 0.193668 0.789510
O O4 0.500000 0.130273 0.000000
O O5 0.250000 0.352097 0.866833
O O6 0.018444 0.403560 0.760467
O O7 0.009626 0.300633 0.783249
O O8 0.000000 0.363468 0.000000
O O9 0.750000 0.075823 0.369663
O O10 0.000000 0.081074 0.500000
O O11 0.954197 0.000000 0.338160
O O12 0.500000 0.580895 0.500000
O O13 0.250000 0.563612 0.619056
O O14 0.480007 0.500000 0.668724
O O15 0.750000 0.734141 0.870077
O O16 0.000000 0.752551 0.000000
#
# Coordination Sequence:
#
# PCOD8208542 Si02
#       5
#     8   8   8   8   8
#     4  10  20  34  54  79 105 135 171 211 253 299
#     4  10  19  31  50  75 101 130 164 203 246 293
#     4  10  21  37  56  77 103 136 171 209 255 304
#     4   9  19  35  52  71  97 129 165 204 247 295
#     4   9  17  30  49  73 101 132 165 202 247 295
#
# _framework density 17.9329
#
# number of rings (size 3 to 8) (size 9 to 14) (size 15 to 20)
#    0.000    2.400    0.000    3.600    0.000    6.000 
#    0.000    1.000    0.000    2.400    0.000    0.000 
#    0.000    0.000    0.000    0.000    0.000    0.000 
#
# Total GULP energy -495819.406200 kJ/mol
# GULP energy per Si atom -12395.485155 kJ/mol
# Density = 1.789208 g / cm^3
# Si number density = 17.932900 Si / 1000 Ang^3
#
#
#
# Elastic Constant Matrix: (Units=GPa)
#
#
# Indices 1 2 3 4 5 6 
#
# 1 105.0652 61.9247 53.7930 0.0000 0.0000 0.0000
# 2 61.9247 101.8467 69.2688 0.0000 0.0000 0.0000
# 3 53.7930 69.2688 101.0713 0.0000 0.0000 0.0000
# 4 0.0000 0.0000 0.0000 4.0429 0.0000 0.0000
# 5 0.0000 0.0000 0.0000 0.0000 30.3454 0.0000
# 6 0.0000 0.0000 0.0000 0.0000 0.0000 22.1781
#
#
#
# Elastic Compliance Matrix: (Units=1/GPa)
#
#
# Indices 1 2 3 4 5 6 
#
# 1 0.015411 -0.007102 -0.003335 0.000000 0.000000 0.000000
# 2 -0.007102 0.021664 -0.011068 0.000000 0.000000 0.000000
# 3 -0.003335 -0.011068 0.019254 0.000000 0.000000 0.000000
# 4 0.000000 0.000000 0.000000 0.247349 0.000000 0.000000
# 5 0.000000 0.000000 0.000000 0.000000 0.032954 0.000000
# 6 0.000000 0.000000 0.000000 0.000000 0.000000 0.045089
#
#
# Mechanical properties :
#
#
# Convention : Reuss Voigt Hill
#
# Bulk Modulus (GPa) = 75.07292 75.32846 75.20069
# Shear Modulus (GPa) = 11.65035 19.51306 15.58171
#
# Velocity S-wave (km/s) = 2.55161 3.30224 2.95089
# Velocity P-wave (km/s) = 7.11583 7.52573 7.32365
#
# Compressibility (1/GPa) = 0.01332038
#
# Stress axis : x y z
#
# Youngs Moduli (GPa) = 64.88724 46.15881 51.93728
#
# Poissons Ratio (x) = 0.32783 0.17320
# Poissons Ratio (y) = 0.46085 0.57482
# Poissons Ratio (z) = 0.21639 0.51086
#
# Static dielectric constant tensor:
#      x y z
#    x 3.445570 0.000000 0.000000 
#    y 0.000000 3.965820 0.000000 
#    z 0.000000 0.000000 3.101610 
# 
# 
# High freq. dielectric constant tensor:
#      x y z
#    x 1.709950 0.000000 0.000000 
#    y 0.000000 1.707560 0.000000 
#    z 0.000000 0.000000 1.665410 
# 
# From -- ./inp_files/5255.got.cif
#   From: 2010.03.12/outbox.cif.g09.slc.cpg/sg51_3_cif.got.tgz:5255.got - 2010.04.16 13:43:02.
