data_PCOD8208320
_publ_section_title
;
Structure prediction by ZEFSAII (Michael W. Deem and Ramdas Pophale) SiO2 
 PCOD8208320
Probable space group: P M M A
;
_chemical_formula_sum "Si O2"
_cell_formula_units_Z 40
_cell_length_a 21.002025
_cell_length_b 9.542008
_cell_length_c 12.441152
_cell_angle_alpha 90.000000
_cell_angle_beta 90.000000
_cell_angle_gamma 90.000000
_cell_volume 2493.225405
_symmetry_space_group_name_H-M "P M M A"
_symmetry_group_IT_number 51
_symmetry_cell_setting 'orthorhombic'
loop_
_space_group_symop_operation_xyz
x,y,z
1/2-x,-y,z
1/2+x,-y,-z
-x,y,-z
-x,-y,-z
1/2+x,y,-z
1/2-x,y,z
x,-y,z
loop_
_atom_site_type_symbol
_atom_site_label
_atom_site_fract_x
_atom_site_fract_y
_atom_site_fract_z
Si Si1 0.553363 0.334488 0.648589
Si Si2 0.585408 0.334661 0.418493
Si Si3 0.949989 0.161342 0.848225
Si Si4 0.676680 0.665407 0.234155
Si Si5 0.408890 0.838123 0.917292
O O1 0.557378 0.500000 0.669536
O O2 0.594288 0.288626 0.543160
O O3 0.481283 0.280531 0.629357
O O4 0.579974 0.254985 0.753180
O O5 0.581445 0.500000 0.417510
O O6 0.643308 0.281085 0.344422
O O7 0.022826 0.206105 0.869867
O O8 0.946736 0.000000 0.813691
O O9 0.908375 0.187246 0.954784
O O10 0.750000 0.708063 0.242096
O O11 0.667448 0.500000 0.218372
O O12 0.645897 0.742054 0.132493
O O13 0.394634 0.000000 0.891024
#
# Coordination Sequence:
#
# PCOD8208320 Si02
#       5
#     8   8   8   8   8
#     4   9  15  26  46  66  89 120 149 182 223 271
#     4   8  15  27  42  65  93 118 147 180 223 270
#     4   9  17  29  45  67  94 119 147 188 230 267
#     4  10  19  31  48  68  91 118 151 190 224 263
#     4   9  18  31  45  64  93 124 151 182 226 274
#
# _framework density 16.043475000000001
#
# number of rings (size 3 to 8) (size 9 to 14) (size 15 to 20)
#    0.000    3.000    2.000    2.400    0.000    1.200 
#    0.000    5.000    0.000    1.200    0.000    2.800 
#    0.000    0.000    0.000    0.000    0.000    0.000 
#
# Total GULP energy -495792.608271 kJ/mol
# GULP energy per Si atom -12394.815207 kJ/mol
# Density = 1.600696 g / cm^3
# Si number density = 16.043475 Si / 1000 Ang^3
#
#
#
# Elastic Constant Matrix: (Units=GPa)
#
#
# Indices 1 2 3 4 5 6 
#
# 1 81.9375 30.3968 47.6804 0.0000 0.0000 0.0000
# 2 30.3968 45.6027 52.1612 0.0000 0.0000 0.0000
# 3 47.6804 52.1612 133.5222 0.0000 0.0000 0.0000
# 4 0.0000 0.0000 0.0000 20.8834 0.0000 0.0000
# 5 0.0000 0.0000 0.0000 0.0000 22.4127 0.0000
# 6 0.0000 0.0000 0.0000 0.0000 0.0000 17.9682
#
#
#
# Elastic Compliance Matrix: (Units=1/GPa)
#
#
# Indices 1 2 3 4 5 6 
#
# 1 0.016830 -0.007853 -0.002942 0.000000 0.000000 0.000000
# 2 -0.007853 0.043306 -0.014114 0.000000 0.000000 0.000000
# 3 -0.002942 -0.014114 0.014054 0.000000 0.000000 0.000000
# 4 0.000000 0.000000 0.000000 0.047885 0.000000 0.000000
# 5 0.000000 0.000000 0.000000 0.000000 0.044618 0.000000
# 6 0.000000 0.000000 0.000000 0.000000 0.000000 0.055654
#
#
# Mechanical properties :
#
#
# Convention : Reuss Voigt Hill
#
# Bulk Modulus (GPa) = 41.02975 57.94881 49.48928
# Shear Modulus (GPa) = 17.83889 20.97447 19.40668
#
# Velocity S-wave (km/s) = 3.33815 3.61965 3.48175
# Velocity P-wave (km/s) = 6.36296 7.32581 6.86129
#
# Compressibility (1/GPa) = 0.02437256
#
# Stress axis : x y z
#
# Youngs Moduli (GPa) = 59.41907 23.09146 71.15628
#
# Poissons Ratio (x) = 0.18133 0.20935
# Poissons Ratio (y) = 0.46659 1.00427
# Poissons Ratio (z) = 0.17482 0.32590
#
# Static dielectric constant tensor:
#      x y z
#    x 2.823200 0.000000 0.000000 
#    y 0.000000 2.791800 0.000000 
#    z 0.000000 0.000000 3.265410 
# 
# 
# High freq. dielectric constant tensor:
#      x y z
#    x 1.574290 0.000000 0.000000 
#    y 0.000000 1.597620 0.000000 
#    z 0.000000 0.000000 1.629660 
# 
# From -- ./inp_files/10641.got.cif
#   From: 2010.03.12/outbox.cif.g09.slc.cpg/sg51_6_cif.got.tgz:10641.got - 2010.04.16 13:43:02.
