data_PCOD8208695
_publ_section_title
;
Structure prediction by ZEFSAII (Michael W. Deem and Ramdas Pophale) SiO2 
 PCOD8208695
Probable space group: P M M A
;
_chemical_formula_sum "Si O2"
_cell_formula_units_Z 48
_cell_length_a 9.466592
_cell_length_b 20.495721
_cell_length_c 14.586953
_cell_angle_alpha 90.000000
_cell_angle_beta 90.000000
_cell_angle_gamma 90.000000
_cell_volume 2830.228136
_symmetry_space_group_name_H-M "P M M A"
_symmetry_group_IT_number 51
_symmetry_cell_setting 'orthorhombic'
loop_
_space_group_symop_operation_xyz
x,y,z
1/2-x,-y,z
1/2+x,-y,-z
-x,y,-z
-x,-y,-z
1/2+x,y,-z
1/2-x,y,z
x,-y,z
loop_
_atom_site_type_symbol
_atom_site_label
_atom_site_fract_x
_atom_site_fract_y
_atom_site_fract_z
Si Si1 0.583286 0.189850 0.216998
Si Si2 0.088938 0.622278 0.585892
Si Si3 0.588942 0.223250 0.414098
Si Si4 0.581608 0.310542 0.094509
Si Si5 0.917398 0.427305 0.221281
Si Si6 0.914356 0.925911 0.090057
O O1 0.750000 0.196827 0.224602
O O2 0.523416 0.192831 0.320603
O O3 0.528727 0.249811 0.155649
O O4 0.536875 0.121295 0.172137
O O5 0.250000 0.600228 0.570615
O O6 0.077256 0.699521 0.595546
O O7 0.023662 0.591051 0.678181
O O8 0.000000 0.595970 0.500000
O O9 0.500000 0.196654 0.500000
O O10 0.750000 0.201183 0.429599
O O11 0.750000 0.309182 0.077860
O O12 0.530060 0.376673 0.144633
O O13 0.500000 0.306024 0.000000
O O14 0.750000 0.422558 0.227172
O O15 0.968530 0.500000 0.194022
O O16 0.750000 0.915928 0.067143
O O17 0.947203 0.000000 0.120382
O O18 0.000000 0.906323 0.000000
#
# Coordination Sequence:
#
# PCOD8208695 Si02
#       6
#     8   8   8   8   8   8
#     4   9  16  29  49  68  90 120 151 180 216 265
#     4   9  16  28  46  66  87 112 143 179 220 264
#     4   9  16  28  46  67  89 115 146 181 219 260
#     4  10  19  32  48  66  87 114 149 186 221 259
#     4   9  17  30  47  64  85 117 151 178 215 271
#     4   9  17  29  46  69  95 122 151 183 220 262
#
# _framework density 16.959764
#
# number of rings (size 3 to 8) (size 9 to 14) (size 15 to 20)
#    0.000    2.833    1.667    0.500    0.000    0.667 
#    0.000    2.500    0.000    1.500    0.000    0.000 
#    0.000    0.000    0.000    0.000    0.000    0.000 
#
# Total GULP energy -595067.571695 kJ/mol
# GULP energy per Si atom -12397.241077 kJ/mol
# Density = 1.692116 g / cm^3
# Si number density = 16.959764 Si / 1000 Ang^3
#
#
#
# Elastic Constant Matrix: (Units=GPa)
#
#
# Indices 1 2 3 4 5 6 
#
# 1 36.6780 25.0686 45.0550 0.0000 0.0000 0.0000
# 2 25.0686 92.8934 73.8620 0.0000 0.0000 0.0000
# 3 45.0550 73.8620 172.3151 0.0000 0.0000 0.0000
# 4 0.0000 0.0000 0.0000 27.7555 0.0000 0.0000
# 5 0.0000 0.0000 0.0000 0.0000 30.1092 0.0000
# 6 0.0000 0.0000 0.0000 0.0000 0.0000 8.8139
#
#
#
# Elastic Compliance Matrix: (Units=1/GPa)
#
#
# Indices 1 2 3 4 5 6 
#
# 1 0.041057 -0.003859 -0.009081 0.000000 0.000000 0.000000
# 2 -0.003859 0.016694 -0.006147 0.000000 0.000000 0.000000
# 3 -0.009081 -0.006147 0.010812 0.000000 0.000000 0.000000
# 4 0.000000 0.000000 0.000000 0.036029 0.000000 0.000000
# 5 0.000000 0.000000 0.000000 0.000000 0.033212 0.000000
# 6 0.000000 0.000000 0.000000 0.000000 0.000000 0.113457
#
#
# Mechanical properties :
#
#
# Convention : Reuss Voigt Hill
#
# Bulk Modulus (GPa) = 32.90611 65.53975 49.22293
# Shear Modulus (GPa) = 16.69087 23.86245 20.27666
#
# Velocity S-wave (km/s) = 3.14051 3.75507 3.46146
# Velocity P-wave (km/s) = 5.70920 7.58478 6.71282
#
# Compressibility (1/GPa) = 0.03038950
#
# Stress axis : x y z
#
# Youngs Moduli (GPa) = 24.35648 59.90214 92.48654
#
# Poissons Ratio (x) = 0.23119 0.83985
# Poissons Ratio (y) = 0.09400 0.56848
# Poissons Ratio (z) = 0.22118 0.36820
#
# Static dielectric constant tensor:
#      x y z
#    x 2.773370 0.000000 0.000000 
#    y 0.000000 3.206860 0.000000 
#    z 0.000000 0.000000 3.352040 
# 
# 
# High freq. dielectric constant tensor:
#      x y z
#    x 1.615170 0.000000 0.000000 
#    y 0.000000 1.645050 0.000000 
#    z 0.000000 0.000000 1.661520 
# 
# From -- ./inp_files/15474.got.cif
#   From: 2010.03.12/outbox.cif.g09.slc.cpg/sg51_8_cif.got.tgz:15474.got - 2010.04.16 13:43:02.
