data_PCOD8208867
_publ_section_title
;
Structure prediction by ZEFSAII (Michael W. Deem and Ramdas Pophale) SiO2 
 PCOD8208867
Probable space group: P M M A
;
_chemical_formula_sum "Si O2"
_cell_formula_units_Z 64
_cell_length_a 8.972202
_cell_length_b 28.872559
_cell_length_c 14.136969
_cell_angle_alpha 90.000000
_cell_angle_beta 90.000000
_cell_angle_gamma 90.000000
_cell_volume 3662.187921
_symmetry_space_group_name_H-M "P M M A"
_symmetry_group_IT_number 51
_symmetry_cell_setting 'orthorhombic'
loop_
_space_group_symop_operation_xyz
x,y,z
1/2-x,-y,z
1/2+x,-y,-z
-x,y,-z
-x,-y,-z
1/2+x,y,-z
1/2-x,y,z
x,-y,z
loop_
_atom_site_type_symbol
_atom_site_label
_atom_site_fract_x
_atom_site_fract_y
_atom_site_fract_z
Si Si1 0.427045 0.137149 0.896826
Si Si2 0.921101 0.366465 0.402553
Si Si3 0.413189 0.445895 0.086629
Si Si4 0.076009 0.262380 0.602118
Si Si5 0.426330 0.551410 0.722481
Si Si6 0.921392 0.947861 0.231002
Si Si7 0.425146 0.813159 0.274087
Si Si8 0.923252 0.097990 0.601419
O O1 0.250000 0.144414 0.905302
O O2 0.468603 0.086701 0.853681
O O3 0.495391 0.175379 0.825663
O O4 0.500000 0.141960 0.000000
O O5 0.750000 0.377711 0.418825
O O6 0.943208 0.315049 0.360431
O O7 0.993138 0.407690 0.341438
O O8 0.000000 0.369011 0.500000
O O9 0.250000 0.423026 0.098399
O O10 0.393336 0.500000 0.067160
O O11 0.513430 0.436235 0.175930
O O12 0.500000 0.422030 0.000000
O O13 0.250000 0.248883 0.592208
O O14 0.000000 0.254556 0.500000
O O15 0.996722 0.233009 0.683457
O O16 0.250000 0.552994 0.727400
O O17 0.479889 0.500000 0.688586
O O18 0.750000 0.939213 0.257911
O O19 0.014773 0.940544 0.326759
O O20 0.949687 0.000000 0.194398
O O21 0.250000 0.806398 0.255421
O O22 0.456135 0.852387 0.352135
O O23 0.750000 0.088847 0.586322
O O24 0.000000 0.094657 0.500000
#
# Coordination Sequence:
#
# PCOD8208867 Si02
#       8
#     8   8   8   8   8   8   8   8
#     4  10  20  35  55  78 104 133 166 205 249 294
#     4   9  19  33  48  69  98 131 166 203 241 285
#     4   9  16  26  42  65  90 116 149 190 235 281
#     4  10  19  32  51  75 102 131 162 198 244 295
#     4   9  17  30  47  67  94 129 166 203 243 285
#     4   9  19  35  52  71  98 133 172 210 246 287
#     4  10  20  34  53  77 101 126 161 203 248 298
#     4  10  20  32  48  71  99 130 163 202 247 296
#
# _framework density 17.475891000000001
#
# number of rings (size 3 to 8) (size 9 to 14) (size 15 to 20)
#    0.000    2.500    0.000    2.250    0.000    6.500 
#    0.000    0.000    0.000    0.750    0.000    3.500 
#    0.000    0.000    0.000    0.000    0.000    0.000 
#
# Total GULP energy -793341.806153 kJ/mol
# GULP energy per Si atom -12395.965721 kJ/mol
# Density = 1.743612 g / cm^3
# Si number density = 17.475891 Si / 1000 Ang^3
#
#
#
# Elastic Constant Matrix: (Units=GPa)
#
#
# Indices 1 2 3 4 5 6 
#
# 1 66.3276 44.9509 51.6333 0.0000 0.0000 0.0000
# 2 44.9509 96.1581 49.8714 0.0000 0.0000 0.0000
# 3 51.6333 49.8714 86.2703 0.0000 0.0000 0.0000
# 4 0.0000 0.0000 0.0000 18.8995 0.0000 0.0000
# 5 0.0000 0.0000 0.0000 0.0000 -73.7568 0.0000
# 6 0.0000 0.0000 0.0000 0.0000 0.0000 19.5323
#
#
#
# Elastic Compliance Matrix: (Units=1/GPa)
#
#
# Indices 1 2 3 4 5 6 
#
# 1 0.031214 -0.007002 -0.014634 0.000000 0.000000 0.000000
# 2 -0.007002 0.016423 -0.005303 0.000000 0.000000 0.000000
# 3 -0.014634 -0.005303 0.023416 0.000000 0.000000 0.000000
# 4 0.000000 0.000000 0.000000 0.052911 0.000000 0.000000
# 5 0.000000 0.000000 0.000000 0.000000 -0.013558 0.000000
# 6 0.000000 0.000000 0.000000 0.000000 0.000000 0.051197
#
#
# Mechanical properties :
#
#
# Convention : Reuss Voigt Hill
#
# Bulk Modulus (GPa) = 58.22587 60.18524 59.20555
# Shear Modulus (GPa) = 22.60327 -0.24498 11.17915
#
# Velocity S-wave (km/s) = 3.60029 -0.37481 2.53195
# Velocity P-wave (km/s) = 7.11849 5.85888 6.51918
#
# Compressibility (1/GPa) = 0.01717450
#
# Stress axis : x y z
#
# Youngs Moduli (GPa) = 32.03703 60.88971 42.70597
#
# Poissons Ratio (x) = 0.42633 0.62497
# Poissons Ratio (y) = 0.22431 0.22649
# Poissons Ratio (z) = 0.46884 0.32292
#
# Static dielectric constant tensor:
#      x y z
#    x 3.397980 0.000000 0.000000 
#    y 0.000000 3.542110 0.000000 
#    z 0.000000 0.000000 3.183080 
# 
# 
# High freq. dielectric constant tensor:
#      x y z
#    x 1.687650 0.000000 0.000000 
#    y 0.000000 1.658480 0.000000 
#    z 0.000000 0.000000 1.668110 
# 
# From -- ./inp_files/14857.got.cif
#   From: 2010.03.12/outbox.cif.g09.slc.cpg/sg51_8_cif.got.tgz:14857.got - 2010.04.16 13:43:02.
