data_PCOD8208872
_publ_section_title
;
Structure prediction by ZEFSAII (Michael W. Deem and Ramdas Pophale) SiO2 
 PCOD8208872
Probable space group: P M M A
;
_chemical_formula_sum "Si O2"
_cell_formula_units_Z 64
_cell_length_a 9.050765
_cell_length_b 24.843965
_cell_length_c 15.378681
_cell_angle_alpha 90.000000
_cell_angle_beta 90.000000
_cell_angle_gamma 90.000000
_cell_volume 3458.002365
_symmetry_space_group_name_H-M "P M M A"
_symmetry_group_IT_number 51
_symmetry_cell_setting 'orthorhombic'
loop_
_space_group_symop_operation_xyz
x,y,z
1/2-x,-y,z
1/2+x,-y,-z
-x,y,-z
-x,-y,-z
1/2+x,y,-z
1/2-x,y,z
x,-y,z
loop_
_atom_site_type_symbol
_atom_site_label
_atom_site_fract_x
_atom_site_fract_y
_atom_site_fract_z
Si Si1 0.425356 0.606222 0.416580
Si Si2 0.922663 0.939066 0.087220
Si Si3 0.075303 0.150587 0.777527
Si Si4 0.917169 0.168340 0.415698
Si Si5 0.079688 0.289239 0.632235
Si Si6 0.920168 0.640764 0.911174
Si Si7 0.574496 0.439777 0.765470
Si Si8 0.921789 0.257375 0.804145
O O1 0.500000 0.577053 0.500000
O O2 0.250000 0.604909 0.425502
O O3 0.481398 0.667701 0.418358
O O4 0.483213 0.576816 0.329889
O O5 0.750000 0.935902 0.069415
O O6 0.966172 0.903501 0.170801
O O7 0.974257 0.000000 0.107391
O O8 0.000000 0.917033 0.000000
O O9 0.250000 0.163569 0.779575
O O10 0.021813 0.145310 0.676840
O O11 0.989119 0.198928 0.825673
O O12 0.750000 0.149507 0.426151
O O13 0.933882 0.232543 0.416692
O O14 0.000000 0.144127 0.500000
O O15 0.250000 0.307878 0.637498
O O16 0.014277 0.284608 0.728151
O O17 0.750000 0.626449 0.924110
O O18 0.988200 0.601782 0.836814
O O19 0.940591 0.703550 0.886886
O O20 0.000000 0.627530 0.000000
O O21 0.750000 0.436580 0.763807
O O22 0.519174 0.500000 0.787358
O O23 0.750000 0.252330 0.777218
#
# Coordination Sequence:
#
# PCOD8208872 Si02
#       8
#     8   8   8   8   8   8   8   8
#     4  11  21  34  53  79 106 136 174 214 261 317
#     4   9  18  34  56  79 105 139 180 227 274 319
#     4   9  19  34  51  76 109 143 179 217 262 317
#     4   9  18  30  45  69 101 137 174 210 249 297
#     4  10  19  32  51  75 104 139 174 213 261 310
#     4  10  21  37  56  80 104 134 172 212 261 319
#     4   9  19  38  59  75 100 137 173 216 268 318
#     4  10  19  33  52  77 108 140 174 211 259 316
#
# _framework density 18.507795000000002
#
# number of rings (size 3 to 8) (size 9 to 14) (size 15 to 20)
#    0.000    2.375    1.250    2.250    0.000    6.000 
#    0.000    2.500    0.000    3.000    0.000    0.000 
#    0.000    0.000    0.000    0.000    0.000    0.250 
#
# Total GULP energy -793448.493992 kJ/mol
# GULP energy per Si atom -12397.632719 kJ/mol
# Density = 1.846567 g / cm^3
# Si number density = 18.507795 Si / 1000 Ang^3
#
#
#
# Elastic Constant Matrix: (Units=GPa)
#
#
# Indices 1 2 3 4 5 6 
#
# 1 56.5204 26.9125 43.9071 0.0000 0.0000 0.0000
# 2 26.9125 89.3614 64.1842 0.0000 0.0000 0.0000
# 3 43.9071 64.1842 146.5638 0.0000 0.0000 0.0000
# 4 0.0000 0.0000 0.0000 17.1692 0.0000 0.0000
# 5 0.0000 0.0000 0.0000 0.0000 33.8724 0.0000
# 6 0.0000 0.0000 0.0000 0.0000 0.0000 15.6408
#
#
#
# Elastic Compliance Matrix: (Units=1/GPa)
#
#
# Indices 1 2 3 4 5 6 
#
# 1 0.023583 -0.002959 -0.005769 0.000000 0.000000 0.000000
# 2 -0.002959 0.016697 -0.006426 0.000000 0.000000 0.000000
# 3 -0.005769 -0.006426 0.011365 0.000000 0.000000 0.000000
# 4 0.000000 0.000000 0.000000 0.058244 0.000000 0.000000
# 5 0.000000 0.000000 0.000000 0.000000 0.029523 0.000000
# 6 0.000000 0.000000 0.000000 0.000000 0.000000 0.063935
#
#
# Mechanical properties :
#
#
# Convention : Reuss Voigt Hill
#
# Bulk Modulus (GPa) = 46.86430 62.49479 54.67954
# Shear Modulus (GPa) = 20.76697 23.83261 22.29979
#
# Velocity S-wave (km/s) = 3.35336 3.59236 3.47491
# Velocity P-wave (km/s) = 6.35372 7.14470 6.76079
#
# Compressibility (1/GPa) = 0.02133820
#
# Stress axis : x y z
#
# Youngs Moduli (GPa) = 42.40288 59.89180 87.98720
#
# Poissons Ratio (x) = 0.17719 0.50763
# Poissons Ratio (y) = 0.12545 0.56537
# Poissons Ratio (z) = 0.24464 0.38484
#
# Static dielectric constant tensor:
#      x y z
#    x 3.305770 0.000000 0.000000 
#    y 0.000000 3.407510 0.000000 
#    z 0.000000 0.000000 3.489990 
# 
# 
# High freq. dielectric constant tensor:
#      x y z
#    x 1.705800 0.000000 0.000000 
#    y 0.000000 1.695750 0.000000 
#    z 0.000000 0.000000 1.722960 
# 
# From -- ./inp_files/22343.got.cif
#   From: 2010.03.12/outbox.cif.g09.slc.cpg/sg51_12_cif.got.tgz:22343.got - 2010.04.16 13:43:02.
