data_PCOD8208918
_publ_section_title
;
Structure prediction by ZEFSAII (Michael W. Deem and Ramdas Pophale) SiO2 
 PCOD8208918
Probable space group: P M M A
;
_chemical_formula_sum "Si O2"
_cell_formula_units_Z 48
_cell_length_a 32.344833
_cell_length_b 9.004598
_cell_length_c 9.130834
_cell_angle_alpha 90.000000
_cell_angle_beta 90.000000
_cell_angle_gamma 90.000000
_cell_volume 2659.375660
_symmetry_space_group_name_H-M "P M M A"
_symmetry_group_IT_number 51
_symmetry_cell_setting 'orthorhombic'
loop_
_space_group_symop_operation_xyz
x,y,z
1/2-x,-y,z
1/2+x,-y,-z
-x,y,-z
-x,-y,-z
1/2+x,y,-z
1/2-x,y,z
x,-y,z
loop_
_atom_site_type_symbol
_atom_site_label
_atom_site_fract_x
_atom_site_fract_y
_atom_site_fract_z
Si Si1 0.458872 0.328071 0.572097
Si Si2 0.876504 0.673975 0.607823
Si Si3 0.297341 0.670631 0.902122
Si Si4 0.918129 0.836639 0.183713
Si Si5 0.666353 0.833276 0.360050
Si Si6 0.366680 0.822710 0.083106
O O1 0.500000 0.256624 0.500000
O O2 0.465997 0.500000 0.597146
O O3 0.420484 0.294686 0.466886
O O4 0.451968 0.263889 0.735283
O O5 0.868211 0.500000 0.630053
O O6 0.839443 0.742403 0.510745
O O7 0.877505 0.757816 0.760533
O O8 0.250000 0.680707 0.952730
O O9 0.312156 0.500000 0.889718
O O10 0.301449 0.746980 0.742999
O O11 0.323940 0.754051 0.025078
O O12 0.876969 0.842041 0.278934
O O13 0.937618 0.000000 0.169429
O O14 0.904812 0.776161 0.023778
O O15 0.682687 0.000000 0.393575
O O16 0.361689 0.000000 0.087791
#
# Coordination Sequence:
#
# PCOD8208918 Si02
#       6
#     8   8   8   8   8   8
#     4   9  18  32  50  73  99 128 165 208 252 298
#     4  10  19  32  52  75 100 131 167 207 251 297
#     4  10  20  34  53  77 103 130 163 203 245 292
#     4   8  16  30  48  70  94 126 165 200 239 290
#     4   9  17  31  51  73  98 128 164 202 239 287
#     4  10  20  34  52  74 102 134 169 207 249 302
#
# _framework density 18.04935
#
# number of rings (size 3 to 8) (size 9 to 14) (size 15 to 20)
#    0.000    2.667    0.000    3.000    0.000    7.000 
#    0.000    1.667    0.000   10.000    0.000    0.000 
#    0.000    0.000    0.000    0.000    0.000    0.000 
#
# Total GULP energy -595062.454575 kJ/mol
# GULP energy per Si atom -12397.134470 kJ/mol
# Density = 1.800827 g / cm^3
# Si number density = 18.049350 Si / 1000 Ang^3
#
#
#
# Elastic Constant Matrix: (Units=GPa)
#
#
# Indices 1 2 3 4 5 6 
#
# 1 38.4485 29.5723 6.9451 0.0000 0.0000 0.0000
# 2 29.5723 106.1759 43.3147 0.0000 0.0000 0.0000
# 3 6.9451 43.3147 90.9902 0.0000 0.0000 0.0000
# 4 0.0000 0.0000 0.0000 34.2480 0.0000 0.0000
# 5 0.0000 0.0000 0.0000 0.0000 14.9031 0.0000
# 6 0.0000 0.0000 0.0000 0.0000 0.0000 20.0000
#
#
#
# Elastic Compliance Matrix: (Units=1/GPa)
#
#
# Indices 1 2 3 4 5 6 
#
# 1 0.033496 -0.010283 0.002339 0.000000 0.000000 0.000000
# 2 -0.010283 0.014845 -0.006282 0.000000 0.000000 0.000000
# 3 0.002339 -0.006282 0.013802 0.000000 0.000000 0.000000
# 4 0.000000 0.000000 0.000000 0.029199 0.000000 0.000000
# 5 0.000000 0.000000 0.000000 0.000000 0.067100 0.000000
# 6 0.000000 0.000000 0.000000 0.000000 0.000000 0.050000
#
#
# Mechanical properties :
#
#
# Convention : Reuss Voigt Hill
#
# Bulk Modulus (GPa) = 29.68270 43.91986 36.80128
# Shear Modulus (GPa) = 20.15114 24.21574 22.18344
#
# Velocity S-wave (km/s) = 3.34495 3.66681 3.50958
# Velocity P-wave (km/s) = 5.60351 6.50488 6.07094
#
# Compressibility (1/GPa) = 0.03368966
#
# Stress axis : x y z
#
# Youngs Moduli (GPa) = 29.85458 67.36188 72.45254
#
# Poissons Ratio (x) = 0.69270 -0.16943
# Poissons Ratio (y) = 0.30700 0.45514
# Poissons Ratio (z) = -0.06982 0.42316
#
# Static dielectric constant tensor:
#      x y z
#    x 3.167780 0.000000 0.000000 
#    y 0.000000 3.538310 0.000000 
#    z 0.000000 0.000000 3.429330 
# 
# 
# High freq. dielectric constant tensor:
#      x y z
#    x 1.670280 0.000000 0.000000 
#    y 0.000000 1.710820 0.000000 
#    z 0.000000 0.000000 1.696470 
# 
# From -- ./inp_files/12813.got.cif
#   From: 2010.03.12/outbox.cif.g09.slc.cpg/sg51_7_cif.got.tgz:12813.got - 2010.04.16 13:43:02.
