data_PCOD8208714
_publ_section_title
;
Structure prediction by ZEFSAII (Michael W. Deem and Ramdas Pophale) SiO2 
 PCOD8208714
Probable space group: P M M A
;
_chemical_formula_sum "Si O2"
_cell_formula_units_Z 52
_cell_length_a 8.964677
_cell_length_b 15.224607
_cell_length_c 22.851876
_cell_angle_alpha 90.000000
_cell_angle_beta 90.000000
_cell_angle_gamma 90.000000
_cell_volume 3118.908228
_symmetry_space_group_name_H-M "P M M A"
_symmetry_group_IT_number 51
_symmetry_cell_setting 'orthorhombic'
loop_
_space_group_symop_operation_xyz
x,y,z
1/2-x,-y,z
1/2+x,-y,-z
-x,y,-z
-x,-y,-z
1/2+x,y,-z
1/2-x,y,z
x,-y,z
loop_
_atom_site_type_symbol
_atom_site_label
_atom_site_fract_x
_atom_site_fract_y
_atom_site_fract_z
Si Si1 0.582579 0.759971 0.769235
Si Si2 0.424921 0.402025 0.815989
Si Si3 0.580095 0.170235 0.899188
Si Si4 0.072991 0.000000 0.937000
Si Si5 0.927117 0.337221 0.057465
Si Si6 0.417195 0.895805 0.556849
Si Si7 0.572765 0.099999 0.675790
O O1 0.750000 0.737791 0.749530
O O2 0.495132 0.667650 0.770856
O O3 0.578645 0.801945 0.832493
O O4 0.512813 0.831588 0.724635
O O5 0.250000 0.389103 0.811635
O O6 0.474189 0.500000 0.797125
O O7 0.474395 0.388642 0.883637
O O8 0.750000 0.156399 0.921531
O O9 0.498160 0.240522 0.940022
O O10 0.483858 0.082893 0.901175
O O11 0.250000 0.000000 0.941899
O O12 0.000000 0.000000 0.000000
O O13 0.750000 0.332622 0.050235
O O14 0.000000 0.383695 0.000000
O O15 0.500000 0.856147 0.500000
O O16 0.250000 0.857334 0.559485
O O17 0.505862 0.867099 0.614590
O O18 0.412682 0.000000 0.551989
O O19 0.750000 0.102073 0.671512
O O20 0.520001 0.000000 0.690780
#
# Coordination Sequence:
#
# PCOD8208714 Si02
#       7
#     8   8   8   4   8   8   8
#     4   9  19  33  51  72  94 122 156 193 234 277
#     4   9  19  35  52  69  92 121 150 187 238 288
#     4  10  20  34  50  66  87 116 150 188 232 278
#     4  12  24  36  48  64  84 112 151 192 233 276
#     4  10  19  32  49  68  91 114 143 181 229 285
#     4   9  16  26  41  63  93 129 168 203 234 267
#     4   9  17  29  46  68  97 131 163 195 232 273
#
# _framework density 16.672501
#
# number of rings (size 3 to 8) (size 9 to 14) (size 15 to 20)
#    0.000    2.462    0.000    2.538    1.077    4.308 
#    0.000    0.000    0.000    0.000    0.000    0.000 
#    0.000    0.615    0.000    2.000    0.000    2.923 
#
# Total GULP energy -644648.731636 kJ/mol
# GULP energy per Si atom -12397.090993 kJ/mol
# Density = 1.663455 g / cm^3
# Si number density = 16.672501 Si / 1000 Ang^3
#
#
#
# Elastic Constant Matrix: (Units=GPa)
#
#
# Indices 1 2 3 4 5 6 
#
# 1 71.6479 36.4645 28.0525 0.0000 0.0000 0.0000
# 2 36.4645 99.8842 38.6130 0.0000 0.0000 0.0000
# 3 28.0525 38.6130 86.4106 0.0000 0.0000 0.0000
# 4 0.0000 0.0000 0.0000 11.7688 0.0000 0.0000
# 5 0.0000 0.0000 0.0000 0.0000 26.8602 0.0000
# 6 0.0000 0.0000 0.0000 0.0000 0.0000 22.7725
#
#
#
# Elastic Compliance Matrix: (Units=1/GPa)
#
#
# Indices 1 2 3 4 5 6 
#
# 1 0.017982 -0.005207 -0.003511 0.000000 0.000000 0.000000
# 2 -0.005207 0.013610 -0.004391 0.000000 0.000000 0.000000
# 3 -0.003511 -0.004391 0.014675 0.000000 0.000000 0.000000
# 4 0.000000 0.000000 0.000000 0.084971 0.000000 0.000000
# 5 0.000000 0.000000 0.000000 0.000000 0.037230 0.000000
# 6 0.000000 0.000000 0.000000 0.000000 0.000000 0.043913
#
#
# Mechanical properties :
#
#
# Convention : Reuss Voigt Hill
#
# Bulk Modulus (GPa) = 49.88032 51.57808 50.72920
# Shear Modulus (GPa) = 20.38474 22.60114 21.49294
#
# Velocity S-wave (km/s) = 3.50044 3.68583 3.59433
# Velocity P-wave (km/s) = 6.80589 7.00835 6.90786
#
# Compressibility (1/GPa) = 0.02004799
#
# Stress axis : x y z
#
# Youngs Moduli (GPa) = 55.61115 73.47415 68.14488
#
# Poissons Ratio (x) = 0.38262 0.23924
# Poissons Ratio (y) = 0.28959 0.29924
# Poissons Ratio (z) = 0.19523 0.32264
#
# Static dielectric constant tensor:
#      x y z
#    x 3.264620 0.000000 0.000000 
#    y 0.000000 3.022380 0.000000 
#    z 0.000000 0.000000 3.206360 
# 
# 
# High freq. dielectric constant tensor:
#      x y z
#    x 1.649510 0.000000 0.000000 
#    y 0.000000 1.615850 0.000000 
#    z 0.000000 0.000000 1.626550 
# 
# From -- ./inp_files/34684.got.cif
#   From: 2010.03.12/outbox.cif.g09.slc.cpg/sg51_18_cif.got.tgz:34684.got - 2010.04.16 13:43:02.
