data_PCOD8208908
_publ_section_title
;
Structure prediction by ZEFSAII (Michael W. Deem and Ramdas Pophale) SiO2 
 PCOD8208908
Probable space group: P M M A
;
_chemical_formula_sum "Si O2"
_cell_formula_units_Z 64
_cell_length_a 30.957059
_cell_length_b 9.488314
_cell_length_c 12.001729
_cell_angle_alpha 90.000000
_cell_angle_beta 90.000000
_cell_angle_gamma 90.000000
_cell_volume 3525.271415
_symmetry_space_group_name_H-M "P M M A"
_symmetry_group_IT_number 51
_symmetry_cell_setting 'orthorhombic'
loop_
_space_group_symop_operation_xyz
x,y,z
1/2-x,-y,z
1/2+x,-y,-z
-x,y,-z
-x,-y,-z
1/2+x,y,-z
1/2-x,y,z
x,-y,z
loop_
_atom_site_type_symbol
_atom_site_label
_atom_site_fract_x
_atom_site_fract_y
_atom_site_fract_z
Si Si1 0.447344 0.661662 0.233143
Si Si2 0.199673 0.159289 0.239067
Si Si3 0.397108 0.659530 0.863957
Si Si4 0.863818 0.338306 0.898725
Si Si5 0.981792 0.835694 0.121728
Si Si6 0.370606 0.663231 0.618692
Si Si7 0.200279 0.165064 0.491612
Si Si8 0.452386 0.338331 0.486817
O O1 0.458980 0.500000 0.203829
O O2 0.407992 0.717053 0.157722
O O3 0.488772 0.757769 0.211921
O O4 0.434600 0.678244 0.361942
O O5 0.250000 0.170233 0.214092
O O6 0.176382 0.254036 0.148302
O O7 0.189718 0.210171 0.364708
O O8 0.183329 0.000000 0.224231
O O9 0.416325 0.500000 0.868599
O O10 0.434334 0.773908 0.869678
O O11 0.370038 0.681861 0.751608
O O12 0.365385 0.684093 0.968467
O O13 0.857062 0.500000 0.865657
O O14 0.980509 0.000000 0.150326
O O15 0.000000 0.804982 0.000000
O O16 0.365675 0.500000 0.583485
O O17 0.329783 0.747753 0.573854
O O18 0.415659 0.726353 0.568303
O O19 0.250000 0.200225 0.519815
O O20 0.191407 0.000000 0.507927
O O21 0.500000 0.265640 0.500000
O O22 0.458147 0.500000 0.522856
#
# Coordination Sequence:
#
# PCOD8208908 Si02
#       8
#     8   8   8   8   8   8   8   8
#     4  10  19  32  52  74 101 137 174 216 268 321
#     4   9  19  36  57  80 107 139 172 210 263 323
#     4  10  21  37  55  76 106 145 182 220 267 317
#     4  10  20  33  52  79 105 134 177 220 261 311
#     4  11  22  34  50  75 105 139 182 226 264 308
#     4  10  20  35  57  82 108 141 184 229 273 321
#     4   9  19  37  59  82 109 141 176 217 271 332
#     4   9  17  30  49  75 105 137 174 217 265 318
#
# _framework density 18.154630999999998
#
# number of rings (size 3 to 8) (size 9 to 14) (size 15 to 20)
#    0.000    2.250    1.250    2.625    0.000    6.000 
#    0.000    2.500    0.000    5.250    0.000    0.000 
#    0.000    0.000    0.000    0.000    0.000    0.000 
#
# Total GULP energy -793664.352577 kJ/mol
# GULP energy per Si atom -12401.005509 kJ/mol
# Density = 1.811331 g / cm^3
# Si number density = 18.154631 Si / 1000 Ang^3
#
#
#
# Elastic Constant Matrix: (Units=GPa)
#
#
# Indices 1 2 3 4 5 6 
#
# 1 95.8446 46.4977 57.4665 0.0000 0.0000 0.0000
# 2 46.4977 62.9838 41.7021 0.0000 0.0000 0.0000
# 3 57.4665 41.7021 116.7675 0.0000 0.0000 0.0000
# 4 0.0000 0.0000 0.0000 17.5739 0.0000 0.0000
# 5 0.0000 0.0000 0.0000 0.0000 31.7195 0.0000
# 6 0.0000 0.0000 0.0000 0.0000 0.0000 30.9253
#
#
#
# Elastic Compliance Matrix: (Units=1/GPa)
#
#
# Indices 1 2 3 4 5 6 
#
# 1 0.018680 -0.010089 -0.005590 0.000000 0.000000 0.000000
# 2 -0.010089 0.026243 -0.004407 0.000000 0.000000 0.000000
# 3 -0.005590 -0.004407 0.012889 0.000000 0.000000 0.000000
# 4 0.000000 0.000000 0.000000 0.056902 0.000000 0.000000
# 5 0.000000 0.000000 0.000000 0.000000 0.031526 0.000000
# 6 0.000000 0.000000 0.000000 0.000000 0.000000 0.032336
#
#
# Mechanical properties :
#
#
# Convention : Reuss Voigt Hill
#
# Bulk Modulus (GPa) = 56.69034 62.99205 59.84119
# Shear Modulus (GPa) = 22.25886 24.70572 23.48229
#
# Velocity S-wave (km/s) = 3.50533 3.69297 3.60037
# Velocity P-wave (km/s) = 6.90487 7.27715 7.09345
#
# Compressibility (1/GPa) = 0.01763969
#
# Stress axis : x y z
#
# Youngs Moduli (GPa) = 53.53371 38.10473 77.58515
#
# Poissons Ratio (x) = 0.38445 0.43370
# Poissons Ratio (y) = 0.54011 0.34193
# Poissons Ratio (z) = 0.29925 0.16793
#
# Static dielectric constant tensor:
#      x y z
#    x 3.219530 0.000000 0.000000 
#    y 0.000000 3.185650 0.000000 
#    z 0.000000 0.000000 3.455240 
# 
# 
# High freq. dielectric constant tensor:
#      x y z
#    x 1.694440 0.000000 0.000000 
#    y 0.000000 1.684700 0.000000 
#    z 0.000000 0.000000 1.710140 
# 
# From -- ./inp_files/19570.got.cif
#   From: 2010.03.12/outbox.cif.g09.slc.cpg/sg51_10_cif.got.tgz:19570.got - 2010.04.16 13:43:02.
