data_PCOD8208275
_publ_section_title
;
Structure prediction by ZEFSAII (Michael W. Deem and Ramdas Pophale) SiO2 
 PCOD8208275
Probable space group: P M M A
;
_chemical_formula_sum "Si O2"
_cell_formula_units_Z 64
_cell_length_a 8.950601
_cell_length_b 13.985994
_cell_length_c 30.959810
_cell_angle_alpha 90.000000
_cell_angle_beta 90.000000
_cell_angle_gamma 90.000000
_cell_volume 3875.643501
_symmetry_space_group_name_H-M "P M M A"
_symmetry_group_IT_number 51
_symmetry_cell_setting 'orthorhombic'
loop_
_space_group_symop_operation_xyz
x,y,z
1/2-x,-y,z
1/2+x,-y,-z
-x,y,-z
-x,-y,-z
1/2+x,y,-z
1/2-x,y,z
x,-y,z
loop_
_atom_site_type_symbol
_atom_site_label
_atom_site_fract_x
_atom_site_fract_y
_atom_site_fract_z
Si Si1 0.423020 0.111648 0.202806
Si Si2 0.076697 0.799600 0.716889
Si Si3 0.420095 0.113391 0.043245
Si Si4 0.923937 0.608331 0.848446
Si Si5 0.573314 0.212304 0.123154
Si Si6 0.579864 0.393769 0.240684
Si Si7 0.924635 0.109454 0.371914
Si Si8 0.418202 0.886121 0.457785
O O1 0.250000 0.139839 0.197273
O O2 0.477935 0.139024 0.250329
O O3 0.520626 0.168685 0.168354
O O4 0.447512 0.000000 0.195048
O O5 0.250000 0.826837 0.724134
O O6 0.049029 0.685900 0.722888
O O7 0.025380 0.826795 0.668782
O O8 0.250000 0.150278 0.043407
O O9 0.506324 0.152851 0.084163
O O10 0.426583 0.000000 0.045770
O O11 0.500000 0.151164 0.000000
O O12 0.750000 0.631689 0.852849
O O13 0.960443 0.500000 0.862564
O O14 0.016419 0.678310 0.879767
O O15 0.970136 0.625946 0.798988
O O16 0.750000 0.208660 0.120297
O O17 0.750000 0.385142 0.223460
O O18 0.551372 0.500000 0.260218
O O19 0.750000 0.116789 0.380805
O O20 0.005221 0.151914 0.414110
O O21 0.972217 0.000000 0.362816
O O22 0.500000 0.843936 0.500000
O O23 0.250000 0.848359 0.458660
O O24 0.426865 0.000000 0.458502
#
# Coordination Sequence:
#
# PCOD8208275 Si02
#       8
#     8   8   8   8   8   8   8   8
#     4  11  23  35  47  67  97 132 168 206 244 284
#     4  10  19  31  47  67  93 129 164 198 241 289
#     4  10  21  38  59  82 108 136 167 204 245 290
#     4  10  20  34  53  76 101 129 163 205 251 295
#     4  12  23  35  54  78 103 133 168 205 245 291
#     4   9  17  30  48  70  95 124 161 203 245 289
#     4   9  17  28  41  59  87 123 161 196 232 281
#     4   9  16  26  41  60  82 111 150 194 238 280
#
# _framework density 16.513387000000002
#
# number of rings (size 3 to 8) (size 9 to 14) (size 15 to 20)
#    0.000    2.000    1.250    3.375    0.000    6.500 
#    0.000    1.250    0.000    0.375    0.000    0.000 
#    0.000    0.500    0.000    0.875    0.000    1.250 
#
# Total GULP energy -793687.259455 kJ/mol
# GULP energy per Si atom -12401.363429 kJ/mol
# Density = 1.647580 g / cm^3
# Si number density = 16.513387 Si / 1000 Ang^3
#
#
#
# Elastic Constant Matrix: (Units=GPa)
#
#
# Indices 1 2 3 4 5 6 
#
# 1 107.4637 27.8882 44.5787 0.0000 0.0000 0.0000
# 2 27.8882 39.3307 9.0029 0.0000 0.0000 0.0000
# 3 44.5787 9.0029 83.1522 0.0000 0.0000 0.0000
# 4 0.0000 0.0000 0.0000 5.5685 0.0000 0.0000
# 5 0.0000 0.0000 0.0000 0.0000 29.7718 0.0000
# 6 0.0000 0.0000 0.0000 0.0000 0.0000 20.0318
#
#
#
# Elastic Compliance Matrix: (Units=1/GPa)
#
#
# Indices 1 2 3 4 5 6 
#
# 1 0.014347 -0.008626 -0.006758 0.000000 0.000000 0.000000
# 2 -0.008626 0.031258 0.001240 0.000000 0.000000 0.000000
# 3 -0.006758 0.001240 0.015515 0.000000 0.000000 0.000000
# 4 0.000000 0.000000 0.000000 0.179582 0.000000 0.000000
# 5 0.000000 0.000000 0.000000 0.000000 0.033589 0.000000
# 6 0.000000 0.000000 0.000000 0.000000 0.000000 0.049921
#
#
# Mechanical properties :
#
#
# Convention : Reuss Voigt Hill
#
# Bulk Modulus (GPa) = 30.45741 43.65402 37.05572
# Shear Modulus (GPa) = 13.75728 20.97288 17.36508
#
# Velocity S-wave (km/s) = 2.88948 3.56765 3.24632
# Velocity P-wave (km/s) = 5.44208 6.59270 6.04483
#
# Compressibility (1/GPa) = 0.03283273
#
# Stress axis : x y z
#
# Youngs Moduli (GPa) = 69.69867 31.99152 64.45462
#
# Poissons Ratio (x) = 0.27597 0.43557
# Poissons Ratio (y) = 0.60125 -0.07995
# Poissons Ratio (z) = 0.47101 -0.03968
#
# Static dielectric constant tensor:
#      x y z
#    x 3.328160 0.000000 0.000000 
#    y 0.000000 3.130710 0.000000 
#    z 0.000000 0.000000 3.079820 
# 
# 
# High freq. dielectric constant tensor:
#      x y z
#    x 1.648280 0.000000 0.000000 
#    y 0.000000 1.615640 0.000000 
#    z 0.000000 0.000000 1.621680 
# 
# From -- ./inp_files/37625.got.cif
#   From: 2010.03.12/outbox.cif.g09.slc.cpg/sg51_19_cif.got.tgz:37625.got - 2010.04.16 13:43:02.
