data_PCOD8208461
_publ_section_title
;
Structure prediction by ZEFSAII (Michael W. Deem and Ramdas Pophale) SiO2 
 PCOD8208461
Probable space group: P M M A
;
_chemical_formula_sum "Si O2"
_cell_formula_units_Z 40
_cell_length_a 8.954083
_cell_length_b 25.474818
_cell_length_c 9.993586
_cell_angle_alpha 90.000000
_cell_angle_beta 90.000000
_cell_angle_gamma 90.000000
_cell_volume 2279.573291
_symmetry_space_group_name_H-M "P M M A"
_symmetry_group_IT_number 51
_symmetry_cell_setting 'orthorhombic'
loop_
_space_group_symop_operation_xyz
x,y,z
1/2-x,-y,z
1/2+x,-y,-z
-x,y,-z
-x,-y,-z
1/2+x,y,-z
1/2-x,y,z
x,-y,z
loop_
_atom_site_type_symbol
_atom_site_label
_atom_site_fract_x
_atom_site_fract_y
_atom_site_fract_z
Si Si1 0.924570 0.255388 0.357002
Si Si2 0.574800 0.440456 0.864167
Si Si3 0.423806 0.139741 0.642256
Si Si4 0.572788 0.357157 0.645283
Si Si5 0.574234 0.940253 0.137535
O O1 0.750000 0.268555 0.369154
O O2 0.950949 0.197795 0.292505
O O3 0.000000 0.252300 0.500000
O O4 0.008209 0.303857 0.283775
O O5 0.750000 0.436630 0.886011
O O6 0.523441 0.500000 0.833585
O O7 0.523793 0.405271 0.739126
O O8 0.500000 0.419445 0.000000
O O9 0.500000 0.132000 0.500000
O O10 0.250000 0.130490 0.617140
O O11 0.488611 0.096919 0.745091
O O12 0.500000 0.366127 0.500000
O O13 0.750000 0.352872 0.630358
O O14 0.750000 0.933518 0.120921
O O15 0.529900 0.000000 0.172832
O O16 0.500000 0.922013 0.000000
#
# Coordination Sequence:
#
# PCOD8208461 Si02
#       5
#     8   8   8   8   8
#     4   9  16  28  46  67  94 125 155 188 230 276
#     4   9  19  35  52  70  94 124 157 193 233 277
#     4   9  18  31  48  71  96 122 154 193 233 275
#     4  10  19  31  49  73  98 123 155 193 231 274
#     4   9  18  33  50  68  93 124 157 193 233 277
#
# _framework density 17.547142999999998
#
# number of rings (size 3 to 8) (size 9 to 14) (size 15 to 20)
#    0.000    2.800    0.000    2.400    0.000    4.000 
#    0.000    1.000    0.000    4.800    0.000    0.000 
#    0.000    0.000    0.000    0.000    0.000    0.000 
#
# Total GULP energy -495735.359832 kJ/mol
# GULP energy per Si atom -12393.383996 kJ/mol
# Density = 1.750721 g / cm^3
# Si number density = 17.547143 Si / 1000 Ang^3
#
#
#
# Elastic Constant Matrix: (Units=GPa)
#
#
# Indices 1 2 3 4 5 6 
#
# 1 58.1865 45.8257 40.0289 0.0000 0.0000 0.0000
# 2 45.8257 137.6480 85.9387 0.0000 0.0000 0.0000
# 3 40.0289 85.9387 107.2481 0.0000 0.0000 0.0000
# 4 0.0000 0.0000 0.0000 14.1260 0.0000 0.0000
# 5 0.0000 0.0000 0.0000 0.0000 26.0853 0.0000
# 6 0.0000 0.0000 0.0000 0.0000 0.0000 23.3864
#
#
#
# Elastic Compliance Matrix: (Units=1/GPa)
#
#
# Indices 1 2 3 4 5 6 
#
# 1 0.024693 -0.004936 -0.005261 0.000000 0.000000 0.000000
# 2 -0.004936 0.015525 -0.010598 0.000000 0.000000 0.000000
# 3 -0.005261 -0.010598 0.019780 0.000000 0.000000 0.000000
# 4 0.000000 0.000000 0.000000 0.070792 0.000000 0.000000
# 5 0.000000 0.000000 0.000000 0.000000 0.038336 0.000000
# 6 0.000000 0.000000 0.000000 0.000000 0.000000 0.042760
#
#
# Mechanical properties :
#
#
# Convention : Reuss Voigt Hill
#
# Bulk Modulus (GPa) = 54.32480 71.85214 63.08847
# Shear Modulus (GPa) = 19.25962 21.47216 20.36589
#
# Velocity S-wave (km/s) = 3.31659 3.50191 3.41051
# Velocity P-wave (km/s) = 6.75965 7.57550 7.17917
#
# Compressibility (1/GPa) = 0.01840780
#
# Stress axis : x y z
#
# Youngs Moduli (GPa) = 40.49757 64.41272 50.55654
#
# Poissons Ratio (x) = 0.31795 0.26597
# Poissons Ratio (y) = 0.19990 0.53579
# Poissons Ratio (z) = 0.21305 0.68264
#
# Static dielectric constant tensor:
#      x y z
#    x 3.219260 0.000000 0.000000 
#    y 0.000000 4.081370 0.000000 
#    z 0.000000 0.000000 3.073020 
# 
# 
# High freq. dielectric constant tensor:
#      x y z
#    x 1.680840 0.000000 0.000000 
#    y 0.000000 1.694160 0.000000 
#    z 0.000000 0.000000 1.648070 
# 
# From -- ./inp_files/5472.got.cif
#   From: 2010.03.12/outbox.cif.g09.slc.cpg/sg51_3_cif.got.tgz:5472.got - 2010.04.16 13:43:02.
