data_PCOD8208810
_publ_section_title
;
Structure prediction by ZEFSAII (Michael W. Deem and Ramdas Pophale) SiO2 
 PCOD8208810
Probable space group: P M M A
;
_chemical_formula_sum "Si O2"
_cell_formula_units_Z 64
_cell_length_a 19.743220
_cell_length_b 9.407859
_cell_length_c 19.576376
_cell_angle_alpha 90.000000
_cell_angle_beta 90.000000
_cell_angle_gamma 90.000000
_cell_volume 3636.144072
_symmetry_space_group_name_H-M "P M M A"
_symmetry_group_IT_number 51
_symmetry_cell_setting 'orthorhombic'
loop_
_space_group_symop_operation_xyz
x,y,z
1/2-x,-y,z
1/2+x,-y,-z
-x,y,-z
-x,-y,-z
1/2+x,y,-z
1/2-x,y,z
x,-y,z
loop_
_atom_site_type_symbol
_atom_site_label
_atom_site_fract_x
_atom_site_fract_y
_atom_site_fract_z
Si Si1 0.576983 0.660321 0.524754
Si Si2 0.326992 0.334500 0.962642
Si Si3 0.327320 0.336535 0.120993
Si Si4 0.085553 0.168357 0.857405
Si Si5 0.174768 0.831361 0.733452
Si Si6 0.109822 0.839117 0.598118
Si Si7 0.058834 0.832660 0.196688
Si Si8 0.043322 0.160436 0.352208
O O1 0.500000 0.662785 0.500000
O O2 0.604007 0.500000 0.532003
O O3 0.621399 0.742775 0.468476
O O4 0.585947 0.737618 0.597702
O O5 0.250000 0.291568 0.941685
O O6 0.338749 0.500000 0.947205
O O7 0.383001 0.243232 0.923331
O O8 0.338556 0.300522 0.041848
O O9 0.250000 0.303837 0.141768
O O10 0.344988 0.500000 0.135193
O O11 0.375185 0.240501 0.166799
O O12 0.124766 0.228089 0.791074
O O13 0.006947 0.210022 0.848157
O O14 0.095082 0.000000 0.865737
O O15 0.250000 0.781202 0.752586
O O16 0.155984 0.773567 0.658405
O O17 0.167555 0.000000 0.730827
O O18 0.034042 0.836424 0.625722
O O19 0.130720 0.000000 0.578788
O O20 0.049295 0.783020 0.274902
O O21 0.069534 0.000000 0.193670
O O22 0.071715 0.000000 0.358592
#
# Coordination Sequence:
#
# PCOD8208810 Si02
#       8
#     8   8   8   8   8   8   8   8
#     4   9  17  27  42  67  95 122 158 203 244 285
#     4   9  19  36  54  72  99 136 176 214 249 295
#     4   9  20  39  58  74  96 130 171 210 254 312
#     4  10  19  32  50  77 108 135 167 209 255 301
#     4   9  16  27  46  71  99 134 173 207 241 290
#     4   9  15  27  46  66  92 128 166 201 240 288
#     4  10  20  33  52  79 109 133 162 210 260 305
#     4   9  16  29  47  69  98 129 158 195 246 297
#
# _framework density 17.601061999999999
#
# number of rings (size 3 to 8) (size 9 to 14) (size 15 to 20)
#    0.000    2.750    1.250    1.500    0.000    4.500 
#    0.000    4.375    0.000    1.875    0.000    1.750 
#    0.000    0.000    0.000    0.000    0.000    0.000 
#
# Total GULP energy -793458.200612 kJ/mol
# GULP energy per Si atom -12397.784385 kJ/mol
# Density = 1.756100 g / cm^3
# Si number density = 17.601062 Si / 1000 Ang^3
#
#
#
# Elastic Constant Matrix: (Units=GPa)
#
#
# Indices 1 2 3 4 5 6 
#
# 1 67.7788 32.0112 41.8404 0.0000 0.0000 0.0000
# 2 32.0112 63.9190 49.4030 0.0000 0.0000 0.0000
# 3 41.8404 49.4030 98.3838 0.0000 0.0000 0.0000
# 4 0.0000 0.0000 0.0000 12.0565 0.0000 0.0000
# 5 0.0000 0.0000 0.0000 0.0000 24.0625 0.0000
# 6 0.0000 0.0000 0.0000 0.0000 0.0000 21.3009
#
#
#
# Elastic Compliance Matrix: (Units=1/GPa)
#
#
# Indices 1 2 3 4 5 6 
#
# 1 0.021326 -0.005999 -0.006057 0.000000 0.000000 0.000000
# 2 -0.005999 0.027255 -0.011135 0.000000 0.000000 0.000000
# 3 -0.006057 -0.011135 0.018332 0.000000 0.000000 0.000000
# 4 0.000000 0.000000 0.000000 0.082943 0.000000 0.000000
# 5 0.000000 0.000000 0.000000 0.000000 0.041558 0.000000
# 6 0.000000 0.000000 0.000000 0.000000 0.000000 0.046946
#
#
# Mechanical properties :
#
#
# Convention : Reuss Voigt Hill
#
# Bulk Modulus (GPa) = 48.70644 52.95454 50.83049
# Shear Modulus (GPa) = 17.14758 18.60580 17.87669
#
# Velocity S-wave (km/s) = 3.12466 3.25481 3.19040
# Velocity P-wave (km/s) = 6.38361 6.65405 6.52023
#
# Compressibility (1/GPa) = 0.02053116
#
# Stress axis : x y z
#
# Youngs Moduli (GPa) = 46.89061 36.69019 54.55021
#
# Poissons Ratio (x) = 0.22009 0.33043
# Poissons Ratio (y) = 0.28128 0.60742
# Poissons Ratio (z) = 0.28403 0.40855
#
# Static dielectric constant tensor:
#      x y z
#    x 3.065840 0.000000 0.000000 
#    y 0.000000 3.147880 0.000000 
#    z 0.000000 0.000000 3.344870 
# 
# 
# High freq. dielectric constant tensor:
#      x y z
#    x 1.655770 0.000000 0.000000 
#    y 0.000000 1.662290 0.000000 
#    z 0.000000 0.000000 1.686860 
# 
# From -- ./inp_files/34100.got.cif
#   From: 2010.03.12/outbox.cif.g09.slc.cpg/sg51_18_cif.got.tgz:34100.got - 2010.04.16 13:43:02.
