data_PCOD8208215
_publ_section_title
;
Structure prediction by ZEFSAII (Michael W. Deem and Ramdas Pophale) SiO2 
 PCOD8208215
Probable space group: P M M A
;
_chemical_formula_sum "Si O2"
_cell_formula_units_Z 52
_cell_length_a 9.279663
_cell_length_b 13.757886
_cell_length_c 23.474484
_cell_angle_alpha 90.000000
_cell_angle_beta 90.000000
_cell_angle_gamma 90.000000
_cell_volume 2996.953233
_symmetry_space_group_name_H-M "P M M A"
_symmetry_group_IT_number 51
_symmetry_cell_setting 'orthorhombic'
loop_
_space_group_symop_operation_xyz
x,y,z
1/2-x,-y,z
1/2+x,-y,-z
-x,y,-z
-x,-y,-z
1/2+x,y,-z
1/2-x,y,z
x,-y,z
loop_
_atom_site_type_symbol
_atom_site_label
_atom_site_fract_x
_atom_site_fract_y
_atom_site_fract_z
Si Si1 0.912631 0.716051 0.659766
Si Si2 0.580166 0.221420 0.169209
Si Si3 0.418018 0.889350 0.943876
Si Si4 0.588251 0.108891 0.739434
Si Si5 0.912064 0.000000 0.443886
Si Si6 0.580710 0.611418 0.772901
Si Si7 0.581758 0.787614 0.440110
O O1 0.750000 0.690683 0.640569
O O2 0.922137 0.824765 0.683982
O O3 0.965327 0.641075 0.708647
O O4 0.016057 0.710387 0.604787
O O5 0.750000 0.234268 0.176765
O O6 0.538806 0.183671 0.106616
O O7 0.525983 0.140986 0.213416
O O8 0.503718 0.324756 0.180563
O O9 0.250000 0.883662 0.956957
O O10 0.462505 0.000000 0.927678
O O11 0.500000 0.853490 0.000000
O O12 0.750000 0.116101 0.765345
O O13 0.550634 0.000000 0.719968
O O14 0.942029 0.103367 0.412663
O O15 0.000000 0.000000 0.500000
O O16 0.750000 0.000000 0.465434
O O17 0.750000 0.631900 0.780443
O O18 0.540089 0.500000 0.783609
O O19 0.500000 0.776466 0.500000
O O20 0.750000 0.764169 0.449152
#
# Coordination Sequence:
#
# PCOD8208215 Si02
#       7
#     8   8   8   8   4   8   8
#     4   9  18  31  48  71  95 120 155 198 244 291
#     4  10  19  31  49  75 104 131 163 208 255 297
#     4   9  18  31  47  71 105 143 178 207 239 280
#     4   9  18  31  46  67  97 134 170 201 238 290
#     4   8  16  28  40  58  84 118 158 190 217 260
#     4   9  19  37  58  76  96 125 162 204 252 306
#     4  10  19  31  46  65  92 126 162 197 236 284
#
# _framework density 17.350954999999999
#
# number of rings (size 3 to 8) (size 9 to 14) (size 15 to 20)
#    0.000    2.769    0.000    2.308    1.077    5.538 
#    0.000    1.538    0.000    0.923    0.000    0.000 
#    0.000    0.000    0.000    0.000    0.000    0.000 
#
# Total GULP energy -644466.609074 kJ/mol
# GULP energy per Si atom -12393.588636 kJ/mol
# Density = 1.731146 g / cm^3
# Si number density = 17.350955 Si / 1000 Ang^3
#
#
#
# Elastic Constant Matrix: (Units=GPa)
#
#
# Indices 1 2 3 4 5 6 
#
# 1 77.0963 34.1352 56.2455 0.0000 0.0000 0.0000
# 2 34.1352 90.0082 38.3658 0.0000 0.0000 0.0000
# 3 56.2455 38.3658 96.1035 0.0000 0.0000 0.0000
# 4 0.0000 0.0000 0.0000 17.7210 0.0000 0.0000
# 5 0.0000 0.0000 0.0000 0.0000 32.8935 0.0000
# 6 0.0000 0.0000 0.0000 0.0000 0.0000 20.8665
#
#
#
# Elastic Compliance Matrix: (Units=1/GPa)
#
#
# Indices 1 2 3 4 5 6 
#
# 1 0.023612 -0.003693 -0.012345 0.000000 0.000000 0.000000
# 2 -0.003693 0.013966 -0.003414 0.000000 0.000000 0.000000
# 3 -0.012345 -0.003414 0.018993 0.000000 0.000000 0.000000
# 4 0.000000 0.000000 0.000000 0.056430 0.000000 0.000000
# 5 0.000000 0.000000 0.000000 0.000000 0.030401 0.000000
# 6 0.000000 0.000000 0.000000 0.000000 0.000000 0.047924
#
#
# Mechanical properties :
#
#
# Convention : Reuss Voigt Hill
#
# Bulk Modulus (GPa) = 56.60079 57.85565 57.22822
# Shear Modulus (GPa) = 21.17575 23.26031 22.21803
#
# Velocity S-wave (km/s) = 3.49727 3.66536 3.58230
# Velocity P-wave (km/s) = 6.99998 7.16449 7.08271
#
# Compressibility (1/GPa) = 0.01766760
#
# Stress axis : x y z
#
# Youngs Moduli (GPa) = 42.35120 71.60343 52.64976
#
# Poissons Ratio (x) = 0.26441 0.64996
# Poissons Ratio (y) = 0.15639 0.17975
# Poissons Ratio (z) = 0.52283 0.24446
#
# Static dielectric constant tensor:
#      x y z
#    x 3.224740 0.000000 0.000000 
#    y 0.000000 3.950480 0.000000 
#    z 0.000000 0.000000 2.999620 
# 
# 
# High freq. dielectric constant tensor:
#      x y z
#    x 1.675090 0.000000 0.000000 
#    y 0.000000 1.649210 0.000000 
#    z 0.000000 0.000000 1.652410 
# 
# From -- ./inp_files/31709.got.cif
#   From: 2010.03.12/outbox.cif.g09.slc.cpg/sg51_16_cif.got.tgz:31709.got - 2010.04.16 13:43:02.
