data_PCOD8208590
_publ_section_title
;
Structure prediction by ZEFSAII (Michael W. Deem and Ramdas Pophale) SiO2 
 PCOD8208590
Probable space group: P M M A
;
_chemical_formula_sum "Si O2"
_cell_formula_units_Z 64
_cell_length_a 19.539739
_cell_length_b 9.067848
_cell_length_c 18.819998
_cell_angle_alpha 90.000000
_cell_angle_beta 90.000000
_cell_angle_gamma 90.000000
_cell_volume 3334.590918
_symmetry_space_group_name_H-M "P M M A"
_symmetry_group_IT_number 51
_symmetry_cell_setting 'orthorhombic'
loop_
_space_group_symop_operation_xyz
x,y,z
1/2-x,-y,z
1/2+x,-y,-z
-x,y,-z
-x,-y,-z
1/2+x,y,-z
1/2-x,y,z
x,-y,z
loop_
_atom_site_type_symbol
_atom_site_label
_atom_site_fract_x
_atom_site_fract_y
_atom_site_fract_z
Si Si1 0.170341 0.674877 0.540307
Si Si2 0.566889 0.825649 0.364442
Si Si3 0.328399 0.171499 0.007194
Si Si4 0.052139 0.674188 0.938583
Si Si5 0.522294 0.170955 0.208580
Si Si6 0.896771 0.664725 0.739114
Si Si7 0.827081 0.158032 0.838610
Si Si8 0.068161 0.331627 0.416541
O O1 0.250000 0.723273 0.529151
O O2 0.166611 0.500000 0.550494
O O3 0.138350 0.755586 0.608928
O O4 0.121513 0.727352 0.475251
O O5 0.564019 0.785924 0.280598
O O6 0.502435 0.759579 0.409467
O O7 0.566120 0.000000 0.376924
O O8 0.250000 0.221975 0.998729
O O9 0.371439 0.273666 0.954886
O O10 0.337197 0.000000 0.986803
O O11 0.360835 0.201684 0.085835
O O12 0.047546 0.500000 0.934314
O O13 0.040086 0.734970 0.859740
O O14 0.000000 0.733330 0.000000
O O15 0.444789 0.210016 0.227481
O O16 0.531165 0.000000 0.190650
O O17 0.920829 0.500000 0.759158
O O18 0.827760 0.711089 0.779656
O O19 0.888076 0.680696 0.655401
O O20 0.750000 0.131856 0.861537
O O21 0.856267 0.000000 0.810367
O O22 0.046380 0.500000 0.432288
#
# Coordination Sequence:
#
# PCOD8208590 Si02
#       8
#     8   8   8   8   8   8   8   8
#     4  10  21  37  57  81 110 145 183 221 265 320
#     4  10  21  37  58  83 108 137 179 226 268 314
#     4   9  19  36  55  74 100 139 183 220 261 320
#     4  11  23  36  54  84 115 139 172 223 275 319
#     4  10  21  37  56  77 104 140 178 216 263 322
#     4  10  19  31  50  77 107 137 172 219 267 309
#     4   9  18  32  49  70 100 140 181 216 256 316
#     4   9  19  35  55  79 109 145 181 217 262 320
#
# _framework density 19.19276
#
# number of rings (size 3 to 8) (size 9 to 14) (size 15 to 20)
#    0.000    2.250    0.000    3.375    0.000    8.750 
#    0.000    3.125    0.000    0.750    0.000    0.000 
#    0.000    0.000    0.000    0.000    0.000    0.000 
#
# Total GULP energy -792955.312451 kJ/mol
# GULP energy per Si atom -12389.926757 kJ/mol
# Density = 1.914908 g / cm^3
# Si number density = 19.192760 Si / 1000 Ang^3
#
#
#
# Elastic Constant Matrix: (Units=GPa)
#
#
# Indices 1 2 3 4 5 6 
#
# 1 94.6255 39.0637 58.6107 0.0000 0.0000 0.0000
# 2 39.0637 68.2033 53.1301 0.0000 0.0000 0.0000
# 3 58.6107 53.1301 116.9775 0.0000 0.0000 0.0000
# 4 0.0000 0.0000 0.0000 32.4361 0.0000 0.0000
# 5 0.0000 0.0000 0.0000 0.0000 26.9531 0.0000
# 6 0.0000 0.0000 0.0000 0.0000 0.0000 27.8866
#
#
#
# Elastic Compliance Matrix: (Units=1/GPa)
#
#
# Indices 1 2 3 4 5 6 
#
# 1 0.016195 -0.004573 -0.006038 0.000000 0.000000 0.000000
# 2 -0.004573 0.023981 -0.008601 0.000000 0.000000 0.000000
# 3 -0.006038 -0.008601 0.015480 0.000000 0.000000 0.000000
# 4 0.000000 0.000000 0.000000 0.030830 0.000000 0.000000
# 5 0.000000 0.000000 0.000000 0.000000 0.037101 0.000000
# 6 0.000000 0.000000 0.000000 0.000000 0.000000 0.035859
#
#
# Mechanical properties :
#
#
# Convention : Reuss Voigt Hill
#
# Bulk Modulus (GPa) = 58.02405 64.60170 61.31288
# Shear Modulus (GPa) = 24.55616 26.05529 25.30573
#
# Velocity S-wave (km/s) = 3.58082 3.68850 3.63506
# Velocity P-wave (km/s) = 6.88435 7.20226 7.04510
#
# Compressibility (1/GPa) = 0.01723423
#
# Stress axis : x y z
#
# Youngs Moduli (GPa) = 61.74586 41.69953 64.59832
#
# Poissons Ratio (x) = 0.19068 0.39003
# Poissons Ratio (y) = 0.28234 0.55560
# Poissons Ratio (z) = 0.37281 0.35865
#
# Static dielectric constant tensor:
#      x y z
#    x 3.440030 0.000000 0.000000 
#    y 0.000000 3.467680 0.000000 
#    z 0.000000 0.000000 3.687990 
# 
# 
# High freq. dielectric constant tensor:
#      x y z
#    x 1.732190 0.000000 0.000000 
#    y 0.000000 1.745640 0.000000 
#    z 0.000000 0.000000 1.752060 
# 
# From -- ./inp_files/30696.got.cif
#   From: 2010.03.12/outbox.cif.g09.slc.cpg/sg51_16_cif.got.tgz:30696.got - 2010.04.16 13:43:02.
