data_PCOD8208621
_publ_section_title
;
Structure prediction by ZEFSAII (Michael W. Deem and Ramdas Pophale) SiO2 
 PCOD8208621
Probable space group: P M M A
;
_chemical_formula_sum "Si O2"
_cell_formula_units_Z 64
_cell_length_a 18.467356
_cell_length_b 34.464202
_cell_length_c 5.027690
_cell_angle_alpha 90.000000
_cell_angle_beta 90.000000
_cell_angle_gamma 90.000000
_cell_volume 3199.937090
_symmetry_space_group_name_H-M "P M M A"
_symmetry_group_IT_number 51
_symmetry_cell_setting 'orthorhombic'
loop_
_space_group_symop_operation_xyz
x,y,z
1/2-x,-y,z
1/2+x,-y,-z
-x,y,-z
-x,-y,-z
1/2+x,y,-z
1/2-x,y,z
x,-y,z
loop_
_atom_site_type_symbol
_atom_site_label
_atom_site_fract_x
_atom_site_fract_y
_atom_site_fract_z
Si Si1 0.915359 0.217487 0.979863
Si Si2 0.164678 0.908600 0.540819
Si Si3 0.830150 0.708991 0.786206
Si Si4 0.170008 0.658460 0.708255
Si Si5 0.085875 0.543174 0.474921
Si Si6 0.414641 0.170582 0.513674
Si Si7 0.085629 0.588514 0.968251
Si Si8 0.335411 0.956883 0.048509
O O1 0.881865 0.255101 0.840841
O O2 0.891960 0.182903 0.782276
O O3 0.890467 0.204223 0.274537
O O4 0.000000 0.225697 0.000000
O O5 0.250000 0.900069 0.531005
O O6 0.124764 0.868527 0.597074
O O7 0.143705 0.939112 0.766884
O O8 0.134207 0.928043 0.272839
O O9 0.750000 0.722220 0.686271
O O10 0.861489 0.678449 0.563601
O O11 0.821627 0.691072 0.074063
O O12 0.250000 0.640303 0.647727
O O13 0.116284 0.627763 0.843239
O O14 0.113681 0.500000 0.401876
O O15 0.112565 0.555046 0.766734
O O16 0.000000 0.543738 0.500000
O O17 0.115094 0.574567 0.257095
O O18 0.500000 0.163546 0.500000
O O19 0.000000 0.593466 0.000000
O O20 0.250000 0.960261 0.085646
O O21 0.369640 0.000000 0.072138
#
# Coordination Sequence:
#
# PCOD8208621 Si02
#       8
#     8   8   8   8   8   8   8   8
#     4  10  21  37  55  77 103 135 172 211 260 312
#     4  10  19  31  51  77 100 130 173 212 250 301
#     4  10  21  37  57  79 104 138 177 215 261 318
#     4  10  21  37  55  77 108 142 173 213 269 322
#     4   9  17  30  50  76 105 136 173 220 267 307
#     4  10  21  36  53  74 105 138 166 205 261 314
#     4  10  19  32  52  78 104 135 178 219 259 312
#     4   9  17  30  49  74 103 132 166 212 259 299
#
# _framework density 20.000391
#
# number of rings (size 3 to 8) (size 9 to 14) (size 15 to 20)
#    0.000    2.250    0.000    3.000    0.000    4.500 
#    0.000    1.250    0.000    4.500    0.000    0.000 
#    0.000    0.000    0.000    0.000    0.000    0.000 
#
# Total GULP energy -792948.023431 kJ/mol
# GULP energy per Si atom -12389.812866 kJ/mol
# Density = 1.995487 g / cm^3
# Si number density = 20.000391 Si / 1000 Ang^3
#
#
#
# Elastic Constant Matrix: (Units=GPa)
#
#
# Indices 1 2 3 4 5 6 
#
# 1 33.0758 38.6452 29.5770 0.0000 0.0000 0.0000
# 2 38.6452 111.0737 29.5969 0.0000 0.0000 0.0000
# 3 29.5770 29.5969 108.9845 0.0000 0.0000 0.0000
# 4 0.0000 0.0000 0.0000 14.8387 0.0000 0.0000
# 5 0.0000 0.0000 0.0000 0.0000 18.9062 0.0000
# 6 0.0000 0.0000 0.0000 0.0000 0.0000 15.3406
#
#
#
# Elastic Compliance Matrix: (Units=1/GPa)
#
#
# Indices 1 2 3 4 5 6 
#
# 1 0.062682 -0.018623 -0.011954 0.000000 0.000000 0.000000
# 2 -0.018623 0.015239 0.000916 0.000000 0.000000 0.000000
# 3 -0.011954 0.000916 0.012171 0.000000 0.000000 0.000000
# 4 0.000000 0.000000 0.000000 0.067391 0.000000 0.000000
# 5 0.000000 0.000000 0.000000 0.000000 0.052893 0.000000
# 6 0.000000 0.000000 0.000000 0.000000 0.000000 0.065187
#
#
# Mechanical properties :
#
#
# Convention : Reuss Voigt Hill
#
# Bulk Modulus (GPa) = 32.49998 49.86359 41.18178
# Shear Modulus (GPa) = 14.48684 20.17142 17.32913
#
# Velocity S-wave (km/s) = 2.69425 3.17921 2.94673
# Velocity P-wave (km/s) = 5.09545 6.20177 5.67563
#
# Compressibility (1/GPa) = 0.03076925
#
# Stress axis : x y z
#
# Youngs Moduli (GPa) = 15.95352 65.62308 82.16284
#
# Poissons Ratio (x) = 1.22213 0.98214
# Poissons Ratio (y) = 0.29711 -0.07525
# Poissons Ratio (z) = 0.19070 -0.06010
#
# Static dielectric constant tensor:
#      x y z
#    x 3.428990 0.000000 0.000000 
#    y 0.000000 3.584840 0.000000 
#    z 0.000000 0.000000 4.090290 
# 
# 
# High freq. dielectric constant tensor:
#      x y z
#    x 1.734180 0.000000 0.000000 
#    y 0.000000 1.781570 0.000000 
#    z 0.000000 0.000000 1.806240 
# 
# From -- ./inp_files/2115.got.cif
#   From: 2010.03.12/outbox.cif.g09.slc.cpg/sg51_2_cif.got.tgz:2115.got - 2010.04.16 13:43:02.
