data_PCOD8208464
_publ_section_title
;
Structure prediction by ZEFSAII (Michael W. Deem and Ramdas Pophale) SiO2 
 PCOD8208464
Probable space group: P M M A
;
_chemical_formula_sum "Si O2"
_cell_formula_units_Z 48
_cell_length_a 17.975804
_cell_length_b 9.683812
_cell_length_c 16.256966
_cell_angle_alpha 90.000000
_cell_angle_beta 90.000000
_cell_angle_gamma 90.000000
_cell_volume 2829.920082
_symmetry_space_group_name_H-M "P M M A"
_symmetry_group_IT_number 51
_symmetry_cell_setting 'orthorhombic'
loop_
_space_group_symop_operation_xyz
x,y,z
1/2-x,-y,z
1/2+x,-y,-z
-x,y,-z
-x,-y,-z
1/2+x,y,-z
1/2-x,y,z
x,-y,z
loop_
_atom_site_type_symbol
_atom_site_label
_atom_site_fract_x
_atom_site_fract_y
_atom_site_fract_z
Si Si1 0.586357 0.658146 0.497341
Si Si2 0.462328 0.838863 0.084258
Si Si3 0.665209 0.660368 0.845040
Si Si4 0.088078 0.343400 0.320269
Si Si5 0.834015 0.840660 0.362962
Si Si6 0.465621 0.842741 0.747805
O O1 0.500000 0.701770 0.500000
O O2 0.594049 0.500000 0.467694
O O3 0.621483 0.678302 0.588651
O O4 0.632687 0.753659 0.437200
O O5 0.387038 0.752550 0.097059
O O6 0.521592 0.805378 0.156539
O O7 0.440929 0.000000 0.081355
O O8 0.500000 0.790035 0.000000
O O9 0.750000 0.701232 0.863608
O O10 0.650334 0.500000 0.864805
O O11 0.649368 0.692702 0.748818
O O12 0.060017 0.500000 0.309836
O O13 0.015796 0.249410 0.311202
O O14 0.750000 0.792943 0.344775
O O15 0.880140 0.816988 0.278388
O O16 0.837412 0.000000 0.389964
O O17 0.489506 0.000000 0.731766
#
# Coordination Sequence:
#
# PCOD8208464 Si02
#       6
#     8   8   8   8   8   8
#     4  10  19  31  49  73  98 127 166 207 244 285
#     4   9  18  33  53  77 100 124 161 202 242 292
#     4   9  18  32  50  73 101 131 161 196 242 293
#     4   9  17  30  49  71  95 125 162 199 236 286
#     4  10  21  34  47  67  96 130 167 203 241 286
#     4   9  17  31  50  69  93 126 159 196 239 286
#
# _framework density 16.96161
#
# number of rings (size 3 to 8) (size 9 to 14) (size 15 to 20)
#    0.000    2.667    1.667    0.000    0.000    2.667 
#    0.000    2.500    0.000    3.000    0.000    0.000 
#    0.000    0.000    0.000    0.000    0.000    0.000 
#
# Total GULP energy -595099.793705 kJ/mol
# GULP energy per Si atom -12397.912369 kJ/mol
# Density = 1.692300 g / cm^3
# Si number density = 16.961610 Si / 1000 Ang^3
#
#
#
# Elastic Constant Matrix: (Units=GPa)
#
#
# Indices 1 2 3 4 5 6 
#
# 1 136.1321 60.0743 66.2153 0.0000 0.0000 0.0000
# 2 60.0743 60.5619 45.9220 0.0000 0.0000 0.0000
# 3 66.2153 45.9220 105.5850 0.0000 0.0000 0.0000
# 4 0.0000 0.0000 0.0000 23.8562 0.0000 0.0000
# 5 0.0000 0.0000 0.0000 0.0000 21.8894 0.0000
# 6 0.0000 0.0000 0.0000 0.0000 0.0000 34.4525
#
#
#
# Elastic Compliance Matrix: (Units=1/GPa)
#
#
# Indices 1 2 3 4 5 6 
#
# 1 0.014183 -0.010928 -0.004141 0.000000 0.000000 0.000000
# 2 -0.010928 0.033058 -0.007524 0.000000 0.000000 0.000000
# 3 -0.004141 -0.007524 0.015341 0.000000 0.000000 0.000000
# 4 0.000000 0.000000 0.000000 0.041918 0.000000 0.000000
# 5 0.000000 0.000000 0.000000 0.000000 0.045684 0.000000
# 6 0.000000 0.000000 0.000000 0.000000 0.000000 0.029025
#
#
# Mechanical properties :
#
#
# Convention : Reuss Voigt Hill
#
# Bulk Modulus (GPa) = 57.49345 71.85579 64.67462
# Shear Modulus (GPa) = 21.72072 24.71077 23.21575
#
# Velocity S-wave (km/s) = 3.58240 3.82103 3.70364
# Velocity P-wave (km/s) = 7.14712 7.86910 7.51678
#
# Compressibility (1/GPa) = 0.01739328
#
# Stress axis : x y z
#
# Youngs Moduli (GPa) = 70.50793 30.24997 65.18568
#
# Poissons Ratio (x) = 0.33058 0.26996
# Poissons Ratio (y) = 0.77054 0.49048
# Poissons Ratio (z) = 0.29200 0.22761
#
# Static dielectric constant tensor:
#      x y z
#    x 3.148010 0.000000 0.000000 
#    y 0.000000 3.195130 0.000000 
#    z 0.000000 0.000000 3.216140 
# 
# 
# High freq. dielectric constant tensor:
#      x y z
#    x 1.639630 0.000000 0.000000 
#    y 0.000000 1.655450 0.000000 
#    z 0.000000 0.000000 1.649190 
# 
# From -- ./inp_files/30021.got.cif
#   From: 2010.03.12/outbox.cif.g09.slc.cpg/sg51_16_cif.got.tgz:30021.got - 2010.04.16 13:43:02.
