data_PCOD8208467
_publ_section_title
;
Structure prediction by ZEFSAII (Michael W. Deem and Ramdas Pophale) SiO2 
 PCOD8208467
Probable space group: P M M A
;
_chemical_formula_sum "Si O2"
_cell_formula_units_Z 32
_cell_length_a 8.883054
_cell_length_b 20.778540
_cell_length_c 9.399748
_cell_angle_alpha 90.000000
_cell_angle_beta 90.000000
_cell_angle_gamma 90.000000
_cell_volume 1734.976280
_symmetry_space_group_name_H-M "P M M A"
_symmetry_group_IT_number 51
_symmetry_cell_setting 'orthorhombic'
loop_
_space_group_symop_operation_xyz
x,y,z
1/2-x,-y,z
1/2+x,-y,-z
-x,y,-z
-x,-y,-z
1/2+x,y,-z
1/2-x,y,z
x,-y,z
loop_
_atom_site_type_symbol
_atom_site_label
_atom_site_fract_x
_atom_site_fract_y
_atom_site_fract_z
Si Si1 0.428321 0.804636 0.344926
Si Si2 0.427199 0.572611 0.352467
Si Si3 0.572756 0.685462 0.847450
Si Si4 0.426324 0.930208 0.653711
O O1 0.500000 0.795073 0.500000
O O2 0.250000 0.808981 0.359796
O O3 0.479572 0.745552 0.247395
O O4 0.492159 0.870018 0.268841
O O5 0.500000 0.594836 0.500000
O O6 0.250000 0.578101 0.373099
O O7 0.476757 0.500000 0.312162
O O8 0.483506 0.619898 0.228151
O O9 0.750000 0.684967 0.867150
O O10 0.500000 0.690987 0.000000
O O11 0.500000 0.934224 0.500000
O O12 0.250000 0.915484 0.639204
O O13 0.452178 0.000000 0.730641
#
# Coordination Sequence:
#
# PCOD8208467 Si02
#       4
#     8   8   8   8
#     4  10  19  31  49  73  99 128 164 204 246 293
#     4   9  18  34  55  78 103 130 163 203 245 291
#     4  10  22  36  50  72 101 133 168 205 245 290
#     4   9  16  26  43  69  98 126 158 198 244 292
#
# _framework density 18.444054999999999
#
# number of rings (size 3 to 8) (size 9 to 14) (size 15 to 20)
#    0.000    2.500    0.000    3.750    0.000    5.000 
#    0.000    0.000    0.000    0.750    0.000    0.000 
#    0.000    0.000    0.000    0.000    0.000    0.000 
#
# Total GULP energy -396603.198970 kJ/mol
# GULP energy per Si atom -12393.849968 kJ/mol
# Density = 1.840208 g / cm^3
# Si number density = 18.444055 Si / 1000 Ang^3
#
#
#
# Elastic Constant Matrix: (Units=GPa)
#
#
# Indices 1 2 3 4 5 6 
#
# 1 61.8199 50.7530 36.9341 0.0000 0.0000 0.0000
# 2 50.7530 175.4702 81.1764 0.0000 0.0000 0.0000
# 3 36.9341 81.1764 101.0589 0.0000 0.0000 0.0000
# 4 0.0000 0.0000 0.0000 2.5053 0.0000 0.0000
# 5 0.0000 0.0000 0.0000 0.0000 27.6894 0.0000
# 6 0.0000 0.0000 0.0000 0.0000 0.0000 28.0344
#
#
#
# Elastic Compliance Matrix: (Units=1/GPa)
#
#
# Indices 1 2 3 4 5 6 
#
# 1 0.022579 -0.004318 -0.004784 0.000000 0.000000 0.000000
# 2 -0.004318 0.009895 -0.006370 0.000000 0.000000 0.000000
# 3 -0.004784 -0.006370 0.016760 0.000000 0.000000 0.000000
# 4 0.000000 0.000000 0.000000 0.399161 0.000000 0.000000
# 5 0.000000 0.000000 0.000000 0.000000 0.036115 0.000000
# 6 0.000000 0.000000 0.000000 0.000000 0.000000 0.035670
#
#
# Mechanical properties :
#
#
# Convention : Reuss Voigt Hill
#
# Bulk Modulus (GPa) = 54.67167 75.11954 64.89561
# Shear Modulus (GPa) = 8.97312 22.94483 15.95898
#
# Velocity S-wave (km/s) = 2.20808 3.53090 2.94473
# Velocity P-wave (km/s) = 6.01723 7.57890 6.84276
#
# Compressibility (1/GPa) = 0.01829101
#
# Stress axis : x y z
#
# Youngs Moduli (GPa) = 44.28946 101.06395 59.66468
#
# Poissons Ratio (x) = 0.43635 0.28542
# Poissons Ratio (y) = 0.19122 0.38007
# Poissons Ratio (z) = 0.21187 0.64378
#
# Static dielectric constant tensor:
#      x y z
#    x 3.363820 0.000000 0.000000 
#    y 0.000000 4.356130 0.000000 
#    z 0.000000 0.000000 3.101880 
# 
# 
# High freq. dielectric constant tensor:
#      x y z
#    x 1.718640 0.000000 0.000000 
#    y 0.000000 1.745210 0.000000 
#    z 0.000000 0.000000 1.668280 
# 
# From -- ./inp_files/4856.got.cif
#   From: 2010.03.12/outbox.cif.g09.slc.cpg/sg51_3_cif.got.tgz:4856.got - 2010.04.16 13:43:02.
