data_PCOD8208545
_publ_section_title
;
Structure prediction by ZEFSAII (Michael W. Deem and Ramdas Pophale) SiO2 
 PCOD8208545
Probable space group: P M M A
;
_chemical_formula_sum "Si O2"
_cell_formula_units_Z 56
_cell_length_a 23.277939
_cell_length_b 9.208268
_cell_length_c 15.159188
_cell_angle_alpha 90.000000
_cell_angle_beta 90.000000
_cell_angle_gamma 90.000000
_cell_volume 3249.364380
_symmetry_space_group_name_H-M "P M M A"
_symmetry_group_IT_number 51
_symmetry_cell_setting 'orthorhombic'
loop_
_space_group_symop_operation_xyz
x,y,z
1/2-x,-y,z
1/2+x,-y,-z
-x,y,-z
-x,-y,-z
1/2+x,y,-z
1/2-x,y,z
x,-y,z
loop_
_atom_site_type_symbol
_atom_site_label
_atom_site_fract_x
_atom_site_fract_y
_atom_site_fract_z
Si Si1 0.250000 0.666240 0.095656
Si Si2 0.940555 0.329755 0.678738
Si Si3 0.750000 0.829314 0.087969
Si Si4 0.867324 0.166943 0.178220
Si Si5 0.431975 0.836365 0.493602
Si Si6 0.435774 0.833092 0.996716
Si Si7 0.426234 0.329565 0.666829
Si Si8 0.126093 0.331487 0.149307
O O1 0.250000 0.500000 0.064015
O O2 0.305681 0.699027 0.156159
O O3 0.250000 0.760321 0.007947
O O4 0.930922 0.500000 0.662091
O O5 0.913746 0.244376 0.596032
O O6 0.906172 0.272096 0.764073
O O7 0.007800 0.293822 0.691614
O O8 0.694442 0.780936 0.143144
O O9 0.750000 0.000000 0.071105
O O10 0.913990 0.187041 0.102082
O O11 0.884586 0.270298 0.257966
O O12 0.865456 0.000000 0.210407
O O13 0.500000 0.838522 0.500000
O O14 0.407168 0.747996 0.576424
O O15 0.407094 0.000000 0.493735
O O16 0.434345 0.000000 0.026791
O O17 0.500000 0.769986 0.000000
O O18 0.395608 0.746043 0.062101
O O19 0.416664 0.500000 0.655233
O O20 0.111926 0.500000 0.138637
#
# Coordination Sequence:
#
# PCOD8208545 Si02
#       8
#     4   8   4   8   8   8   8   8
#     4  10  20  34  52  73  96 129 176 217 248 290
#     4   9  18  32  49  73 104 134 164 201 251 306
#     4  10  20  36  54  69  92 133 176 213 256 296
#     4  10  20  33  49  70  98 130 167 209 250 295
#     4   9  17  30  50  75 102 131 163 202 247 298
#     4  10  20  32  48  72 101 132 165 204 250 301
#     4  10  19  31  50  75 102 132 164 201 250 306
#     4  10  20  33  50  72 100 133 168 209 251 294
#
# _framework density 17.23414
#
# number of rings (size 3 to 8) (size 9 to 14) (size 15 to 20)
#    0.000    2.286    1.429    1.714    0.000    4.286 
#    0.000    0.000    0.000    0.857    0.000    3.000 
#    0.000    0.000    0.000    0.000    0.000    0.000 
#
# Total GULP energy -694494.736348 kJ/mol
# GULP energy per Si atom -12401.691721 kJ/mol
# Density = 1.719491 g / cm^3
# Si number density = 17.234140 Si / 1000 Ang^3
#
#
#
# Elastic Constant Matrix: (Units=GPa)
#
#
# Indices 1 2 3 4 5 6 
#
# 1 73.9833 18.5361 21.4377 0.0000 0.0000 0.0000
# 2 18.5361 62.3559 40.0591 0.0000 0.0000 0.0000
# 3 21.4377 40.0591 92.4813 0.0000 0.0000 0.0000
# 4 0.0000 0.0000 0.0000 34.7613 0.0000 0.0000
# 5 0.0000 0.0000 0.0000 0.0000 14.4163 0.0000
# 6 0.0000 0.0000 0.0000 0.0000 0.0000 17.8465
#
#
#
# Elastic Compliance Matrix: (Units=1/GPa)
#
#
# Indices 1 2 3 4 5 6 
#
# 1 0.014900 -0.003063 -0.002127 0.000000 0.000000 0.000000
# 2 -0.003063 0.022850 -0.009188 0.000000 0.000000 0.000000
# 3 -0.002127 -0.009188 0.015286 0.000000 0.000000 0.000000
# 4 0.000000 0.000000 0.000000 0.028768 0.000000 0.000000
# 5 0.000000 0.000000 0.000000 0.000000 0.069366 0.000000
# 6 0.000000 0.000000 0.000000 0.000000 0.000000 0.056034
#
#
# Mechanical properties :
#
#
# Convention : Reuss Voigt Hill
#
# Bulk Modulus (GPa) = 41.18511 43.20961 42.19736
# Shear Modulus (GPa) = 20.48745 23.32399 21.90572
#
# Velocity S-wave (km/s) = 3.45160 3.68279 3.56907
# Velocity P-wave (km/s) = 6.31142 6.57347 6.44377
#
# Compressibility (1/GPa) = 0.02428062
#
# Stress axis : x y z
#
# Youngs Moduli (GPa) = 67.11261 43.76411 65.41993
#
# Poissons Ratio (x) = 0.13403 0.13917
# Poissons Ratio (y) = 0.20554 0.60106
# Poissons Ratio (z) = 0.14277 0.40209
#
# Static dielectric constant tensor:
#      x y z
#    x 3.260330 0.000000 0.000000 
#    y 0.000000 3.248150 0.000000 
#    z 0.000000 0.000000 3.207500 
# 
# 
# High freq. dielectric constant tensor:
#      x y z
#    x 1.646690 0.000000 0.000000 
#    y 0.000000 1.667340 0.000000 
#    z 0.000000 0.000000 1.665250 
# 
# From -- ./inp_files/25902.got.cif
#   From: 2010.03.12/outbox.cif.g09.slc.cpg/sg51_13_cif.got.tgz:25902.got - 2010.04.16 13:43:02.
