data_PCOD8208672
_publ_section_title
;
Structure prediction by ZEFSAII (Michael W. Deem and Ramdas Pophale) SiO2 
 PCOD8208672
Probable space group: P M M A
;
_chemical_formula_sum "Si O2"
_cell_formula_units_Z 64
_cell_length_a 18.510549
_cell_length_b 9.133952
_cell_length_c 19.862161
_cell_angle_alpha 90.000000
_cell_angle_beta 90.000000
_cell_angle_gamma 90.000000
_cell_volume 3358.184266
_symmetry_space_group_name_H-M "P M M A"
_symmetry_group_IT_number 51
_symmetry_cell_setting 'orthorhombic'
loop_
_space_group_symop_operation_xyz
x,y,z
1/2-x,-y,z
1/2+x,-y,-z
-x,y,-z
-x,-y,-z
1/2+x,y,-z
1/2-x,y,z
x,-y,z
loop_
_atom_site_type_symbol
_atom_site_label
_atom_site_fract_x
_atom_site_fract_y
_atom_site_fract_z
Si Si1 0.915169 0.330185 0.089655
Si Si2 0.079692 0.174643 0.514203
Si Si3 0.169288 0.174003 0.388775
Si Si4 0.939763 0.829158 0.725423
Si Si5 0.332319 0.332038 0.779433
Si Si6 0.405454 0.170179 0.663703
Si Si7 0.925947 0.670189 0.865692
Si Si8 0.333790 0.827563 0.029278
O O1 0.894879 0.500000 0.077025
O O2 0.882693 0.273722 0.160348
O O3 0.001195 0.307579 0.090751
O O4 0.880996 0.233093 0.031690
O O5 0.133547 0.236501 0.457186
O O6 0.105678 0.228446 0.587658
O O7 0.000000 0.237323 0.500000
O O8 0.076974 0.000000 0.512446
O O9 0.250000 0.237820 0.382493
O O10 0.124715 0.222889 0.323269
O O11 0.169877 0.000000 0.392957
O O12 0.936496 0.732963 0.791764
O O13 0.013545 0.794916 0.686806
O O14 0.933340 0.000000 0.744379
O O15 0.250000 0.307064 0.801473
O O16 0.350059 0.500000 0.765241
O O17 0.347444 0.247327 0.710905
O O18 0.388879 0.000000 0.667837
O O19 0.906352 0.500000 0.860291
O O20 0.860489 0.754038 0.901672
O O21 0.250000 0.787885 0.018141
O O22 0.345725 0.000000 0.034718
#
# Coordination Sequence:
#
# PCOD8208672 Si02
#       8
#     8   8   8   8   8   8   8   8
#     4  10  21  39  62  86 112 147 190 231 273 332
#     4   9  15  27  48  75 108 144 181 225 281 338
#     4   9  17  29  48  76 109 146 189 235 283 335
#     4  10  19  33  54  81 112 148 187 233 287 335
#     4  10  21  37  56  79 112 151 184 220 271 330
#     4  10  19  31  53  81 110 143 183 233 281 330
#     4  11  23  39  62  88 113 147 192 236 277 332
#     4  11  25  42  60  86 119 151 184 228 283 337
#
# _framework density 19.057918000000001
#
# number of rings (size 3 to 8) (size 9 to 14) (size 15 to 20)
#    0.000    2.000    2.500    1.500    0.000    5.750 
#    0.000    2.500    0.000    1.125    0.000    0.000 
#    0.000    0.000    0.000    0.000    0.000    0.000 
#
# Total GULP energy -793738.414440 kJ/mol
# GULP energy per Si atom -12402.162726 kJ/mol
# Density = 1.901454 g / cm^3
# Si number density = 19.057918 Si / 1000 Ang^3
#
#
#
# Elastic Constant Matrix: (Units=GPa)
#
#
# Indices 1 2 3 4 5 6 
#
# 1 82.1053 36.4618 32.2432 0.0000 0.0000 0.0000
# 2 36.4618 59.3769 52.0688 0.0000 0.0000 0.0000
# 3 32.2432 52.0688 92.0910 0.0000 0.0000 0.0000
# 4 0.0000 0.0000 0.0000 -3.4783 0.0000 0.0000
# 5 0.0000 0.0000 0.0000 0.0000 33.8045 0.0000
# 6 0.0000 0.0000 0.0000 0.0000 0.0000 22.4708
#
#
#
# Elastic Compliance Matrix: (Units=1/GPa)
#
#
# Indices 1 2 3 4 5 6 
#
# 1 0.016747 -0.010199 -0.000097 0.000000 0.000000 0.000000
# 2 -0.010199 0.039615 -0.018828 0.000000 0.000000 0.000000
# 3 -0.000097 -0.018828 0.021538 0.000000 0.000000 0.000000
# 4 0.000000 0.000000 0.000000 -0.287500 0.000000 0.000000
# 5 0.000000 0.000000 0.000000 0.000000 0.029582 0.000000
# 6 0.000000 0.000000 0.000000 0.000000 0.000000 0.044502
#
#
# Mechanical properties :
#
#
# Convention : Reuss Voigt Hill
#
# Bulk Modulus (GPa) = 50.88322 52.79120 51.83721
# Shear Modulus (GPa) = -70.70205 18.07936 -26.31135
#
# Velocity S-wave (km/s) = -6.09746 3.08336 -3.71967
# Velocity P-wave (km/s) = 4.77649 6.35899 2.96832
#
# Compressibility (1/GPa) = 0.01965284
#
# Stress axis : x y z
#
# Youngs Moduli (GPa) = 59.71347 25.24325 46.42954
#
# Poissons Ratio (x) = 0.25745 0.00451
# Poissons Ratio (y) = 0.60899 0.87415
# Poissons Ratio (z) = 0.00579 0.47527
#
# Static dielectric constant tensor:
#      x y z
#    x 3.637110 0.000000 0.000000 
#    y 0.000000 3.174330 0.000000 
#    z 0.000000 0.000000 3.662310 
# 
# 
# High freq. dielectric constant tensor:
#      x y z
#    x 1.745850 0.000000 0.000000 
#    y 0.000000 1.706620 0.000000 
#    z 0.000000 0.000000 1.754910 
# 
# From -- ./inp_files/33878.got.cif
#   From: 2010.03.12/outbox.cif.g09.slc.cpg/sg51_17_cif.got.tgz:33878.got - 2010.04.16 13:43:02.
