data_PCOD8208212
_publ_section_title
;
Structure prediction by ZEFSAII (Michael W. Deem and Ramdas Pophale) SiO2 
 PCOD8208212
Probable space group: P M M A
;
_chemical_formula_sum "Si O2"
_cell_formula_units_Z 64
_cell_length_a 9.013362
_cell_length_b 20.117534
_cell_length_c 20.498588
_cell_angle_alpha 90.000000
_cell_angle_beta 90.000000
_cell_angle_gamma 90.000000
_cell_volume 3716.939605
_symmetry_space_group_name_H-M "P M M A"
_symmetry_group_IT_number 51
_symmetry_cell_setting 'orthorhombic'
loop_
_space_group_symop_operation_xyz
x,y,z
1/2-x,-y,z
1/2+x,-y,-z
-x,y,-z
-x,-y,-z
1/2+x,y,-z
1/2-x,y,z
x,-y,z
loop_
_atom_site_type_symbol
_atom_site_label
_atom_site_fract_x
_atom_site_fract_y
_atom_site_fract_z
Si Si1 0.425860 0.926775 0.200304
Si Si2 0.418370 0.397247 0.935167
Si Si3 0.923540 0.713057 0.761913
Si Si4 0.079167 0.572224 0.196532
Si Si5 0.575353 0.924057 0.567904
Si Si6 0.424573 0.836022 0.314379
Si Si7 0.580576 0.749915 0.106773
Si Si8 0.574576 0.124045 0.936703
O O1 0.250000 0.920289 0.198401
O O2 0.492297 0.874814 0.252082
O O3 0.485890 0.912685 0.127795
O O4 0.476144 0.000000 0.222174
O O5 0.250000 0.422201 0.938390
O O6 0.488906 0.427633 0.870237
O O7 0.429029 0.318192 0.932513
O O8 0.500000 0.423530 0.000000
O O9 0.750000 0.722864 0.778313
O O10 0.963312 0.633989 0.754865
O O11 0.961653 0.756944 0.696498
O O12 0.017696 0.742807 0.820529
O O13 0.250000 0.580104 0.176815
O O14 0.050719 0.500000 0.230990
O O15 0.500000 0.906074 0.500000
O O16 0.750000 0.916225 0.558765
O O17 0.510934 0.869996 0.619977
O O18 0.536816 0.000000 0.589711
O O19 0.250000 0.847935 0.317074
O O20 0.750000 0.775326 0.111117
O O21 0.478397 0.799953 0.066560
O O22 0.750000 0.120377 0.944048
O O23 0.500000 0.089866 0.000000
#
# Coordination Sequence:
#
# PCOD8208212 Si02
#       8
#     8   8   8   8   8   8   8   8
#     4   9  17  29  46  67  87 110 147 190 229 271
#     4  10  20  31  44  62  82 109 144 183 226 278
#     4   9  16  29  49  70  90 114 149 188 224 267
#     4   9  18  31  46  64  88 115 140 176 229 281
#     4   9  17  29  47  72 103 135 163 189 221 265
#     4   9  15  27  49  74  93 119 157 193 223 259
#     4  10  19  31  46  65  87 111 143 185 235 284
#     4  11  21  32  46  63  83 111 147 190 241 287
#
# _framework density 17.218467
#
# number of rings (size 3 to 8) (size 9 to 14) (size 15 to 20)
#    0.000    2.500    1.250    1.875    0.000    4.750 
#    0.000    0.625    0.000    1.125    0.000    0.000 
#    0.000    0.500    0.000    0.375    0.000    0.750 
#
# Total GULP energy -793011.057213 kJ/mol
# GULP energy per Si atom -12390.797769 kJ/mol
# Density = 1.717928 g / cm^3
# Si number density = 17.218467 Si / 1000 Ang^3
#
#
#
# Elastic Constant Matrix: (Units=GPa)
#
#
# Indices 1 2 3 4 5 6 
#
# 1 43.6001 17.8275 23.6088 0.0000 0.0000 0.0000
# 2 17.8275 116.3947 59.6724 0.0000 0.0000 0.0000
# 3 23.6088 59.6724 103.5406 0.0000 0.0000 0.0000
# 4 0.0000 0.0000 0.0000 16.7263 0.0000 0.0000
# 5 0.0000 0.0000 0.0000 0.0000 19.2353 0.0000
# 6 0.0000 0.0000 0.0000 0.0000 0.0000 11.0424
#
#
#
# Elastic Compliance Matrix: (Units=1/GPa)
#
#
# Indices 1 2 3 4 5 6 
#
# 1 0.026316 -0.001355 -0.005220 0.000000 0.000000 0.000000
# 2 -0.001355 0.012264 -0.006759 0.000000 0.000000 0.000000
# 3 -0.005220 -0.006759 0.014744 0.000000 0.000000 0.000000
# 4 0.000000 0.000000 0.000000 0.059786 0.000000 0.000000
# 5 0.000000 0.000000 0.000000 0.000000 0.051988 0.000000
# 6 0.000000 0.000000 0.000000 0.000000 0.000000 0.090560
#
#
# Mechanical properties :
#
#
# Convention : Reuss Voigt Hill
#
# Bulk Modulus (GPa) = 37.51400 51.75031 44.63215
# Shear Modulus (GPa) = 17.16972 20.22925 18.69948
#
# Velocity S-wave (km/s) = 3.16122 3.43134 3.29905
# Velocity P-wave (km/s) = 5.92949 6.76898 6.36310
#
# Compressibility (1/GPa) = 0.02665672
#
# Stress axis : x y z
#
# Youngs Moduli (GPa) = 37.99964 81.53810 67.82564
#
# Poissons Ratio (x) = 0.11046 0.35403
# Poissons Ratio (y) = 0.05148 0.45845
# Poissons Ratio (z) = 0.19835 0.55113
#
# Static dielectric constant tensor:
#      x y z
#    x 3.058120 0.000000 0.000000 
#    y 0.000000 3.488890 0.000000 
#    z 0.000000 0.000000 3.067180 
# 
# 
# High freq. dielectric constant tensor:
#      x y z
#    x 1.644160 0.000000 0.000000 
#    y 0.000000 1.669910 0.000000 
#    z 0.000000 0.000000 1.624690 
# 
# From -- ./inp_files/32549.got.cif
#   From: 2010.03.12/outbox.cif.g09.slc.cpg/sg51_17_cif.got.tgz:32549.got - 2010.04.16 13:43:02.
