data_PCOD8208318
_publ_section_title
;
Structure prediction by ZEFSAII (Michael W. Deem and Ramdas Pophale) SiO2 
 PCOD8208318
Probable space group: P M M A
;
_chemical_formula_sum "Si O2"
_cell_formula_units_Z 64
_cell_length_a 14.135798
_cell_length_b 9.024316
_cell_length_c 31.217600
_cell_angle_alpha 90.000000
_cell_angle_beta 90.000000
_cell_angle_gamma 90.000000
_cell_volume 3982.301492
_symmetry_space_group_name_H-M "P M M A"
_symmetry_group_IT_number 51
_symmetry_cell_setting 'orthorhombic'
loop_
_space_group_symop_operation_xyz
x,y,z
1/2-x,-y,z
1/2+x,-y,-z
-x,y,-z
-x,-y,-z
1/2+x,y,-z
1/2-x,y,z
x,-y,z
loop_
_atom_site_type_symbol
_atom_site_label
_atom_site_fract_x
_atom_site_fract_y
_atom_site_fract_z
Si Si1 0.547808 0.675179 0.900201
Si Si2 0.860217 0.826155 0.819903
Si Si3 0.644709 0.176281 0.479973
Si Si4 0.104532 0.164894 0.017778
Si Si5 0.540828 0.176011 0.564192
Si Si6 0.359925 0.173929 0.350763
Si Si7 0.862301 0.666801 0.734358
Si Si8 0.851427 0.667894 0.062925
O O1 0.562605 0.500000 0.897050
O O2 0.579286 0.749944 0.856611
O O3 0.610991 0.738215 0.939075
O O4 0.437679 0.722137 0.907241
O O5 0.750000 0.789710 0.827090
O O6 0.897539 0.760009 0.775135
O O7 0.879566 0.000000 0.819909
O O8 0.750000 0.240794 0.470205
O O9 0.608600 0.234893 0.526118
O O10 0.568113 0.227730 0.444027
O O11 0.649079 0.000000 0.480864
O O12 0.143326 0.000000 0.027801
O O13 0.164621 0.239472 0.980374
O O14 0.000000 0.157614 0.000000
O O15 0.579306 0.236864 0.609345
O O16 0.546199 0.000000 0.564461
O O17 0.250000 0.209846 0.359369
O O18 0.399741 0.256424 0.308862
O O19 0.374997 0.000000 0.343744
O O20 0.750000 0.666918 0.733456
O O21 0.902357 0.500000 0.737287
O O22 0.750000 0.678603 0.087742
O O23 0.874326 0.500000 0.048929
#
# Coordination Sequence:
#
# PCOD8208318 Si02
#       8
#     8   8   8   8   8   8   8   8
#     4  10  19  31  48  68  90 117 147 177 210 251
#     4  10  20  33  48  66  89 115 141 171 210 256
#     4   8  12  18  28  45  74 109 141 174 209 241
#     4   9  17  29  44  62  85 112 143 179 214 246
#     4   8  13  19  29  49  76 106 139 171 205 246
#     4   9  15  23  37  57  81 107 133 164 204 247
#     4   9  17  29  44  62  84 108 134 166 206 253
#     4   9  18  32  48  66  89 117 148 180 213 249
#
# _framework density 16.071107999999999
#
# number of rings (size 3 to 8) (size 9 to 14) (size 15 to 20)
#    0.000    3.000    0.000    2.625    0.000    6.500 
#    0.000    0.000    0.000    0.000    0.000    2.625 
#    0.000    4.500    0.000    0.000    0.000    0.000 
#
# Total GULP energy -793147.891298 kJ/mol
# GULP energy per Si atom -12392.935802 kJ/mol
# Density = 1.603453 g / cm^3
# Si number density = 16.071108 Si / 1000 Ang^3
#
#
#
# Elastic Constant Matrix: (Units=GPa)
#
#
# Indices 1 2 3 4 5 6 
#
# 1 89.5432 29.6962 56.0013 0.0000 0.0000 0.0000
# 2 29.6962 69.2236 51.7882 0.0000 0.0000 0.0000
# 3 56.0013 51.7882 143.4928 0.0000 0.0000 0.0000
# 4 0.0000 0.0000 0.0000 9.9579 0.0000 0.0000
# 5 0.0000 0.0000 0.0000 0.0000 21.6300 0.0000
# 6 0.0000 0.0000 0.0000 0.0000 0.0000 8.8050
#
#
#
# Elastic Compliance Matrix: (Units=1/GPa)
#
#
# Indices 1 2 3 4 5 6 
#
# 1 0.015173 -0.002848 -0.004894 0.000000 0.000000 0.000000
# 2 -0.002848 0.020324 -0.006224 0.000000 0.000000 0.000000
# 3 -0.004894 -0.006224 0.011125 0.000000 0.000000 0.000000
# 4 0.000000 0.000000 0.000000 0.100423 0.000000 0.000000
# 5 0.000000 0.000000 0.000000 0.000000 0.046232 0.000000
# 6 0.000000 0.000000 0.000000 0.000000 0.000000 0.113572
#
#
# Mechanical properties :
#
#
# Convention : Reuss Voigt Hill
#
# Bulk Modulus (GPa) = 53.50110 64.13679 58.81895
# Shear Modulus (GPa) = 14.66235 19.06351 16.86293
#
# Velocity S-wave (km/s) = 3.02378 3.44786 3.24276
# Velocity P-wave (km/s) = 6.74933 7.47296 7.12034
#
# Compressibility (1/GPa) = 0.01869120
#
# Stress axis : x y z
#
# Youngs Moduli (GPa) = 65.90723 49.20364 89.88726
#
# Poissons Ratio (x) = 0.14013 0.43988
# Poissons Ratio (y) = 0.18769 0.55942
# Poissons Ratio (z) = 0.32253 0.30622
#
# Static dielectric constant tensor:
#      x y z
#    x 3.056660 0.000000 0.000000 
#    y 0.000000 2.985160 0.000000 
#    z 0.000000 0.000000 3.098130 
# 
# 
# High freq. dielectric constant tensor:
#      x y z
#    x 1.596860 0.000000 0.000000 
#    y 0.000000 1.602810 0.000000 
#    z 0.000000 0.000000 1.605780 
# 
# From -- ./inp_files/37827.got.cif
#   From: 2010.03.12/outbox.cif.g09.slc.cpg/sg51_19_cif.got.tgz:37827.got - 2010.04.16 13:43:02.
