data_PCOD8208447
_publ_section_title
;
Structure prediction by ZEFSAII (Michael W. Deem and Ramdas Pophale) SiO2 
 PCOD8208447
Probable space group: P M M A
;
_chemical_formula_sum "Si O2"
_cell_formula_units_Z 64
_cell_length_a 9.011908
_cell_length_b 13.863172
_cell_length_c 28.663144
_cell_angle_alpha 90.000000
_cell_angle_beta 90.000000
_cell_angle_gamma 90.000000
_cell_volume 3580.990646
_symmetry_space_group_name_H-M "P M M A"
_symmetry_group_IT_number 51
_symmetry_cell_setting 'orthorhombic'
loop_
_space_group_symop_operation_xyz
x,y,z
1/2-x,-y,z
1/2+x,-y,-z
-x,y,-z
-x,-y,-z
1/2+x,y,-z
1/2-x,y,z
x,-y,z
loop_
_atom_site_type_symbol
_atom_site_label
_atom_site_fract_x
_atom_site_fract_y
_atom_site_fract_z
Si Si1 0.923562 0.888734 0.359881
Si Si2 0.921478 0.100879 0.048771
Si Si3 0.576564 0.219960 0.453333
Si Si4 0.922120 0.389477 0.594200
Si Si5 0.922968 0.280932 0.688803
Si Si6 0.425055 0.309723 0.949669
Si Si7 0.575760 0.387462 0.226799
Si Si8 0.913416 0.388907 0.864707
O O1 0.750000 0.873787 0.349992
O O2 0.963398 0.854386 0.412127
O O3 0.015037 0.825509 0.322818
O O4 0.970717 0.000000 0.354371
O O5 0.750000 0.103087 0.036801
O O6 0.961420 0.202911 0.072602
O O7 0.960493 0.000000 0.076838
O O8 0.000000 0.097015 0.000000
O O9 0.500000 0.179837 0.500000
O O10 0.750000 0.227264 0.462060
O O11 0.516575 0.326861 0.442023
O O12 0.750000 0.377392 0.581484
O O13 0.973982 0.500000 0.590282
O O14 0.953798 0.353596 0.646404
O O15 0.750000 0.272457 0.700530
O O16 0.008098 0.323341 0.732602
O O17 0.250000 0.329837 0.954512
O O18 0.497048 0.381656 0.912984
O O19 0.500000 0.324285 0.000000
O O20 0.750000 0.369940 0.224328
O O21 0.538613 0.500000 0.235467
O O22 0.506659 0.346704 0.178596
O O23 0.750000 0.339433 0.868106
O O24 0.890788 0.500000 0.854381
#
# Coordination Sequence:
#
# PCOD8208447 Si02
#       8
#     8   8   8   8   8   8   8   8
#     4   9  19  36  55  75 101 133 170 212 256 302
#     4   8  14  25  42  65  91 118 150 189 233 279
#     4  10  20  33  49  70  97 131 171 213 256 301
#     4   9  18  32  49  70  98 131 165 202 246 297
#     4  10  19  32  53  80 106 130 160 202 250 301
#     4  10  19  31  49  72  99 132 169 209 251 297
#     4  10  20  34  54  79 105 133 164 199 244 300
#     4  10  21  36  52  71  98 132 169 209 251 294
#
# _framework density 17.872149
#
# number of rings (size 3 to 8) (size 9 to 14) (size 15 to 20)
#    0.000    2.500    0.000    2.250    0.000    4.750 
#    0.000    0.000    0.000    0.750    0.000    1.750 
#    0.000    0.000    0.000    0.000    0.000    0.000 
#
# Total GULP energy -793199.828348 kJ/mol
# GULP energy per Si atom -12393.747318 kJ/mol
# Density = 1.783147 g / cm^3
# Si number density = 17.872149 Si / 1000 Ang^3
#
#
#
# Elastic Constant Matrix: (Units=GPa)
#
#
# Indices 1 2 3 4 5 6 
#
# 1 100.8169 41.8224 59.5127 0.0000 0.0000 0.0000
# 2 41.8224 81.0251 35.1832 0.0000 0.0000 0.0000
# 3 59.5127 35.1832 106.2544 0.0000 0.0000 0.0000
# 4 0.0000 0.0000 0.0000 18.0155 0.0000 0.0000
# 5 0.0000 0.0000 0.0000 0.0000 31.7217 0.0000
# 6 0.0000 0.0000 0.0000 0.0000 0.0000 23.3885
#
#
#
# Elastic Compliance Matrix: (Units=1/GPa)
#
#
# Indices 1 2 3 4 5 6 
#
# 1 0.016547 -0.005275 -0.007521 0.000000 0.000000 0.000000
# 2 -0.005275 0.016096 -0.002375 0.000000 0.000000 0.000000
# 3 -0.007521 -0.002375 0.014410 0.000000 0.000000 0.000000
# 4 0.000000 0.000000 0.000000 0.055508 0.000000 0.000000
# 5 0.000000 0.000000 0.000000 0.000000 0.031524 0.000000
# 6 0.000000 0.000000 0.000000 0.000000 0.000000 0.042756
#
#
# Mechanical properties :
#
#
# Convention : Reuss Voigt Hill
#
# Bulk Modulus (GPa) = 59.84258 62.34810 61.09534
# Shear Modulus (GPa) = 23.50120 24.73033 24.11576
#
# Velocity S-wave (km/s) = 3.63017 3.72390 3.67733
# Velocity P-wave (km/s) = 7.15033 7.31103 7.23113
#
# Compressibility (1/GPa) = 0.01671051
#
# Stress axis : x y z
#
# Youngs Moduli (GPa) = 60.43351 62.12694 69.39389
#
# Poissons Ratio (x) = 0.32773 0.52193
# Poissons Ratio (y) = 0.31879 0.16482
# Poissons Ratio (z) = 0.45454 0.14756
#
# Static dielectric constant tensor:
#      x y z
#    x 3.456590 0.000000 0.000000 
#    y 0.000000 3.594420 0.000000 
#    z 0.000000 0.000000 3.088950 
# 
# 
# High freq. dielectric constant tensor:
#      x y z
#    x 1.704630 0.000000 0.000000 
#    y 0.000000 1.686380 0.000000 
#    z 0.000000 0.000000 1.669770 
# 
# From -- ./inp_files/34958.got.cif
#   From: 2010.03.12/outbox.cif.g09.slc.cpg/sg51_18_cif.got.tgz:34958.got - 2010.04.16 13:43:02.
