data_PCOD8208423
_publ_section_title
;
Structure prediction by ZEFSAII (Michael W. Deem and Ramdas Pophale) SiO2 
 PCOD8208423
Probable space group: P M M A
;
_chemical_formula_sum "Si O2"
_cell_formula_units_Z 64
_cell_length_a 8.828899
_cell_length_b 17.434246
_cell_length_c 21.114460
_cell_angle_alpha 90.000000
_cell_angle_beta 90.000000
_cell_angle_gamma 90.000000
_cell_volume 3250.047417
_symmetry_space_group_name_H-M "P M M A"
_symmetry_group_IT_number 51
_symmetry_cell_setting 'orthorhombic'
loop_
_space_group_symop_operation_xyz
x,y,z
1/2-x,-y,z
1/2+x,-y,-z
-x,y,-z
-x,-y,-z
1/2+x,y,-z
1/2-x,y,z
x,-y,z
loop_
_atom_site_type_symbol
_atom_site_label
_atom_site_fract_x
_atom_site_fract_y
_atom_site_fract_z
Si Si1 0.078889 0.082977 0.837144
Si Si2 0.424473 0.413822 0.197889
Si Si3 0.075981 0.706031 0.300789
Si Si4 0.927289 0.799481 0.062554
Si Si5 0.570425 0.755948 0.562991
Si Si6 0.577108 0.879534 0.716541
Si Si7 0.925873 0.086044 0.408605
Si Si8 0.070825 0.624680 0.933785
O O1 0.250000 0.104529 0.815233
O O2 0.010299 0.148501 0.881322
O O3 0.963658 0.075975 0.779532
O O4 0.079639 0.000000 0.871489
O O5 0.250000 0.390812 0.185317
O O6 0.437907 0.500000 0.225206
O O7 0.497174 0.356868 0.252101
O O8 0.509320 0.414213 0.130100
O O9 0.250000 0.682822 0.307661
O O10 0.009365 0.711871 0.373384
O O11 0.052098 0.789225 0.270376
O O12 0.750000 0.807247 0.056058
O O13 0.978586 0.712664 0.073699
O O14 0.000000 0.833767 0.000000
O O15 0.500000 0.716319 0.500000
O O16 0.750000 0.751288 0.560865
O O17 0.525617 0.846291 0.560554
O O18 0.750000 0.895491 0.695456
O O19 0.462327 0.913171 0.665479
O O20 0.750000 0.104765 0.419753
O O21 0.964967 0.000000 0.434993
O O22 0.250000 0.611913 0.937597
O O23 0.000000 0.591836 0.000000
#
# Coordination Sequence:
#
# PCOD8208423 Si02
#       8
#     8   8   8   8   8   8   8   8
#     4  10  20  32  45  64  93 126 161 207 261 311
#     4  10  20  35  57  83 109 137 169 207 253 305
#     4   8  17  34  54  77 104 134 169 210 256 305
#     4   9  19  34  50  68  90 122 164 207 253 302
#     4  10  20  35  55  78 105 138 178 221 261 306
#     4  10  19  31  49  71  96 128 168 211 251 299
#     4  10  20  33  49  71 102 138 173 212 259 307
#     4  10  20  35  55  78 106 139 174 211 250 300
#
# _framework density 19.692022000000001
#
# number of rings (size 3 to 8) (size 9 to 14) (size 15 to 20)
#    0.000    2.375    0.000    3.375    0.000    4.750 
#    0.000    3.125    0.000    0.375    0.000    0.000 
#    0.000    0.000    0.000    0.000    0.000    0.500 
#
# Total GULP energy -792985.879832 kJ/mol
# GULP energy per Si atom -12390.404372 kJ/mol
# Density = 1.964720 g / cm^3
# Si number density = 19.692022 Si / 1000 Ang^3
#
#
#
# Elastic Constant Matrix: (Units=GPa)
#
#
# Indices 1 2 3 4 5 6 
#
# 1 51.6543 20.3218 28.0808 0.0000 0.0000 0.0000
# 2 20.3218 74.2492 42.9912 0.0000 0.0000 0.0000
# 3 28.0808 42.9912 123.0486 0.0000 0.0000 0.0000
# 4 0.0000 0.0000 0.0000 1.3967 0.0000 0.0000
# 5 0.0000 0.0000 0.0000 0.0000 32.3916 0.0000
# 6 0.0000 0.0000 0.0000 0.0000 0.0000 14.8874
#
#
#
# Elastic Compliance Matrix: (Units=1/GPa)
#
#
# Indices 1 2 3 4 5 6 
#
# 1 0.023052 -0.004091 -0.003831 0.000000 0.000000 0.000000
# 2 -0.004091 0.017610 -0.005219 0.000000 0.000000 0.000000
# 3 -0.003831 -0.005219 0.010825 0.000000 0.000000 0.000000
# 4 0.000000 0.000000 0.000000 0.715992 0.000000 0.000000
# 5 0.000000 0.000000 0.000000 0.000000 0.030872 0.000000
# 6 0.000000 0.000000 0.000000 0.000000 0.000000 0.067171
#
#
# Mechanical properties :
#
#
# Convention : Reuss Voigt Hill
#
# Bulk Modulus (GPa) = 39.67659 47.97106 43.82383
# Shear Modulus (GPa) = 5.55429 20.23903 12.89666
#
# Velocity S-wave (km/s) = 1.68128 3.20938 2.56191
# Velocity P-wave (km/s) = 4.89502 6.17633 5.57262
#
# Compressibility (1/GPa) = 0.02520378
#
# Stress axis : x y z
#
# Youngs Moduli (GPa) = 43.38078 56.78709 92.38178
#
# Poissons Ratio (x) = 0.23230 0.35395
# Poissons Ratio (y) = 0.17746 0.48214
# Poissons Ratio (z) = 0.16621 0.29637
#
# Static dielectric constant tensor:
#      x y z
#    x 3.418400 0.000000 0.000000 
#    y 0.000000 3.631570 0.000000 
#    z 0.000000 0.000000 3.753850 
# 
# 
# High freq. dielectric constant tensor:
#      x y z
#    x 1.751370 0.000000 0.000000 
#    y 0.000000 1.751190 0.000000 
#    z 0.000000 0.000000 1.770760 
# 
# From -- ./inp_files/32431.got.cif
#   From: 2010.03.12/outbox.cif.g09.slc.cpg/sg51_17_cif.got.tgz:32431.got - 2010.04.16 13:43:02.
