data_PCOD8208577
_publ_section_title
;
Structure prediction by ZEFSAII (Michael W. Deem and Ramdas Pophale) SiO2 
 PCOD8208577
Probable space group: P M M A
;
_chemical_formula_sum "Si O2"
_cell_formula_units_Z 48
_cell_length_a 8.911645
_cell_length_b 30.241874
_cell_length_c 9.682993
_cell_angle_alpha 90.000000
_cell_angle_beta 90.000000
_cell_angle_gamma 90.000000
_cell_volume 2609.613530
_symmetry_space_group_name_H-M "P M M A"
_symmetry_group_IT_number 51
_symmetry_cell_setting 'orthorhombic'
loop_
_space_group_symop_operation_xyz
x,y,z
1/2-x,-y,z
1/2+x,-y,-z
-x,y,-z
-x,-y,-z
1/2+x,y,-z
1/2-x,y,z
x,-y,z
loop_
_atom_site_type_symbol
_atom_site_label
_atom_site_fract_x
_atom_site_fract_y
_atom_site_fract_z
Si Si1 0.927153 0.857892 0.850550
Si Si2 0.072175 0.375024 0.149589
Si Si3 0.075196 0.046701 0.146991
Si Si4 0.923062 0.206479 0.359130
Si Si5 0.424083 0.310019 0.643108
Si Si6 0.925772 0.549860 0.640541
O O1 0.750000 0.850078 0.861974
O O2 0.965848 0.906329 0.780235
O O3 0.997988 0.818943 0.763610
O O4 0.000000 0.855467 0.000000
O O5 0.250000 0.369484 0.136034
O O6 0.026453 0.419317 0.232251
O O7 0.005767 0.332996 0.228936
O O8 0.000000 0.378465 0.000000
O O9 0.250000 0.047156 0.118008
O O10 0.031703 0.000000 0.226462
O O11 0.000000 0.045845 0.000000
O O12 0.750000 0.193281 0.366588
O O13 0.945814 0.258191 0.332580
O O14 0.000000 0.191339 0.500000
O O15 0.500000 0.325232 0.500000
O O16 0.250000 0.323547 0.637886
O O17 0.750000 0.551560 0.616085
O O18 0.980750 0.500000 0.673791
O O19 0.000000 0.567726 0.500000
#
# Coordination Sequence:
#
# PCOD8208577 Si02
#       6
#     8   8   8   8   8   8
#     4  10  19  31  50  76 105 136 170 211 257 305
#     4  11  23  37  55  80 111 144 177 217 264 311
#     4   8  14  25  42  66  96 129 165 205 249 297
#     4  10  21  37  56  77 102 134 171 212 259 311
#     4  10  21  38  59  80 103 134 173 215 259 310
#     4   9  19  36  57  81 108 140 179 219 259 306
#
# _framework density 18.393529000000001
#
# number of rings (size 3 to 8) (size 9 to 14) (size 15 to 20)
#    0.000    2.333    0.000    2.500    0.000    6.333 
#    0.000    0.000    0.000    0.500    0.000    0.000 
#    0.000    0.000    0.000    0.000    0.000    0.000 
#
# Total GULP energy -594877.360407 kJ/mol
# GULP energy per Si atom -12393.278342 kJ/mol
# Density = 1.835166 g / cm^3
# Si number density = 18.393529 Si / 1000 Ang^3
#
#
#
# Elastic Constant Matrix: (Units=GPa)
#
#
# Indices 1 2 3 4 5 6 
#
# 1 97.6999 56.1567 60.3870 0.0000 0.0000 0.0000
# 2 56.1567 90.9114 65.8030 0.0000 0.0000 0.0000
# 3 60.3870 65.8030 126.0673 0.0000 0.0000 0.0000
# 4 0.0000 0.0000 0.0000 -3.3201 0.0000 0.0000
# 5 0.0000 0.0000 0.0000 0.0000 34.2087 0.0000
# 6 0.0000 0.0000 0.0000 0.0000 0.0000 37.3312
#
#
#
# Elastic Compliance Matrix: (Units=1/GPa)
#
#
# Indices 1 2 3 4 5 6 
#
# 1 0.017228 -0.007504 -0.004336 0.000000 0.000000 0.000000
# 2 -0.007504 0.020947 -0.007339 0.000000 0.000000 0.000000
# 3 -0.004336 -0.007339 0.013840 0.000000 0.000000 0.000000
# 4 0.000000 0.000000 0.000000 -0.301200 0.000000 0.000000
# 5 0.000000 0.000000 0.000000 0.000000 0.029232 0.000000
# 6 0.000000 0.000000 0.000000 0.000000 0.000000 0.026787
#
#
# Mechanical properties :
#
#
# Convention : Reuss Voigt Hill
#
# Bulk Modulus (GPa) = 73.21857 75.48575 74.35216
# Shear Modulus (GPa) = -33.27688 22.46612 -5.40538
#
# Velocity S-wave (km/s) = -4.25804 3.49867 -1.71614
# Velocity P-wave (km/s) = 3.96467 7.57953 6.04846
#
# Compressibility (1/GPa) = 0.01365774
#
# Stress axis : x y z
#
# Youngs Moduli (GPa) = 58.04371 47.73899 72.25410
#
# Poissons Ratio (x) = 0.35823 0.31328
# Poissons Ratio (y) = 0.43555 0.53030
# Poissons Ratio (z) = 0.25166 0.35038
#
# Static dielectric constant tensor:
#      x y z
#    x 3.532550 0.000000 0.000000 
#    y 0.000000 3.946420 0.000000 
#    z 0.000000 0.000000 3.133050 
# 
# 
# High freq. dielectric constant tensor:
#      x y z
#    x 1.725620 0.000000 0.000000 
#    y 0.000000 1.734790 0.000000 
#    z 0.000000 0.000000 1.683430 
# 
# From -- ./inp_files/5951.got.cif
#   From: 2010.03.12/outbox.cif.g09.slc.cpg/sg51_3_cif.got.tgz:5951.got - 2010.04.16 13:43:02.
