data_PCOD8208036
_publ_section_title
;
Structure prediction by ZEFSAII (Michael W. Deem and Ramdas Pophale) SiO2 
 PCOD8208036
Probable space group: P M M A
;
_chemical_formula_sum "Si O2"
_cell_formula_units_Z 40
_cell_length_a 8.913527
_cell_length_b 25.237333
_cell_length_c 10.118652
_cell_angle_alpha 90.000000
_cell_angle_beta 90.000000
_cell_angle_gamma 90.000000
_cell_volume 2276.227691
_symmetry_space_group_name_H-M "P M M A"
_symmetry_group_IT_number 51
_symmetry_cell_setting 'orthorhombic'
loop_
_space_group_symop_operation_xyz
x,y,z
1/2-x,-y,z
1/2+x,-y,-z
-x,y,-z
-x,-y,-z
1/2+x,y,-z
1/2-x,y,z
x,-y,z
loop_
_atom_site_type_symbol
_atom_site_label
_atom_site_fract_x
_atom_site_fract_y
_atom_site_fract_z
Si Si1 0.426681 0.060195 0.135496
Si Si2 0.926039 0.743444 0.635286
Si Si3 0.574240 0.557434 0.142226
Si Si4 0.428057 0.661167 0.144006
Si Si5 0.573092 0.863893 0.634791
O O1 0.250000 0.065547 0.119925
O O2 0.488565 0.098481 0.249605
O O3 0.474273 0.000000 0.169202
O O4 0.500000 0.079547 0.000000
O O5 0.750000 0.738997 0.614670
O O6 0.978616 0.708500 0.759647
O O7 0.976366 0.803638 0.665420
O O8 0.000000 0.722577 0.500000
O O9 0.750000 0.569979 0.128385
O O10 0.549993 0.500000 0.214373
O O11 0.491397 0.606898 0.212471
O O12 0.500000 0.553581 0.000000
O O13 0.250000 0.657655 0.129333
O O14 0.500000 0.670910 0.000000
O O15 0.500000 0.884309 0.500000
O O16 0.750000 0.868912 0.620407
#
# Coordination Sequence:
#
# PCOD8208036 Si02
#       5
#     8   8   8   8   8
#     4   9  18  32  49  70  97 127 157 191 232 277
#     4   9  19  34  50  68  92 124 158 192 233 279
#     4   9  16  26  42  65  92 121 152 187 228 272
#     4  10  19  30  46  70  96 121 153 191 231 276
#     4   9  18  33  50  69  94 122 156 196 234 275
#
# _framework density 17.572932999999999
#
# number of rings (size 3 to 8) (size 9 to 14) (size 15 to 20)
#    0.000    2.800    0.000    2.400    0.000    4.800 
#    0.000    0.000    0.000    0.600    0.000    0.000 
#    0.000    0.000    0.000    0.000    0.000    0.000 
#
# Total GULP energy -495778.523359 kJ/mol
# GULP energy per Si atom -12394.463084 kJ/mol
# Density = 1.753294 g / cm^3
# Si number density = 17.572933 Si / 1000 Ang^3
#
#
#
# Elastic Constant Matrix: (Units=GPa)
#
#
# Indices 1 2 3 4 5 6 
#
# 1 51.1359 38.6996 39.8854 0.0000 0.0000 0.0000
# 2 38.6996 122.6759 90.6597 0.0000 0.0000 0.0000
# 3 39.8854 90.6597 124.9659 0.0000 0.0000 0.0000
# 4 0.0000 0.0000 0.0000 14.3967 0.0000 0.0000
# 5 0.0000 0.0000 0.0000 0.0000 28.1259 0.0000
# 6 0.0000 0.0000 0.0000 0.0000 0.0000 23.8643
#
#
#
# Elastic Compliance Matrix: (Units=1/GPa)
#
#
# Indices 1 2 3 4 5 6 
#
# 1 0.027225 -0.004671 -0.005301 0.000000 0.000000 0.000000
# 2 -0.004671 0.018375 -0.011840 0.000000 0.000000 0.000000
# 3 -0.005301 -0.011840 0.018283 0.000000 0.000000 0.000000
# 4 0.000000 0.000000 0.000000 0.069460 0.000000 0.000000
# 5 0.000000 0.000000 0.000000 0.000000 0.035554 0.000000
# 6 0.000000 0.000000 0.000000 0.000000 0.000000 0.041904
#
#
# Mechanical properties :
#
#
# Convention : Reuss Voigt Hill
#
# Bulk Modulus (GPa) = 49.35697 70.80742 60.08220
# Shear Modulus (GPa) = 19.14400 21.91290 20.52845
#
# Velocity S-wave (km/s) = 3.30419 3.53508 3.42158
# Velocity P-wave (km/s) = 6.53489 7.55270 7.06216
#
# Compressibility (1/GPa) = 0.02026056
#
# Stress axis : x y z
#
# Youngs Moduli (GPa) = 36.73040 54.42235 54.69487
#
# Poissons Ratio (x) = 0.25423 0.28991
# Poissons Ratio (y) = 0.17158 0.64756
# Poissons Ratio (z) = 0.19469 0.64433
#
# Static dielectric constant tensor:
#      x y z
#    x 3.223210 0.000000 0.000000 
#    y 0.000000 3.901710 0.000000 
#    z 0.000000 0.000000 3.094720 
# 
# 
# High freq. dielectric constant tensor:
#      x y z
#    x 1.680760 0.000000 0.000000 
#    y 0.000000 1.691940 0.000000 
#    z 0.000000 0.000000 1.650100 
# 
# From -- ./inp_files/5502.got.cif
#   From: 2010.03.12/outbox.cif.g09.slc.cpg/sg51_3_cif.got.tgz:5502.got - 2010.04.16 13:43:02.
