data_PCOD8208334
_publ_section_title
;
Structure prediction by ZEFSAII (Michael W. Deem and Ramdas Pophale) SiO2 
 PCOD8208334
Probable space group: P M M A
;
_chemical_formula_sum "Si O2"
_cell_formula_units_Z 56
_cell_length_a 19.200239
_cell_length_b 8.995419
_cell_length_c 18.348900
_cell_angle_alpha 90.000000
_cell_angle_beta 90.000000
_cell_angle_gamma 90.000000
_cell_volume 3169.115487
_symmetry_space_group_name_H-M "P M M A"
_symmetry_group_IT_number 51
_symmetry_cell_setting 'orthorhombic'
loop_
_space_group_symop_operation_xyz
x,y,z
1/2-x,-y,z
1/2+x,-y,-z
-x,y,-z
-x,-y,-z
1/2+x,y,-z
1/2-x,y,z
x,-y,z
loop_
_atom_site_type_symbol
_atom_site_label
_atom_site_fract_x
_atom_site_fract_y
_atom_site_fract_z
Si Si1 0.073465 0.171904 0.198980
Si Si2 0.168165 0.328622 0.923045
Si Si3 0.578888 0.325373 0.347967
Si Si4 0.917031 0.667182 0.506197
Si Si5 0.330005 0.175167 0.071823
Si Si6 0.915427 0.823453 0.204249
Si Si7 0.432760 0.171760 0.358066
O O1 0.124394 0.242356 0.138516
O O2 0.106336 0.194691 0.280319
O O3 0.994790 0.235647 0.194104
O O4 0.068498 0.000000 0.180265
O O5 0.250000 0.308806 0.911609
O O6 0.145514 0.500000 0.920000
O O7 0.130731 0.237213 0.860503
O O8 0.144680 0.260367 0.999947
O O9 0.581315 0.500000 0.332006
O O10 0.615219 0.289874 0.426672
O O11 0.615337 0.239103 0.280986
O O12 0.499799 0.274195 0.353666
O O13 0.895490 0.500000 0.526700
O O14 0.888321 0.774068 0.571277
O O15 0.000000 0.682645 0.500000
O O16 0.250000 0.211625 0.089876
O O17 0.340879 0.000000 0.059475
O O18 0.911421 0.000000 0.206624
O O19 0.454165 0.000000 0.367956
#
# Coordination Sequence:
#
# PCOD8208334 Si02
#       7
#     8   8   8   8   8   8   8
#     4   8  16  29  44  68  97 120 147 189 235 269
#     4  10  21  36  51  68  92 118 147 186 227 268
#     4   9  16  26  39  58  88 120 150 186 228 271
#     4   8  14  23  35  54  83 118 151 184 224 269
#     4   9  17  32  53  70  87 118 157 189 220 266
#     4  10  19  31  48  69  94 121 150 186 228 275
#     4   9  15  23  37  58  87 120 152 187 227 271
#
# _framework density 17.670546000000002
#
# number of rings (size 3 to 8) (size 9 to 14) (size 15 to 20)
#    0.000    3.000    0.000    3.429    0.000    4.571 
#    0.000    7.143    0.000    0.000    0.000    1.000 
#    0.000    3.429    0.000    0.000    0.000    0.000 
#
# Total GULP energy -693800.115514 kJ/mol
# GULP energy per Si atom -12389.287777 kJ/mol
# Density = 1.763033 g / cm^3
# Si number density = 17.670546 Si / 1000 Ang^3
#
#
#
# Elastic Constant Matrix: (Units=GPa)
#
#
# Indices 1 2 3 4 5 6 
#
# 1 26.7437 22.2023 44.1252 0.0000 0.0000 0.0000
# 2 22.2023 76.3365 68.5403 0.0000 0.0000 0.0000
# 3 44.1252 68.5403 187.3655 0.0000 0.0000 0.0000
# 4 0.0000 0.0000 0.0000 28.2701 0.0000 0.0000
# 5 0.0000 0.0000 0.0000 0.0000 0.3555 0.0000
# 6 0.0000 0.0000 0.0000 0.0000 0.0000 12.6392
#
#
#
# Elastic Compliance Matrix: (Units=1/GPa)
#
#
# Indices 1 2 3 4 5 6 
#
# 1 0.063957 -0.007561 -0.012296 0.000000 0.000000 0.000000
# 2 -0.007561 0.020401 -0.005682 0.000000 0.000000 0.000000
# 3 -0.012296 -0.005682 0.010311 0.000000 0.000000 0.000000
# 4 0.000000 0.000000 0.000000 0.035373 0.000000 0.000000
# 5 0.000000 0.000000 0.000000 0.000000 2.813200 0.000000
# 6 0.000000 0.000000 0.000000 0.000000 0.000000 0.079119
#
#
# Mechanical properties :
#
#
# Convention : Reuss Voigt Hill
#
# Bulk Modulus (GPa) = 22.94096 62.24235 42.59166
# Shear Modulus (GPa) = 1.61919 18.62482 10.12200
#
# Velocity S-wave (km/s) = 0.95828 3.25006 2.39596
# Velocity P-wave (km/s) = 3.77296 7.02739 5.64001
#
# Compressibility (1/GPa) = 0.04359015
#
# Stress axis : x y z
#
# Youngs Moduli (GPa) = 15.63553 49.01729 96.97923
#
# Poissons Ratio (x) = 0.37064 1.19245
# Poissons Ratio (y) = 0.11823 0.55105
# Poissons Ratio (z) = 0.19225 0.27852
#
# Static dielectric constant tensor:
#      x y z
#    x 2.839260 0.000000 0.000000 
#    y 0.000000 3.270180 0.000000 
#    z 0.000000 0.000000 4.082840 
# 
# 
# High freq. dielectric constant tensor:
#      x y z
#    x 1.614410 0.000000 0.000000 
#    y 0.000000 1.679180 0.000000 
#    z 0.000000 0.000000 1.712550 
# 
# From -- ./inp_files/30428.got.cif
#   From: 2010.03.12/outbox.cif.g09.slc.cpg/sg51_16_cif.got.tgz:30428.got - 2010.04.16 13:43:02.
