data_PCOD8208354
_publ_section_title
;
Structure prediction by ZEFSAII (Michael W. Deem and Ramdas Pophale) SiO2 
 PCOD8208354
Probable space group: P M M A
;
_chemical_formula_sum "Si O2"
_cell_formula_units_Z 52
_cell_length_a 9.086865
_cell_length_b 17.887485
_cell_length_c 17.822552
_cell_angle_alpha 90.000000
_cell_angle_beta 90.000000
_cell_angle_gamma 90.000000
_cell_volume 2896.898301
_symmetry_space_group_name_H-M "P M M A"
_symmetry_group_IT_number 51
_symmetry_cell_setting 'orthorhombic'
loop_
_space_group_symop_operation_xyz
x,y,z
1/2-x,-y,z
1/2+x,-y,-z
-x,y,-z
-x,-y,-z
1/2+x,y,-z
1/2-x,y,z
x,-y,z
loop_
_atom_site_type_symbol
_atom_site_label
_atom_site_fract_x
_atom_site_fract_y
_atom_site_fract_z
Si Si1 0.083145 0.716470 0.697954
Si Si2 0.918032 0.213889 0.140317
Si Si3 0.422606 0.415795 0.233068
Si Si4 0.918701 0.084907 0.922078
Si Si5 0.075796 0.837094 0.580152
Si Si6 0.924539 0.650234 0.925638
Si Si7 0.079547 0.000000 0.577731
O O1 0.250000 0.695245 0.678175
O O2 0.072643 0.760366 0.774990
O O3 0.015909 0.771417 0.634541
O O4 0.994883 0.638948 0.705535
O O5 0.750000 0.210186 0.112085
O O6 0.995186 0.133238 0.139447
O O7 0.009891 0.267074 0.084833
O O8 0.250000 0.405373 0.241058
O O9 0.472808 0.500000 0.251710
O O10 0.469889 0.398187 0.147311
O O11 0.750000 0.110557 0.930060
O O12 0.929477 0.000000 0.894613
O O13 0.000000 0.097421 0.000000
O O14 0.250000 0.828684 0.569962
O O15 0.000000 0.826849 0.500000
O O16 0.038975 0.919927 0.616923
O O17 0.750000 0.653203 0.936789
O O18 0.000000 0.614539 0.000000
O O19 0.000000 0.000000 0.500000
O O20 0.250000 0.000000 0.559503
#
# Coordination Sequence:
#
# PCOD8208354 Si02
#       7
#     8   8   8   8   8   8   4
#     4   9  19  34  51  75 102 129 164 202 242 294
#     4  10  19  32  48  67  93 125 162 201 243 294
#     4   9  19  35  53  73  98 130 166 203 248 300
#     4  10  20  33  48  65  88 120 161 207 251 293
#     4   9  17  31  51  77 105 134 167 201 239 287
#     4  10  19  31  48  70  96 126 159 201 247 294
#     4   8  14  26  46  70 100 132 159 190 229 274
#
# _framework density 17.950233999999998
#
# number of rings (size 3 to 8) (size 9 to 14) (size 15 to 20)
#    0.000    2.615    0.000    1.846    0.000    3.385 
#    1.385    0.000    0.000    0.462    0.000    0.000 
#    0.000    0.000    0.000    0.000    0.000    0.000 
#
# Total GULP energy -644470.606482 kJ/mol
# GULP energy per Si atom -12393.665509 kJ/mol
# Density = 1.790938 g / cm^3
# Si number density = 17.950234 Si / 1000 Ang^3
#
#
#
# Elastic Constant Matrix: (Units=GPa)
#
#
# Indices 1 2 3 4 5 6 
#
# 1 71.8790 52.5476 26.7285 0.0000 0.0000 0.0000
# 2 52.5476 149.0506 56.2944 0.0000 0.0000 0.0000
# 3 26.7285 56.2944 61.3935 0.0000 0.0000 0.0000
# 4 0.0000 0.0000 0.0000 19.7755 0.0000 0.0000
# 5 0.0000 0.0000 0.0000 0.0000 24.6088 0.0000
# 6 0.0000 0.0000 0.0000 0.0000 0.0000 28.8076
#
#
#
# Elastic Compliance Matrix: (Units=1/GPa)
#
#
# Indices 1 2 3 4 5 6 
#
# 1 0.019167 -0.005516 -0.003287 0.000000 0.000000 0.000000
# 2 -0.005516 0.011851 -0.008465 0.000000 0.000000 0.000000
# 3 -0.003287 -0.008465 0.025481 0.000000 0.000000 0.000000
# 4 0.000000 0.000000 0.000000 0.050568 0.000000 0.000000
# 5 0.000000 0.000000 0.000000 0.000000 0.040636 0.000000
# 6 0.000000 0.000000 0.000000 0.000000 0.000000 0.034713
#
#
# Mechanical properties :
#
#
# Convention : Reuss Voigt Hill
#
# Bulk Modulus (GPa) = 45.53019 61.49601 53.51310
# Shear Modulus (GPa) = 22.29428 24.42191 23.35809
#
# Velocity S-wave (km/s) = 3.52803 3.69254 3.61122
# Velocity P-wave (km/s) = 6.48196 7.24661 6.87492
#
# Compressibility (1/GPa) = 0.02196345
#
# Stress axis : x y z
#
# Youngs Moduli (GPa) = 52.17326 84.38138 39.24418
#
# Poissons Ratio (x) = 0.46544 0.12899
# Poissons Ratio (y) = 0.28778 0.33221
# Poissons Ratio (z) = 0.17148 0.71431
#
# Static dielectric constant tensor:
#      x y z
#    x 3.416060 0.000000 0.000000 
#    y 0.000000 3.597100 0.000000 
#    z 0.000000 0.000000 3.058080 
# 
# 
# High freq. dielectric constant tensor:
#      x y z
#    x 1.699230 0.000000 0.000000 
#    y 0.000000 1.700020 0.000000 
#    z 0.000000 0.000000 1.661280 
# 
# From -- ./inp_files/27947.got.cif
#   From: 2010.03.12/outbox.cif.g09.slc.cpg/sg51_14_cif.got.tgz:27947.got - 2010.04.16 13:43:02.
