data_PCOD8208983
_publ_section_title
;
Structure prediction by ZEFSAII (Michael W. Deem and Ramdas Pophale) SiO2 
 PCOD8208983
Probable space group: P M M A
;
_chemical_formula_sum "Si O2"
_cell_formula_units_Z 48
_cell_length_a 8.785305
_cell_length_b 16.319916
_cell_length_c 18.456248
_cell_angle_alpha 90.000000
_cell_angle_beta 90.000000
_cell_angle_gamma 90.000000
_cell_volume 2646.172671
_symmetry_space_group_name_H-M "P M M A"
_symmetry_group_IT_number 51
_symmetry_cell_setting 'orthorhombic'
loop_
_space_group_symop_operation_xyz
x,y,z
1/2-x,-y,z
1/2+x,-y,-z
-x,y,-z
-x,-y,-z
1/2+x,y,-z
1/2-x,y,z
x,-y,z
loop_
_atom_site_type_symbol
_atom_site_label
_atom_site_fract_x
_atom_site_fract_y
_atom_site_fract_z
Si Si1 0.075571 0.746701 0.789878
Si Si2 0.431218 0.000000 0.419506
Si Si3 0.575748 0.407397 0.300565
Si Si4 0.069695 0.162127 0.644546
Si Si5 0.072598 0.000000 0.076985
Si Si6 0.571945 0.823448 0.921591
Si Si7 0.570874 0.316933 0.573705
O O1 0.250000 0.761721 0.809594
O O2 0.044341 0.653183 0.766317
O O3 0.026572 0.809373 0.725979
O O4 0.979574 0.757863 0.862614
O O5 0.500000 0.000000 0.500000
O O6 0.485594 0.078043 0.373728
O O7 0.250000 0.000000 0.425812
O O8 0.750000 0.395606 0.327179
O O9 0.543884 0.500000 0.274814
O O10 0.463775 0.384989 0.365876
O O11 0.250000 0.151383 0.634925
O O12 0.011548 0.231001 0.589573
O O13 0.024420 0.086771 0.112934
O O14 0.250000 0.000000 0.065240
O O15 0.000000 0.000000 0.000000
O O16 0.750000 0.816081 0.933077
O O17 0.500000 0.806607 0.000000
O O18 0.500000 0.351878 0.500000
O O19 0.750000 0.302708 0.567363
#
# Coordination Sequence:
#
# PCOD8208983 Si02
#       7
#     8   4   8   8   4   8   8
#     4   9  19  35  55  78 104 134 169 211 261 315
#     4  12  24  37  54  77 106 142 186 232 272 311
#     4   9  19  37  58  78 102 134 171 212 261 317
#     4  10  21  38  55  74 103 140 181 222 266 315
#     4   8  16  29  44  67  97 130 164 198 237 279
#     4  10  19  32  52  77 107 140 175 214 255 304
#     4  11  21  34  53  77 105 136 171 214 263 314
#
# _framework density 18.139405
#
# number of rings (size 3 to 8) (size 9 to 14) (size 15 to 20)
#    0.000    2.167    0.000    4.750    0.000    5.333 
#    0.000    1.667    0.000    0.500    0.000    0.000 
#    0.000    0.000    0.000    0.000    0.000    0.000 
#
# Total GULP energy -594998.638045 kJ/mol
# GULP energy per Si atom -12395.804959 kJ/mol
# Density = 1.809812 g / cm^3
# Si number density = 18.139405 Si / 1000 Ang^3
#
#
#
# Elastic Constant Matrix: (Units=GPa)
#
#
# Indices 1 2 3 4 5 6 
#
# 1 90.9799 43.4838 49.3118 0.0000 0.0000 0.0000
# 2 43.4838 131.8868 55.9679 0.0000 0.0000 0.0000
# 3 49.3118 55.9679 106.2594 0.0000 0.0000 0.0000
# 4 0.0000 0.0000 0.0000 11.6810 0.0000 0.0000
# 5 0.0000 0.0000 0.0000 0.0000 32.7793 0.0000
# 6 0.0000 0.0000 0.0000 0.0000 0.0000 24.1022
#
#
#
# Elastic Compliance Matrix: (Units=1/GPa)
#
#
# Indices 1 2 3 4 5 6 
#
# 1 0.015361 -0.002627 -0.005745 0.000000 0.000000 0.000000
# 2 -0.002627 0.010214 -0.004161 0.000000 0.000000 0.000000
# 3 -0.005745 -0.004161 0.014269 0.000000 0.000000 0.000000
# 4 0.000000 0.000000 0.000000 0.085609 0.000000 0.000000
# 5 0.000000 0.000000 0.000000 0.000000 0.030507 0.000000
# 6 0.000000 0.000000 0.000000 0.000000 0.000000 0.041490
#
#
# Mechanical properties :
#
#
# Convention : Reuss Voigt Hill
#
# Bulk Modulus (GPa) = 67.66656 69.62813 68.64734
# Shear Modulus (GPa) = 21.98379 25.73666 23.86023
#
# Velocity S-wave (km/s) = 3.48506 3.77082 3.63075
# Velocity P-wave (km/s) = 7.31976 7.57807 7.45003
#
# Compressibility (1/GPa) = 0.01477835
#
# Stress axis : x y z
#
# Youngs Moduli (GPa) = 65.10157 97.90504 70.08392
#
# Poissons Ratio (x) = 0.25715 0.40263
# Poissons Ratio (y) = 0.17099 0.29161
# Poissons Ratio (z) = 0.37401 0.40737
#
# Static dielectric constant tensor:
#      x y z
#    x 3.388150 0.000000 0.000000 
#    y 0.000000 3.341520 0.000000 
#    z 0.000000 0.000000 3.153770 
# 
# 
# High freq. dielectric constant tensor:
#      x y z
#    x 1.710990 0.000000 0.000000 
#    y 0.000000 1.700220 0.000000 
#    z 0.000000 0.000000 1.686070 
# 
# From -- ./inp_files/27620.got.cif
#   From: 2010.03.12/outbox.cif.g09.slc.cpg/sg51_14_cif.got.tgz:27620.got - 2010.04.16 13:43:02.
