data_PCOD8208407
_publ_section_title
;
Structure prediction by ZEFSAII (Michael W. Deem and Ramdas Pophale) SiO2 
 PCOD8208407
Probable space group: P M M A
;
_chemical_formula_sum "Si O2"
_cell_formula_units_Z 56
_cell_length_a 27.301706
_cell_length_b 17.543940
_cell_length_c 6.992556
_cell_angle_alpha 90.000000
_cell_angle_beta 90.000000
_cell_angle_gamma 90.000000
_cell_volume 3349.290920
_symmetry_space_group_name_H-M "P M M A"
_symmetry_group_IT_number 51
_symmetry_cell_setting 'orthorhombic'
loop_
_space_group_symop_operation_xyz
x,y,z
1/2-x,-y,z
1/2+x,-y,-z
-x,y,-z
-x,-y,-z
1/2+x,y,-z
1/2-x,y,z
x,-y,z
loop_
_atom_site_type_symbol
_atom_site_label
_atom_site_fract_x
_atom_site_fract_y
_atom_site_fract_z
Si Si1 0.104115 0.914933 0.255403
Si Si2 0.647662 0.292028 0.413826
Si Si3 0.048448 0.914280 0.886035
Si Si4 0.806886 0.411654 0.675898
Si Si5 0.945354 0.197220 0.464434
Si Si6 0.694681 0.178823 0.692354
Si Si7 0.694320 0.696912 0.011791
O O1 0.068171 0.855277 0.355940
O O2 0.160614 0.895071 0.294930
O O3 0.094032 0.000000 0.334303
O O4 0.094482 0.911374 0.029103
O O5 0.658860 0.372087 0.517264
O O6 0.590835 0.269393 0.445693
O O7 0.682390 0.226872 0.502334
O O8 0.657538 0.300120 0.188961
O O9 0.059180 0.854540 0.721789
O O10 0.042180 0.000000 0.801551
O O11 0.000000 0.890365 0.000000
O O12 0.750000 0.396943 0.621951
O O13 0.820301 0.500000 0.678760
O O14 0.817601 0.378013 0.886232
O O15 0.000000 0.228860 0.500000
O O16 0.750000 0.149657 0.677794
O O17 0.685796 0.229781 0.879480
O O18 0.750000 0.693876 0.087842
#
# Coordination Sequence:
#
# PCOD8208407 Si02
#       7
#     8   8   8   8   8   8   8
#     4  10  20  32  47  68  94 126 162 204 253 293
#     4  10  19  31  50  73  99 129 160 196 238 287
#     4  10  19  31  49  70  95 125 161 210 262 300
#     4   9  18  32  51  78 106 126 150 186 228 280
#     4  11  21  33  49  71  96 125 164 206 248 291
#     4   9  18  31  46  67  96 128 164 200 234 286
#     4   9  16  29  49  71  96 126 156 188 232 281
#
# _framework density 16.719956
#
# number of rings (size 3 to 8) (size 9 to 14) (size 15 to 20)
#    0.000    2.286    1.429    3.429    0.000    1.429 
#    0.000    1.429    0.000    0.429    0.000    5.000 
#    0.000    0.000    0.000    0.000    0.000    0.000 
#
# Total GULP energy -694425.596992 kJ/mol
# GULP energy per Si atom -12400.457089 kJ/mol
# Density = 1.668190 g / cm^3
# Si number density = 16.719956 Si / 1000 Ang^3
#
#
#
# Elastic Constant Matrix: (Units=GPa)
#
#
# Indices 1 2 3 4 5 6 
#
# 1 106.3800 40.6357 33.9993 0.0000 0.0000 0.0000
# 2 40.6357 72.6683 31.5005 0.0000 0.0000 0.0000
# 3 33.9993 31.5005 85.7136 0.0000 0.0000 0.0000
# 4 0.0000 0.0000 0.0000 12.2452 0.0000 0.0000
# 5 0.0000 0.0000 0.0000 0.0000 21.6947 0.0000
# 6 0.0000 0.0000 0.0000 0.0000 0.0000 11.1408
#
#
#
# Elastic Compliance Matrix: (Units=1/GPa)
#
#
# Indices 1 2 3 4 5 6 
#
# 1 0.012511 -0.005763 -0.002845 0.000000 0.000000 0.000000
# 2 -0.005763 0.019023 -0.004705 0.000000 0.000000 0.000000
# 3 -0.002845 -0.004705 0.014524 0.000000 0.000000 0.000000
# 4 0.000000 0.000000 0.000000 0.081664 0.000000 0.000000
# 5 0.000000 0.000000 0.000000 0.000000 0.046094 0.000000
# 6 0.000000 0.000000 0.000000 0.000000 0.000000 0.089760
#
#
# Mechanical properties :
#
#
# Convention : Reuss Voigt Hill
#
# Bulk Modulus (GPa) = 51.45929 53.00366 52.23147
# Shear Modulus (GPa) = 16.85316 19.59126 18.22221
#
# Velocity S-wave (km/s) = 3.17829 3.42677 3.30487
# Velocity P-wave (km/s) = 6.65678 6.88670 6.77272
#
# Compressibility (1/GPa) = 0.01943284
#
# Stress axis : x y z
#
# Youngs Moduli (GPa) = 79.93139 52.56685 68.84974
#
# Poissons Ratio (x) = 0.30293 0.19585
# Poissons Ratio (y) = 0.46063 0.32396
# Poissons Ratio (z) = 0.22738 0.24735
#
# Static dielectric constant tensor:
#      x y z
#    x 3.129370 0.000000 0.000000 
#    y 0.000000 2.989730 0.000000 
#    z 0.000000 0.000000 3.118610 
# 
# 
# High freq. dielectric constant tensor:
#      x y z
#    x 1.634550 0.000000 0.000000 
#    y 0.000000 1.622630 0.000000 
#    z 0.000000 0.000000 1.649510 
# 
# From -- ./inp_files/3642.got.cif
#   From: 2010.03.12/outbox.cif.g09.slc.cpg/sg51_2_cif.got.tgz:3642.got - 2010.04.16 13:43:02.
