data_PCOD8208504
_publ_section_title
;
Structure prediction by ZEFSAII (Michael W. Deem and Ramdas Pophale) SiO2 
 PCOD8208504
Probable space group: P M M A
;
_chemical_formula_sum "Si O2"
_cell_formula_units_Z 64
_cell_length_a 24.883186
_cell_length_b 9.162564
_cell_length_c 14.800578
_cell_angle_alpha 90.000000
_cell_angle_beta 90.000000
_cell_angle_gamma 90.000000
_cell_volume 3374.439787
_symmetry_space_group_name_H-M "P M M A"
_symmetry_group_IT_number 51
_symmetry_cell_setting 'orthorhombic'
loop_
_space_group_symop_operation_xyz
x,y,z
1/2-x,-y,z
1/2+x,-y,-z
-x,y,-z
-x,-y,-z
1/2+x,y,-z
1/2-x,y,z
x,-y,z
loop_
_atom_site_type_symbol
_atom_site_label
_atom_site_fract_x
_atom_site_fract_y
_atom_site_fract_z
Si Si1 0.190691 0.827865 0.175294
Si Si2 0.164820 0.835751 0.981540
Si Si3 0.589515 0.826091 0.710389
Si Si4 0.510522 0.665216 0.222755
Si Si5 0.046631 0.836055 0.936401
Si Si6 0.440290 0.328897 0.472623
Si Si7 0.391669 0.336452 0.657011
Si Si8 0.189169 0.170063 0.784825
O O1 0.250000 0.789913 0.214197
O O2 0.145382 0.769698 0.244442
O O3 0.181944 0.000000 0.165030
O O4 0.186641 0.759211 0.073293
O O5 0.100976 0.832326 0.992843
O O6 0.181785 0.760322 0.885912
O O7 0.187719 0.000000 0.977522
O O8 0.541287 0.768388 0.772908
O O9 0.583189 0.758832 0.611637
O O10 0.587118 0.000000 0.704086
O O11 0.492224 0.500000 0.202388
O O12 0.550679 0.725224 0.146482
O O13 0.545998 0.673722 0.312836
O O14 0.034409 0.000000 0.901469
O O15 0.000000 0.776976 0.000000
O O16 0.500000 0.273765 0.500000
O O17 0.442945 0.500000 0.447657
O O18 0.396393 0.297311 0.551252
O O19 0.369913 0.500000 0.671660
O O20 0.350943 0.233458 0.710239
O O21 0.250000 0.197513 0.751893
O O22 0.174619 0.000000 0.791008
#
# Coordination Sequence:
#
# PCOD8208504 Si02
#       8
#     8   8   8   8   8   8   8   8
#     4   9  18  34  55  80 113 150 186 225 272 327
#     4   9  16  29  51  79 110 145 184 224 268 322
#     4  11  22  35  57  89 116 143 183 234 286 334
#     4  11  21  35  54  78 112 152 186 223 277 340
#     4  10  19  31  49  78 114 148 184 233 285 330
#     4  10  20  39  61  81 109 145 183 225 277 341
#     4  10  21  37  57  79 108 146 184 223 274 336
#     4  10  20  34  55  83 112 144 186 234 277 318
#
# _framework density 18.966111999999999
#
# number of rings (size 3 to 8) (size 9 to 14) (size 15 to 20)
#    0.000    2.000    2.500    1.875    0.000    5.250 
#    0.000    0.625    0.000    4.500    0.000    0.000 
#    0.000    0.000    0.000    0.000    0.000    0.000 
#
# Total GULP energy -793268.189897 kJ/mol
# GULP energy per Si atom -12394.815467 kJ/mol
# Density = 1.892294 g / cm^3
# Si number density = 18.966112 Si / 1000 Ang^3
#
#
#
# Elastic Constant Matrix: (Units=GPa)
#
#
# Indices 1 2 3 4 5 6 
#
# 1 116.4587 33.0451 51.2649 0.0000 0.0000 0.0000
# 2 33.0451 57.5020 39.5030 0.0000 0.0000 0.0000
# 3 51.2649 39.5030 104.7256 0.0000 0.0000 0.0000
# 4 0.0000 0.0000 0.0000 12.5148 0.0000 0.0000
# 5 0.0000 0.0000 0.0000 0.0000 21.9267 0.0000
# 6 0.0000 0.0000 0.0000 0.0000 0.0000 16.2935
#
#
#
# Elastic Compliance Matrix: (Units=1/GPa)
#
#
# Indices 1 2 3 4 5 6 
#
# 1 0.011500 -0.003700 -0.004234 0.000000 0.000000 0.000000
# 2 -0.003700 0.024664 -0.007492 0.000000 0.000000 0.000000
# 3 -0.004234 -0.007492 0.014447 0.000000 0.000000 0.000000
# 4 0.000000 0.000000 0.000000 0.079905 0.000000 0.000000
# 5 0.000000 0.000000 0.000000 0.000000 0.045607 0.000000
# 6 0.000000 0.000000 0.000000 0.000000 0.000000 0.061374
#
#
# Mechanical properties :
#
#
# Convention : Reuss Voigt Hill
#
# Bulk Modulus (GPa) = 50.60902 58.47915 54.54409
# Shear Modulus (GPa) = 18.18599 20.47189 19.32894
#
# Velocity S-wave (km/s) = 3.09992 3.28898 3.19585
# Velocity P-wave (km/s) = 6.28924 6.73228 6.51453
#
# Compressibility (1/GPa) = 0.01975932
#
# Stress axis : x y z
#
# Youngs Moduli (GPa) = 86.95300 40.54469 69.21702
#
# Poissons Ratio (x) = 0.15003 0.29305
# Poissons Ratio (y) = 0.32177 0.51857
# Poissons Ratio (z) = 0.36814 0.30376
#
# Static dielectric constant tensor:
#      x y z
#    x 3.450790 0.000000 0.000000 
#    y 0.000000 3.152520 0.000000 
#    z 0.000000 0.000000 3.560240 
# 
# 
# High freq. dielectric constant tensor:
#      x y z
#    x 1.738290 0.000000 0.000000 
#    y 0.000000 1.699650 0.000000 
#    z 0.000000 0.000000 1.740770 
# 
# From -- ./inp_files/26234.got.cif
#   From: 2010.03.12/outbox.cif.g09.slc.cpg/sg51_14_cif.got.tgz:26234.got - 2010.04.16 13:43:02.
