data_PCOD8208642
_publ_section_title
;
Structure prediction by ZEFSAII (Michael W. Deem and Ramdas Pophale) SiO2 
 PCOD8208642
Probable space group: P M M A
;
_chemical_formula_sum "Si O2"
_cell_formula_units_Z 64
_cell_length_a 18.277313
_cell_length_b 12.960303
_cell_length_c 14.664782
_cell_angle_alpha 90.000000
_cell_angle_beta 90.000000
_cell_angle_gamma 90.000000
_cell_volume 3473.786440
_symmetry_space_group_name_H-M "P M M A"
_symmetry_group_IT_number 51
_symmetry_cell_setting 'orthorhombic'
loop_
_space_group_symop_operation_xyz
x,y,z
1/2-x,-y,z
1/2+x,-y,-z
-x,y,-z
-x,-y,-z
1/2+x,y,-z
1/2-x,y,z
x,-y,z
loop_
_atom_site_type_symbol
_atom_site_label
_atom_site_fract_x
_atom_site_fract_y
_atom_site_fract_z
Si Si1 0.163313 0.385242 0.111751
Si Si2 0.906010 0.619331 0.566603
Si Si3 0.949839 0.293296 0.379612
Si Si4 0.833274 0.274776 0.067925
Si Si5 0.168338 0.617928 0.748056
Si Si6 0.166251 0.741590 0.287003
Si Si7 0.531135 0.120278 0.715896
Si Si8 0.041850 0.880440 0.908697
O O1 0.250000 0.394213 0.106475
O O2 0.128805 0.500000 0.115960
O O3 0.138641 0.322617 0.200127
O O4 0.133845 0.325276 0.023400
O O5 0.891051 0.500000 0.540000
O O6 0.912277 0.693376 0.478196
O O7 0.839908 0.664791 0.626340
O O8 0.981458 0.627512 0.624568
O O9 0.890364 0.313506 0.303029
O O10 0.979903 0.178339 0.358340
O O11 0.750000 0.235888 0.053745
O O12 0.837267 0.362872 0.144425
O O13 0.881098 0.177476 0.097760
O O14 0.250000 0.646482 0.713350
O O15 0.150622 0.500000 0.727333
O O16 0.250000 0.778843 0.277681
O O17 0.114742 0.841528 0.296061
O O18 0.506338 0.143937 0.819385
O O19 0.527435 0.000000 0.692662
O O20 0.061654 0.000000 0.914298
O O21 0.000000 0.844668 0.000000
#
# Coordination Sequence:
#
# PCOD8208642 Si02
#       8
#     8   8   8   8   8   8   8   8
#     4   9  17  31  51  75 109 148 179 212 264 328
#     4  10  20  34  56  83 112 146 183 225 274 327
#     4  10  19  36  55  78 110 145 186 227 270 328
#     4  10  19  32  52  79 110 144 182 224 270 328
#     4  10  19  31  51  79 110 144 178 217 269 323
#     4  10  21  36  56  83 111 144 186 233 279 330
#     4  10  21  38  59  80 107 148 188 231 284 331
#     4  10  20  35  55  78 107 145 189 235 281 325
#
# _framework density 18.423701000000001
#
# number of rings (size 3 to 8) (size 9 to 14) (size 15 to 20)
#    0.000    2.125    1.250    3.000    0.000    3.250 
#    0.000    5.000    0.000    6.375    0.000    0.000 
#    0.000    0.000    0.000    0.000    0.000    0.000 
#
# Total GULP energy -793506.892998 kJ/mol
# GULP energy per Si atom -12398.545203 kJ/mol
# Density = 1.838177 g / cm^3
# Si number density = 18.423701 Si / 1000 Ang^3
#
#
#
# Elastic Constant Matrix: (Units=GPa)
#
#
# Indices 1 2 3 4 5 6 
#
# 1 79.0831 49.8643 37.1510 0.0000 0.0000 0.0000
# 2 49.8643 112.9413 47.7597 0.0000 0.0000 0.0000
# 3 37.1510 47.7597 105.6355 0.0000 0.0000 0.0000
# 4 0.0000 0.0000 0.0000 29.1097 0.0000 0.0000
# 5 0.0000 0.0000 0.0000 0.0000 29.8745 0.0000
# 6 0.0000 0.0000 0.0000 0.0000 0.0000 23.1088
#
#
#
# Elastic Compliance Matrix: (Units=1/GPa)
#
#
# Indices 1 2 3 4 5 6 
#
# 1 0.018502 -0.006698 -0.003479 0.000000 0.000000 0.000000
# 2 -0.006698 0.013372 -0.003690 0.000000 0.000000 0.000000
# 3 -0.003479 -0.003690 0.012358 0.000000 0.000000 0.000000
# 4 0.000000 0.000000 0.000000 0.034353 0.000000 0.000000
# 5 0.000000 0.000000 0.000000 0.000000 0.033473 0.000000
# 6 0.000000 0.000000 0.000000 0.000000 0.000000 0.043274
#
#
# Mechanical properties :
#
#
# Convention : Reuss Voigt Hill
#
# Bulk Modulus (GPa) = 60.60994 63.02330 61.81662
# Shear Modulus (GPa) = 26.51603 27.27761 26.89682
#
# Velocity S-wave (km/s) = 3.79784 3.85199 3.82501
# Velocity P-wave (km/s) = 7.22500 7.35294 7.28925
#
# Compressibility (1/GPa) = 0.01649895
#
# Stress axis : x y z
#
# Youngs Moduli (GPa) = 54.04710 74.78495 80.91696
#
# Poissons Ratio (x) = 0.50089 0.28150
# Poissons Ratio (y) = 0.36200 0.29859
# Poissons Ratio (z) = 0.18803 0.27596
#
# Static dielectric constant tensor:
#      x y z
#    x 3.276830 0.000000 0.000000 
#    y 0.000000 3.253180 0.000000 
#    z 0.000000 0.000000 3.510390 
# 
# 
# High freq. dielectric constant tensor:
#      x y z
#    x 1.704880 0.000000 0.000000 
#    y 0.000000 1.701390 0.000000 
#    z 0.000000 0.000000 1.722190 
# 
# From -- ./inp_files/25214.got.cif
#   From: 2010.03.12/outbox.cif.g09.slc.cpg/sg51_13_cif.got.tgz:25214.got - 2010.04.16 13:43:02.
