data_PCOD8208299
_publ_section_title
;
Structure prediction by ZEFSAII (Michael W. Deem and Ramdas Pophale) SiO2 
 PCOD8208299
Probable space group: P M M A
;
_chemical_formula_sum "Si O2"
_cell_formula_units_Z 56
_cell_length_a 18.018001
_cell_length_b 9.661177
_cell_length_c 19.287536
_cell_angle_alpha 90.000000
_cell_angle_beta 90.000000
_cell_angle_gamma 90.000000
_cell_volume 3357.479697
_symmetry_space_group_name_H-M "P M M A"
_symmetry_group_IT_number 51
_symmetry_cell_setting 'orthorhombic'
loop_
_space_group_symop_operation_xyz
x,y,z
1/2-x,-y,z
1/2+x,-y,-z
-x,y,-z
-x,-y,-z
1/2+x,y,-z
1/2-x,y,z
x,-y,z
loop_
_atom_site_type_symbol
_atom_site_label
_atom_site_fract_x
_atom_site_fract_y
_atom_site_fract_z
Si Si1 0.569346 0.342440 0.949645
Si Si2 0.956927 0.160859 0.569853
Si Si3 0.474056 0.158525 0.856671
Si Si4 0.943925 0.842208 0.300711
Si Si5 0.165369 0.657688 0.478483
Si Si6 0.163634 0.839238 0.952578
Si Si7 0.165039 0.347673 0.635104
O O1 0.594072 0.500000 0.930275
O O2 0.539688 0.257796 0.883450
O O3 0.500000 0.347988 0.000000
O O4 0.638213 0.259604 0.983967
O O5 0.880840 0.245684 0.572735
O O6 0.000000 0.204108 0.500000
O O7 0.999701 0.204701 0.639249
O O8 0.937496 0.000000 0.569473
O O9 0.476719 0.183746 0.774812
O O10 0.391655 0.191614 0.887635
O O11 0.494388 0.000000 0.875308
O O12 0.870380 0.752441 0.308480
O O13 0.920483 0.000000 0.311415
O O14 0.250000 0.669760 0.454927
O O15 0.137892 0.500000 0.472455
O O16 0.155208 0.710839 0.557343
O O17 0.250000 0.805894 0.933154
O O18 0.156343 0.000000 0.975135
O O19 0.250000 0.357796 0.655279
O O20 0.128733 0.500000 0.640284
#
# Coordination Sequence:
#
# PCOD8208299 Si02
#       7
#     8   8   8   8   8   8   8
#     4   9  17  30  49  72  97 125 158 194 232 275
#     4  10  19  31  47  70  98 124 160 208 252 294
#     4   9  18  32  49  69  98 133 166 197 234 283
#     4  10  20  32  47  70  98 130 165 203 244 288
#     4   9  18  32  49  68  89 117 157 203 249 297
#     4   9  17  30  50  75 100 127 159 193 230 277
#     4   9  18  31  45  64  92 124 158 196 241 294
#
# _framework density 16.679178
#
# number of rings (size 3 to 8) (size 9 to 14) (size 15 to 20)
#    0.000    2.714    1.429    1.286    0.000    4.571 
#    0.000    2.857    0.000    0.857    0.000    2.000 
#    0.000    0.000    0.000    0.000    0.000    0.000 
#
# Total GULP energy -694140.794075 kJ/mol
# GULP energy per Si atom -12395.371323 kJ/mol
# Density = 1.664122 g / cm^3
# Si number density = 16.679178 Si / 1000 Ang^3
#
#
#
# Elastic Constant Matrix: (Units=GPa)
#
#
# Indices 1 2 3 4 5 6 
#
# 1 57.2050 40.9786 37.4099 0.0000 0.0000 0.0000
# 2 40.9786 77.3861 45.8203 0.0000 0.0000 0.0000
# 3 37.4099 45.8203 90.3087 0.0000 0.0000 0.0000
# 4 0.0000 0.0000 0.0000 20.7144 0.0000 0.0000
# 5 0.0000 0.0000 0.0000 0.0000 19.6598 0.0000
# 6 0.0000 0.0000 0.0000 0.0000 0.0000 31.5648
#
#
#
# Elastic Compliance Matrix: (Units=1/GPa)
#
#
# Indices 1 2 3 4 5 6 
#
# 1 0.030516 -0.012399 -0.006350 0.000000 0.000000 0.000000
# 2 -0.012399 0.023510 -0.006792 0.000000 0.000000 0.000000
# 3 -0.006350 -0.006792 0.017149 0.000000 0.000000 0.000000
# 4 0.000000 0.000000 0.000000 0.048276 0.000000 0.000000
# 5 0.000000 0.000000 0.000000 0.000000 0.050865 0.000000
# 6 0.000000 0.000000 0.000000 0.000000 0.000000 0.031681
#
#
# Mechanical properties :
#
#
# Convention : Reuss Voigt Hill
#
# Bulk Modulus (GPa) = 49.76912 52.59082 51.17997
# Shear Modulus (GPa) = 19.24734 21.10053 20.17393
#
# Velocity S-wave (km/s) = 3.40070 3.56066 3.48160
# Velocity P-wave (km/s) = 6.73228 6.96446 6.84935
#
# Compressibility (1/GPa) = 0.02009278
#
# Stress axis : x y z
#
# Youngs Moduli (GPa) = 32.76987 42.53592 58.31078
#
# Poissons Ratio (x) = 0.52742 0.37027
# Poissons Ratio (y) = 0.40633 0.39603
# Poissons Ratio (z) = 0.20808 0.28889
#
# Static dielectric constant tensor:
#      x y z
#    x 3.009580 0.000000 0.000000 
#    y 0.000000 3.298100 0.000000 
#    z 0.000000 0.000000 2.972610 
# 
# 
# High freq. dielectric constant tensor:
#      x y z
#    x 1.627600 0.000000 0.000000 
#    y 0.000000 1.649160 0.000000 
#    z 0.000000 0.000000 1.618790 
# 
# From -- ./inp_files/33691.got.cif
#   From: 2010.03.12/outbox.cif.g09.slc.cpg/sg51_17_cif.got.tgz:33691.got - 2010.04.16 13:43:02.
