data_PCOD8208420
_publ_section_title
;
Structure prediction by ZEFSAII (Michael W. Deem and Ramdas Pophale) SiO2 
 PCOD8208420
Probable space group: P M M A
;
_chemical_formula_sum "Si O2"
_cell_formula_units_Z 48
_cell_length_a 20.657517
_cell_length_b 9.335336
_cell_length_c 14.985510
_cell_angle_alpha 90.000000
_cell_angle_beta 90.000000
_cell_angle_gamma 90.000000
_cell_volume 2889.878610
_symmetry_space_group_name_H-M "P M M A"
_symmetry_group_IT_number 51
_symmetry_cell_setting 'orthorhombic'
loop_
_space_group_symop_operation_xyz
x,y,z
1/2-x,-y,z
1/2+x,-y,-z
-x,y,-z
-x,-y,-z
1/2+x,y,-z
1/2-x,y,z
x,-y,z
loop_
_atom_site_type_symbol
_atom_site_label
_atom_site_fract_x
_atom_site_fract_y
_atom_site_fract_z
Si Si1 0.460754 0.329478 0.412893
Si Si2 0.678610 0.664101 0.006684
Si Si3 0.981424 0.835312 0.761158
Si Si4 0.556342 0.835658 0.064617
Si Si5 0.818942 0.335287 0.619305
Si Si6 0.137581 0.661160 0.187474
O O1 0.500000 0.282575 0.500000
O O2 0.461835 0.500000 0.398208
O O3 0.495196 0.256375 0.328054
O O4 0.386064 0.271449 0.421190
O O5 0.750000 0.709665 0.041443
O O6 0.664400 0.500000 0.031255
O O7 0.624093 0.757033 0.053370
O O8 0.679859 0.685883 0.900129
O O9 0.040095 0.819506 0.830702
O O10 0.919229 0.777010 0.813289
O O11 0.970209 0.000000 0.734059
O O12 0.566302 0.000000 0.037138
O O13 0.500000 0.770591 0.000000
O O14 0.750000 0.265552 0.585067
O O15 0.817478 0.500000 0.591558
O O16 0.818219 0.315951 0.725907
O O17 0.107843 0.500000 0.189424
#
# Coordination Sequence:
#
# PCOD8208420 Si02
#       6
#     8   8   8   8   8   8
#     4   9  18  32  50  72  96 122 155 196 244 297
#     4  10  20  31  46  71 100 130 168 212 253 292
#     4  10  19  31  49  71  95 125 164 204 240 284
#     4  10  20  34  49  68  97 133 172 206 240 290
#     4   8  13  23  42  66  91 118 146 179 225 285
#     4   9  16  27  44  67  96 126 154 189 240 295
#
# _framework density 16.609693
#
# number of rings (size 3 to 8) (size 9 to 14) (size 15 to 20)
#    0.000    2.667    1.667    2.000    0.000    4.333 
#    0.000    0.000    0.000   13.000    0.000    2.333 
#    0.000    0.000    0.000    0.000    0.000    0.000 
#
# Total GULP energy -594754.212563 kJ/mol
# GULP energy per Si atom -12390.712762 kJ/mol
# Density = 1.657189 g / cm^3
# Si number density = 16.609693 Si / 1000 Ang^3
#
#
#
# Elastic Constant Matrix: (Units=GPa)
#
#
# Indices 1 2 3 4 5 6 
#
# 1 132.1087 46.0595 56.2687 0.0000 0.0000 0.0000
# 2 46.0595 55.3663 31.9128 0.0000 0.0000 0.0000
# 3 56.2687 31.9128 71.4679 0.0000 0.0000 0.0000
# 4 0.0000 0.0000 0.0000 21.9405 0.0000 0.0000
# 5 0.0000 0.0000 0.0000 0.0000 13.8352 0.0000
# 6 0.0000 0.0000 0.0000 0.0000 0.0000 15.3185
#
#
#
# Elastic Compliance Matrix: (Units=1/GPa)
#
#
# Indices 1 2 3 4 5 6 
#
# 1 0.012962 -0.006599 -0.007258 0.000000 0.000000 0.000000
# 2 -0.006599 0.027681 -0.007165 0.000000 0.000000 0.000000
# 3 -0.007258 -0.007165 0.022906 0.000000 0.000000 0.000000
# 4 0.000000 0.000000 0.000000 0.045578 0.000000 0.000000
# 5 0.000000 0.000000 0.000000 0.000000 0.072280 0.000000
# 6 0.000000 0.000000 0.000000 0.000000 0.000000 0.065281
#
#
# Mechanical properties :
#
#
# Convention : Reuss Voigt Hill
#
# Bulk Modulus (GPa) = 46.50196 58.60277 52.55237
# Shear Modulus (GPa) = 16.89755 18.53230 17.71492
#
# Velocity S-wave (km/s) = 3.19302 3.34391 3.26934
# Velocity P-wave (km/s) = 6.45380 7.08998 6.77936
#
# Compressibility (1/GPa) = 0.02150447
#
# Stress axis : x y z
#
# Youngs Moduli (GPa) = 77.14865 36.12547 43.65593
#
# Poissons Ratio (x) = 0.23841 0.31688
# Poissons Ratio (y) = 0.50913 0.31278
# Poissons Ratio (z) = 0.55998 0.25883
#
# Static dielectric constant tensor:
#      x y z
#    x 3.208220 0.000000 0.000000 
#    y 0.000000 2.973000 0.000000 
#    z 0.000000 0.000000 2.952790 
# 
# 
# High freq. dielectric constant tensor:
#      x y z
#    x 1.636660 0.000000 0.000000 
#    y 0.000000 1.620600 0.000000 
#    z 0.000000 0.000000 1.614170 
# 
# From -- ./inp_files/25445.got.cif
#   From: 2010.03.12/outbox.cif.g09.slc.cpg/sg51_13_cif.got.tgz:25445.got - 2010.04.16 13:43:02.
