data_PCOD8208625
_publ_section_title
;
Structure prediction by ZEFSAII (Michael W. Deem and Ramdas Pophale) SiO2 
 PCOD8208625
Probable space group: P M M A
;
_chemical_formula_sum "Si O2"
_cell_formula_units_Z 56
_cell_length_a 9.043359
_cell_length_b 14.290971
_cell_length_c 23.468707
_cell_angle_alpha 90.000000
_cell_angle_beta 90.000000
_cell_angle_gamma 90.000000
_cell_volume 3033.057702
_symmetry_space_group_name_H-M "P M M A"
_symmetry_group_IT_number 51
_symmetry_cell_setting 'orthorhombic'
loop_
_space_group_symop_operation_xyz
x,y,z
1/2-x,-y,z
1/2+x,-y,-z
-x,y,-z
-x,-y,-z
1/2+x,y,-z
1/2-x,y,z
x,-y,z
loop_
_atom_site_type_symbol
_atom_site_label
_atom_site_fract_x
_atom_site_fract_y
_atom_site_fract_z
Si Si1 0.920783 0.107815 0.164471
Si Si2 0.077815 0.391752 0.113547
Si Si3 0.076063 0.729798 0.663797
Si Si4 0.581197 0.607901 0.228372
Si Si5 0.076074 0.892483 0.280330
Si Si6 0.575207 0.770509 0.056769
Si Si7 0.424344 0.606614 0.558124
O O1 0.750000 0.127683 0.178372
O O2 0.973845 0.165095 0.109576
O O3 0.012250 0.140654 0.219441
O O4 0.950573 0.000000 0.150361
O O5 0.250000 0.368220 0.108569
O O6 0.043920 0.500000 0.101562
O O7 0.022870 0.363043 0.176287
O O8 0.987224 0.333697 0.066788
O O9 0.250000 0.747858 0.661047
O O10 0.031205 0.666345 0.717253
O O11 0.020025 0.676048 0.607593
O O12 0.993765 0.829355 0.669533
O O13 0.750000 0.630130 0.210609
O O14 0.562243 0.500000 0.245048
O O15 0.250000 0.878541 0.279355
O O16 0.031855 0.000000 0.292472
O O17 0.750000 0.767916 0.048548
O O18 0.500000 0.812197 0.000000
O O19 0.500000 0.640070 0.500000
O O20 0.250000 0.613619 0.550397
O O21 0.470691 0.500000 0.573332
#
# Coordination Sequence:
#
# PCOD8208625 Si02
#       7
#     8   8   8   8   8   8   8
#     4   9  19  37  58  78 102 132 164 199 246 306
#     4  10  21  36  52  71  98 131 165 204 250 298
#     4  10  19  31  51  77 104 137 174 210 250 298
#     4   9  17  30  49  74 103 132 162 199 246 300
#     4  10  21  35  52  77 106 134 166 208 257 303
#     4  11  23  37  54  75  98 127 164 205 248 296
#     4   9  18  33  52  76 108 144 180 215 251 295
#
# _framework density 18.463215999999999
#
# number of rings (size 3 to 8) (size 9 to 14) (size 15 to 20)
#    0.000    2.286    0.000    2.571    0.000    9.714 
#    0.000    0.000    0.000    4.714    0.000    0.000 
#    0.000    0.000    0.000    0.000    0.000    0.000 
#
# Total GULP energy -694589.554124 kJ/mol
# GULP energy per Si atom -12403.384895 kJ/mol
# Density = 1.842119 g / cm^3
# Si number density = 18.463216 Si / 1000 Ang^3
#
#
#
# Elastic Constant Matrix: (Units=GPa)
#
#
# Indices 1 2 3 4 5 6 
#
# 1 59.9449 40.9307 44.3776 0.0000 0.0000 0.0000
# 2 40.9307 91.4204 69.7886 0.0000 0.0000 0.0000
# 3 44.3776 69.7886 113.3094 0.0000 0.0000 0.0000
# 4 0.0000 0.0000 0.0000 28.6392 0.0000 0.0000
# 5 0.0000 0.0000 0.0000 0.0000 32.5650 0.0000
# 6 0.0000 0.0000 0.0000 0.0000 0.0000 25.5289
#
#
#
# Elastic Compliance Matrix: (Units=1/GPa)
#
#
# Indices 1 2 3 4 5 6 
#
# 1 0.025808 -0.007245 -0.005645 0.000000 0.000000 0.000000
# 2 -0.007245 0.022680 -0.011131 0.000000 0.000000 0.000000
# 3 -0.005645 -0.011131 0.017892 0.000000 0.000000 0.000000
# 4 0.000000 0.000000 0.000000 0.034917 0.000000 0.000000
# 5 0.000000 0.000000 0.000000 0.000000 0.030708 0.000000
# 6 0.000000 0.000000 0.000000 0.000000 0.000000 0.039171
#
#
# Mechanical properties :
#
#
# Convention : Reuss Voigt Hill
#
# Bulk Modulus (GPa) = 54.53543 63.87427 59.20485
# Shear Modulus (GPa) = 22.18948 24.65181 23.42064
#
# Velocity S-wave (km/s) = 3.47049 3.65798 3.56547
# Velocity P-wave (km/s) = 6.75726 7.24649 7.00615
#
# Compressibility (1/GPa) = 0.01833670
#
# Stress axis : x y z
#
# Youngs Moduli (GPa) = 38.74698 44.09258 55.89060
#
# Poissons Ratio (x) = 0.31947 0.31552
# Poissons Ratio (y) = 0.28074 0.62212
# Poissons Ratio (z) = 0.21874 0.49079
#
# Static dielectric constant tensor:
#      x y z
#    x 3.324010 0.000000 0.000000 
#    y 0.000000 3.509830 0.000000 
#    z 0.000000 0.000000 3.357080 
# 
# 
# High freq. dielectric constant tensor:
#      x y z
#    x 1.712910 0.000000 0.000000 
#    y 0.000000 1.719380 0.000000 
#    z 0.000000 0.000000 1.703090 
# 
# From -- ./inp_files/31936.got.cif
#   From: 2010.03.12/outbox.cif.g09.slc.cpg/sg51_16_cif.got.tgz:31936.got - 2010.04.16 13:43:02.
