data_PCOD8208968
_publ_section_title
;
Structure prediction by ZEFSAII (Michael W. Deem and Ramdas Pophale) SiO2 
 PCOD8208968
Probable space group: P M M A
;
_chemical_formula_sum "Si O2"
_cell_formula_units_Z 40
_cell_length_a 8.862154
_cell_length_b 12.657408
_cell_length_c 20.198051
_cell_angle_alpha 90.000000
_cell_angle_beta 90.000000
_cell_angle_gamma 90.000000
_cell_volume 2265.653735
_symmetry_space_group_name_H-M "P M M A"
_symmetry_group_IT_number 51
_symmetry_cell_setting 'orthorhombic'
loop_
_space_group_symop_operation_xyz
x,y,z
1/2-x,-y,z
1/2+x,-y,-z
-x,y,-z
-x,-y,-z
1/2+x,y,-z
1/2-x,y,z
x,-y,z
loop_
_atom_site_type_symbol
_atom_site_label
_atom_site_fract_x
_atom_site_fract_y
_atom_site_fract_z
Si Si1 0.923678 0.730282 0.683700
Si Si2 0.075085 0.123629 0.067939
Si Si3 0.069938 0.271457 0.825884
Si Si4 0.423923 0.500000 0.828725
Si Si5 0.427757 0.879436 0.431866
Si Si6 0.919035 0.500000 0.696225
O O1 0.750000 0.759096 0.698535
O O2 0.990792 0.807778 0.627952
O O3 0.938136 0.609362 0.655507
O O4 0.015221 0.746693 0.751153
O O5 0.250000 0.152881 0.065280
O O6 0.997787 0.180769 0.129099
O O7 0.047601 0.000000 0.078433
O O8 0.000000 0.162912 0.000000
O O9 0.250000 0.265630 0.826828
O O10 0.011304 0.386789 0.854421
O O11 0.250000 0.500000 0.845119
O O12 0.450558 0.500000 0.750499
O O13 0.500000 0.839166 0.500000
O O14 0.250000 0.866723 0.438687
O O15 0.475303 0.000000 0.417152
O O16 0.750000 0.500000 0.728807
#
# Coordination Sequence:
#
# PCOD8208968 Si02
#       6
#     8   8   8   4   8   4
#     4   9  17  30  48  70  95 124 159 197 238 283
#     4  10  21  37  55  74  99 131 165 202 245 291
#     4  10  19  32  52  77 103 130 163 201 241 287
#     4   8  16  30  47  70 101 132 159 194 239 284
#     4   9  18  32  48  65  89 122 157 194 238 287
#     4   8  14  26  45  66  90 122 157 192 232 282
#
# _framework density 17.654949999999999
#
# number of rings (size 3 to 8) (size 9 to 14) (size 15 to 20)
#    0.000    2.800    0.000    1.200    0.000    3.600 
#    0.000    3.000    0.000    0.000    0.000    0.000 
#    0.000    0.000    0.000    0.000    0.000    0.000 
#
# Total GULP energy -495602.577904 kJ/mol
# GULP energy per Si atom -12390.064448 kJ/mol
# Density = 1.761477 g / cm^3
# Si number density = 17.654950 Si / 1000 Ang^3
#
#
#
# Elastic Constant Matrix: (Units=GPa)
#
#
# Indices 1 2 3 4 5 6 
#
# 1 55.8286 39.6090 45.0213 0.0000 0.0000 0.0000
# 2 39.6090 97.4343 75.6102 0.0000 0.0000 0.0000
# 3 45.0213 75.6102 114.6313 0.0000 0.0000 0.0000
# 4 0.0000 0.0000 0.0000 8.2470 0.0000 0.0000
# 5 0.0000 0.0000 0.0000 0.0000 29.9159 0.0000
# 6 0.0000 0.0000 0.0000 0.0000 0.0000 12.8465
#
#
#
# Elastic Compliance Matrix: (Units=1/GPa)
#
#
# Indices 1 2 3 4 5 6 
#
# 1 0.027716 -0.005777 -0.007075 0.000000 0.000000 0.000000
# 2 -0.005777 0.022229 -0.012393 0.000000 0.000000 0.000000
# 3 -0.007075 -0.012393 0.019677 0.000000 0.000000 0.000000
# 4 0.000000 0.000000 0.000000 0.121256 0.000000 0.000000
# 5 0.000000 0.000000 0.000000 0.000000 0.033427 0.000000
# 6 0.000000 0.000000 0.000000 0.000000 0.000000 0.077842
#
#
# Mechanical properties :
#
#
# Convention : Reuss Voigt Hill
#
# Bulk Modulus (GPa) = 52.26962 65.37501 58.82232
# Shear Modulus (GPa) = 13.92698 17.37879 15.65288
#
# Velocity S-wave (km/s) = 2.81168 3.14085 2.98081
# Velocity P-wave (km/s) = 6.34123 7.08964 6.72585
#
# Compressibility (1/GPa) = 0.01913157
#
# Stress axis : x y z
#
# Youngs Moduli (GPa) = 36.08032 44.98609 50.82077
#
# Poissons Ratio (x) = 0.25987 0.35956
# Poissons Ratio (y) = 0.20843 0.62984
# Poissons Ratio (z) = 0.25527 0.55753
#
# Static dielectric constant tensor:
#      x y z
#    x 3.322630 0.000000 0.000000 
#    y 0.000000 3.701080 0.000000 
#    z 0.000000 0.000000 3.057790 
# 
# 
# High freq. dielectric constant tensor:
#      x y z
#    x 1.681800 0.000000 0.000000 
#    y 0.000000 1.698190 0.000000 
#    z 0.000000 0.000000 1.652400 
# 
# From -- ./inp_files/31472.got.cif
#   From: 2010.03.12/outbox.cif.g09.slc.cpg/sg51_16_cif.got.tgz:31472.got - 2010.04.16 13:43:02.
