data_PCOD8208289
_publ_section_title
;
Structure prediction by ZEFSAII (Michael W. Deem and Ramdas Pophale) SiO2 
 PCOD8208289
Probable space group: P M M A
;
_chemical_formula_sum "Si O2"
_cell_formula_units_Z 44
_cell_length_a 9.002774
_cell_length_b 14.114646
_cell_length_c 19.020778
_cell_angle_alpha 90.000000
_cell_angle_beta 90.000000
_cell_angle_gamma 90.000000
_cell_volume 2416.988673
_symmetry_space_group_name_H-M "P M M A"
_symmetry_group_IT_number 51
_symmetry_cell_setting 'orthorhombic'
loop_
_space_group_symop_operation_xyz
x,y,z
1/2-x,-y,z
1/2+x,-y,-z
-x,y,-z
-x,-y,-z
1/2+x,y,-z
1/2-x,y,z
x,-y,z
loop_
_atom_site_type_symbol
_atom_site_label
_atom_site_fract_x
_atom_site_fract_y
_atom_site_fract_z
Si Si1 0.420059 0.233406 0.205368
Si Si2 0.926360 0.735400 0.424963
Si Si3 0.923318 0.109087 0.665052
Si Si4 0.077704 0.608658 0.314919
Si Si5 0.576569 0.294041 0.075198
Si Si6 0.579911 0.500000 0.072149
O O1 0.250000 0.231241 0.181750
O O2 0.458551 0.145641 0.256356
O O3 0.457919 0.331224 0.245378
O O4 0.516072 0.222478 0.134358
O O5 0.750000 0.736541 0.431885
O O6 0.000000 0.722671 0.500000
O O7 0.980287 0.834143 0.391408
O O8 0.976840 0.646080 0.378399
O O9 0.750000 0.125781 0.647924
O O10 0.968998 0.000000 0.660053
O O11 0.250000 0.621282 0.336328
O O12 0.036963 0.500000 0.299145
O O13 0.750000 0.276649 0.064322
O O14 0.540264 0.399437 0.108405
O O15 0.500000 0.276896 0.000000
O O16 0.750000 0.500000 0.052416
O O17 0.500000 0.500000 0.000000
#
# Coordination Sequence:
#
# PCOD8208289 Si02
#       6
#     8   8   8   8   8   4
#     4   9  18  32  52  78 104 132 169 212 261 314
#     4  11  22  36  55  80 110 141 174 216 260 309
#     4   9  19  38  61  81 104 135 171 213 263 318
#     4   9  19  36  55  76 105 143 183 219 257 306
#     4  10  19  31  47  69 100 137 175 216 259 304
#     4   8  16  28  40  60  90 126 165 202 241 288
#
# _framework density 18.204471000000002
#
# number of rings (size 3 to 8) (size 9 to 14) (size 15 to 20)
#    0.000    2.545    0.000    3.273    1.273    5.091 
#    0.000    0.000    0.000    0.545    0.000    0.000 
#    0.000    0.000    0.000    0.000    0.000    0.000 
#
# Total GULP energy -545353.802201 kJ/mol
# GULP energy per Si atom -12394.404595 kJ/mol
# Density = 1.816304 g / cm^3
# Si number density = 18.204471 Si / 1000 Ang^3
#
#
#
# Elastic Constant Matrix: (Units=GPa)
#
#
# Indices 1 2 3 4 5 6 
#
# 1 85.4258 17.2927 46.7876 0.0000 0.0000 0.0000
# 2 17.2927 73.9478 8.4560 0.0000 0.0000 0.0000
# 3 46.7876 8.4560 86.1540 0.0000 0.0000 0.0000
# 4 0.0000 0.0000 0.0000 12.6971 0.0000 0.0000
# 5 0.0000 0.0000 0.0000 0.0000 35.3024 0.0000
# 6 0.0000 0.0000 0.0000 0.0000 0.0000 22.7498
#
#
#
# Elastic Compliance Matrix: (Units=1/GPa)
#
#
# Indices 1 2 3 4 5 6 
#
# 1 0.017298 -0.003005 -0.009099 0.000000 0.000000 0.000000
# 2 -0.003005 0.014198 0.000238 0.000000 0.000000 0.000000
# 3 -0.009099 0.000238 0.016525 0.000000 0.000000 0.000000
# 4 0.000000 0.000000 0.000000 0.078758 0.000000 0.000000
# 5 0.000000 0.000000 0.000000 0.000000 0.028327 0.000000
# 6 0.000000 0.000000 0.000000 0.000000 0.000000 0.043956
#
#
# Mechanical properties :
#
#
# Convention : Reuss Voigt Hill
#
# Bulk Modulus (GPa) = 41.16848 43.40003 42.28425
# Shear Modulus (GPa) = 21.65527 25.68261 23.66894
#
# Velocity S-wave (km/s) = 3.45274 3.76012 3.60970
# Velocity P-wave (km/s) = 6.20957 6.53784 6.37582
#
# Compressibility (1/GPa) = 0.02429043
#
# Stress axis : x y z
#
# Youngs Moduli (GPa) = 57.81078 70.43019 60.51385
#
# Poissons Ratio (x) = 0.21162 0.55062
# Poissons Ratio (y) = 0.17370 -0.01441
# Poissons Ratio (z) = 0.52602 -0.01677
#
# Static dielectric constant tensor:
#      x y z
#    x 3.305590 0.000000 0.000000 
#    y 0.000000 3.532020 0.000000 
#    z 0.000000 0.000000 3.199210 
# 
# 
# High freq. dielectric constant tensor:
#      x y z
#    x 1.705870 0.000000 0.000000 
#    y 0.000000 1.689790 0.000000 
#    z 0.000000 0.000000 1.700620 
# 
# From -- ./inp_files/27324.got.cif
#   From: 2010.03.12/outbox.cif.g09.slc.cpg/sg51_14_cif.got.tgz:27324.got - 2010.04.16 13:43:02.
