data_PCOD8208369
_publ_section_title
;
Structure prediction by ZEFSAII (Michael W. Deem and Ramdas Pophale) SiO2 
 PCOD8208369
Probable space group: P M M A
;
_chemical_formula_sum "Si O2"
_cell_formula_units_Z 64
_cell_length_a 9.023092
_cell_length_b 22.630378
_cell_length_c 16.129218
_cell_angle_alpha 90.000000
_cell_angle_beta 90.000000
_cell_angle_gamma 90.000000
_cell_volume 3293.521520
_symmetry_space_group_name_H-M "P M M A"
_symmetry_group_IT_number 51
_symmetry_cell_setting 'orthorhombic'
loop_
_space_group_symop_operation_xyz
x,y,z
1/2-x,-y,z
1/2+x,-y,-z
-x,y,-z
-x,-y,-z
1/2+x,y,-z
1/2-x,y,z
x,-y,z
loop_
_atom_site_type_symbol
_atom_site_label
_atom_site_fract_x
_atom_site_fract_y
_atom_site_fract_z
Si Si1 0.078731 0.758373 0.920478
Si Si2 0.086835 0.321386 0.199263
Si Si3 0.928183 0.151487 0.413324
Si Si4 0.920541 0.566515 0.243462
Si Si5 0.424588 0.894031 0.915687
Si Si6 0.575547 0.066475 0.264049
Si Si7 0.078357 0.608035 0.575484
Si Si8 0.916444 0.275437 0.617002
O O1 0.250000 0.752044 0.934679
O O2 0.031451 0.825761 0.907170
O O3 0.030956 0.720695 0.842833
O O4 0.000000 0.730727 0.000000
O O5 0.250000 0.321158 0.157395
O O6 0.098392 0.294104 0.288881
O O7 0.026420 0.388365 0.195449
O O8 0.750000 0.151106 0.420610
O O9 0.983604 0.110014 0.336551
O O10 0.000000 0.128442 0.500000
O O11 0.986919 0.216786 0.394696
O O12 0.750000 0.582064 0.223557
O O13 0.959127 0.500000 0.215165
O O14 0.950206 0.571717 0.341268
O O15 0.250000 0.904973 0.925081
O O16 0.487054 0.921869 0.829518
O O17 0.500000 0.920324 0.000000
O O18 0.750000 0.075375 0.257870
O O19 0.531655 0.000000 0.289954
O O20 0.250000 0.616127 0.557227
O O21 0.000000 0.572345 0.500000
O O22 0.003096 0.672295 0.572777
O O23 0.750000 0.266060 0.580277
#
# Coordination Sequence:
#
# PCOD8208369 Si02
#       8
#     8   8   8   8   8   8   8   8
#     4  10  19  32  52  79 110 140 169 204 250 306
#     4  10  20  33  52  78 105 134 169 212 260 307
#     4  11  22  36  55  77 102 136 179 226 275 322
#     4   9  19  35  52  70  95 132 175 212 249 298
#     4   9  18  33  55  83 112 141 173 210 257 314
#     4   9  19  36  56  77 104 141 182 219 259 315
#     4  10  19  31  48  71 100 131 165 207 254 305
#     4  10  20  34  52  75 103 133 168 212 262 316
#
# _framework density 19.432086999999999
#
# number of rings (size 3 to 8) (size 9 to 14) (size 15 to 20)
#    0.000    2.250    0.000    3.000    0.000    4.500 
#    0.000    1.250    0.000    3.000    0.000    0.000 
#    0.000    0.000    0.000    0.000    0.000    0.000 
#
# Total GULP energy -793223.156829 kJ/mol
# GULP energy per Si atom -12394.111825 kJ/mol
# Density = 1.938786 g / cm^3
# Si number density = 19.432087 Si / 1000 Ang^3
#
#
#
# Elastic Constant Matrix: (Units=GPa)
#
#
# Indices 1 2 3 4 5 6 
#
# 1 62.0789 29.3381 23.4448 0.0000 0.0000 0.0000
# 2 29.3381 68.3874 28.3148 0.0000 0.0000 0.0000
# 3 23.4448 28.3148 66.6362 0.0000 0.0000 0.0000
# 4 0.0000 0.0000 0.0000 11.1009 0.0000 0.0000
# 5 0.0000 0.0000 0.0000 0.0000 33.2362 0.0000
# 6 0.0000 0.0000 0.0000 0.0000 0.0000 19.0583
#
#
#
# Elastic Compliance Matrix: (Units=1/GPa)
#
#
# Indices 1 2 3 4 5 6 
#
# 1 0.021201 -0.007289 -0.004362 0.000000 0.000000 0.000000
# 2 -0.007289 0.020250 -0.006040 0.000000 0.000000 0.000000
# 3 -0.004362 -0.006040 0.019108 0.000000 0.000000 0.000000
# 4 0.000000 0.000000 0.000000 0.090083 0.000000 0.000000
# 5 0.000000 0.000000 0.000000 0.000000 0.030088 0.000000
# 6 0.000000 0.000000 0.000000 0.000000 0.000000 0.052471
#
#
# Mechanical properties :
#
#
# Convention : Reuss Voigt Hill
#
# Bulk Modulus (GPa) = 39.71893 39.92197 39.82045
# Shear Modulus (GPa) = 18.05220 20.41273 19.23247
#
# Velocity S-wave (km/s) = 3.05124 3.24460 3.14941
# Velocity P-wave (km/s) = 5.73565 5.88435 5.81047
#
# Compressibility (1/GPa) = 0.02517691
#
# Stress axis : x y z
#
# Youngs Moduli (GPa) = 47.16852 49.38166 52.33389
#
# Poissons Ratio (x) = 0.35995 0.22827
# Poissons Ratio (y) = 0.34381 0.31611
# Poissons Ratio (z) = 0.20574 0.29827
#
# Static dielectric constant tensor:
#      x y z
#    x 3.607800 0.000000 0.000000 
#    y 0.000000 3.462130 0.000000 
#    z 0.000000 0.000000 3.813210 
# 
# 
# High freq. dielectric constant tensor:
#      x y z
#    x 1.751600 0.000000 0.000000 
#    y 0.000000 1.746820 0.000000 
#    z 0.000000 0.000000 1.755820 
# 
# From -- ./inp_files/22237.got.cif
#   From: 2010.03.12/outbox.cif.g09.slc.cpg/sg51_12_cif.got.tgz:22237.got - 2010.04.16 13:43:02.
