data_PCOD8208011
_publ_section_title
;
Structure prediction by ZEFSAII (Michael W. Deem and Ramdas Pophale) SiO2 
 PCOD8208011
Probable space group: P M M A
;
_chemical_formula_sum "Si O2"
_cell_formula_units_Z 52
_cell_length_a 8.966716
_cell_length_b 18.812003
_cell_length_c 18.107311
_cell_angle_alpha 90.000000
_cell_angle_beta 90.000000
_cell_angle_gamma 90.000000
_cell_volume 3054.375411
_symmetry_space_group_name_H-M "P M M A"
_symmetry_group_IT_number 51
_symmetry_cell_setting 'orthorhombic'
loop_
_space_group_symop_operation_xyz
x,y,z
1/2-x,-y,z
1/2+x,-y,-z
-x,y,-z
-x,-y,-z
1/2+x,y,-z
1/2-x,y,z
x,-y,z
loop_
_atom_site_type_symbol
_atom_site_label
_atom_site_fract_x
_atom_site_fract_y
_atom_site_fract_z
Si Si1 0.583448 0.144532 0.796312
Si Si2 0.927417 0.779484 0.078062
Si Si3 0.424571 0.785548 0.577543
Si Si4 0.085563 0.713244 0.297950
Si Si5 0.077856 0.920805 0.667851
Si Si6 0.574223 0.353773 0.847622
Si Si7 0.924640 0.500000 0.921043
O O1 0.750000 0.120936 0.820052
O O2 0.481551 0.157469 0.867890
O O3 0.590054 0.216261 0.750288
O O4 0.511460 0.084233 0.744597
O O5 0.750000 0.779902 0.072511
O O6 0.980722 0.702422 0.105277
O O7 0.000000 0.796421 0.000000
O O8 0.500000 0.770861 0.500000
O O9 0.250000 0.782372 0.565973
O O10 0.471607 0.722910 0.634297
O O11 0.477700 0.862716 0.608066
O O12 0.250000 0.697161 0.330663
O O13 0.035801 0.651533 0.240324
O O14 0.250000 0.905769 0.686103
O O15 0.053428 0.000000 0.634989
O O16 0.750000 0.338454 0.860033
O O17 0.525659 0.431458 0.874395
O O18 0.750000 0.500000 0.934888
O O19 0.000000 0.500000 0.000000
#
# Coordination Sequence:
#
# PCOD8208011 Si02
#       7
#     8   8   8   8   8   8   4
#     4   9  17  30  47  67  89 115 152 194 233 276
#     4  11  20  30  46  67  91 119 153 195 240 280
#     4  10  19  30  46  69  96 123 152 189 232 275
#     4   8  15  29  47  65  88 118 153 192 230 271
#     4   9  18  32  48  67  93 125 157 186 221 272
#     4   9  18  32  48  68  95 127 161 194 230 276
#     4  10  20  32  46  68 101 136 165 194 231 274
#
# _framework density 17.024757999999999
#
# number of rings (size 3 to 8) (size 9 to 14) (size 15 to 20)
#    0.000    2.615    0.000    3.692    0.000    6.769 
#    0.000    0.000    0.000    0.462    0.000    0.538 
#    0.000    0.000    0.000    0.000    0.000    0.000 
#
# Total GULP energy -644626.006887 kJ/mol
# GULP energy per Si atom -12396.653979 kJ/mol
# Density = 1.698601 g / cm^3
# Si number density = 17.024758 Si / 1000 Ang^3
#
#
#
# Elastic Constant Matrix: (Units=GPa)
#
#
# Indices 1 2 3 4 5 6 
#
# 1 85.3085 15.6420 51.3501 0.0000 0.0000 0.0000
# 2 15.6420 49.5577 38.7536 0.0000 0.0000 0.0000
# 3 51.3501 38.7536 127.2824 0.0000 0.0000 0.0000
# 4 0.0000 0.0000 0.0000 21.5720 0.0000 0.0000
# 5 0.0000 0.0000 0.0000 0.0000 30.4387 0.0000
# 6 0.0000 0.0000 0.0000 0.0000 0.0000 18.3233
#
#
#
# Elastic Compliance Matrix: (Units=1/GPa)
#
#
# Indices 1 2 3 4 5 6 
#
# 1 0.015482 -0.000003 -0.006245 0.000000 0.000000 0.000000
# 2 -0.000003 0.026484 -0.008062 0.000000 0.000000 0.000000
# 3 -0.006245 -0.008062 0.012831 0.000000 0.000000 0.000000
# 4 0.000000 0.000000 0.000000 0.046356 0.000000 0.000000
# 5 0.000000 0.000000 0.000000 0.000000 0.032853 0.000000
# 6 0.000000 0.000000 0.000000 0.000000 0.000000 0.054575
#
#
# Mechanical properties :
#
#
# Convention : Reuss Voigt Hill
#
# Bulk Modulus (GPa) = 38.20317 52.62666 45.41491
# Shear Modulus (GPa) = 22.13102 24.49366 23.31234
#
# Velocity S-wave (km/s) = 3.60937 3.79715 3.70445
# Velocity P-wave (km/s) = 6.31336 7.08543 6.71051
#
# Compressibility (1/GPa) = 0.02617584
#
# Stress axis : x y z
#
# Youngs Moduli (GPa) = 64.59215 37.75848 77.93804
#
# Poissons Ratio (x) = 0.00012 0.48672
# Poissons Ratio (y) = 0.00020 0.62836
# Poissons Ratio (z) = 0.40337 0.30442
#
# Static dielectric constant tensor:
#      x y z
#    x 3.295390 0.000000 0.000000 
#    y 0.000000 3.100430 0.000000 
#    z 0.000000 0.000000 3.299430 
# 
# 
# High freq. dielectric constant tensor:
#      x y z
#    x 1.662600 0.000000 0.000000 
#    y 0.000000 1.621430 0.000000 
#    z 0.000000 0.000000 1.652040 
# 
# From -- ./inp_files/22094.got.cif
#   From: 2010.03.12/outbox.cif.g09.slc.cpg/sg51_12_cif.got.tgz:22094.got - 2010.04.16 13:43:02.
