data_PCOD8208233
_publ_section_title
;
Structure prediction by ZEFSAII (Michael W. Deem and Ramdas Pophale) SiO2 
 PCOD8208233
Probable space group: P M M A
;
_chemical_formula_sum "Si O2"
_cell_formula_units_Z 64
_cell_length_a 25.601056
_cell_length_b 8.857752
_cell_length_c 17.363305
_cell_angle_alpha 90.000000
_cell_angle_beta 90.000000
_cell_angle_gamma 90.000000
_cell_volume 3937.438562
_symmetry_space_group_name_H-M "P M M A"
_symmetry_group_IT_number 51
_symmetry_cell_setting 'orthorhombic'
loop_
_space_group_symop_operation_xyz
x,y,z
1/2-x,-y,z
1/2+x,-y,-z
-x,y,-z
-x,-y,-z
1/2+x,y,-z
1/2-x,y,z
x,-y,z
loop_
_atom_site_type_symbol
_atom_site_label
_atom_site_fract_x
_atom_site_fract_y
_atom_site_fract_z
Si Si1 0.495204 0.178433 0.911872
Si Si2 0.440018 0.178869 0.337127
Si Si3 0.597382 0.819929 0.822351
Si Si4 0.807498 0.820349 0.920585
Si Si5 0.598561 0.677371 0.180504
Si Si6 0.060945 0.178261 0.668273
Si Si7 0.441527 0.820982 0.501576
Si Si8 0.810453 0.825768 0.094842
O O1 0.546627 0.237037 0.868159
O O2 0.444404 0.251226 0.874999
O O3 0.488885 0.000000 0.904251
O O4 0.500000 0.229611 0.000000
O O5 0.406108 0.242405 0.265553
O O6 0.500301 0.226993 0.326630
O O7 0.416096 0.236211 0.420110
O O8 0.437565 0.000000 0.334800
O O9 0.649396 0.752582 0.862210
O O10 0.599335 0.000000 0.824631
O O11 0.750000 0.759276 0.896822
O O12 0.807147 0.000000 0.917475
O O13 0.821029 0.770690 0.007466
O O14 0.592279 0.500000 0.178633
O O15 0.593413 0.733778 0.267974
O O16 0.655809 0.723769 0.151796
O O17 0.084203 0.227326 0.583383
O O18 0.067105 0.000000 0.682200
O O19 0.500000 0.757078 0.500000
O O20 0.443440 0.000000 0.500282
O O21 0.750000 0.803605 0.116480
O O22 0.827058 0.000000 0.104175
#
# Coordination Sequence:
#
# PCOD8208233 Si02
#       8
#     8   8   8   8   8   8   8   8
#     4  10  19  31  47  64  85 119 160 190 216 263
#     4   8  12  20  37  63  88 110 147 191 224 259
#     4   9  14  21  38  64  89 113 142 181 221 262
#     4   8  14  25  42  65  89 111 141 183 226 263
#     4  12  23  31  43  66  97 123 144 180 233 283
#     4   9  15  27  44  61  85 117 155 188 216 263
#     4   7  11  19  36  60  82 108 146 191 225 251
#     4   9  18  34  53  67  82 112 157 199 226 257
#
# _framework density 16.254223
#
# number of rings (size 3 to 8) (size 9 to 14) (size 15 to 20)
#    0.000    3.000    1.250    4.125    0.000    2.500 
#    0.000    0.000    0.000    3.375    0.000    0.875 
#    0.000    5.000    0.000    0.000    0.000    0.000 
#
# Total GULP energy -792847.802793 kJ/mol
# GULP energy per Si atom -12388.246919 kJ/mol
# Density = 1.621723 g / cm^3
# Si number density = 16.254223 Si / 1000 Ang^3
#
#
#
# Elastic Constant Matrix: (Units=GPa)
#
#
# Indices 1 2 3 4 5 6 
#
# 1 75.8844 13.4520 60.6566 0.0000 0.0000 0.0000
# 2 13.4520 19.0839 23.4423 0.0000 0.0000 0.0000
# 3 60.6566 23.4423 168.1072 0.0000 0.0000 0.0000
# 4 0.0000 0.0000 0.0000 2.2235 0.0000 0.0000
# 5 0.0000 0.0000 0.0000 0.0000 18.7675 0.0000
# 6 0.0000 0.0000 0.0000 0.0000 0.0000 5.6026
#
#
#
# Elastic Compliance Matrix: (Units=1/GPa)
#
#
# Indices 1 2 3 4 5 6 
#
# 1 0.019076 -0.006023 -0.006043 0.000000 0.000000 0.000000
# 2 -0.006023 0.065133 -0.006909 0.000000 0.000000 0.000000
# 3 -0.006043 -0.006909 0.009093 0.000000 0.000000 0.000000
# 4 0.000000 0.000000 0.000000 0.449747 0.000000 0.000000
# 5 0.000000 0.000000 0.000000 0.000000 0.053284 0.000000
# 6 0.000000 0.000000 0.000000 0.000000 0.000000 0.178490
#
#
# Mechanical properties :
#
#
# Convention : Reuss Voigt Hill
#
# Bulk Modulus (GPa) = 18.06671 50.90858 34.48765
# Shear Modulus (GPa) = 6.01522 16.35367 11.18445
#
# Velocity S-wave (km/s) = 1.92581 3.17538 2.62600
# Velocity P-wave (km/s) = 4.01051 6.69569 5.51890
#
# Compressibility (1/GPa) = 0.05535041
#
# Stress axis : x y z
#
# Youngs Moduli (GPa) = 52.42154 15.35311 109.97984
#
# Poissons Ratio (x) = 0.09248 0.66462
# Poissons Ratio (y) = 0.31575 0.75990
# Poissons Ratio (z) = 0.31679 0.10608
#
# Static dielectric constant tensor:
#      x y z
#    x 2.993290 0.000000 0.000000 
#    y 0.000000 2.558470 0.000000 
#    z 0.000000 0.000000 3.672380 
# 
# 
# High freq. dielectric constant tensor:
#      x y z
#    x 1.590800 0.000000 0.000000 
#    y 0.000000 1.572070 0.000000 
#    z 0.000000 0.000000 1.643590 
# 
# From -- ./inp_files/30889.got.cif
#   From: 2010.03.12/outbox.cif.g09.slc.cpg/sg51_16_cif.got.tgz:30889.got - 2010.04.16 13:43:02.
