data_PCOD8208437
_publ_section_title
;
Structure prediction by ZEFSAII (Michael W. Deem and Ramdas Pophale) SiO2 
 PCOD8208437
Probable space group: P M M A
;
_chemical_formula_sum "Si O2"
_cell_formula_units_Z 64
_cell_length_a 9.409018
_cell_length_b 17.601306
_cell_length_c 20.787065
_cell_angle_alpha 90.000000
_cell_angle_beta 90.000000
_cell_angle_gamma 90.000000
_cell_volume 3442.566725
_symmetry_space_group_name_H-M "P M M A"
_symmetry_group_IT_number 51
_symmetry_cell_setting 'orthorhombic'
loop_
_space_group_symop_operation_xyz
x,y,z
1/2-x,-y,z
1/2+x,-y,-z
-x,y,-z
-x,-y,-z
1/2+x,y,-z
1/2-x,y,z
x,-y,z
loop_
_atom_site_type_symbol
_atom_site_label
_atom_site_fract_x
_atom_site_fract_y
_atom_site_fract_z
Si Si1 0.082431 0.584572 0.204230
Si Si2 0.582523 0.765655 0.559703
Si Si3 0.909824 0.086265 0.414147
Si Si4 0.411851 0.194061 0.059174
Si Si5 0.082839 0.281747 0.298223
Si Si6 0.091087 0.135365 0.728779
Si Si7 0.909648 0.917835 0.834699
Si Si8 0.085519 0.371474 0.063240
O O1 0.250000 0.594179 0.198892
O O2 0.038464 0.500000 0.227062
O O3 0.028402 0.643004 0.259702
O O4 0.023606 0.596375 0.131052
O O5 0.500000 0.724992 0.500000
O O6 0.750000 0.768025 0.546274
O O7 0.524273 0.852573 0.560912
O O8 0.549268 0.717422 0.624738
O O9 0.750000 0.103994 0.440512
O O10 0.907116 0.092487 0.338090
O O11 0.955625 0.000000 0.433348
O O12 0.250000 0.173170 0.045374
O O13 0.468521 0.148661 0.120279
O O14 0.435154 0.282273 0.070920
O O15 0.500000 0.163155 0.000000
O O16 0.250000 0.269399 0.287422
O O17 0.999439 0.212274 0.268005
O O18 0.250000 0.155346 0.751392
O O19 0.015832 0.076088 0.775329
O O20 0.750000 0.898501 0.811044
O O21 0.911801 0.000000 0.869683
O O22 0.250000 0.394505 0.052998
O O23 0.000000 0.401552 0.000000
#
# Coordination Sequence:
#
# PCOD8208437 Si02
#       8
#     8   8   8   8   8   8   8   8
#     4   9  17  31  54  81 105 131 165 204 244 288
#     4  10  20  33  51  74  99 130 168 209 252 298
#     4   9  18  32  48  68  98 132 164 203 249 293
#     4   9  18  32  47  63  86 119 160 204 247 293
#     4   9  18  34  55  77 100 129 168 210 249 295
#     4  10  19  31  49  72  97 127 164 204 247 296
#     4  10  20  32  46  65  91 124 162 207 257 303
#     4   9  17  30  49  72 100 133 166 200 239 287
#
# _framework density 18.590781
#
# number of rings (size 3 to 8) (size 9 to 14) (size 15 to 20)
#    0.000    2.625    0.000    1.875    0.000    5.250 
#    0.000    3.125    0.000    1.500    0.000    0.000 
#    0.000    0.000    0.000    0.000    0.000    0.375 
#
# Total GULP energy -793042.174657 kJ/mol
# GULP energy per Si atom -12391.283979 kJ/mol
# Density = 1.854847 g / cm^3
# Si number density = 18.590781 Si / 1000 Ang^3
#
#
#
# Elastic Constant Matrix: (Units=GPa)
#
#
# Indices 1 2 3 4 5 6 
#
# 1 65.8733 25.0233 43.1637 0.0000 0.0000 0.0000
# 2 25.0233 74.7221 47.5744 0.0000 0.0000 0.0000
# 3 43.1637 47.5744 110.3899 0.0000 0.0000 0.0000
# 4 0.0000 0.0000 0.0000 5.4197 0.0000 0.0000
# 5 0.0000 0.0000 0.0000 0.0000 32.3057 0.0000
# 6 0.0000 0.0000 0.0000 0.0000 0.0000 -7.6096
#
#
#
# Elastic Compliance Matrix: (Units=1/GPa)
#
#
# Indices 1 2 3 4 5 6 
#
# 1 0.020732 -0.002455 -0.007048 0.000000 0.000000 0.000000
# 2 -0.002455 0.018734 -0.007114 0.000000 0.000000 0.000000
# 3 -0.007048 -0.007114 0.014881 0.000000 0.000000 0.000000
# 4 0.000000 0.000000 0.000000 0.184511 0.000000 0.000000
# 5 0.000000 0.000000 0.000000 0.000000 0.030954 0.000000
# 6 0.000000 0.000000 0.000000 0.000000 0.000000 -0.131413
#
#
# Mechanical properties :
#
#
# Convention : Reuss Voigt Hill
#
# Bulk Modulus (GPa) = 47.36633 53.61200 50.48917
# Shear Modulus (GPa) = 27.98439 15.03810 21.51125
#
# Velocity S-wave (km/s) = 3.88401 2.84720 3.40530
# Velocity P-wave (km/s) = 6.75631 6.30153 6.53288
#
# Compressibility (1/GPa) = 0.02111204
#
# Stress axis : x y z
#
# Youngs Moduli (GPa) = 48.23535 53.37758 67.20169
#
# Poissons Ratio (x) = 0.13105 0.47365
# Poissons Ratio (y) = 0.11843 0.47807
# Poissons Ratio (z) = 0.33997 0.37972
#
# Static dielectric constant tensor:
#      x y z
#    x 3.380430 0.000000 0.000000 
#    y 0.000000 3.290560 0.000000 
#    z 0.000000 0.000000 3.651570 
# 
# 
# High freq. dielectric constant tensor:
#      x y z
#    x 1.706130 0.000000 0.000000 
#    y 0.000000 1.702880 0.000000 
#    z 0.000000 0.000000 1.726800 
# 
# From -- ./inp_files/32323.got.cif
#   From: 2010.03.12/outbox.cif.g09.slc.cpg/sg51_17_cif.got.tgz:32323.got - 2010.04.16 13:43:02.
