data_PCOD8208460
_publ_section_title
;
Structure prediction by ZEFSAII (Michael W. Deem and Ramdas Pophale) SiO2 
 PCOD8208460
Probable space group: P M M A
;
_chemical_formula_sum "Si O2"
_cell_formula_units_Z 64
_cell_length_a 9.346627
_cell_length_b 23.434942
_cell_length_c 17.395694
_cell_angle_alpha 90.000000
_cell_angle_beta 90.000000
_cell_angle_gamma 90.000000
_cell_volume 3810.312136
_symmetry_space_group_name_H-M "P M M A"
_symmetry_group_IT_number 51
_symmetry_cell_setting 'orthorhombic'
loop_
_space_group_symop_operation_xyz
x,y,z
1/2-x,-y,z
1/2+x,-y,-z
-x,y,-z
-x,-y,-z
1/2+x,y,-z
1/2-x,y,z
x,-y,z
loop_
_atom_site_type_symbol
_atom_site_label
_atom_site_fract_x
_atom_site_fract_y
_atom_site_fract_z
Si Si1 0.586365 0.820126 0.216366
Si Si2 0.580300 0.355880 0.579047
Si Si3 0.409624 0.343098 0.171884
Si Si4 0.419923 0.258591 0.922201
Si Si5 0.085821 0.063517 0.720070
Si Si6 0.407421 0.742343 0.313427
Si Si7 0.579769 0.563784 0.715243
Si Si8 0.409414 0.067186 0.429980
O O1 0.750000 0.804132 0.228665
O O2 0.535116 0.791960 0.136678
O O3 0.561203 0.888783 0.213640
O O4 0.509102 0.794833 0.291807
O O5 0.500000 0.366595 0.500000
O O6 0.750000 0.360261 0.566501
O O7 0.538956 0.293144 0.612213
O O8 0.525194 0.404136 0.638656
O O9 0.250000 0.349218 0.135196
O O10 0.520582 0.319329 0.108597
O O11 0.400276 0.300868 0.243052
O O12 0.466995 0.403258 0.206338
O O13 0.250000 0.262877 0.934984
O O14 0.500000 0.242093 0.000000
O O15 0.250000 0.064505 0.691749
O O16 0.987369 0.081231 0.649315
O O17 0.046810 0.000000 0.751698
O O18 0.250000 0.767619 0.329455
O O19 0.750000 0.562915 0.713208
O O20 0.515111 0.500000 0.717153
O O21 0.500000 0.094532 0.500000
O O22 0.250000 0.093930 0.428890
O O23 0.398498 0.000000 0.442330
#
# Coordination Sequence:
#
# PCOD8208460 Si02
#       8
#     8   8   8   8   8   8   8   8
#     4   9  18  31  48  70  91 112 143 182 220 263
#     4   9  17  28  42  62  89 121 157 194 231 269
#     4   8  14  27  47  68  89 115 148 183 220 262
#     4  10  19  31  49  73  97 117 141 177 221 267
#     4   9  17  30  47  66  90 120 151 183 222 268
#     4   8  15  28  44  61  83 114 149 185 227 269
#     4   8  14  26  45  67  91 122 158 191 224 266
#     4   9  16  26  41  61  84 111 145 183 219 254
#
# _framework density 16.796524999999999
#
# number of rings (size 3 to 8) (size 9 to 14) (size 15 to 20)
#    0.000    3.250    0.000    2.250    0.000    3.250 
#    0.000    2.500    0.000    3.375    0.000    0.000 
#    0.000    0.000    0.000    0.000    0.000    0.375 
#
# Total GULP energy -793064.977699 kJ/mol
# GULP energy per Si atom -12391.640277 kJ/mol
# Density = 1.675830 g / cm^3
# Si number density = 16.796525 Si / 1000 Ang^3
#
#
#
# Elastic Constant Matrix: (Units=GPa)
#
#
# Indices 1 2 3 4 5 6 
#
# 1 69.1417 36.8788 44.5401 0.0000 0.0000 0.0000
# 2 36.8788 105.6313 54.8615 0.0000 0.0000 0.0000
# 3 44.5401 54.8615 86.4376 0.0000 0.0000 0.0000
# 4 0.0000 0.0000 0.0000 18.3585 0.0000 0.0000
# 5 0.0000 0.0000 0.0000 0.0000 26.7260 0.0000
# 6 0.0000 0.0000 0.0000 0.0000 0.0000 15.7892
#
#
#
# Elastic Compliance Matrix: (Units=1/GPa)
#
#
# Indices 1 2 3 4 5 6 
#
# 1 0.022151 -0.002693 -0.009705 0.000000 0.000000 0.000000
# 2 -0.002693 0.014450 -0.007783 0.000000 0.000000 0.000000
# 3 -0.009705 -0.007783 0.021510 0.000000 0.000000 0.000000
# 4 0.000000 0.000000 0.000000 0.054471 0.000000 0.000000
# 5 0.000000 0.000000 0.000000 0.000000 0.037417 0.000000
# 6 0.000000 0.000000 0.000000 0.000000 0.000000 0.063334
#
#
# Mechanical properties :
#
#
# Convention : Reuss Voigt Hill
#
# Bulk Modulus (GPa) = 56.34461 59.30793 57.82627
# Shear Modulus (GPa) = 19.25957 20.50343 19.88150
#
# Velocity S-wave (km/s) = 3.38988 3.49763 3.44418
# Velocity P-wave (km/s) = 6.99571 7.19010 7.09357
#
# Compressibility (1/GPa) = 0.01774793
#
# Stress axis : x y z
#
# Youngs Moduli (GPa) = 45.14399 69.20633 46.49036
#
# Poissons Ratio (x) = 0.18639 0.45118
# Poissons Ratio (y) = 0.12158 0.36185
# Poissons Ratio (z) = 0.43812 0.53865
#
# Static dielectric constant tensor:
#      x y z
#    x 3.184650 0.000000 0.000000 
#    y 0.000000 3.338810 0.000000 
#    z 0.000000 0.000000 3.001150 
# 
# 
# High freq. dielectric constant tensor:
#      x y z
#    x 1.638580 0.000000 0.000000 
#    y 0.000000 1.634900 0.000000 
#    z 0.000000 0.000000 1.622040 
# 
# From -- ./inp_files/28585.got.cif
#   From: 2010.03.12/outbox.cif.g09.slc.cpg/sg51_15_cif.got.tgz:28585.got - 2010.04.16 13:43:02.
