data_PCOD8208986
_publ_section_title
;
Structure prediction by ZEFSAII (Michael W. Deem and Ramdas Pophale) SiO2 
 PCOD8208986
Probable space group: P M M A
;
_chemical_formula_sum "Si O2"
_cell_formula_units_Z 48
_cell_length_a 10.168370
_cell_length_b 8.870337
_cell_length_c 29.453447
_cell_angle_alpha 90.000000
_cell_angle_beta 90.000000
_cell_angle_gamma 90.000000
_cell_volume 2656.608690
_symmetry_space_group_name_H-M "P M M A"
_symmetry_group_IT_number 51
_symmetry_cell_setting 'orthorhombic'
loop_
_space_group_symop_operation_xyz
x,y,z
1/2-x,-y,z
1/2+x,-y,-z
-x,y,-z
-x,-y,-z
1/2+x,y,-z
1/2-x,y,z
x,-y,z
loop_
_atom_site_type_symbol
_atom_site_label
_atom_site_fract_x
_atom_site_fract_y
_atom_site_fract_z
Si Si1 0.406475 0.330719 0.779339
Si Si2 0.250000 0.173509 0.440839
Si Si3 0.906234 0.168981 0.131347
Si Si4 0.750000 0.172933 0.451609
Si Si5 0.405066 0.825977 0.687704
Si Si6 0.099765 0.322116 0.961254
Si Si7 0.491682 0.678824 0.597855
O O1 0.250000 0.332401 0.781497
O O2 0.461793 0.500000 0.774951
O O3 0.464448 0.256878 0.825188
O O4 0.453868 0.233172 0.736457
O O5 0.250000 0.183590 0.494708
O O6 0.374088 0.259292 0.421570
O O7 0.250000 0.000000 0.424809
O O8 0.750000 0.167650 0.134284
O O9 0.951498 0.250188 0.085403
O O10 0.962833 0.000000 0.131644
O O11 0.877439 0.254281 0.432878
O O12 0.750000 0.000000 0.434685
O O13 0.250000 0.802210 0.681511
O O14 0.478607 0.729212 0.649849
O O15 0.444508 0.000000 0.683121
O O16 0.250000 0.272036 0.972749
O O17 0.092378 0.500000 0.955384
O O18 0.000000 0.264946 0.000000
O O19 0.487956 0.500000 0.594993
#
# Coordination Sequence:
#
# PCOD8208986 Si02
#       7
#     8   4   8   4   8   8   8
#     4   9  16  26  43  69 101 132 166 210 260 307
#     4  11  25  43  61  81 111 149 187 223 268 325
#     4   9  16  26  41  64  95 128 163 203 251 303
#     4  11  23  41  63  85 111 147 185 223 270 323
#     4  10  19  32  52  77 108 142 177 215 263 319
#     4   9  17  29  45  66  93 126 163 202 246 295
#     4  12  24  38  59  86 115 144 181 227 272 319
#
# _framework density 18.068148999999998
#
# number of rings (size 3 to 8) (size 9 to 14) (size 15 to 20)
#    0.000    2.000    0.833    4.000    0.000    8.333 
#    0.000    0.000    0.000    0.000    2.167    0.000 
#    0.000    0.000    0.000    0.000    0.000    0.000 
#
# Total GULP energy -595270.853265 kJ/mol
# GULP energy per Si atom -12401.476110 kJ/mol
# Density = 1.802702 g / cm^3
# Si number density = 18.068149 Si / 1000 Ang^3
#
#
#
# Elastic Constant Matrix: (Units=GPa)
#
#
# Indices 1 2 3 4 5 6 
#
# 1 80.5065 50.6724 50.2784 0.0000 0.0000 0.0000
# 2 50.6724 146.3918 76.6955 0.0000 0.0000 0.0000
# 3 50.2784 76.6955 145.3538 0.0000 0.0000 0.0000
# 4 0.0000 0.0000 0.0000 38.3252 0.0000 0.0000
# 5 0.0000 0.0000 0.0000 0.0000 7.9139 0.0000
# 6 0.0000 0.0000 0.0000 0.0000 0.0000 20.7674
#
#
#
# Elastic Compliance Matrix: (Units=1/GPa)
#
#
# Indices 1 2 3 4 5 6 
#
# 1 0.017357 -0.003956 -0.003917 0.000000 0.000000 0.000000
# 2 -0.003956 0.010343 -0.004089 0.000000 0.000000 0.000000
# 3 -0.003917 -0.004089 0.010392 0.000000 0.000000 0.000000
# 4 0.000000 0.000000 0.000000 0.026093 0.000000 0.000000
# 5 0.000000 0.000000 0.000000 0.000000 0.126360 0.000000
# 6 0.000000 0.000000 0.000000 0.000000 0.000000 0.048152
#
#
# Mechanical properties :
#
#
# Convention : Reuss Voigt Hill
#
# Bulk Modulus (GPa) = 70.57701 80.83829 75.70765
# Shear Modulus (GPa) = 18.70259 26.37502 22.53880
#
# Velocity S-wave (km/s) = 3.22081 3.82482 3.53573
# Velocity P-wave (km/s) = 7.27859 8.02144 7.65903
#
# Compressibility (1/GPa) = 0.01416892
#
# Stress axis : x y z
#
# Youngs Moduli (GPa) = 57.61205 96.68836 96.22891
#
# Poissons Ratio (x) = 0.38253 0.37688
# Poissons Ratio (y) = 0.22793 0.39345
# Poissons Ratio (z) = 0.22564 0.39533
#
# Static dielectric constant tensor:
#      x y z
#    x 2.976580 0.000000 0.000000 
#    y 0.000000 3.557030 0.000000 
#    z 0.000000 0.000000 3.564430 
# 
# 
# High freq. dielectric constant tensor:
#      x y z
#    x 1.647870 0.000000 0.000000 
#    y 0.000000 1.716470 0.000000 
#    z 0.000000 0.000000 1.717670 
# 
# From -- ./inp_files/37157.got.cif
#   From: 2010.03.12/outbox.cif.g09.slc.cpg/sg51_19_cif.got.tgz:37157.got - 2010.04.16 13:43:02.
