data_PCOD8208894
_publ_section_title
;
Structure prediction by ZEFSAII (Michael W. Deem and Ramdas Pophale) SiO2 
 PCOD8208894
Probable space group: P M M A
;
_chemical_formula_sum "Si O2"
_cell_formula_units_Z 48
_cell_length_a 9.654026
_cell_length_b 12.534661
_cell_length_c 18.770668
_cell_angle_alpha 90.000000
_cell_angle_beta 90.000000
_cell_angle_gamma 90.000000
_cell_volume 2271.437468
_symmetry_space_group_name_H-M "P M M A"
_symmetry_group_IT_number 51
_symmetry_cell_setting 'orthorhombic'
loop_
_space_group_symop_operation_xyz
x,y,z
1/2-x,-y,z
1/2+x,-y,-z
-x,y,-z
-x,-y,-z
1/2+x,y,-z
1/2-x,y,z
x,-y,z
loop_
_atom_site_type_symbol
_atom_site_label
_atom_site_fract_x
_atom_site_fract_y
_atom_site_fract_z
Si Si1 0.096689 0.752076 0.794685
Si Si2 0.090344 0.127283 0.567468
Si Si3 0.910819 0.377622 0.066631
Si Si4 0.250000 0.626980 0.383719
Si Si5 0.250000 0.372681 0.542842
Si Si6 0.407458 0.874174 0.299660
Si Si7 0.043062 0.374087 0.660032
O O1 0.250000 0.804265 0.805200
O O2 0.047086 0.693810 0.866098
O O3 0.113198 0.665548 0.731958
O O4 0.978970 0.838761 0.774687
O O5 0.250000 0.171870 0.562777
O O6 0.000000 0.163689 0.500000
O O7 0.010800 0.169926 0.638409
O O8 0.098118 0.000000 0.571146
O O9 0.750000 0.364923 0.047370
O O10 0.947683 0.500000 0.084697
O O11 0.000000 0.336461 0.000000
O O12 0.250000 0.500000 0.390299
O O13 0.250000 0.675620 0.463538
O O14 0.383849 0.665313 0.339845
O O15 0.250000 0.500000 0.538909
O O16 0.114842 0.331571 0.586786
O O17 0.250000 0.829801 0.308906
O O18 0.400589 0.000000 0.302024
O O19 0.058163 0.500000 0.659186
#
# Coordination Sequence:
#
# PCOD8208894 Si02
#       7
#     8   8   8   4   4   8   8
#     4  11  22  36  58  84 114 148 187 230 281 341
#     4   9  16  29  52  78 104 138 183 237 297 355
#     4   9  19  37  61  91 125 157 187 220 268 334
#     4   9  18  30  46  70 102 146 192 231 272 320
#     4   9  16  30  50  68  98 146 190 227 272 326
#     4  10  22  39  58  80 109 146 191 245 300 349
#     4  10  19  32  51  77 108 142 184 229 275 327
#
# _framework density 21.131992
#
# number of rings (size 3 to 8) (size 9 to 14) (size 15 to 20)
#    0.000    2.333    0.833    2.000    1.167    6.333 
#    0.000    1.667    0.000    0.500    0.000    0.000 
#    0.000    0.000    0.000    0.000    0.000    0.000 
#
# Total GULP energy -595277.312944 kJ/mol
# GULP energy per Si atom -12401.610686 kJ/mol
# Density = 2.108390 g / cm^3
# Si number density = 21.131992 Si / 1000 Ang^3
#
#
#
# Elastic Constant Matrix: (Units=GPa)
#
#
# Indices 1 2 3 4 5 6 
#
# 1 152.1179 42.2326 53.4835 0.0000 0.0000 0.0000
# 2 42.2326 31.5238 18.1133 0.0000 0.0000 0.0000
# 3 53.4835 18.1133 126.6076 0.0000 0.0000 0.0000
# 4 0.0000 0.0000 0.0000 31.1856 0.0000 0.0000
# 5 0.0000 0.0000 0.0000 0.0000 36.5546 0.0000
# 6 0.0000 0.0000 0.0000 0.0000 0.0000 37.9345
#
#
#
# Elastic Compliance Matrix: (Units=1/GPa)
#
#
# Indices 1 2 3 4 5 6 
#
# 1 0.011339 -0.013553 -0.002851 0.000000 0.000000 0.000000
# 2 -0.013553 0.050762 -0.001537 0.000000 0.000000 0.000000
# 3 -0.002851 -0.001537 0.009323 0.000000 0.000000 0.000000
# 4 0.000000 0.000000 0.000000 0.032066 0.000000 0.000000
# 5 0.000000 0.000000 0.000000 0.000000 0.027356 0.000000
# 6 0.000000 0.000000 0.000000 0.000000 0.000000 0.026361
#
#
# Mechanical properties :
#
#
# Convention : Reuss Voigt Hill
#
# Bulk Modulus (GPa) = 28.13589 59.76757 43.95173
# Shear Modulus (GPa) = 24.39785 34.22959 29.31372
#
# Velocity S-wave (km/s) = 3.40155 4.02904 3.72852
# Velocity P-wave (km/s) = 5.36383 7.07026 6.27532
#
# Compressibility (1/GPa) = 0.03554179
#
# Stress axis : x y z
#
# Youngs Moduli (GPa) = 88.19227 19.69981 107.26487
#
# Poissons Ratio (x) = 0.26698 0.30581
# Poissons Ratio (y) = 1.19523 0.16489
# Poissons Ratio (z) = 0.25144 0.03028
#
# Static dielectric constant tensor:
#      x y z
#    x 4.154760 0.000000 0.000000 
#    y 0.000000 3.848400 0.000000 
#    z 0.000000 0.000000 3.564960 
# 
# 
# High freq. dielectric constant tensor:
#      x y z
#    x 1.848270 0.000000 0.000000 
#    y 0.000000 1.852650 0.000000 
#    z 0.000000 0.000000 1.791380 
# 
# From -- ./inp_files/27667.got.cif
#   From: 2010.03.12/outbox.cif.g09.slc.cpg/sg51_14_cif.got.tgz:27667.got - 2010.04.16 13:43:02.
