data_PCOD8208634
_publ_section_title
;
Structure prediction by ZEFSAII (Michael W. Deem and Ramdas Pophale) SiO2 
 PCOD8208634
Probable space group: P M M A
;
_chemical_formula_sum "Si O2"
_cell_formula_units_Z 64
_cell_length_a 9.199871
_cell_length_b 19.471366
_cell_length_c 19.013051
_cell_angle_alpha 90.000000
_cell_angle_beta 90.000000
_cell_angle_gamma 90.000000
_cell_volume 3405.884931
_symmetry_space_group_name_H-M "P M M A"
_symmetry_group_IT_number 51
_symmetry_cell_setting 'orthorhombic'
loop_
_space_group_symop_operation_xyz
x,y,z
1/2-x,-y,z
1/2+x,-y,-z
-x,y,-z
-x,-y,-z
1/2+x,y,-z
1/2-x,y,z
x,-y,z
loop_
_atom_site_type_symbol
_atom_site_label
_atom_site_fract_x
_atom_site_fract_y
_atom_site_fract_z
Si Si1 0.916349 0.079259 0.291726
Si Si2 0.913089 0.576398 0.820450
Si Si3 0.411433 0.208560 0.934473
Si Si4 0.077659 0.573401 0.337104
Si Si5 0.420487 0.806141 0.211783
Si Si6 0.907501 0.366344 0.061923
Si Si7 0.920842 0.275184 0.649249
Si Si8 0.081987 0.158522 0.569513
O O1 0.750000 0.094715 0.269318
O O2 0.938746 0.099019 0.373134
O O3 0.025402 0.121812 0.243264
O O4 0.956003 0.000000 0.282199
O O5 0.750000 0.606928 0.820923
O O6 0.915166 0.500000 0.853293
O O7 0.977655 0.574124 0.742599
O O8 0.013049 0.627104 0.864029
O O9 0.250000 0.174266 0.927403
O O10 0.497034 0.205058 0.861156
O O11 0.387548 0.286994 0.955248
O O12 0.500000 0.173683 0.000000
O O13 0.250000 0.571208 0.337441
O O14 0.021331 0.500000 0.371951
O O15 0.027461 0.646321 0.369526
O O16 0.250000 0.811092 0.196013
O O17 0.453450 0.745556 0.269028
O O18 0.750000 0.402519 0.065004
O O19 0.000000 0.402258 0.000000
O O20 0.750000 0.265047 0.634254
O O21 0.012758 0.229396 0.596377
O O22 0.250000 0.172210 0.552315
O O23 0.000000 0.133131 0.500000
#
# Coordination Sequence:
#
# PCOD8208634 Si02
#       8
#     8   8   8   8   8   8   8   8
#     4   9  19  36  56  79 109 143 174 204 242 289
#     4   9  17  29  44  61  83 113 149 191 242 301
#     4  10  20  33  49  70  96 127 165 211 261 309
#     4   8  14  26  46  70  93 120 157 201 249 299
#     4  10  19  31  51  78 105 135 171 211 254 302
#     4  10  20  31  43  59  81 112 151 196 246 299
#     4   9  17  30  50  75 102 133 169 209 253 302
#     4  10  20  34  53  78 108 140 173 207 244 289
#
# _framework density 18.791004999999998
#
# number of rings (size 3 to 8) (size 9 to 14) (size 15 to 20)
#    0.000    2.625    0.000    3.000    0.000    4.500 
#    0.000    0.625    0.000    1.875    0.000    0.000 
#    0.000    0.000    0.000    0.000    0.000    0.000 
#
# Total GULP energy -793032.581811 kJ/mol
# GULP energy per Si atom -12391.134091 kJ/mol
# Density = 1.874824 g / cm^3
# Si number density = 18.791005 Si / 1000 Ang^3
#
#
#
# Elastic Constant Matrix: (Units=GPa)
#
#
# Indices 1 2 3 4 5 6 
#
# 1 99.7402 15.5758 29.9147 0.0000 0.0000 0.0000
# 2 15.5758 73.3185 -3.5158 0.0000 0.0000 0.0000
# 3 29.9147 -3.5158 53.4573 0.0000 0.0000 0.0000
# 4 0.0000 0.0000 0.0000 42.8323 0.0000 0.0000
# 5 0.0000 0.0000 0.0000 0.0000 31.3769 0.0000
# 6 0.0000 0.0000 0.0000 0.0000 0.0000 20.4867
#
#
#
# Elastic Compliance Matrix: (Units=1/GPa)
#
#
# Indices 1 2 3 4 5 6 
#
# 1 0.012692 -0.003047 -0.007303 0.000000 0.000000 0.000000
# 2 -0.003047 0.014414 0.002653 0.000000 0.000000 0.000000
# 3 -0.007303 0.002653 0.022968 0.000000 0.000000 0.000000
# 4 0.000000 0.000000 0.000000 0.023347 0.000000 0.000000
# 5 0.000000 0.000000 0.000000 0.000000 0.031871 0.000000
# 6 0.000000 0.000000 0.000000 0.000000 0.000000 0.048812
#
#
# Mechanical properties :
#
#
# Convention : Reuss Voigt Hill
#
# Bulk Modulus (GPa) = 28.83496 34.49617 31.66556
# Shear Modulus (GPa) = 27.61574 31.24193 29.42883
#
# Velocity S-wave (km/s) = 3.83773 4.08192 3.96171
# Velocity P-wave (km/s) = 5.91743 6.37290 6.14938
#
# Compressibility (1/GPa) = 0.03468012
#
# Stress axis : x y z
#
# Youngs Moduli (GPa) = 78.78895 69.37928 43.53938
#
# Poissons Ratio (x) = 0.21136 0.31796
# Poissons Ratio (y) = 0.24003 -0.11550
# Poissons Ratio (z) = 0.57539 -0.18405
#
# Static dielectric constant tensor:
#      x y z
#    x 3.546320 0.000000 0.000000 
#    y 0.000000 3.479990 0.000000 
#    z 0.000000 0.000000 3.249400 
# 
# 
# High freq. dielectric constant tensor:
#      x y z
#    x 1.725090 0.000000 0.000000 
#    y 0.000000 1.711860 0.000000 
#    z 0.000000 0.000000 1.711840 
# 
# From -- ./inp_files/28349.got.cif
#   From: 2010.03.12/outbox.cif.g09.slc.cpg/sg51_15_cif.got.tgz:28349.got - 2010.04.16 13:43:02.
