data_PCOD8208089
_publ_section_title
;
Structure prediction by ZEFSAII (Michael W. Deem and Ramdas Pophale) SiO2 
 PCOD8208089
Probable space group: P M M A
;
_chemical_formula_sum "Si O2"
_cell_formula_units_Z 48
_cell_length_a 8.744925
_cell_length_b 30.761607
_cell_length_c 9.898422
_cell_angle_alpha 90.000000
_cell_angle_beta 90.000000
_cell_angle_gamma 90.000000
_cell_volume 2662.754172
_symmetry_space_group_name_H-M "P M M A"
_symmetry_group_IT_number 51
_symmetry_cell_setting 'orthorhombic'
loop_
_space_group_symop_operation_xyz
x,y,z
1/2-x,-y,z
1/2+x,-y,-z
-x,y,-z
-x,-y,-z
1/2+x,y,-z
1/2-x,y,z
x,-y,z
loop_
_atom_site_type_symbol
_atom_site_label
_atom_site_fract_x
_atom_site_fract_y
_atom_site_fract_z
Si Si1 0.569115 0.619947 0.648260
Si Si2 0.070916 0.199849 0.647222
Si Si3 0.573371 0.051061 0.140520
Si Si4 0.930425 0.549045 0.859528
Si Si5 0.928898 0.294003 0.352860
Si Si6 0.430744 0.886180 0.351050
O O1 0.500000 0.613667 0.500000
O O2 0.750000 0.621215 0.637551
O O3 0.511072 0.580099 0.739842
O O4 0.510130 0.664914 0.719246
O O5 0.250000 0.189874 0.636209
O O6 0.042617 0.246936 0.720262
O O7 0.000000 0.202935 0.500000
O O8 0.988652 0.158998 0.719999
O O9 0.750000 0.064731 0.141204
O O10 0.485619 0.073556 0.262770
O O11 0.551539 0.000000 0.161272
O O12 0.500000 0.066496 0.000000
O O13 0.750000 0.551342 0.873133
O O14 0.985892 0.500000 0.826987
O O15 0.000000 0.565619 0.000000
O O16 0.750000 0.303688 0.364678
O O17 0.000000 0.291221 0.500000
O O18 0.500000 0.891021 0.500000
O O19 0.250000 0.886238 0.360669
#
# Coordination Sequence:
#
# PCOD8208089 Si02
#       6
#     8   8   8   8   8   8
#     4  10  19  30  47  72 100 127 158 199 242 287
#     4   9  16  27  44  68  98 130 164 202 244 292
#     4  10  21  38  58  78 102 134 171 209 251 303
#     4   9  19  35  52  70  93 124 162 200 240 289
#     4   9  16  26  43  67  96 129 162 198 240 288
#     4  11  21  33  52  78 107 137 170 211 255 297
#
# _framework density 18.026447000000001
#
# number of rings (size 3 to 8) (size 9 to 14) (size 15 to 20)
#    0.000    2.333    0.000    5.500    0.000    5.000 
#    0.000    0.000    0.000    1.000    0.000    2.333 
#    0.000    0.000    0.000    0.000    0.000    0.000 
#
# Total GULP energy -594838.803439 kJ/mol
# GULP energy per Si atom -12392.475072 kJ/mol
# Density = 1.798542 g / cm^3
# Si number density = 18.026447 Si / 1000 Ang^3
#
#
#
# Elastic Constant Matrix: (Units=GPa)
#
#
# Indices 1 2 3 4 5 6 
#
# 1 118.8138 57.3735 41.0881 0.0000 0.0000 0.0000
# 2 57.3735 112.9852 58.4878 0.0000 0.0000 0.0000
# 3 41.0881 58.4878 71.5723 0.0000 0.0000 0.0000
# 4 0.0000 0.0000 0.0000 5.3417 0.0000 0.0000
# 5 0.0000 0.0000 0.0000 0.0000 24.9048 0.0000
# 6 0.0000 0.0000 0.0000 0.0000 0.0000 30.0194
#
#
#
# Elastic Compliance Matrix: (Units=1/GPa)
#
#
# Indices 1 2 3 4 5 6 
#
# 1 0.011555 -0.004218 -0.003187 0.000000 0.000000 0.000000
# 2 -0.004218 0.016880 -0.011372 0.000000 0.000000 0.000000
# 3 -0.003187 -0.011372 0.025094 0.000000 0.000000 0.000000
# 4 0.000000 0.000000 0.000000 0.187208 0.000000 0.000000
# 5 0.000000 0.000000 0.000000 0.000000 0.040153 0.000000
# 6 0.000000 0.000000 0.000000 0.000000 0.000000 0.033312
#
#
# Mechanical properties :
#
#
# Convention : Reuss Voigt Hill
#
# Bulk Modulus (GPa) = 62.59626 68.58558 65.59092
# Shear Modulus (GPa) = 14.00241 21.81463 17.90852
#
# Velocity S-wave (km/s) = 2.79008 3.48249 3.15534
# Velocity P-wave (km/s) = 6.72157 7.36886 7.05264
#
# Compressibility (1/GPa) = 0.01597539
#
# Stress axis : x y z
#
# Youngs Moduli (GPa) = 86.53919 59.24298 39.84941
#
# Poissons Ratio (x) = 0.24990 0.12699
# Poissons Ratio (y) = 0.36504 0.45318
# Poissons Ratio (z) = 0.27577 0.67372
#
# Static dielectric constant tensor:
#      x y z
#    x 3.447040 0.000000 0.000000 
#    y 0.000000 4.282350 0.000000 
#    z 0.000000 0.000000 2.977030 
# 
# 
# High freq. dielectric constant tensor:
#      x y z
#    x 1.714360 0.000000 0.000000 
#    y 0.000000 1.721250 0.000000 
#    z 0.000000 0.000000 1.644220 
# 
# From -- ./inp_files/6022.got.cif
#   From: 2010.03.12/outbox.cif.g09.slc.cpg/sg51_4_cif.got.tgz:6022.got - 2010.04.16 13:43:02.
