data_PCOD8208455
_publ_section_title
;
Structure prediction by ZEFSAII (Michael W. Deem and Ramdas Pophale) SiO2 
 PCOD8208455
Probable space group: P M M A
;
_chemical_formula_sum "Si O2"
_cell_formula_units_Z 36
_cell_length_a 8.708679
_cell_length_b 16.230963
_cell_length_c 13.559889
_cell_angle_alpha 90.000000
_cell_angle_beta 90.000000
_cell_angle_gamma 90.000000
_cell_volume 1916.693654
_symmetry_space_group_name_H-M "P M M A"
_symmetry_group_IT_number 51
_symmetry_cell_setting 'orthorhombic'
loop_
_space_group_symop_operation_xyz
x,y,z
1/2-x,-y,z
1/2+x,-y,-z
-x,y,-z
-x,-y,-z
1/2+x,y,-z
1/2-x,y,z
x,-y,z
loop_
_atom_site_type_symbol
_atom_site_label
_atom_site_fract_x
_atom_site_fract_y
_atom_site_fract_z
Si Si1 0.067470 0.245999 0.895727
Si Si2 0.069675 0.000000 0.392137
Si Si3 0.430943 0.679722 0.601799
Si Si4 0.069112 0.589981 0.797254
Si Si5 0.431654 0.831487 0.292549
O O1 0.250000 0.243176 0.897853
O O2 0.006343 0.338515 0.869669
O O3 0.008946 0.182487 0.813710
O O4 0.000000 0.218459 0.000000
O O5 0.015727 0.920644 0.330540
O O6 0.000000 0.000000 0.500000
O O7 0.250000 0.000000 0.406274
O O8 0.500000 0.645963 0.500000
O O9 0.250000 0.693723 0.593368
O O10 0.472592 0.612640 0.684844
O O11 0.508904 0.766357 0.627568
O O12 0.250000 0.585196 0.809449
O O13 0.996417 0.500000 0.822574
O O14 0.250000 0.823689 0.281216
#
# Coordination Sequence:
#
# PCOD8208455 Si02
#       5
#     8   4   8   8   8
#     4  10  20  35  56  79 103 135 172 210 257 307
#     4  10  22  36  55  82 109 138 169 206 250 300
#     4  10  19  31  49  73 102 138 176 211 254 305
#     4   8  16  31  49  71 101 134 170 213 256 301
#     4  10  20  36  55  77 105 134 170 213 256 303
#
# _framework density 18.782343999999998
#
# number of rings (size 3 to 8) (size 9 to 14) (size 15 to 20)
#    0.000    2.444    0.000    4.000    0.000    4.444 
#    0.000    0.556    0.000   22.667    0.000    0.000 
#    0.000    0.000    0.000    0.000    0.000    0.000 
#
# Total GULP energy -446353.050581 kJ/mol
# GULP energy per Si atom -12398.695849 kJ/mol
# Density = 1.873959 g / cm^3
# Si number density = 18.782344 Si / 1000 Ang^3
#
#
#
# Elastic Constant Matrix: (Units=GPa)
#
#
# Indices 1 2 3 4 5 6 
#
# 1 64.2100 28.9006 35.4145 0.0000 0.0000 0.0000
# 2 28.9006 121.1613 42.8616 0.0000 0.0000 0.0000
# 3 35.4145 42.8616 131.7625 0.0000 0.0000 0.0000
# 4 0.0000 0.0000 0.0000 11.0815 0.0000 0.0000
# 5 0.0000 0.0000 0.0000 0.0000 34.0763 0.0000
# 6 0.0000 0.0000 0.0000 0.0000 0.0000 21.3092
#
#
#
# Elastic Compliance Matrix: (Units=1/GPa)
#
#
# Indices 1 2 3 4 5 6 
#
# 1 0.019277 -0.003125 -0.004165 0.000000 0.000000 0.000000
# 2 -0.003125 0.009833 -0.002359 0.000000 0.000000 0.000000
# 3 -0.004165 -0.002359 0.009476 0.000000 0.000000 0.000000
# 4 0.000000 0.000000 0.000000 0.090240 0.000000 0.000000
# 5 0.000000 0.000000 0.000000 0.000000 0.029346 0.000000
# 6 0.000000 0.000000 0.000000 0.000000 0.000000 0.046928
#
#
# Mechanical properties :
#
#
# Convention : Reuss Voigt Hill
#
# Bulk Modulus (GPa) = 51.84080 59.05413 55.44746
# Shear Modulus (GPa) = 21.66113 27.29053 24.47583
#
# Velocity S-wave (km/s) = 3.39967 3.81594 3.61380
# Velocity P-wave (km/s) = 6.56285 7.13616 6.85550
#
# Compressibility (1/GPa) = 0.01928983
#
# Stress axis : x y z
#
# Youngs Moduli (GPa) = 51.87400 101.69531 105.52845
#
# Poissons Ratio (x) = 0.31779 0.43950
# Poissons Ratio (y) = 0.16210 0.24892
# Poissons Ratio (z) = 0.21604 0.23988
#
# Static dielectric constant tensor:
#      x y z
#    x 3.307960 0.000000 0.000000 
#    y 0.000000 3.696300 0.000000 
#    z 0.000000 0.000000 3.299080 
# 
# 
# High freq. dielectric constant tensor:
#      x y z
#    x 1.720320 0.000000 0.000000 
#    y 0.000000 1.723880 0.000000 
#    z 0.000000 0.000000 1.732900 
# 
# From -- ./inp_files/20323.got.cif
#   From: 2010.03.12/outbox.cif.g09.slc.cpg/sg51_11_cif.got.tgz:20323.got - 2010.04.16 13:43:02.
