data_PCOD8208325
_publ_section_title
;
Structure prediction by ZEFSAII (Michael W. Deem and Ramdas Pophale) SiO2 
 PCOD8208325
Probable space group: P M M A
;
_chemical_formula_sum "Si O2"
_cell_formula_units_Z 52
_cell_length_a 9.019093
_cell_length_b 15.362477
_cell_length_c 23.246460
_cell_angle_alpha 90.000000
_cell_angle_beta 90.000000
_cell_angle_gamma 90.000000
_cell_volume 3220.927417
_symmetry_space_group_name_H-M "P M M A"
_symmetry_group_IT_number 51
_symmetry_cell_setting 'orthorhombic'
loop_
_space_group_symop_operation_xyz
x,y,z
1/2-x,-y,z
1/2+x,-y,-z
-x,y,-z
-x,-y,-z
1/2+x,y,-z
1/2-x,y,z
x,-y,z
loop_
_atom_site_type_symbol
_atom_site_label
_atom_site_fract_x
_atom_site_fract_y
_atom_site_fract_z
Si Si1 0.588487 0.602130 0.053068
Si Si2 0.576063 0.319856 0.387394
Si Si3 0.925155 0.905232 0.680849
Si Si4 0.073480 0.273748 0.270925
Si Si5 0.916185 0.500000 0.441937
Si Si6 0.572999 0.164930 0.557612
Si Si7 0.426818 0.400584 0.819023
O O1 0.750000 0.645898 0.052051
O O2 0.603456 0.500000 0.042257
O O3 0.516548 0.617729 0.115848
O O4 0.500000 0.645528 0.000000
O O5 0.750000 0.296030 0.381499
O O6 0.491261 0.315354 0.327715
O O7 0.546413 0.418048 0.403570
O O8 0.497558 0.260615 0.435577
O O9 0.750000 0.908187 0.680204
O O10 0.974296 0.829272 0.725726
O O11 0.976284 0.887336 0.614986
O O12 0.989434 0.000000 0.699944
O O13 0.250000 0.283628 0.269100
O O14 0.003888 0.325268 0.217746
O O15 0.750000 0.500000 0.462676
O O16 0.000000 0.500000 0.500000
O O17 0.500000 0.122603 0.500000
O O18 0.750000 0.169383 0.550732
O O19 0.250000 0.391580 0.814684
O O20 0.471615 0.500000 0.800687
#
# Coordination Sequence:
#
# PCOD8208325 Si02
#       7
#     8   8   8   8   4   8   8
#     4   8  14  25  41  62  89 124 162 194 224 256
#     4  10  20  34  48  62  84 115 147 181 226 273
#     4   8  16  32  50  66  88 116 144 180 230 282
#     4  10  20  32  48  71  92 115 151 192 229 266
#     4  10  22  34  46  62  78 106 145 180 217 264
#     4  10  19  31  48  69  89 110 139 175 222 276
#     4   9  18  31  46  65  95 134 165 188 221 267
#
# _framework density 16.144418000000002
#
# number of rings (size 3 to 8) (size 9 to 14) (size 15 to 20)
#    0.000    2.769    0.000    3.692    1.077    3.692 
#    0.000    1.538    0.000   16.154    0.000    0.000 
#    0.000    0.615    0.000    1.385    0.000    2.154 
#
# Total GULP energy -644194.159530 kJ/mol
# GULP energy per Si atom -12388.349222 kJ/mol
# Density = 1.610767 g / cm^3
# Si number density = 16.144418 Si / 1000 Ang^3
#
#
#
# Elastic Constant Matrix: (Units=GPa)
#
#
# Indices 1 2 3 4 5 6 
#
# 1 52.4270 37.7977 38.1513 0.0000 0.0000 0.0000
# 2 37.7977 114.2963 52.8173 0.0000 0.0000 0.0000
# 3 38.1513 52.8173 104.6489 0.0000 0.0000 0.0000
# 4 0.0000 0.0000 0.0000 13.0196 0.0000 0.0000
# 5 0.0000 0.0000 0.0000 0.0000 28.8704 0.0000
# 6 0.0000 0.0000 0.0000 0.0000 0.0000 13.7487
#
#
#
# Elastic Compliance Matrix: (Units=1/GPa)
#
#
# Indices 1 2 3 4 5 6 
#
# 1 0.028906 -0.006116 -0.007451 0.000000 0.000000 0.000000
# 2 -0.006116 0.012704 -0.004182 0.000000 0.000000 0.000000
# 3 -0.007451 -0.004182 0.014383 0.000000 0.000000 0.000000
# 4 0.000000 0.000000 0.000000 0.076807 0.000000 0.000000
# 5 0.000000 0.000000 0.000000 0.000000 0.034638 0.000000
# 6 0.000000 0.000000 0.000000 0.000000 0.000000 0.072734
#
#
# Mechanical properties :
#
#
# Convention : Reuss Voigt Hill
#
# Bulk Modulus (GPa) = 48.79421 58.76719 53.78070
# Shear Modulus (GPa) = 17.69894 20.63479 19.16687
#
# Velocity S-wave (km/s) = 3.31462 3.57898 3.44933
# Velocity P-wave (km/s) = 6.70359 7.31839 7.01772
#
# Compressibility (1/GPa) = 0.02049424
#
# Stress axis : x y z
#
# Youngs Moduli (GPa) = 34.59519 78.71275 69.52577
#
# Poissons Ratio (x) = 0.48139 0.51806
# Poissons Ratio (y) = 0.21158 0.29079
# Poissons Ratio (z) = 0.25778 0.32921
#
# Static dielectric constant tensor:
#      x y z
#    x 3.131940 0.000000 0.000000 
#    y 0.000000 3.371620 0.000000 
#    z 0.000000 0.000000 3.080500 
# 
# 
# High freq. dielectric constant tensor:
#      x y z
#    x 1.617760 0.000000 0.000000 
#    y 0.000000 1.599370 0.000000 
#    z 0.000000 0.000000 1.608430 
# 
# From -- ./inp_files/34730.got.cif
#   From: 2010.03.12/outbox.cif.g09.slc.cpg/sg51_18_cif.got.tgz:34730.got - 2010.04.16 13:43:02.
