data_PCOD8208970
_publ_section_title
;
Structure prediction by ZEFSAII (Michael W. Deem and Ramdas Pophale) SiO2 
 PCOD8208970
Probable space group: P M M A
;
_chemical_formula_sum "Si O2"
_cell_formula_units_Z 40
_cell_length_a 8.999456
_cell_length_b 13.673228
_cell_length_c 18.500000
_cell_angle_alpha 90.000000
_cell_angle_beta 90.000000
_cell_angle_gamma 90.000000
_cell_volume 2276.454855
_symmetry_space_group_name_H-M "P M M A"
_symmetry_group_IT_number 51
_symmetry_cell_setting 'orthorhombic'
loop_
_space_group_symop_operation_xyz
x,y,z
1/2-x,-y,z
1/2+x,-y,-z
-x,y,-z
-x,-y,-z
1/2+x,y,-z
1/2-x,y,z
x,-y,z
loop_
_atom_site_type_symbol
_atom_site_label
_atom_site_fract_x
_atom_site_fract_y
_atom_site_fract_z
Si Si1 0.424634 0.112226 0.574584
Si Si2 0.923302 0.782082 0.705156
Si Si3 0.576681 0.282203 0.072341
Si Si4 0.077460 0.111860 0.147729
Si Si5 0.422759 0.612643 0.781625
O O1 0.500000 0.144270 0.500000
O O2 0.250000 0.128129 0.567406
O O3 0.487321 0.181457 0.636353
O O4 0.464566 0.000000 0.593033
O O5 0.750000 0.778366 0.686467
O O6 0.958268 0.855507 0.770718
O O7 0.979284 0.673732 0.725211
O O8 0.750000 0.274781 0.058071
O O9 0.516922 0.174259 0.091013
O O10 0.537014 0.357059 0.136503
O O11 0.500000 0.322593 0.000000
O O12 0.250000 0.127761 0.130163
O O13 0.028694 0.000000 0.139091
O O14 0.250000 0.633600 0.766297
O O15 0.463995 0.500000 0.770830
#
# Coordination Sequence:
#
# PCOD8208970 Si02
#       5
#     8   8   8   8   8
#     4  10  20  33  51  77 109 143 175 205 240 285
#     4  10  19  32  52  77 104 132 165 207 251 297
#     4  10  20  33  49  70  96 126 161 203 251 300
#     4   9  18  32  49  69  95 129 166 202 242 290
#     4   9  19  36  55  74  97 127 165 208 253 301
#
# _framework density 17.571180999999999
#
# number of rings (size 3 to 8) (size 9 to 14) (size 15 to 20)
#    0.000    2.400    0.000    2.400    0.000    5.200 
#    0.000    0.000    0.000    0.600    0.000    0.000 
#    0.000    0.000    0.000    0.000    0.000    0.000 
#
# Total GULP energy -496156.301968 kJ/mol
# GULP energy per Si atom -12403.907549 kJ/mol
# Density = 1.753119 g / cm^3
# Si number density = 17.571181 Si / 1000 Ang^3
#
#
#
# Elastic Constant Matrix: (Units=GPa)
#
#
# Indices 1 2 3 4 5 6 
#
# 1 79.6404 37.4186 52.5009 0.0000 0.0000 0.0000
# 2 37.4186 86.9818 38.3421 0.0000 0.0000 0.0000
# 3 52.5009 38.3421 105.3168 0.0000 0.0000 0.0000
# 4 0.0000 0.0000 0.0000 15.6723 0.0000 0.0000
# 5 0.0000 0.0000 0.0000 0.0000 34.6519 0.0000
# 6 0.0000 0.0000 0.0000 0.0000 0.0000 27.4041
#
#
#
# Elastic Compliance Matrix: (Units=1/GPa)
#
#
# Indices 1 2 3 4 5 6 
#
# 1 0.020458 -0.005128 -0.008332 0.000000 0.000000 0.000000
# 2 -0.005128 0.014980 -0.002897 0.000000 0.000000 0.000000
# 3 -0.008332 -0.002897 0.014703 0.000000 0.000000 0.000000
# 4 0.000000 0.000000 0.000000 0.063807 0.000000 0.000000
# 5 0.000000 0.000000 0.000000 0.000000 0.028858 0.000000
# 6 0.000000 0.000000 0.000000 0.000000 0.000000 0.036491
#
#
# Mechanical properties :
#
#
# Convention : Reuss Voigt Hill
#
# Bulk Modulus (GPa) = 57.38090 58.71801 58.04945
# Shear Modulus (GPa) = 22.95464 25.12413 24.03939
#
# Velocity S-wave (km/s) = 3.61831 3.78544 3.70282
# Velocity P-wave (km/s) = 7.08402 7.25230 7.16865
#
# Compressibility (1/GPa) = 0.01742740
#
# Stress axis : x y z
#
# Youngs Moduli (GPa) = 48.87990 66.75615 68.01237
#
# Poissons Ratio (x) = 0.34235 0.56665
# Poissons Ratio (y) = 0.25067 0.19704
# Poissons Ratio (z) = 0.40724 0.19340
#
# Static dielectric constant tensor:
#      x y z
#    x 3.312080 0.000000 0.000000 
#    y 0.000000 3.185980 0.000000 
#    z 0.000000 0.000000 3.199360 
# 
# 
# High freq. dielectric constant tensor:
#      x y z
#    x 1.688980 0.000000 0.000000 
#    y 0.000000 1.667940 0.000000 
#    z 0.000000 0.000000 1.673570 
# 
# From -- ./inp_files/20478.got.cif
#   From: 2010.03.12/outbox.cif.g09.slc.cpg/sg51_11_cif.got.tgz:20478.got - 2010.04.16 13:43:02.
