data_PCOD8208772
_publ_section_title
;
Structure prediction by ZEFSAII (Michael W. Deem and Ramdas Pophale) SiO2 
 PCOD8208772
Probable space group: P M M A
;
_chemical_formula_sum "Si O2"
_cell_formula_units_Z 48
_cell_length_a 20.568038
_cell_length_b 9.168501
_cell_length_c 14.703571
_cell_angle_alpha 90.000000
_cell_angle_beta 90.000000
_cell_angle_gamma 90.000000
_cell_volume 2772.771144
_symmetry_space_group_name_H-M "P M M A"
_symmetry_group_IT_number 51
_symmetry_cell_setting 'orthorhombic'
loop_
_space_group_symop_operation_xyz
x,y,z
1/2-x,-y,z
1/2+x,-y,-z
-x,y,-z
-x,-y,-z
1/2+x,y,-z
1/2-x,y,z
x,-y,z
loop_
_atom_site_type_symbol
_atom_site_label
_atom_site_fract_x
_atom_site_fract_y
_atom_site_fract_z
Si Si1 0.654527 0.662426 0.808020
Si Si2 0.177556 0.328639 0.395263
Si Si3 0.551659 0.171960 0.077724
Si Si4 0.049388 0.169756 0.417981
Si Si5 0.179301 0.166295 0.017191
Si Si6 0.009846 0.665885 0.238117
O O1 0.681136 0.500000 0.822895
O O2 0.677646 0.719840 0.709991
O O3 0.577139 0.667245 0.815971
O O4 0.685071 0.760917 0.884975
O O5 0.250000 0.295188 0.435794
O O6 0.160832 0.500000 0.403547
O O7 0.120003 0.238644 0.444843
O O8 0.622509 0.230209 0.046077
O O9 0.540934 0.253761 0.172752
O O10 0.549589 0.000000 0.097209
O O11 0.500000 0.215350 0.000000
O O12 0.016838 0.249553 0.332643
O O13 0.000000 0.193231 0.500000
O O14 0.059490 0.000000 0.395316
O O15 0.250000 0.182771 0.968821
O O16 0.161165 0.000000 0.036752
O O17 0.987196 0.500000 0.257903
#
# Coordination Sequence:
#
# PCOD8208772 Si02
#       6
#     8   8   8   8   8   8
#     4   9  17  29  45  68  99 131 162 197 241 294
#     4   9  18  32  50  75 107 139 169 205 254 311
#     4  10  19  32  50  71  98 133 172 211 248 293
#     4  10  21  36  55  79 106 135 171 215 262 312
#     4  10  20  31  44  66  97 132 169 208 251 295
#     4  10  20  33  52  76 100 131 170 212 256 304
#
# _framework density 17.311199999999999
#
# number of rings (size 3 to 8) (size 9 to 14) (size 15 to 20)
#    0.000    2.333    1.667    2.500    0.000    6.333 
#    0.000    0.000    0.000    1.000    0.000    2.333 
#    0.000    0.000    0.000    0.000    0.000    0.000 
#
# Total GULP energy -595002.066068 kJ/mol
# GULP energy per Si atom -12395.876376 kJ/mol
# Density = 1.727180 g / cm^3
# Si number density = 17.311200 Si / 1000 Ang^3
#
#
#
# Elastic Constant Matrix: (Units=GPa)
#
#
# Indices 1 2 3 4 5 6 
#
# 1 123.9748 50.5738 46.3597 0.0000 0.0000 0.0000
# 2 50.5738 85.3588 44.1883 0.0000 0.0000 0.0000
# 3 46.3597 44.1883 64.0029 0.0000 0.0000 0.0000
# 4 0.0000 0.0000 0.0000 18.7290 0.0000 0.0000
# 5 0.0000 0.0000 0.0000 0.0000 18.2774 0.0000
# 6 0.0000 0.0000 0.0000 0.0000 0.0000 16.5370
#
#
#
# Elastic Compliance Matrix: (Units=1/GPa)
#
#
# Indices 1 2 3 4 5 6 
#
# 1 0.011889 -0.004024 -0.005833 0.000000 0.000000 0.000000
# 2 -0.004024 0.019594 -0.010613 0.000000 0.000000 0.000000
# 3 -0.005833 -0.010613 0.027177 0.000000 0.000000 0.000000
# 4 0.000000 0.000000 0.000000 0.053393 0.000000 0.000000
# 5 0.000000 0.000000 0.000000 0.000000 0.054712 0.000000
# 6 0.000000 0.000000 0.000000 0.000000 0.000000 0.060471
#
#
# Mechanical properties :
#
#
# Convention : Reuss Voigt Hill
#
# Bulk Modulus (GPa) = 56.43723 61.73112 59.08418
# Shear Modulus (GPa) = 18.24270 19.52298 18.88284
#
# Velocity S-wave (km/s) = 3.24976 3.36187 3.30629
# Velocity P-wave (km/s) = 6.83766 7.12787 6.98428
#
# Compressibility (1/GPa) = 0.01771880
#
# Stress axis : x y z
#
# Youngs Moduli (GPa) = 84.11006 51.03718 36.79631
#
# Poissons Ratio (x) = 0.20539 0.21464
# Poissons Ratio (y) = 0.33849 0.39050
# Poissons Ratio (z) = 0.49064 0.54164
#
# Static dielectric constant tensor:
#      x y z
#    x 3.438780 0.000000 0.000000 
#    y 0.000000 3.261900 0.000000 
#    z 0.000000 0.000000 2.876950 
# 
# 
# High freq. dielectric constant tensor:
#      x y z
#    x 1.674500 0.000000 0.000000 
#    y 0.000000 1.670100 0.000000 
#    z 0.000000 0.000000 1.631020 
# 
# From -- ./inp_files/25490.got.cif
#   From: 2010.03.12/outbox.cif.g09.slc.cpg/sg51_13_cif.got.tgz:25490.got - 2010.04.16 13:43:02.
