data_PCOD8208510
_publ_section_title
;
Structure prediction by ZEFSAII (Michael W. Deem and Ramdas Pophale) SiO2 
 PCOD8208510
Probable space group: P M M A
;
_chemical_formula_sum "Si O2"
_cell_formula_units_Z 48
_cell_length_a 18.229740
_cell_length_b 9.263691
_cell_length_c 16.429145
_cell_angle_alpha 90.000000
_cell_angle_beta 90.000000
_cell_angle_gamma 90.000000
_cell_volume 2774.466578
_symmetry_space_group_name_H-M "P M M A"
_symmetry_group_IT_number 51
_symmetry_cell_setting 'orthorhombic'
loop_
_space_group_symop_operation_xyz
x,y,z
1/2-x,-y,z
1/2+x,-y,-z
-x,y,-z
-x,-y,-z
1/2+x,y,-z
1/2-x,y,z
x,-y,z
loop_
_atom_site_type_symbol
_atom_site_label
_atom_site_fract_x
_atom_site_fract_y
_atom_site_fract_z
Si Si1 0.095786 0.666072 0.314701
Si Si2 0.917119 0.665454 0.501214
Si Si3 0.038908 0.167011 0.748870
Si Si4 0.167632 0.832037 0.635869
Si Si5 0.831958 0.831040 0.823540
Si Si6 0.526918 0.168870 0.915677
O O1 0.092494 0.500000 0.287183
O O2 0.117513 0.680056 0.409028
O O3 0.156604 0.748417 0.261468
O O4 0.015796 0.735251 0.303135
O O5 0.918614 0.500000 0.471700
O O6 0.865434 0.753193 0.441626
O O7 0.000000 0.727537 0.500000
O O8 0.120940 0.199789 0.717769
O O9 0.031892 0.205042 0.844733
O O10 0.017191 0.000000 0.734866
O O11 0.250000 0.776521 0.652507
O O12 0.166733 0.000000 0.614843
O O13 0.750000 0.799603 0.856559
O O14 0.892109 0.774599 0.889036
O O15 0.843878 0.000000 0.806191
O O16 0.533232 0.000000 0.930983
O O17 0.500000 0.243633 0.000000
#
# Coordination Sequence:
#
# PCOD8208510 Si02
#       6
#     8   8   8   8   8   8
#     4  10  19  31  50  72  94 123 163 203 241 288
#     4  10  20  34  50  70  96 127 166 208 246 287
#     4   9  17  31  50  70  96 129 161 196 239 287
#     4  10  21  34  48  70  99 130 165 202 241 286
#     4   9  18  32  49  71 101 132 161 197 244 294
#     4   8  14  27  49  74  96 122 159 197 234 282
#
# _framework density 17.300623000000002
#
# number of rings (size 3 to 8) (size 9 to 14) (size 15 to 20)
#    0.000    2.667    1.667    1.500    0.000    3.000 
#    0.000    4.167    0.000   13.000    0.000    0.000 
#    0.000    5.333    0.000    0.000    0.000    0.000 
#
# Total GULP energy -595020.489254 kJ/mol
# GULP energy per Si atom -12396.260193 kJ/mol
# Density = 1.726125 g / cm^3
# Si number density = 17.300623 Si / 1000 Ang^3
#
#
#
# Elastic Constant Matrix: (Units=GPa)
#
#
# Indices 1 2 3 4 5 6 
#
# 1 145.5983 36.1271 72.7139 0.0000 0.0000 0.0000
# 2 36.1271 46.7922 34.1146 0.0000 0.0000 0.0000
# 3 72.7139 34.1146 122.4740 0.0000 0.0000 0.0000
# 4 0.0000 0.0000 0.0000 8.2287 0.0000 0.0000
# 5 0.0000 0.0000 0.0000 0.0000 21.9889 0.0000
# 6 0.0000 0.0000 0.0000 0.0000 0.0000 14.7422
#
#
#
# Elastic Compliance Matrix: (Units=1/GPa)
#
#
# Indices 1 2 3 4 5 6 
#
# 1 0.010453 -0.004449 -0.004966 0.000000 0.000000 0.000000
# 2 -0.004449 0.028711 -0.005356 0.000000 0.000000 0.000000
# 3 -0.004966 -0.005356 0.012605 0.000000 0.000000 0.000000
# 4 0.000000 0.000000 0.000000 0.121526 0.000000 0.000000
# 5 0.000000 0.000000 0.000000 0.000000 0.045477 0.000000
# 6 0.000000 0.000000 0.000000 0.000000 0.000000 0.067832
#
#
# Mechanical properties :
#
#
# Convention : Reuss Voigt Hill
#
# Bulk Modulus (GPa) = 44.99235 66.75285 55.87260
# Shear Modulus (GPa) = 15.45327 20.45256 17.95292
#
# Velocity S-wave (km/s) = 2.99192 3.44202 3.22484
# Velocity P-wave (km/s) = 6.16426 7.38001 6.79936
#
# Compressibility (1/GPa) = 0.02222600
#
# Stress axis : x y z
#
# Youngs Moduli (GPa) = 95.67084 34.82996 79.33096
#
# Poissons Ratio (x) = 0.15497 0.39399
# Poissons Ratio (y) = 0.42567 0.42488
# Poissons Ratio (z) = 0.47514 0.18654
#
# Static dielectric constant tensor:
#      x y z
#    x 3.355410 0.000000 0.000000 
#    y 0.000000 3.065930 0.000000 
#    z 0.000000 0.000000 3.317030 
# 
# 
# High freq. dielectric constant tensor:
#      x y z
#    x 1.663030 0.000000 0.000000 
#    y 0.000000 1.648960 0.000000 
#    z 0.000000 0.000000 1.660220 
# 
# From -- ./inp_files/30020.got.cif
#   From: 2010.03.12/outbox.cif.g09.slc.cpg/sg51_16_cif.got.tgz:30020.got - 2010.04.16 13:43:02.
