data_PCOD8208020
_publ_section_title
;
Structure prediction by ZEFSAII (Michael W. Deem and Ramdas Pophale) SiO2 
 PCOD8208020
Probable space group: P M M A
;
_chemical_formula_sum "Si O2"
_cell_formula_units_Z 48
_cell_length_a 26.158914
_cell_length_b 9.220929
_cell_length_c 11.705363
_cell_angle_alpha 90.000000
_cell_angle_beta 90.000000
_cell_angle_gamma 90.000000
_cell_volume 2823.444624
_symmetry_space_group_name_H-M "P M M A"
_symmetry_group_IT_number 51
_symmetry_cell_setting 'orthorhombic'
loop_
_space_group_symop_operation_xyz
x,y,z
1/2-x,-y,z
1/2+x,-y,-z
-x,y,-z
-x,-y,-z
1/2+x,y,-z
1/2-x,y,z
x,-y,z
loop_
_atom_site_type_symbol
_atom_site_label
_atom_site_fract_x
_atom_site_fract_y
_atom_site_fract_z
Si Si1 0.308704 0.829675 0.836281
Si Si2 0.556342 0.669568 0.534936
Si Si3 0.060030 0.334278 0.204454
Si Si4 0.611173 0.837044 0.349189
Si Si5 0.120548 0.333276 0.992299
Si Si6 0.037623 0.164786 0.853024
O O1 0.250000 0.789649 0.815454
O O2 0.340996 0.777396 0.725731
O O3 0.328496 0.749827 0.950843
O O4 0.317591 0.000000 0.855539
O O5 0.500000 0.728662 0.500000
O O6 0.558637 0.500000 0.511309
O O7 0.570092 0.710381 0.664986
O O8 0.601405 0.740387 0.460214
O O9 0.039426 0.500000 0.199750
O O10 0.019048 0.227624 0.148254
O O11 0.112192 0.319747 0.129670
O O12 0.559910 0.831166 0.274350
O O13 0.623137 0.000000 0.389947
O O14 0.125372 0.500000 0.954742
O O15 0.071004 0.264654 0.934451
O O16 0.036809 0.000000 0.899719
#
# Coordination Sequence:
#
# PCOD8208020 Si02
#       6
#     8   8   8   8   8   8
#     4   9  19  37  58  77  98 123 156 205 259 303
#     4  10  19  31  48  68  97 138 174 201 235 283
#     4  10  20  32  45  67 100 136 169 201 241 284
#     4   9  18  31  48  73  99 126 162 204 247 286
#     4  10  20  32  48  71 100 129 162 203 246 295
#     4  10  19  30  46  69  99 133 168 203 240 287
#
# _framework density 17.000509999999998
#
# number of rings (size 3 to 8) (size 9 to 14) (size 15 to 20)
#    0.000    2.333    1.667    2.500    0.000    7.333 
#    0.000    0.000    0.000    1.000    0.000    4.667 
#    0.000    0.000    0.000    0.000    0.000    0.000 
#
# Total GULP energy -595078.790897 kJ/mol
# GULP energy per Si atom -12397.474810 kJ/mol
# Density = 1.696182 g / cm^3
# Si number density = 17.000510 Si / 1000 Ang^3
#
#
#
# Elastic Constant Matrix: (Units=GPa)
#
#
# Indices 1 2 3 4 5 6 
#
# 1 96.8837 38.1171 47.5643 0.0000 0.0000 0.0000
# 2 38.1171 63.4770 38.4820 0.0000 0.0000 0.0000
# 3 47.5643 38.4820 98.7317 0.0000 0.0000 0.0000
# 4 0.0000 0.0000 0.0000 21.2134 0.0000 0.0000
# 5 0.0000 0.0000 0.0000 0.0000 15.0375 0.0000
# 6 0.0000 0.0000 0.0000 0.0000 0.0000 21.4491
#
#
#
# Elastic Compliance Matrix: (Units=1/GPa)
#
#
# Indices 1 2 3 4 5 6 
#
# 1 0.015137 -0.006113 -0.004910 0.000000 0.000000 0.000000
# 2 -0.006113 0.023097 -0.006057 0.000000 0.000000 0.000000
# 3 -0.004910 -0.006057 0.014855 0.000000 0.000000 0.000000
# 4 0.000000 0.000000 0.000000 0.047140 0.000000 0.000000
# 5 0.000000 0.000000 0.000000 0.000000 0.066500 0.000000
# 6 0.000000 0.000000 0.000000 0.000000 0.000000 0.046622
#
#
# Mechanical properties :
#
#
# Convention : Reuss Voigt Hill
#
# Bulk Modulus (GPa) = 52.83100 56.37991 54.60545
# Shear Modulus (GPa) = 19.69898 20.53528 20.11713
#
# Velocity S-wave (km/s) = 3.40770 3.47929 3.44368
# Velocity P-wave (km/s) = 6.82838 7.02682 6.92831
#
# Compressibility (1/GPa) = 0.01892828
#
# Stress axis : x y z
#
# Youngs Moduli (GPa) = 66.06262 43.29618 67.31943
#
# Poissons Ratio (x) = 0.26468 0.33051
# Poissons Ratio (y) = 0.40386 0.40776
# Poissons Ratio (z) = 0.32434 0.26225
#
# Static dielectric constant tensor:
#      x y z
#    x 2.965610 0.000000 0.000000 
#    y 0.000000 3.210710 0.000000 
#    z 0.000000 0.000000 3.238110 
# 
# 
# High freq. dielectric constant tensor:
#      x y z
#    x 1.620150 0.000000 0.000000 
#    y 0.000000 1.660820 0.000000 
#    z 0.000000 0.000000 1.653590 
# 
# From -- ./inp_files/18615.got.cif
#   From: 2010.03.12/outbox.cif.g09.slc.cpg/sg51_10_cif.got.tgz:18615.got - 2010.04.16 13:43:02.
