data_PCOD8208401
_publ_section_title
;
Structure prediction by ZEFSAII (Michael W. Deem and Ramdas Pophale) SiO2 
 PCOD8208401
Probable space group: P M M A
;
_chemical_formula_sum "Si O2"
_cell_formula_units_Z 48
_cell_length_a 13.819737
_cell_length_b 8.691469
_cell_length_c 24.092197
_cell_angle_alpha 90.000000
_cell_angle_beta 90.000000
_cell_angle_gamma 90.000000
_cell_volume 2893.805711
_symmetry_space_group_name_H-M "P M M A"
_symmetry_group_IT_number 51
_symmetry_cell_setting 'orthorhombic'
loop_
_space_group_symop_operation_xyz
x,y,z
1/2-x,-y,z
1/2+x,-y,-z
-x,y,-z
-x,-y,-z
1/2+x,y,-z
1/2-x,y,z
x,-y,z
loop_
_atom_site_type_symbol
_atom_site_label
_atom_site_fract_x
_atom_site_fract_y
_atom_site_fract_z
Si Si1 0.360852 0.319716 0.978933
Si Si2 0.360956 0.681630 0.304436
Si Si3 0.859342 0.818116 0.809832
Si Si4 0.532013 0.817746 0.918806
Si Si5 0.643719 0.683163 0.475047
Si Si6 0.541984 0.317053 0.585160
O O1 0.250000 0.280679 0.964330
O O2 0.376533 0.500000 0.988810
O O3 0.428232 0.262918 0.928270
O O4 0.391253 0.230285 0.034359
O O5 0.250000 0.731542 0.313469
O O6 0.371372 0.500000 0.300632
O O7 0.402216 0.752925 0.247608
O O8 0.422681 0.750076 0.355904
O O9 0.750000 0.755953 0.819232
O O10 0.926960 0.760185 0.859871
O O11 0.859055 0.000000 0.807106
O O12 0.518398 0.000000 0.920745
O O13 0.750000 0.750072 0.461118
O O14 0.645646 0.500000 0.476571
O O15 0.567929 0.737819 0.427761
O O16 0.610846 0.743567 0.535609
O O17 0.548099 0.500000 0.587112
#
# Coordination Sequence:
#
# PCOD8208401 Si02
#       6
#     8   8   8   8   8   8
#     4  10  20  32  47  69  96 121 143 173 216 262
#     4   9  16  25  39  59  81 106 136 170 208 248
#     4   9  18  31  45  63  87 113 142 176 213 252
#     4  10  19  31  49  69  89 116 149 183 215 252
#     4   8  12  18  30  49  75 105 132 161 201 246
#     4   8  13  20  31  51  78 104 130 163 203 245
#
# _framework density 16.587154000000002
#
# number of rings (size 3 to 8) (size 9 to 14) (size 15 to 20)
#    0.000    3.000    0.000    4.000    0.000    5.333 
#    0.000    1.667    0.000    1.000    0.000    4.667 
#    0.000    1.333    0.000    0.000    0.000    0.000 
#
# Total GULP energy -594963.415880 kJ/mol
# GULP energy per Si atom -12395.071164 kJ/mol
# Density = 1.654940 g / cm^3
# Si number density = 16.587154 Si / 1000 Ang^3
#
#
#
# Elastic Constant Matrix: (Units=GPa)
#
#
# Indices 1 2 3 4 5 6 
#
# 1 132.1092 14.3955 73.7054 0.0000 0.0000 0.0000
# 2 14.3955 13.9648 10.5452 0.0000 0.0000 0.0000
# 3 73.7054 10.5452 145.5640 0.0000 0.0000 0.0000
# 4 0.0000 0.0000 0.0000 1.4654 0.0000 0.0000
# 5 0.0000 0.0000 0.0000 0.0000 28.4960 0.0000
# 6 0.0000 0.0000 0.0000 0.0000 0.0000 15.7488
#
#
#
# Elastic Compliance Matrix: (Units=1/GPa)
#
#
# Indices 1 2 3 4 5 6 
#
# 1 0.011290 -0.007745 -0.005155 0.000000 0.000000 0.000000
# 2 -0.007745 0.081066 -0.001951 0.000000 0.000000 0.000000
# 3 -0.005155 -0.001951 0.009622 0.000000 0.000000 0.000000
# 4 0.000000 0.000000 0.000000 0.682429 0.000000 0.000000
# 5 0.000000 0.000000 0.000000 0.000000 0.035093 0.000000
# 6 0.000000 0.000000 0.000000 0.000000 0.000000 0.063497
#
#
# Mechanical properties :
#
#
# Convention : Reuss Voigt Hill
#
# Bulk Modulus (GPa) = 13.83618 54.32557 34.08088
# Shear Modulus (GPa) = 5.33738 22.00815 13.67276
#
# Velocity S-wave (km/s) = 1.79576 3.64650 2.87417
# Velocity P-wave (km/s) = 3.55799 7.10999 5.62189
#
# Compressibility (1/GPa) = 0.07227426
#
# Stress axis : x y z
#
# Youngs Moduli (GPa) = 88.57637 12.33565 103.93297
#
# Poissons Ratio (x) = 0.09554 0.53582
# Poissons Ratio (y) = 0.68601 0.20279
# Poissons Ratio (z) = 0.45665 0.02407
#
# Static dielectric constant tensor:
#      x y z
#    x 3.345750 0.000000 0.000000 
#    y 0.000000 2.797610 0.000000 
#    z 0.000000 0.000000 3.259160 
# 
# 
# High freq. dielectric constant tensor:
#      x y z
#    x 1.632050 0.000000 0.000000 
#    y 0.000000 1.609810 0.000000 
#    z 0.000000 0.000000 1.631640 
# 
# From -- ./inp_files/35489.got.cif
#   From: 2010.03.12/outbox.cif.g09.slc.cpg/sg51_18_cif.got.tgz:35489.got - 2010.04.16 13:43:02.
