data_PCOD8208205
_publ_section_title
;
Structure prediction by ZEFSAII (Michael W. Deem and Ramdas Pophale) SiO2 
 PCOD8208205
Probable space group: P M M A
;
_chemical_formula_sum "Si O2"
_cell_formula_units_Z 40
_cell_length_a 8.702444
_cell_length_b 15.566481
_cell_length_c 19.479700
_cell_angle_alpha 90.000000
_cell_angle_beta 90.000000
_cell_angle_gamma 90.000000
_cell_volume 2638.845400
_symmetry_space_group_name_H-M "P M M A"
_symmetry_group_IT_number 51
_symmetry_cell_setting 'orthorhombic'
loop_
_space_group_symop_operation_xyz
x,y,z
1/2-x,-y,z
1/2+x,-y,-z
-x,y,-z
-x,-y,-z
1/2+x,y,-z
1/2-x,y,z
x,-y,z
loop_
_atom_site_type_symbol
_atom_site_label
_atom_site_fract_x
_atom_site_fract_y
_atom_site_fract_z
Si Si1 0.922681 0.102159 0.431232
Si Si2 0.428356 0.100717 0.290691
Si Si3 0.567954 0.313506 0.923720
Si Si4 0.930377 0.158011 0.155265
Si Si5 0.568868 0.000000 0.925045
Si Si6 0.426954 0.500000 0.072844
O O1 0.750000 0.138069 0.425311
O O2 0.000000 0.140211 0.500000
O O3 0.020147 0.132910 0.365677
O O4 0.921536 0.000000 0.435086
O O5 0.250000 0.121436 0.280455
O O6 0.526938 0.152863 0.235297
O O7 0.462463 0.000000 0.281385
O O8 0.750000 0.294849 0.926165
O O9 0.483699 0.249437 0.872650
O O10 0.530447 0.408887 0.891423
O O11 0.500000 0.302836 0.000000
O O12 0.750000 0.146038 0.145033
O O13 0.017773 0.084255 0.114601
O O14 0.750000 0.000000 0.930679
O O15 0.500000 0.000000 0.000000
O O16 0.250000 0.500000 0.057208
O O17 0.500000 0.500000 0.000000
#
# Coordination Sequence:
#
# PCOD8208205 Si02
#       6
#     8   8   8   8   4   4
#     4   9  16  26  41  61  84 110 144 183 221 260
#     4  10  19  31  46  62  84 115 150 186 225 264
#     4  10  19  33  50  69  90 113 145 183 226 272
#     4  12  23  34  47  65  88 117 150 186 226 268
#     4  12  24  38  50  62  81 112 151 192 228 262
#     4   8  16  30  50  70  88 110 137 176 223 272
#
# _framework density 15.158144999999999
#
# number of rings (size 3 to 8) (size 9 to 14) (size 15 to 20)
#    0.000    1.800    1.000    5.100    0.000    4.000 
#    0.000    0.000    0.000    0.000    0.000    0.000 
#    0.000    0.000    0.000    0.900    0.000   11.400 
#
# Total GULP energy -495859.033660 kJ/mol
# GULP energy per Si atom -12396.475842 kJ/mol
# Density = 1.512364 g / cm^3
# Si number density = 15.158145 Si / 1000 Ang^3
#
#
#
# Elastic Constant Matrix: (Units=GPa)
#
#
# Indices 1 2 3 4 5 6 
#
# 1 105.3715 35.9836 39.1020 0.0000 0.0000 0.0000
# 2 35.9836 80.5957 38.6068 0.0000 0.0000 0.0000
# 3 39.1020 38.6068 103.1426 0.0000 0.0000 0.0000
# 4 0.0000 0.0000 0.0000 -987.2067 0.0000 0.0000
# 5 0.0000 0.0000 0.0000 0.0000 29.9400 0.0000
# 6 0.0000 0.0000 0.0000 0.0000 0.0000 11.4937
#
#
#
# Elastic Compliance Matrix: (Units=1/GPa)
#
#
# Indices 1 2 3 4 5 6 
#
# 1 0.011953 -0.003858 -0.003088 0.000000 0.000000 0.000000
# 2 -0.003858 0.016363 -0.004662 0.000000 0.000000 0.000000
# 3 -0.003088 -0.004662 0.012611 0.000000 0.000000 0.000000
# 4 0.000000 0.000000 0.000000 -0.001013 0.000000 0.000000
# 5 0.000000 0.000000 0.000000 0.000000 0.033400 0.000000
# 6 0.000000 0.000000 0.000000 0.000000 0.000000 0.087004
#
#
# Mechanical properties :
#
#
# Convention : Reuss Voigt Hill
#
# Bulk Modulus (GPa) = 56.45834 57.38829 56.92331
# Shear Modulus (GPa) = 26.39376 -177.46009 -75.53317
#
# Velocity S-wave (km/s) = 4.17733 -10.83174 -7.06670
# Velocity P-wave (km/s) = 7.78420 10.88547 5.38051
#
# Compressibility (1/GPa) = 0.01771218
#
# Stress axis : x y z
#
# Youngs Moduli (GPa) = 83.65807 61.11210 79.29588
#
# Poissons Ratio (x) = 0.23576 0.24483
# Poissons Ratio (y) = 0.32274 0.36971
# Poissons Ratio (z) = 0.25830 0.28493
#
# Static dielectric constant tensor:
#      x y z
#    x 3.149510 0.000000 0.000000 
#    y 0.000000 2.930370 0.000000 
#    z 0.000000 0.000000 2.940990 
# 
# 
# High freq. dielectric constant tensor:
#      x y z
#    x 1.604350 0.000000 0.000000 
#    y 0.000000 1.542020 0.000000 
#    z 0.000000 0.000000 1.570200 
# 
# From -- ./inp_files/27776.got.cif
#   From: 2010.03.12/outbox.cif.g09.slc.cpg/sg51_14_cif.got.tgz:27776.got - 2010.04.16 13:43:02.
