data_PCOD8208421
_publ_section_title
;
Structure prediction by ZEFSAII (Michael W. Deem and Ramdas Pophale) SiO2 
 PCOD8208421
Probable space group: P M M A
;
_chemical_formula_sum "Si O2"
_cell_formula_units_Z 48
_cell_length_a 8.843308
_cell_length_b 13.685177
_cell_length_c 23.963858
_cell_angle_alpha 90.000000
_cell_angle_beta 90.000000
_cell_angle_gamma 90.000000
_cell_volume 2900.159660
_symmetry_space_group_name_H-M "P M M A"
_symmetry_group_IT_number 51
_symmetry_cell_setting 'orthorhombic'
loop_
_space_group_symop_operation_xyz
x,y,z
1/2-x,-y,z
1/2+x,-y,-z
-x,y,-z
-x,-y,-z
1/2+x,y,-z
1/2-x,y,z
x,-y,z
loop_
_atom_site_type_symbol
_atom_site_label
_atom_site_fract_x
_atom_site_fract_y
_atom_site_fract_z
Si Si1 0.072046 0.388586 0.943664
Si Si2 0.072029 0.888275 0.441440
Si Si3 0.070908 0.217713 0.661075
Si Si4 0.574997 0.612631 0.723762
Si Si5 0.071455 0.106874 0.770648
Si Si6 0.429421 0.702278 0.829162
O O1 0.250000 0.382188 0.949905
O O2 0.018107 0.500000 0.934607
O O3 0.015471 0.325193 0.891122
O O4 0.000000 0.344725 0.000000
O O5 0.250000 0.873747 0.445265
O O6 0.000000 0.857699 0.500000
O O7 0.005035 0.816115 0.395711
O O8 0.028955 0.000000 0.426509
O O9 0.250000 0.220022 0.653762
O O10 0.019102 0.143633 0.709904
O O11 0.013214 0.325526 0.676958
O O12 0.750000 0.643078 0.723853
O O13 0.552794 0.500000 0.707984
O O14 0.507718 0.630633 0.785199
O O15 0.250000 0.097815 0.771208
O O16 0.020696 0.185479 0.817351
O O17 0.998718 0.000000 0.782841
O O18 0.250000 0.688590 0.822254
#
# Coordination Sequence:
#
# PCOD8208421 Si02
#       6
#     8   8   8   8   8   8
#     4   9  17  28  42  61  85 113 147 187 230 277
#     4  10  20  33  50  73 101 131 162 197 236 278
#     4  10  19  31  49  71  96 126 159 195 233 276
#     4  10  20  32  47  69  96 124 154 190 233 282
#     4   8  14  25  43  67  91 115 146 183 222 266
#     4   9  17  29  46  67  90 118 151 188 230 275
#
# _framework density 16.550813000000002
#
# number of rings (size 3 to 8) (size 9 to 14) (size 15 to 20)
#    0.000    2.667    0.000    3.500    0.000    4.333 
#    0.000    1.667    0.000    5.500    0.000    0.000 
#    0.000    0.000    0.000    0.000    0.000    0.000 
#
# Total GULP energy -595131.784160 kJ/mol
# GULP energy per Si atom -12398.578837 kJ/mol
# Density = 1.651314 g / cm^3
# Si number density = 16.550813 Si / 1000 Ang^3
#
#
#
# Elastic Constant Matrix: (Units=GPa)
#
#
# Indices 1 2 3 4 5 6 
#
# 1 52.3528 30.6130 42.3501 0.0000 0.0000 0.0000
# 2 30.6130 102.6621 68.0316 0.0000 0.0000 0.0000
# 3 42.3501 68.0316 146.7616 0.0000 0.0000 0.0000
# 4 0.0000 0.0000 0.0000 58.7890 0.0000 0.0000
# 5 0.0000 0.0000 0.0000 0.0000 28.7062 0.0000
# 6 0.0000 0.0000 0.0000 0.0000 0.0000 20.3524
#
#
#
# Elastic Compliance Matrix: (Units=1/GPa)
#
#
# Indices 1 2 3 4 5 6 
#
# 1 0.026017 -0.004017 -0.005646 0.000000 0.000000 0.000000
# 2 -0.004017 0.014680 -0.005646 0.000000 0.000000 0.000000
# 3 -0.005646 -0.005646 0.011060 0.000000 0.000000 0.000000
# 4 0.000000 0.000000 0.000000 0.017010 0.000000 0.000000
# 5 0.000000 0.000000 0.000000 0.000000 0.034836 0.000000
# 6 0.000000 0.000000 0.000000 0.000000 0.000000 0.049134
#
#
# Mechanical properties :
#
#
# Convention : Reuss Voigt Hill
#
# Bulk Modulus (GPa) = 47.30279 64.86287 56.08283
# Shear Modulus (GPa) = 26.26060 32.28833 29.27446
#
# Velocity S-wave (km/s) = 3.98762 4.42165 4.21023
# Velocity P-wave (km/s) = 7.06002 8.08351 7.58904
#
# Compressibility (1/GPa) = 0.02114040
#
# Stress axis : x y z
#
# Youngs Moduli (GPa) = 38.43659 68.12109 90.41652
#
# Poissons Ratio (x) = 0.27363 0.51045
# Poissons Ratio (y) = 0.15440 0.51046
# Poissons Ratio (z) = 0.21699 0.38459
#
# Static dielectric constant tensor:
#      x y z
#    x 3.038690 0.000000 0.000000 
#    y 0.000000 3.282950 0.000000 
#    z 0.000000 0.000000 3.114630 
# 
# 
# High freq. dielectric constant tensor:
#      x y z
#    x 1.631610 0.000000 0.000000 
#    y 0.000000 1.628850 0.000000 
#    z 0.000000 0.000000 1.629610 
# 
# From -- ./inp_files/34617.got.cif
#   From: 2010.03.12/outbox.cif.g09.slc.cpg/sg51_18_cif.got.tgz:34617.got - 2010.04.16 13:43:02.
