data_PCOD8208793
_publ_section_title
;
Structure prediction by ZEFSAII (Michael W. Deem and Ramdas Pophale) SiO2 
 PCOD8208793
Probable space group: P M M A
;
_chemical_formula_sum "Si O2"
_cell_formula_units_Z 64
_cell_length_a 8.994995
_cell_length_b 20.126266
_cell_length_c 18.006827
_cell_angle_alpha 90.000000
_cell_angle_beta 90.000000
_cell_angle_gamma 90.000000
_cell_volume 3259.877847
_symmetry_space_group_name_H-M "P M M A"
_symmetry_group_IT_number 51
_symmetry_cell_setting 'orthorhombic'
loop_
_space_group_symop_operation_xyz
x,y,z
1/2-x,-y,z
1/2+x,-y,-z
-x,y,-z
-x,-y,-z
1/2+x,y,-z
1/2-x,y,z
x,-y,z
loop_
_atom_site_type_symbol
_atom_site_label
_atom_site_fract_x
_atom_site_fract_y
_atom_site_fract_z
Si Si1 0.425802 0.882212 0.574180
Si Si2 0.076710 0.397719 0.575084
Si Si3 0.911626 0.925093 0.712778
Si Si4 0.072559 0.698551 0.787120
Si Si5 0.076351 0.211359 0.925151
Si Si6 0.420841 0.744398 0.629262
Si Si7 0.923061 0.924288 0.144195
Si Si8 0.921582 0.425681 0.728243
O O1 0.500000 0.910510 0.500000
O O2 0.250000 0.887105 0.565873
O O3 0.481305 0.925994 0.642143
O O4 0.491579 0.808203 0.589352
O O5 0.250000 0.417801 0.574994
O O6 0.054940 0.318446 0.576569
O O7 0.000000 0.425273 0.500000
O O8 0.000388 0.427581 0.647825
O O9 0.750000 0.890428 0.698912
O O10 0.995254 0.894466 0.783482
O O11 0.882420 0.000000 0.735555
O O12 0.250000 0.689785 0.785413
O O13 0.018770 0.742779 0.856855
O O14 0.012157 0.733595 0.711670
O O15 0.999884 0.624833 0.786388
O O16 0.250000 0.222587 0.933534
O O17 0.040103 0.132290 0.916683
O O18 0.000000 0.237144 0.000000
O O19 0.250000 0.761407 0.641225
O O20 0.750000 0.924485 0.163523
O O21 0.971366 0.000000 0.119667
O O22 0.750000 0.404923 0.717347
O O23 0.934368 0.500000 0.761893
#
# Coordination Sequence:
#
# PCOD8208793 Si02
#       8
#     8   8   8   8   8   8   8   8
#     4  11  21  33  49  69  96 129 168 216 268 318
#     4  10  19  32  50  73 105 142 178 217 263 314
#     4  10  21  36  52  71  95 125 167 217 265 314
#     4   9  18  35  57  79 106 140 177 217 261 313
#     4  10  21  36  56  85 118 148 178 214 257 308
#     4   8  16  31  51  73  96 127 168 212 256 305
#     4   9  18  35  58  81 108 145 183 215 253 305
#     4  10  21  36  54  78 106 137 178 226 273 322
#
# _framework density 19.632639000000001
#
# number of rings (size 3 to 8) (size 9 to 14) (size 15 to 20)
#    0.000    2.375    0.000    3.375    0.000    5.500 
#    0.000    8.125    0.000    0.375    0.000    0.000 
#    0.000    0.000    0.000    0.000    0.000    0.000 
#
# Total GULP energy -793136.398543 kJ/mol
# GULP energy per Si atom -12392.756227 kJ/mol
# Density = 1.958795 g / cm^3
# Si number density = 19.632639 Si / 1000 Ang^3
#
#
#
# Elastic Constant Matrix: (Units=GPa)
#
#
# Indices 1 2 3 4 5 6 
#
# 1 79.5829 27.7091 38.9110 0.0000 0.0000 0.0000
# 2 27.7091 79.2038 31.1090 0.0000 0.0000 0.0000
# 3 38.9110 31.1090 103.5628 0.0000 0.0000 0.0000
# 4 0.0000 0.0000 0.0000 12.3313 0.0000 0.0000
# 5 0.0000 0.0000 0.0000 0.0000 32.8541 0.0000
# 6 0.0000 0.0000 0.0000 0.0000 0.0000 22.0412
#
#
#
# Elastic Compliance Matrix: (Units=1/GPa)
#
#
# Indices 1 2 3 4 5 6 
#
# 1 0.016316 -0.003742 -0.005006 0.000000 0.000000 0.000000
# 2 -0.003742 0.015173 -0.003152 0.000000 0.000000 0.000000
# 3 -0.005006 -0.003152 0.012484 0.000000 0.000000 0.000000
# 4 0.000000 0.000000 0.000000 0.081094 0.000000 0.000000
# 5 0.000000 0.000000 0.000000 0.000000 0.030438 0.000000
# 6 0.000000 0.000000 0.000000 0.000000 0.000000 0.045370
#
#
# Mechanical properties :
#
#
# Convention : Reuss Voigt Hill
#
# Bulk Modulus (GPa) = 49.57213 50.86752 50.21983
# Shear Modulus (GPa) = 21.60778 24.42002 23.01390
#
# Velocity S-wave (km/s) = 3.32114 3.53065 3.42749
# Velocity P-wave (km/s) = 6.32545 6.52584 6.42642
#
# Compressibility (1/GPa) = 0.02017262
#
# Stress axis : x y z
#
# Youngs Moduli (GPa) = 61.28914 65.90807 80.10417
#
# Poissons Ratio (x) = 0.24661 0.40103
# Poissons Ratio (y) = 0.22933 0.25247
# Poissons Ratio (z) = 0.30684 0.20773
#
# Static dielectric constant tensor:
#      x y z
#    x 3.607750 0.000000 0.000000 
#    y 0.000000 3.660590 0.000000 
#    z 0.000000 0.000000 3.365680 
# 
# 
# High freq. dielectric constant tensor:
#      x y z
#    x 1.758390 0.000000 0.000000 
#    y 0.000000 1.762280 0.000000 
#    z 0.000000 0.000000 1.742560 
# 
# From -- ./inp_files/28488.got.cif
#   From: 2010.03.12/outbox.cif.g09.slc.cpg/sg51_15_cif.got.tgz:28488.got - 2010.04.16 13:43:02.
