data_PCOD8208268
_publ_section_title
;
Structure prediction by ZEFSAII (Michael W. Deem and Ramdas Pophale) SiO2 
 PCOD8208268
Probable space group: P M M A
;
_chemical_formula_sum "Si O2"
_cell_formula_units_Z 48
_cell_length_a 8.962180
_cell_length_b 23.677490
_cell_length_c 13.589129
_cell_angle_alpha 90.000000
_cell_angle_beta 90.000000
_cell_angle_gamma 90.000000
_cell_volume 2883.639365
_symmetry_space_group_name_H-M "P M M A"
_symmetry_group_IT_number 51
_symmetry_cell_setting 'orthorhombic'
loop_
_space_group_symop_operation_xyz
x,y,z
1/2-x,-y,z
1/2+x,-y,-z
-x,y,-z
-x,-y,-z
1/2+x,y,-z
1/2-x,y,z
x,-y,z
loop_
_atom_site_type_symbol
_atom_site_label
_atom_site_fract_x
_atom_site_fract_y
_atom_site_fract_z
Si Si1 0.076254 0.726360 0.400446
Si Si2 0.074701 0.234570 0.900421
Si Si3 0.076073 0.565038 0.896905
Si Si4 0.074727 0.663061 0.203658
Si Si5 0.575544 0.937434 0.398569
Si Si6 0.423040 0.173758 0.704060
O O1 0.250000 0.732446 0.419716
O O2 0.040254 0.681098 0.315407
O O3 0.000000 0.704391 0.500000
O O4 0.015592 0.787622 0.370450
O O5 0.250000 0.243239 0.915529
O O6 0.038378 0.188147 0.816898
O O7 0.002064 0.294193 0.872355
O O8 0.000000 0.211683 0.000000
O O9 0.250000 0.579799 0.904209
O O10 0.049658 0.500000 0.868837
O O11 0.997567 0.601638 0.811860
O O12 0.000000 0.580248 0.000000
O O13 0.250000 0.661797 0.181845
O O14 0.500000 0.919253 0.500000
O O15 0.750000 0.937629 0.418674
O O16 0.533712 0.891644 0.314932
O O17 0.521558 0.000000 0.364407
O O18 0.250000 0.185603 0.682175
#
# Coordination Sequence:
#
# PCOD8208268 Si02
#       6
#     8   8   8   8   8   8
#     4  10  20  32  48  70  95 123 153 188 229 272
#     4  10  19  31  47  67  92 121 153 189 229 273
#     4  10  20  33  50  72  97 125 155 188 227 270
#     4  10  20  33  49  70  95 123 154 188 228 271
#     4   9  17  29  45  66  91 118 149 185 226 272
#     4   9  18  31  47  67  91 121 154 188 228 273
#
# _framework density 16.645633
#
# number of rings (size 3 to 8) (size 9 to 14) (size 15 to 20)
#    0.000    2.333    0.000    3.000    0.000    5.667 
#    0.000    0.000    0.000    1.000    0.000    0.000 
#    0.000    0.000    0.000    0.000    0.000    0.500 
#
# Total GULP energy -595273.877820 kJ/mol
# GULP energy per Si atom -12401.539121 kJ/mol
# Density = 1.660775 g / cm^3
# Si number density = 16.645633 Si / 1000 Ang^3
#
#
#
# Elastic Constant Matrix: (Units=GPa)
#
#
# Indices 1 2 3 4 5 6 
#
# 1 87.6437 52.1936 55.8660 0.0000 0.0000 0.0000
# 2 52.1936 113.5124 63.8818 0.0000 0.0000 0.0000
# 3 55.8660 63.8818 112.4881 0.0000 0.0000 0.0000
# 4 0.0000 0.0000 0.0000 23.9066 0.0000 0.0000
# 5 0.0000 0.0000 0.0000 0.0000 30.6388 0.0000
# 6 0.0000 0.0000 0.0000 0.0000 0.0000 23.2737
#
#
#
# Elastic Compliance Matrix: (Units=1/GPa)
#
#
# Indices 1 2 3 4 5 6 
#
# 1 0.018357 -0.004865 -0.006354 0.000000 0.000000 0.000000
# 2 -0.004865 0.014237 -0.005669 0.000000 0.000000 0.000000
# 3 -0.006354 -0.005669 0.015265 0.000000 0.000000 0.000000
# 4 0.000000 0.000000 0.000000 0.041829 0.000000 0.000000
# 5 0.000000 0.000000 0.000000 0.000000 0.032638 0.000000
# 6 0.000000 0.000000 0.000000 0.000000 0.000000 0.042967
#
#
# Mechanical properties :
#
#
# Convention : Reuss Voigt Hill
#
# Bulk Modulus (GPa) = 71.00747 73.05856 72.03301
# Shear Modulus (GPa) = 24.53816 25.01068 24.77442
#
# Velocity S-wave (km/s) = 3.84363 3.88046 3.86209
# Velocity P-wave (km/s) = 7.90246 8.00394 7.95337
#
# Compressibility (1/GPa) = 0.01408303
#
# Stress axis : x y z
#
# Youngs Moduli (GPa) = 54.47448 70.24029 65.50915
#
# Poissons Ratio (x) = 0.34170 0.41626
# Poissons Ratio (y) = 0.26500 0.37138
# Poissons Ratio (z) = 0.34614 0.39820
#
# Static dielectric constant tensor:
#      x y z
#    x 3.233180 0.000000 0.000000 
#    y 0.000000 3.188730 0.000000 
#    z 0.000000 0.000000 3.129770 
# 
# 
# High freq. dielectric constant tensor:
#      x y z
#    x 1.655250 0.000000 0.000000 
#    y 0.000000 1.631360 0.000000 
#    z 0.000000 0.000000 1.629380 
# 
# From -- ./inp_files/14429.got.cif
#   From: 2010.03.12/outbox.cif.g09.slc.cpg/sg51_8_cif.got.tgz:14429.got - 2010.04.16 13:43:02.
