data_PCOD8208532
_publ_section_title
;
Structure prediction by ZEFSAII (Michael W. Deem and Ramdas Pophale) SiO2 
 PCOD8208532
Probable space group: P M M A
;
_chemical_formula_sum "Si O2"
_cell_formula_units_Z 64
_cell_length_a 17.968525
_cell_length_b 9.267275
_cell_length_c 21.602962
_cell_angle_alpha 90.000000
_cell_angle_beta 90.000000
_cell_angle_gamma 90.000000
_cell_volume 3597.309300
_symmetry_space_group_name_H-M "P M M A"
_symmetry_group_IT_number 51
_symmetry_cell_setting 'orthorhombic'
loop_
_space_group_symop_operation_xyz
x,y,z
1/2-x,-y,z
1/2+x,-y,-z
-x,y,-z
-x,-y,-z
1/2+x,y,-z
1/2-x,y,z
x,-y,z
loop_
_atom_site_type_symbol
_atom_site_label
_atom_site_fract_x
_atom_site_fract_y
_atom_site_fract_z
Si Si1 0.919505 0.670908 0.630722
Si Si2 0.955138 0.835071 0.176979
Si Si3 0.835669 0.166179 0.273814
Si Si4 0.166174 0.671377 0.490955
Si Si5 0.979755 0.330617 0.932442
Si Si6 0.167130 0.334268 0.135779
Si Si7 0.394362 0.832436 0.246889
Si Si8 0.910035 0.329310 0.384263
O O1 0.912558 0.500000 0.640765
O O2 0.875075 0.725033 0.570627
O O3 0.882500 0.751347 0.688536
O O4 0.004792 0.719275 0.622574
O O5 0.879725 0.789695 0.211715
O O6 0.963452 0.737992 0.116385
O O7 0.021291 0.807335 0.225353
O O8 0.954067 0.000000 0.154772
O O9 0.750000 0.194554 0.259194
O O10 0.859945 0.262446 0.330997
O O11 0.852368 0.000000 0.290519
O O12 0.250000 0.733706 0.492379
O O13 0.167613 0.500000 0.491867
O O14 0.120814 0.728703 0.550266
O O15 0.993079 0.500000 0.930407
O O16 0.894252 0.289342 0.915592
O O17 0.000000 0.268573 0.000000
O O18 0.250000 0.312879 0.107578
O O19 0.153879 0.500000 0.155694
O O20 0.160753 0.235679 0.196400
O O21 0.374651 0.000000 0.254895
O O22 0.902306 0.500000 0.379696
#
# Coordination Sequence:
#
# PCOD8208532 Si02
#       8
#     8   8   8   8   8   8   8   8
#     4  10  19  31  50  74  98 130 169 209 256 312
#     4   9  18  33  51  72 100 133 168 202 243 298
#     4  10  20  34  52  74 102 134 167 207 257 308
#     4   9  18  32  48  68  96 129 167 212 259 306
#     4   9  18  33  54  79 105 135 171 209 247 290
#     4   9  18  33  53  76 104 138 173 207 249 301
#     4  10  19  32  51  74 101 131 166 210 254 296
#     4  10  19  32  52  74  97 126 168 216 257 303
#
# _framework density 17.791074999999999
#
# number of rings (size 3 to 8) (size 9 to 14) (size 15 to 20)
#    0.000    2.500    1.250    1.125    0.000    4.250 
#    0.000    2.500    0.000    3.000    0.000    0.000 
#    0.000    0.000    0.000    0.000    0.000    0.000 
#
# Total GULP energy -793676.428158 kJ/mol
# GULP energy per Si atom -12401.194190 kJ/mol
# Density = 1.775058 g / cm^3
# Si number density = 17.791075 Si / 1000 Ang^3
#
#
#
# Elastic Constant Matrix: (Units=GPa)
#
#
# Indices 1 2 3 4 5 6 
#
# 1 99.0342 25.0789 57.9354 0.0000 0.0000 0.0000
# 2 25.0789 38.2563 41.3078 0.0000 0.0000 0.0000
# 3 57.9354 41.3078 146.7147 0.0000 0.0000 0.0000
# 4 0.0000 0.0000 0.0000 9.3228 0.0000 0.0000
# 5 0.0000 0.0000 0.0000 0.0000 23.5837 0.0000
# 6 0.0000 0.0000 0.0000 0.0000 0.0000 19.0277
#
#
#
# Elastic Compliance Matrix: (Units=1/GPa)
#
#
# Indices 1 2 3 4 5 6 
#
# 1 0.013648 -0.004494 -0.004124 0.000000 0.000000 0.000000
# 2 -0.004494 0.039037 -0.009216 0.000000 0.000000 0.000000
# 3 -0.004124 -0.009216 0.011039 0.000000 0.000000 0.000000
# 4 0.000000 0.000000 0.000000 0.107264 0.000000 0.000000
# 5 0.000000 0.000000 0.000000 0.000000 0.042402 0.000000
# 6 0.000000 0.000000 0.000000 0.000000 0.000000 0.052555
#
#
# Mechanical properties :
#
#
# Convention : Reuss Voigt Hill
#
# Bulk Modulus (GPa) = 35.64344 59.18327 47.41335
# Shear Modulus (GPa) = 16.07891 21.03237 18.55564
#
# Velocity S-wave (km/s) = 3.00953 3.44202 3.23302
# Velocity P-wave (km/s) = 5.67047 7.00961 6.37530
#
# Compressibility (1/GPa) = 0.02805566
#
# Stress axis : x y z
#
# Youngs Moduli (GPa) = 73.26967 25.61673 90.58450
#
# Poissons Ratio (x) = 0.11512 0.37359
# Poissons Ratio (y) = 0.32927 0.83486
# Poissons Ratio (z) = 0.30218 0.23609
#
# Static dielectric constant tensor:
#      x y z
#    x 3.410470 0.000000 0.000000 
#    y 0.000000 3.124680 0.000000 
#    z 0.000000 0.000000 3.296410 
# 
# 
# High freq. dielectric constant tensor:
#      x y z
#    x 1.691090 0.000000 0.000000 
#    y 0.000000 1.670070 0.000000 
#    z 0.000000 0.000000 1.683990 
# 
# From -- ./inp_files/33873.got.cif
#   From: 2010.03.12/outbox.cif.g09.slc.cpg/sg51_17_cif.got.tgz:33873.got - 2010.04.16 13:43:02.
