data_PCOD8208115
_publ_section_title
;
Structure prediction by ZEFSAII (Michael W. Deem and Ramdas Pophale) SiO2 
 PCOD8208115
Probable space group: P M M A
;
_chemical_formula_sum "Si O2"
_cell_formula_units_Z 56
_cell_length_a 16.147995
_cell_length_b 8.944073
_cell_length_c 18.748613
_cell_angle_alpha 90.000000
_cell_angle_beta 90.000000
_cell_angle_gamma 90.000000
_cell_volume 2707.840541
_symmetry_space_group_name_H-M "P M M A"
_symmetry_group_IT_number 51
_symmetry_cell_setting 'orthorhombic'
loop_
_space_group_symop_operation_xyz
x,y,z
1/2-x,-y,z
1/2+x,-y,-z
-x,y,-z
-x,-y,-z
1/2+x,y,-z
1/2-x,y,z
x,-y,z
loop_
_atom_site_type_symbol
_atom_site_label
_atom_site_fract_x
_atom_site_fract_y
_atom_site_fract_z
Si Si1 0.250000 0.176963 0.776503
Si Si2 0.097506 0.823636 0.685200
Si Si3 0.651847 0.833353 0.595770
Si Si4 0.841173 0.329365 0.737306
Si Si5 0.846063 0.324345 0.453872
Si Si6 0.076942 0.677491 0.950249
Si Si7 0.750000 0.821134 0.061872
Si Si8 0.003875 0.328886 0.800727
O O1 0.327837 0.238587 0.733617
O O2 0.250000 0.238264 0.856856
O O3 0.250000 0.000000 0.779227
O O4 0.098762 0.747548 0.608238
O O5 0.019578 0.771782 0.731086
O O6 0.099713 0.000000 0.674148
O O7 0.750000 0.837084 0.593011
O O8 0.623192 0.760825 0.669699
O O9 0.619181 0.738765 0.528455
O O10 0.614130 0.000000 0.591384
O O11 0.750000 0.271268 0.761051
O O12 0.835412 0.500000 0.711634
O O13 0.903286 0.315438 0.805296
O O14 0.750000 0.279662 0.442037
O O15 0.858633 0.500000 0.453648
O O16 0.089810 0.500000 0.954717
O O17 0.164238 0.756409 0.972429
O O18 0.049219 0.731661 0.871320
O O19 0.000000 0.727259 0.000000
O O20 0.750000 0.000000 0.054015
O O21 0.030664 0.500000 0.787444
#
# Coordination Sequence:
#
# PCOD8208115 Si02
#       8
#     4   8   8   8   8   8   4   8
#     4   9  18  31  51  79 111 148 187 228 275 333
#     4  11  20  33  52  78 113 150 188 233 283 337
#     4   9  17  30  50  75 103 140 186 236 288 344
#     4   9  18  35  57  78 103 141 188 238 291 347
#     4  10  19  30  47  75 109 146 188 234 284 340
#     4  10  22  41  63  93 129 165 203 247 297 355
#     4  11  21  39  65  93 123 164 207 244 297 357
#     4  10  21  37  57  84 115 147 187 235 288 345
#
# _framework density 20.680685
#
# number of rings (size 3 to 8) (size 9 to 14) (size 15 to 20)
#    0.000    2.143    2.143    1.500    0.000    3.143 
#    1.286    0.714    0.000    4.286    0.000    0.000 
#    0.000    0.000    0.000    0.000    0.000    0.000 
#
# Total GULP energy -694084.118795 kJ/mol
# GULP energy per Si atom -12394.359264 kJ/mol
# Density = 2.063362 g / cm^3
# Si number density = 20.680685 Si / 1000 Ang^3
#
#
#
# Elastic Constant Matrix: (Units=GPa)
#
#
# Indices 1 2 3 4 5 6 
#
# 1 112.3181 34.3437 46.3452 0.0000 0.0000 0.0000
# 2 34.3437 81.8914 27.9837 0.0000 0.0000 0.0000
# 3 46.3452 27.9837 57.0553 0.0000 0.0000 0.0000
# 4 0.0000 0.0000 0.0000 21.6577 0.0000 0.0000
# 5 0.0000 0.0000 0.0000 0.0000 32.3944 0.0000
# 6 0.0000 0.0000 0.0000 0.0000 0.0000 19.3422
#
#
#
# Elastic Compliance Matrix: (Units=1/GPa)
#
#
# Indices 1 2 3 4 5 6 
#
# 1 0.013756 -0.002344 -0.010025 0.000000 0.000000 0.000000
# 2 -0.002344 0.015069 -0.005487 0.000000 0.000000 0.000000
# 3 -0.010025 -0.005487 0.028361 0.000000 0.000000 0.000000
# 4 0.000000 0.000000 0.000000 0.046173 0.000000 0.000000
# 5 0.000000 0.000000 0.000000 0.000000 0.030870 0.000000
# 6 0.000000 0.000000 0.000000 0.000000 0.000000 0.051700
#
#
# Mechanical properties :
#
#
# Convention : Reuss Voigt Hill
#
# Bulk Modulus (GPa) = 46.56441 52.06777 49.31609
# Shear Modulus (GPa) = 21.85325 24.18501 23.01913
#
# Velocity S-wave (km/s) = 3.25422 3.42343 3.33990
# Velocity P-wave (km/s) = 6.05679 6.39204 6.22667
#
# Compressibility (1/GPa) = 0.02147563
#
# Stress axis : x y z
#
# Youngs Moduli (GPa) = 72.69411 66.36031 35.25964
#
# Poissons Ratio (x) = 0.15552 0.35346
# Poissons Ratio (y) = 0.17036 0.19348
# Poissons Ratio (z) = 0.72873 0.36414
#
# Static dielectric constant tensor:
#      x y z
#    x 3.804980 0.000000 0.000000 
#    y 0.000000 3.593100 0.000000 
#    z 0.000000 0.000000 3.630800 
# 
# 
# High freq. dielectric constant tensor:
#      x y z
#    x 1.809990 0.000000 0.000000 
#    y 0.000000 1.798700 0.000000 
#    z 0.000000 0.000000 1.792200 
# 
# From -- ./inp_files/33510.got.cif
#   From: 2010.03.12/outbox.cif.g09.slc.cpg/sg51_17_cif.got.tgz:33510.got - 2010.04.16 13:43:02.
