data_PCOD8208595
_publ_section_title
;
Structure prediction by ZEFSAII (Michael W. Deem and Ramdas Pophale) SiO2 
 PCOD8208595
Probable space group: P M M A
;
_chemical_formula_sum "Si O2"
_cell_formula_units_Z 56
_cell_length_a 16.811718
_cell_length_b 13.679723
_cell_length_c 12.652825
_cell_angle_alpha 90.000000
_cell_angle_beta 90.000000
_cell_angle_gamma 90.000000
_cell_volume 2909.892207
_symmetry_space_group_name_H-M "P M M A"
_symmetry_group_IT_number 51
_symmetry_cell_setting 'orthorhombic'
loop_
_space_group_symop_operation_xyz
x,y,z
1/2-x,-y,z
1/2+x,-y,-z
-x,y,-z
-x,-y,-z
1/2+x,y,-z
1/2-x,y,z
x,-y,z
loop_
_atom_site_type_symbol
_atom_site_label
_atom_site_fract_x
_atom_site_fract_y
_atom_site_fract_z
Si Si1 0.842686 0.796885 0.051510
Si Si2 0.155579 0.109431 0.161739
Si Si3 0.052587 0.751490 0.598596
Si Si4 0.159171 0.388698 0.474486
Si Si5 0.342358 0.610578 0.069217
Si Si6 0.405520 0.708451 0.271950
Si Si7 0.343308 0.885450 0.732225
O O1 0.750000 0.818876 0.058864
O O2 0.878725 0.833060 0.162346
O O3 0.877674 0.859171 0.953553
O O4 0.860421 0.681713 0.030353
O O5 0.250000 0.118633 0.162546
O O6 0.120855 0.180139 0.250922
O O7 0.126897 0.000000 0.187321
O O8 0.106543 0.660166 0.565238
O O9 0.108116 0.841188 0.634317
O O10 0.000000 0.789508 0.500000
O O11 0.997237 0.710849 0.692650
O O12 0.250000 0.382785 0.511251
O O13 0.130648 0.500000 0.460925
O O14 0.150082 0.334243 0.363250
O O15 0.250000 0.622121 0.102980
O O16 0.362510 0.500000 0.034980
O O17 0.396260 0.641325 0.168390
O O18 0.250000 0.864253 0.714981
O O19 0.360362 0.000000 0.740506
#
# Coordination Sequence:
#
# PCOD8208595 Si02
#       7
#     8   8   8   8   8   8   8
#     4   8  15  29  51  79 107 134 172 217 255 299
#     4   9  16  28  48  75 107 140 174 214 258 302
#     4  10  23  38  53  75 106 138 169 214 266 312
#     4  10  20  36  58  79  99 129 173 220 260 302
#     4   9  16  28  50  80 112 144 176 213 256 302
#     4  10  19  31  50  77 109 141 172 208 254 313
#     4  10  20  37  61  81  99 132 176 217 257 305
#
# _framework density 19.244699000000001
#
# number of rings (size 3 to 8) (size 9 to 14) (size 15 to 20)
#    0.000    2.571    0.000    3.429    0.000    6.857 
#    0.000    5.714    0.000   15.429    0.000    0.000 
#    0.000    0.000    0.000    0.000    0.000    0.000 
#
# Total GULP energy -694335.553315 kJ/mol
# GULP energy per Si atom -12398.849166 kJ/mol
# Density = 1.920090 g / cm^3
# Si number density = 19.244699 Si / 1000 Ang^3
#
#
#
# Elastic Constant Matrix: (Units=GPa)
#
#
# Indices 1 2 3 4 5 6 
#
# 1 69.1154 52.2678 48.4684 0.0000 0.0000 0.0000
# 2 52.2678 176.3017 73.9380 0.0000 0.0000 0.0000
# 3 48.4684 73.9380 98.5051 0.0000 0.0000 0.0000
# 4 0.0000 0.0000 0.0000 29.7194 0.0000 0.0000
# 5 0.0000 0.0000 0.0000 0.0000 26.2185 0.0000
# 6 0.0000 0.0000 0.0000 0.0000 0.0000 14.2707
#
#
#
# Elastic Compliance Matrix: (Units=1/GPa)
#
#
# Indices 1 2 3 4 5 6 
#
# 1 0.023160 -0.003046 -0.009109 0.000000 0.000000 0.000000
# 2 -0.003046 0.008678 -0.005015 0.000000 0.000000 0.000000
# 3 -0.009109 -0.005015 0.018399 0.000000 0.000000 0.000000
# 4 0.000000 0.000000 0.000000 0.033648 0.000000 0.000000
# 5 0.000000 0.000000 0.000000 0.000000 0.038141 0.000000
# 6 0.000000 0.000000 0.000000 0.000000 0.000000 0.070073
#
#
# Mechanical properties :
#
#
# Convention : Reuss Voigt Hill
#
# Bulk Modulus (GPa) = 62.91011 77.03006 69.97008
# Shear Modulus (GPa) = 21.57594 25.32493 23.45043
#
# Velocity S-wave (km/s) = 3.35197 3.63153 3.49455
# Velocity P-wave (km/s) = 6.90952 7.59589 7.26082
#
# Compressibility (1/GPa) = 0.01589570
#
# Stress axis : x y z
#
# Youngs Moduli (GPa) = 43.17760 115.22778 54.35221
#
# Poissons Ratio (x) = 0.35097 0.49512
# Poissons Ratio (y) = 0.13151 0.27260
# Poissons Ratio (z) = 0.39333 0.57791
#
# Static dielectric constant tensor:
#      x y z
#    x 3.330110 0.000000 0.000000 
#    y 0.000000 3.613040 0.000000 
#    z 0.000000 0.000000 3.486420 
# 
# 
# High freq. dielectric constant tensor:
#      x y z
#    x 1.731400 0.000000 0.000000 
#    y 0.000000 1.754300 0.000000 
#    z 0.000000 0.000000 1.737900 
# 
# From -- ./inp_files/16668.got.cif
#   From: 2010.03.12/outbox.cif.g09.slc.cpg/sg51_9_cif.got.tgz:16668.got - 2010.04.16 13:43:02.
