data_PCOD8208719
_publ_section_title
;
Structure prediction by ZEFSAII (Michael W. Deem and Ramdas Pophale) SiO2 
 PCOD8208719
Probable space group: P M M A
;
_chemical_formula_sum "Si O2"
_cell_formula_units_Z 48
_cell_length_a 9.574676
_cell_length_b 14.369653
_cell_length_c 18.736795
_cell_angle_alpha 90.000000
_cell_angle_beta 90.000000
_cell_angle_gamma 90.000000
_cell_volume 2577.897663
_symmetry_space_group_name_H-M "P M M A"
_symmetry_group_IT_number 51
_symmetry_cell_setting 'orthorhombic'
loop_
_space_group_symop_operation_xyz
x,y,z
1/2-x,-y,z
1/2+x,-y,-z
-x,y,-z
-x,-y,-z
1/2+x,y,-z
1/2-x,y,z
x,-y,z
loop_
_atom_site_type_symbol
_atom_site_label
_atom_site_fract_x
_atom_site_fract_y
_atom_site_fract_z
Si Si1 0.405770 0.857719 0.935488
Si Si2 0.411377 0.892764 0.774878
Si Si3 0.900381 0.601334 0.814713
Si Si4 0.913951 0.394169 0.570915
Si Si5 0.407514 0.748508 0.307848
Si Si6 0.096333 0.360973 0.939151
O O1 0.250000 0.901639 0.940815
O O2 0.468754 0.878965 0.856371
O O3 0.396971 0.748771 0.947032
O O4 0.500000 0.900633 0.000000
O O5 0.250000 0.860491 0.772860
O O6 0.494437 0.834910 0.714330
O O7 0.428146 0.000000 0.753154
O O8 0.750000 0.612622 0.855448
O O9 0.905874 0.500000 0.777485
O O10 0.909721 0.679600 0.757229
O O11 0.032619 0.610193 0.864580
O O12 0.750000 0.384043 0.554932
O O13 0.945372 0.500000 0.598731
O O14 0.962725 0.313129 0.625709
O O15 0.000000 0.374041 0.500000
O O16 0.250000 0.785531 0.322202
O O17 0.250000 0.404666 0.944595
O O18 0.000000 0.405643 0.000000
#
# Coordination Sequence:
#
# PCOD8208719 Si02
#       6
#     8   8   8   8   8   8
#     4   9  18  32  50  72  98 130 171 221 275 326
#     4  10  21  37  55  77 107 141 178 223 275 326
#     4  10  20  33  50  73 100 133 172 212 258 312
#     4   9  18  34  57  87 120 150 178 210 252 305
#     4  10  20  35  56  80 109 141 174 215 261 309
#     4  10  19  32  49  68  94 130 172 218 265 314
#
# _framework density 18.619824000000001
#
# number of rings (size 3 to 8) (size 9 to 14) (size 15 to 20)
#    0.000    2.333    1.667    1.000    0.000    5.333 
#    0.000    0.000    0.000    3.500    0.000    0.000 
#    0.000    0.000    0.000    0.000    0.000    0.000 
#
# Total GULP energy -594752.897445 kJ/mol
# GULP energy per Si atom -12390.685363 kJ/mol
# Density = 1.857744 g / cm^3
# Si number density = 18.619824 Si / 1000 Ang^3
#
#
#
# Elastic Constant Matrix: (Units=GPa)
#
#
# Indices 1 2 3 4 5 6 
#
# 1 98.3759 46.7409 52.0108 0.0000 0.0000 0.0000
# 2 46.7409 73.4121 41.3421 0.0000 0.0000 0.0000
# 3 52.0108 41.3421 95.5324 0.0000 0.0000 0.0000
# 4 0.0000 0.0000 0.0000 6.4204 0.0000 0.0000
# 5 0.0000 0.0000 0.0000 0.0000 53.4194 0.0000
# 6 0.0000 0.0000 0.0000 0.0000 0.0000 19.5140
#
#
#
# Elastic Compliance Matrix: (Units=1/GPa)
#
#
# Indices 1 2 3 4 5 6 
#
# 1 0.016812 -0.007338 -0.005977 0.000000 0.000000 0.000000
# 2 -0.007338 0.021214 -0.005186 0.000000 0.000000 0.000000
# 3 -0.005977 -0.005186 0.015966 0.000000 0.000000 0.000000
# 4 0.000000 0.000000 0.000000 0.155753 0.000000 0.000000
# 5 0.000000 0.000000 0.000000 0.000000 0.018720 0.000000
# 6 0.000000 0.000000 0.000000 0.000000 0.000000 0.051245
#
#
# Mechanical properties :
#
#
# Convention : Reuss Voigt Hill
#
# Bulk Modulus (GPa) = 58.85710 60.83420 59.84565
# Shear Modulus (GPa) = 15.50992 24.35254 19.93123
#
# Velocity S-wave (km/s) = 2.88927 3.62039 3.27529
# Velocity P-wave (km/s) = 6.54286 7.08653 6.82012
#
# Compressibility (1/GPa) = 0.01699030
#
# Stress axis : x y z
#
# Youngs Moduli (GPa) = 59.48283 47.13919 62.63331
#
# Poissons Ratio (x) = 0.34589 0.37438
# Poissons Ratio (y) = 0.43646 0.32479
# Poissons Ratio (z) = 0.35555 0.24444
#
# Static dielectric constant tensor:
#      x y z
#    x 3.061730 0.000000 0.000000 
#    y 0.000000 3.465370 0.000000 
#    z 0.000000 0.000000 3.705550 
# 
# 
# High freq. dielectric constant tensor:
#      x y z
#    x 1.723470 0.000000 0.000000 
#    y 0.000000 1.722350 0.000000 
#    z 0.000000 0.000000 1.696300 
# 
# From -- ./inp_files/27529.got.cif
#   From: 2010.03.12/outbox.cif.g09.slc.cpg/sg51_14_cif.got.tgz:27529.got - 2010.04.16 13:43:02.
