data_PCOD8208607
_publ_section_title
;
Structure prediction by ZEFSAII (Michael W. Deem and Ramdas Pophale) SiO2 
 PCOD8208607
Probable space group: P M M A
;
_chemical_formula_sum "Si O2"
_cell_formula_units_Z 64
_cell_length_a 33.442930
_cell_length_b 8.599587
_cell_length_c 11.494953
_cell_angle_alpha 90.000000
_cell_angle_beta 90.000000
_cell_angle_gamma 90.000000
_cell_volume 3305.895446
_symmetry_space_group_name_H-M "P M M A"
_symmetry_group_IT_number 51
_symmetry_cell_setting 'orthorhombic'
loop_
_space_group_symop_operation_xyz
x,y,z
1/2-x,-y,z
1/2+x,-y,-z
-x,y,-z
-x,-y,-z
1/2+x,y,-z
1/2-x,y,z
x,-y,z
loop_
_atom_site_type_symbol
_atom_site_label
_atom_site_fract_x
_atom_site_fract_y
_atom_site_fract_z
Si Si1 0.933804 0.818726 0.560848
Si Si2 0.064955 0.320269 0.686008
Si Si3 0.204758 0.682495 0.944646
Si Si4 0.365674 0.318483 0.307386
Si Si5 0.413178 0.818838 0.097683
Si Si6 0.625834 0.181687 0.144946
Si Si7 0.019654 0.679669 0.228017
Si Si8 0.295387 0.177199 0.194445
O O1 0.943451 0.780501 0.428211
O O2 0.888212 0.768086 0.587566
O O3 0.963390 0.726252 0.645716
O O4 0.939777 0.000000 0.584127
O O5 0.067620 0.500000 0.650015
O O6 0.106057 0.269974 0.746875
O O7 0.027867 0.289300 0.773521
O O8 0.250000 0.733510 0.908664
O O9 0.199089 0.500000 0.929740
O O10 0.172227 0.768447 0.864494
O O11 0.196803 0.726274 0.077844
O O12 0.364529 0.500000 0.333821
O O13 0.387354 0.284042 0.185598
O O14 0.320928 0.250727 0.299073
O O15 0.459728 0.777588 0.123248
O O16 0.405364 0.000000 0.121772
O O17 0.399748 0.772149 0.968771
O O18 0.623814 0.000000 0.169715
O O19 0.029567 0.500000 0.206843
O O20 0.250000 0.188028 0.236204
O O21 0.308342 0.000000 0.169124
#
# Coordination Sequence:
#
# PCOD8208607 Si02
#       8
#     8   8   8   8   8   8   8   8
#     4  11  22  37  59  82 107 140 183 232 280 329
#     4  11  24  40  57  79 109 145 189 234 276 326
#     4  10  20  34  55  83 113 147 185 225 271 323
#     4  11  20  32  54  80 110 144 180 224 274 328
#     4  10  20  34  53  79 111 146 183 225 276 329
#     4  11  23  37  56  81 114 151 187 229 276 329
#     4  10  21  37  58  82 109 143 183 231 282 330
#     4  10  19  31  50  79 114 146 178 220 271 327
#
# _framework density 19.359354
#
# number of rings (size 3 to 8) (size 9 to 14) (size 15 to 20)
#    0.000    1.500    1.250    6.375    0.000    7.000 
#    0.000    2.500    0.000    0.750    0.000    0.000 
#    0.000    0.000    0.000    0.000    0.000    0.000 
#
# Total GULP energy -793743.949429 kJ/mol
# GULP energy per Si atom -12402.249210 kJ/mol
# Density = 1.931529 g / cm^3
# Si number density = 19.359354 Si / 1000 Ang^3
#
#
#
# Elastic Constant Matrix: (Units=GPa)
#
#
# Indices 1 2 3 4 5 6 
#
# 1 105.5560 22.3616 14.9418 0.0000 0.0000 0.0000
# 2 22.3616 57.8399 7.2521 0.0000 0.0000 0.0000
# 3 14.9418 7.2521 36.4220 0.0000 0.0000 0.0000
# 4 0.0000 0.0000 0.0000 24.8568 0.0000 0.0000
# 5 0.0000 0.0000 0.0000 0.0000 25.1581 0.0000
# 6 0.0000 0.0000 0.0000 0.0000 0.0000 30.8588
#
#
#
# Elastic Compliance Matrix: (Units=1/GPa)
#
#
# Indices 1 2 3 4 5 6 
#
# 1 0.010780 -0.003706 -0.003685 0.000000 0.000000 0.000000
# 2 -0.003706 0.019006 -0.002264 0.000000 0.000000 0.000000
# 3 -0.003685 -0.002264 0.029418 0.000000 0.000000 0.000000
# 4 0.000000 0.000000 0.000000 0.040231 0.000000 0.000000
# 5 0.000000 0.000000 0.000000 0.000000 0.039749 0.000000
# 6 0.000000 0.000000 0.000000 0.000000 0.000000 0.032406
#
#
# Mechanical properties :
#
#
# Convention : Reuss Voigt Hill
#
# Bulk Modulus (GPa) = 25.06555 32.10323 28.58439
# Shear Modulus (GPa) = 24.48622 26.52556 25.50589
#
# Velocity S-wave (km/s) = 3.56030 3.70559 3.63367
# Velocity P-wave (km/s) = 5.46595 5.90994 5.69227
#
# Compressibility (1/GPa) = 0.03989539
#
# Stress axis : x y z
#
# Youngs Moduli (GPa) = 92.76199 52.61589 33.99238
#
# Poissons Ratio (x) = 0.19498 0.12525
# Poissons Ratio (y) = 0.34376 0.07696
# Poissons Ratio (z) = 0.34180 0.11912
#
# Static dielectric constant tensor:
#      x y z
#    x 3.870180 0.000000 0.000000 
#    y 0.000000 3.618120 0.000000 
#    z 0.000000 0.000000 3.205010 
# 
# 
# High freq. dielectric constant tensor:
#      x y z
#    x 1.762000 0.000000 0.000000 
#    y 0.000000 1.769020 0.000000 
#    z 0.000000 0.000000 1.714920 
# 
# From -- ./inp_files/19564.got.cif
#   From: 2010.03.12/outbox.cif.g09.slc.cpg/sg51_10_cif.got.tgz:19564.got - 2010.04.16 13:43:02.
