data_PCOD8208903
_publ_section_title
;
Structure prediction by ZEFSAII (Michael W. Deem and Ramdas Pophale) SiO2 
 PCOD8208903
Probable space group: P M M A
;
_chemical_formula_sum "Si O2"
_cell_formula_units_Z 64
_cell_length_a 14.252905
_cell_length_b 9.562678
_cell_length_c 28.127128
_cell_angle_alpha 90.000000
_cell_angle_beta 90.000000
_cell_angle_gamma 90.000000
_cell_volume 3833.613381
_symmetry_space_group_name_H-M "P M M A"
_symmetry_group_IT_number 51
_symmetry_cell_setting 'orthorhombic'
loop_
_space_group_symop_operation_xyz
x,y,z
1/2-x,-y,z
1/2+x,-y,-z
-x,y,-z
-x,-y,-z
1/2+x,y,-z
1/2-x,y,z
x,-y,z
loop_
_atom_site_type_symbol
_atom_site_label
_atom_site_fract_x
_atom_site_fract_y
_atom_site_fract_z
Si Si1 0.352434 0.844337 0.426417
Si Si2 0.853409 0.834931 0.741186
Si Si3 0.515371 0.166392 0.657687
Si Si4 0.538706 0.665699 0.927010
Si Si5 0.141511 0.837073 0.150994
Si Si6 0.642532 0.660576 0.382118
Si Si7 0.391838 0.343669 0.511626
Si Si8 0.354831 0.665377 0.978932
O O1 0.250000 0.848344 0.401773
O O2 0.425155 0.784405 0.388168
O O3 0.341591 0.752130 0.473304
O O4 0.383824 0.000000 0.441801
O O5 0.750000 0.771468 0.729940
O O6 0.931038 0.777459 0.704561
O O7 0.882826 0.796636 0.794782
O O8 0.846508 0.000000 0.735460
O O9 0.415984 0.244347 0.654516
O O10 0.500474 0.000000 0.659073
O O11 0.545347 0.500000 0.918583
O O12 0.571261 0.745494 0.880227
O O13 0.430906 0.710811 0.938965
O O14 0.607151 0.713805 0.969727
O O15 0.250000 0.801093 0.139717
O O16 0.122334 0.000000 0.141325
O O17 0.750000 0.675602 0.366727
O O18 0.608376 0.500000 0.378724
O O19 0.628092 0.716432 0.435887
O O20 0.500000 0.342367 0.500000
O O21 0.349964 0.500000 0.508156
O O22 0.250000 0.728821 0.969442
O O23 0.348575 0.500000 0.978979
#
# Coordination Sequence:
#
# PCOD8208903 Si02
#       8
#     8   8   8   8   8   8   8   8
#     4  10  20  31  46  71  98 119 141 178 226 267
#     4   8  15  30  51  72  94 121 149 178 223 284
#     4  10  19  32  52  73  92 115 149 189 224 264
#     4   9  16  26  44  68  91 121 161 199 232 267
#     4   9  17  29  46  68  94 123 152 184 228 279
#     4  10  21  36  51  67  91 123 154 185 224 267
#     4  10  19  33  51  67  88 121 157 183 210 261
#     4   8  14  25  41  63  93 127 160 193 231 276
#
# _framework density 16.694434000000001
#
# number of rings (size 3 to 8) (size 9 to 14) (size 15 to 20)
#    0.000    2.750    1.250    2.625    0.000    4.000 
#    0.000    1.875    0.000    3.750    0.000    3.500 
#    0.000    0.000    0.000    0.000    0.000    0.000 
#
# Total GULP energy -793279.311530 kJ/mol
# GULP energy per Si atom -12394.989243 kJ/mol
# Density = 1.665644 g / cm^3
# Si number density = 16.694434 Si / 1000 Ang^3
#
#
#
# Elastic Constant Matrix: (Units=GPa)
#
#
# Indices 1 2 3 4 5 6 
#
# 1 120.7901 35.0325 61.3471 0.0000 0.0000 0.0000
# 2 35.0325 41.6001 39.8938 0.0000 0.0000 0.0000
# 3 61.3471 39.8938 106.1127 0.0000 0.0000 0.0000
# 4 0.0000 0.0000 0.0000 20.4757 0.0000 0.0000
# 5 0.0000 0.0000 0.0000 0.0000 27.1084 0.0000
# 6 0.0000 0.0000 0.0000 0.0000 0.0000 13.7266
#
#
#
# Elastic Compliance Matrix: (Units=1/GPa)
#
#
# Indices 1 2 3 4 5 6 
#
# 1 0.012510 -0.005628 -0.005116 0.000000 0.000000 0.000000
# 2 -0.005628 0.040124 -0.011831 0.000000 0.000000 0.000000
# 3 -0.005116 -0.011831 0.016830 0.000000 0.000000 0.000000
# 4 0.000000 0.000000 0.000000 0.048838 0.000000 0.000000
# 5 0.000000 0.000000 0.000000 0.000000 0.036889 0.000000
# 6 0.000000 0.000000 0.000000 0.000000 0.000000 0.072851
#
#
# Mechanical properties :
#
#
# Convention : Reuss Voigt Hill
#
# Bulk Modulus (GPa) = 41.13150 60.11665 50.62407
# Shear Modulus (GPa) = 17.77482 21.07743 19.42613
#
# Velocity S-wave (km/s) = 3.26654 3.55708 3.41490
# Velocity P-wave (km/s) = 6.23846 7.27727 6.77779
#
# Compressibility (1/GPa) = 0.02431227
#
# Stress axis : x y z
#
# Youngs Moduli (GPa) = 79.93851 24.92282 59.41872
#
# Poissons Ratio (x) = 0.14027 0.30400
# Poissons Ratio (y) = 0.44992 0.70298
# Poissons Ratio (z) = 0.40898 0.29486
#
# Static dielectric constant tensor:
#      x y z
#    x 3.335030 0.000000 0.000000 
#    y 0.000000 2.873630 0.000000 
#    z 0.000000 0.000000 3.049600 
# 
# 
# High freq. dielectric constant tensor:
#      x y z
#    x 1.648040 0.000000 0.000000 
#    y 0.000000 1.614430 0.000000 
#    z 0.000000 0.000000 1.624760 
# 
# From -- ./inp_files/37823.got.cif
#   From: 2010.03.12/outbox.cif.g09.slc.cpg/sg51_19_cif.got.tgz:37823.got - 2010.04.16 13:43:02.
