data_PCOD8208561
_publ_section_title
;
Structure prediction by ZEFSAII (Michael W. Deem and Ramdas Pophale) SiO2 
 PCOD8208561
Probable space group: P M M A
;
_chemical_formula_sum "Si O2"
_cell_formula_units_Z 64
_cell_length_a 15.920876
_cell_length_b 9.032536
_cell_length_c 23.229898
_cell_angle_alpha 90.000000
_cell_angle_beta 90.000000
_cell_angle_gamma 90.000000
_cell_volume 3340.596055
_symmetry_space_group_name_H-M "P M M A"
_symmetry_group_IT_number 51
_symmetry_cell_setting 'orthorhombic'
loop_
_space_group_symop_operation_xyz
x,y,z
1/2-x,-y,z
1/2+x,-y,-z
-x,y,-z
-x,-y,-z
1/2+x,y,-z
1/2-x,y,z
x,-y,z
loop_
_atom_site_type_symbol
_atom_site_label
_atom_site_fract_x
_atom_site_fract_y
_atom_site_fract_z
Si Si1 0.345098 0.170854 0.547956
Si Si2 0.344888 0.336129 0.973508
Si Si3 0.997729 0.325015 0.750538
Si Si4 0.418525 0.831657 0.075845
Si Si5 0.434217 0.669473 0.866757
Si Si6 0.654057 0.674515 0.571993
Si Si7 0.344533 0.830810 0.195340
Si Si8 0.997379 0.174794 0.368010
O O1 0.250000 0.195921 0.572656
O O2 0.360111 0.272668 0.492937
O O3 0.416720 0.217155 0.593264
O O4 0.356677 0.000000 0.529548
O O5 0.250000 0.334611 0.992383
O O6 0.383740 0.500000 0.984659
O O7 0.349840 0.302425 0.904013
O O8 0.388322 0.214453 0.012886
O O9 0.001651 0.500000 0.738132
O O10 0.061843 0.267864 0.801427
O O11 0.025693 0.237073 0.694369
O O12 0.903730 0.281160 0.769807
O O13 0.498321 0.735970 0.090456
O O14 0.350018 0.807330 0.126357
O O15 0.446846 0.000000 0.071958
O O16 0.457183 0.500000 0.857793
O O17 0.750000 0.713823 0.591724
O O18 0.638720 0.500000 0.575155
O O19 0.585128 0.753637 0.611717
O O20 0.250000 0.795540 0.214784
O O21 0.369318 0.000000 0.210935
O O22 0.010770 0.000000 0.365752
#
# Coordination Sequence:
#
# PCOD8208561 Si02
#       8
#     8   8   8   8   8   8   8   8
#     4   9  19  37  59  83 112 145 181 220 264 315
#     4  10  20  33  50  72  98 128 162 202 250 305
#     4  10  21  36  53  73  99 133 175 220 259 300
#     4  10  19  31  50  76 102 127 159 201 251 307
#     4   9  19  36  53  69  94 130 169 206 249 302
#     4  10  21  36  56  85 119 150 179 215 260 309
#     4   9  18  33  51  71  99 134 168 206 256 313
#     4  11  22  36  57  82 109 145 184 221 264 314
#
# _framework density 19.158256999999999
#
# number of rings (size 3 to 8) (size 9 to 14) (size 15 to 20)
#    0.000    2.250    0.000    2.625    0.000    7.750 
#    0.000    0.625    0.000    0.750    0.000    0.000 
#    0.000    0.000    0.000    0.000    0.000    0.000 
#
# Total GULP energy -793090.542354 kJ/mol
# GULP energy per Si atom -12392.039724 kJ/mol
# Density = 1.911465 g / cm^3
# Si number density = 19.158257 Si / 1000 Ang^3
#
#
#
# Elastic Constant Matrix: (Units=GPa)
#
#
# Indices 1 2 3 4 5 6 
#
# 1 56.6517 12.9144 32.7513 0.0000 0.0000 0.0000
# 2 12.9144 22.8810 27.7150 0.0000 0.0000 0.0000
# 3 32.7513 27.7150 108.3893 0.0000 0.0000 0.0000
# 4 0.0000 0.0000 0.0000 32.6990 0.0000 0.0000
# 5 0.0000 0.0000 0.0000 0.0000 17.2647 0.0000
# 6 0.0000 0.0000 0.0000 0.0000 0.0000 16.4055
#
#
#
# Elastic Compliance Matrix: (Units=1/GPa)
#
#
# Indices 1 2 3 4 5 6 
#
# 1 0.022002 -0.006324 -0.005031 0.000000 0.000000 0.000000
# 2 -0.006324 0.065132 -0.014743 0.000000 0.000000 0.000000
# 3 -0.005031 -0.014743 0.014516 0.000000 0.000000 0.000000
# 4 0.000000 0.000000 0.000000 0.030582 0.000000 0.000000
# 5 0.000000 0.000000 0.000000 0.000000 0.057922 0.000000
# 6 0.000000 0.000000 0.000000 0.000000 0.000000 0.060955
#
#
# Mechanical properties :
#
#
# Convention : Reuss Voigt Hill
#
# Bulk Modulus (GPa) = 20.22133 37.18703 28.70418
# Shear Modulus (GPa) = 15.63529 20.90993 18.27261
#
# Velocity S-wave (km/s) = 2.85987 3.30727 3.09167
# Velocity P-wave (km/s) = 4.63497 5.83409 5.26875
#
# Compressibility (1/GPa) = 0.04945273
#
# Stress axis : x y z
#
# Youngs Moduli (GPa) = 45.45052 15.35354 68.88951
#
# Poissons Ratio (x) = 0.09710 0.34659
# Poissons Ratio (y) = 0.28744 1.01564
# Poissons Ratio (z) = 0.22867 0.22636
#
# Static dielectric constant tensor:
#      x y z
#    x 3.847640 0.000000 0.000000 
#    y 0.000000 3.554820 0.000000 
#    z 0.000000 0.000000 3.591950 
# 
# 
# High freq. dielectric constant tensor:
#      x y z
#    x 1.733870 0.000000 0.000000 
#    y 0.000000 1.747830 0.000000 
#    z 0.000000 0.000000 1.744190 
# 
# From -- ./inp_files/35748.got.cif
#   From: 2010.03.12/outbox.cif.g09.slc.cpg/sg51_18_cif.got.tgz:35748.got - 2010.04.16 13:43:02.
