data_PCOD8208258
_publ_section_title
;
Structure prediction by ZEFSAII (Michael W. Deem and Ramdas Pophale) SiO2 
 PCOD8208258
Probable space group: P M M A
;
_chemical_formula_sum "Si O2"
_cell_formula_units_Z 44
_cell_length_a 9.288090
_cell_length_b 15.331242
_cell_length_c 17.765182
_cell_angle_alpha 90.000000
_cell_angle_beta 90.000000
_cell_angle_gamma 90.000000
_cell_volume 2529.725596
_symmetry_space_group_name_H-M "P M M A"
_symmetry_group_IT_number 51
_symmetry_cell_setting 'orthorhombic'
loop_
_space_group_symop_operation_xyz
x,y,z
1/2-x,-y,z
1/2+x,-y,-z
-x,y,-z
-x,-y,-z
1/2+x,y,-z
1/2-x,y,z
x,-y,z
loop_
_atom_site_type_symbol
_atom_site_label
_atom_site_fract_x
_atom_site_fract_y
_atom_site_fract_z
Si Si1 0.415896 0.903069 0.723620
Si Si2 0.412884 0.675254 0.347191
Si Si3 0.418200 0.728563 0.794830
Si Si4 0.583273 0.850716 0.575983
Si Si5 0.918930 0.599315 0.077153
Si Si6 0.584621 0.500000 0.574798
O O1 0.250000 0.887599 0.699234
O O2 0.457342 0.832657 0.789539
O O3 0.513650 0.895744 0.649235
O O4 0.437676 0.000000 0.757792
O O5 0.250000 0.676058 0.315733
O O6 0.522607 0.688255 0.280675
O O7 0.429593 0.746828 0.412988
O O8 0.460232 0.583385 0.378499
O O9 0.250000 0.713315 0.795937
O O10 0.480308 0.673623 0.865540
O O11 0.500000 0.878737 0.500000
O O12 0.750000 0.880279 0.569311
O O13 0.750000 0.611458 0.062738
O O14 0.950645 0.500000 0.106272
O O15 0.000000 0.617113 0.000000
O O16 0.750000 0.500000 0.553210
O O17 0.500000 0.500000 0.500000
#
# Coordination Sequence:
#
# PCOD8208258 Si02
#       6
#     8   8   8   8   8   4
#     4   9  18  33  51  70  92 121 158 198 242 288
#     4   9  19  32  45  65  92 123 159 198 238 283
#     4   9  18  32  51  73  96 123 157 195 233 277
#     4  10  19  31  47  66  91 122 158 201 247 290
#     4   9  18  32  50  75 104 130 157 188 225 273
#     4  10  20  32  44  62  89 122 161 200 237 278
#
# _framework density 17.393191000000002
#
# number of rings (size 3 to 8) (size 9 to 14) (size 15 to 20)
#    0.000    2.727    0.000    1.091    1.273    2.909 
#    0.000    0.000    0.000    0.545    0.000    0.000 
#    0.000    0.000    0.000    0.000    0.000    0.000 
#
# Total GULP energy -545249.489656 kJ/mol
# GULP energy per Si atom -12392.033856 kJ/mol
# Density = 1.735360 g / cm^3
# Si number density = 17.393191 Si / 1000 Ang^3
#
#
#
# Elastic Constant Matrix: (Units=GPa)
#
#
# Indices 1 2 3 4 5 6 
#
# 1 35.3216 32.9127 31.2157 0.0000 0.0000 0.0000
# 2 32.9127 141.6526 56.0470 0.0000 0.0000 0.0000
# 3 31.2157 56.0470 84.9123 0.0000 0.0000 0.0000
# 4 0.0000 0.0000 0.0000 19.5028 0.0000 0.0000
# 5 0.0000 0.0000 0.0000 0.0000 27.8713 0.0000
# 6 0.0000 0.0000 0.0000 0.0000 0.0000 15.1359
#
#
#
# Elastic Compliance Matrix: (Units=1/GPa)
#
#
# Indices 1 2 3 4 5 6 
#
# 1 0.044646 -0.005251 -0.012947 0.000000 0.000000 0.000000
# 2 -0.005251 0.010172 -0.004784 0.000000 0.000000 0.000000
# 3 -0.012947 -0.004784 0.019694 0.000000 0.000000 0.000000
# 4 0.000000 0.000000 0.000000 0.051275 0.000000 0.000000
# 5 0.000000 0.000000 0.000000 0.000000 0.035879 0.000000
# 6 0.000000 0.000000 0.000000 0.000000 0.000000 0.066068
#
#
# Mechanical properties :
#
#
# Convention : Reuss Voigt Hill
#
# Bulk Modulus (GPa) = 35.02765 55.80416 45.41590
# Shear Modulus (GPa) = 17.65444 21.94941 19.80192
#
# Velocity S-wave (km/s) = 3.18939 3.55625 3.37781
# Velocity P-wave (km/s) = 5.80908 7.00115 6.43279
#
# Compressibility (1/GPa) = 0.02854888
#
# Stress axis : x y z
#
# Youngs Moduli (GPa) = 22.39841 98.30502 50.77608
#
# Poissons Ratio (x) = 0.51617 0.65741
# Poissons Ratio (y) = 0.11761 0.24292
# Poissons Ratio (z) = 0.29000 0.47030
#
# Static dielectric constant tensor:
#      x y z
#    x 3.252050 0.000000 0.000000 
#    y 0.000000 3.671100 0.000000 
#    z 0.000000 0.000000 3.005520 
# 
# 
# High freq. dielectric constant tensor:
#      x y z
#    x 1.673280 0.000000 0.000000 
#    y 0.000000 1.684490 0.000000 
#    z 0.000000 0.000000 1.640990 
# 
# From -- ./inp_files/27374.got.cif
#   From: 2010.03.12/outbox.cif.g09.slc.cpg/sg51_14_cif.got.tgz:27374.got - 2010.04.16 13:43:02.
