data_PCOD8208694
_publ_section_title
;
Structure prediction by ZEFSAII (Michael W. Deem and Ramdas Pophale) SiO2 
 PCOD8208694
Probable space group: P M M A
;
_chemical_formula_sum "Si O2"
_cell_formula_units_Z 40
_cell_length_a 9.159536
_cell_length_b 15.522879
_cell_length_c 19.535136
_cell_angle_alpha 90.000000
_cell_angle_beta 90.000000
_cell_angle_gamma 90.000000
_cell_volume 2777.551916
_symmetry_space_group_name_H-M "P M M A"
_symmetry_group_IT_number 51
_symmetry_cell_setting 'orthorhombic'
loop_
_space_group_symop_operation_xyz
x,y,z
1/2-x,-y,z
1/2+x,-y,-z
-x,y,-z
-x,-y,-z
1/2+x,y,-z
1/2-x,y,z
x,-y,z
loop_
_atom_site_type_symbol
_atom_site_label
_atom_site_fract_x
_atom_site_fract_y
_atom_site_fract_z
Si Si1 0.577814 0.312774 0.926569
Si Si2 0.914893 0.500000 0.931322
Si Si3 0.922867 0.832657 0.157461
Si Si4 0.089172 0.102335 0.436899
Si Si5 0.078291 0.100025 0.285228
Si Si6 0.420342 0.000000 0.928348
O O1 0.750000 0.291625 0.934848
O O2 0.552770 0.408974 0.893365
O O3 0.502995 0.249050 0.873871
O O4 0.500000 0.303602 0.000000
O O5 0.750000 0.500000 0.955693
O O6 0.000000 0.500000 0.000000
O O7 0.750000 0.817987 0.158775
O O8 0.981900 0.843281 0.234214
O O9 0.967602 0.916096 0.113732
O O10 0.250000 0.141449 0.443406
O O11 0.026113 0.126206 0.361954
O O12 0.000000 0.143199 0.500000
O O13 0.094842 0.000000 0.443384
O O14 0.250000 0.118794 0.275452
O O15 0.045204 0.000000 0.271603
O O16 0.250000 0.000000 0.943447
O O17 0.500000 0.000000 0.000000
#
# Coordination Sequence:
#
# PCOD8208694 Si02
#       6
#     8   4   8   8   8   4
#     4  10  19  32  48  66  84 106 135 172 214 258
#     4   8  16  30  48  66  84 102 127 164 211 260
#     4  11  21  32  43  60  83 111 144 178 212 250
#     4   8  14  24  38  57  78 101 134 171 207 245
#     4   9  17  29  43  58  79 110 144 176 210 248
#     4  10  22  34  42  54  75 104 141 178 211 242
#
# _framework density 14.401171
#
# number of rings (size 3 to 8) (size 9 to 14) (size 15 to 20)
#    0.000    2.600    1.000    3.000    0.000    4.800 
#    0.000    2.000    0.000    0.000    0.000    0.000 
#    0.000    0.000    0.000    0.900    0.000   10.600 
#
# Total GULP energy -495646.725623 kJ/mol
# GULP energy per Si atom -12391.168141 kJ/mol
# Density = 1.436839 g / cm^3
# Si number density = 14.401171 Si / 1000 Ang^3
#
#
#
# Elastic Constant Matrix: (Units=GPa)
#
#
# Indices 1 2 3 4 5 6 
#
# 1 71.7451 45.3558 53.8096 0.0000 0.0000 0.0000
# 2 45.3558 87.8271 47.9534 0.0000 0.0000 0.0000
# 3 53.8096 47.9534 116.4819 0.0000 0.0000 0.0000
# 4 0.0000 0.0000 0.0000 5.2241 0.0000 0.0000
# 5 0.0000 0.0000 0.0000 0.0000 28.0900 0.0000
# 6 0.0000 0.0000 0.0000 0.0000 0.0000 17.9524
#
#
#
# Elastic Compliance Matrix: (Units=1/GPa)
#
#
# Indices 1 2 3 4 5 6 
#
# 1 0.025654 -0.008743 -0.008252 0.000000 0.000000 0.000000
# 2 -0.008743 0.017667 -0.003234 0.000000 0.000000 0.000000
# 3 -0.008252 -0.003234 0.013729 0.000000 0.000000 0.000000
# 4 0.000000 0.000000 0.000000 0.191420 0.000000 0.000000
# 5 0.000000 0.000000 0.000000 0.000000 0.035600 0.000000
# 6 0.000000 0.000000 0.000000 0.000000 0.000000 0.055703
#
#
# Mechanical properties :
#
#
# Convention : Reuss Voigt Hill
#
# Bulk Modulus (GPa) = 60.27148 63.36574 61.81861
# Shear Modulus (GPa) = 12.96139 18.84899 15.90519
#
# Velocity S-wave (km/s) = 3.00329 3.62173 3.32691
# Velocity P-wave (km/s) = 7.34636 7.84762 7.60112
#
# Compressibility (1/GPa) = 0.01659160
#
# Stress axis : x y z
#
# Youngs Moduli (GPa) = 38.97967 56.60273 72.84093
#
# Poissons Ratio (x) = 0.49488 0.60108
# Poissons Ratio (y) = 0.34080 0.23559
# Poissons Ratio (z) = 0.32166 0.18307
#
# Static dielectric constant tensor:
#      x y z
#    x 2.973730 0.000000 0.000000 
#    y 0.000000 3.108070 0.000000 
#    z 0.000000 0.000000 2.805760 
# 
# 
# High freq. dielectric constant tensor:
#      x y z
#    x 1.561350 0.000000 0.000000 
#    y 0.000000 1.516060 0.000000 
#    z 0.000000 0.000000 1.538590 
# 
# From -- ./inp_files/27761.got.cif
#   From: 2010.03.12/outbox.cif.g09.slc.cpg/sg51_14_cif.got.tgz:27761.got - 2010.04.16 13:43:02.
