data_PCOD8208515
_publ_section_title
;
Structure prediction by ZEFSAII (Michael W. Deem and Ramdas Pophale) SiO2 
 PCOD8208515
Probable space group: P M M A
;
_chemical_formula_sum "Si O2"
_cell_formula_units_Z 64
_cell_length_a 14.577481
_cell_length_b 9.145457
_cell_length_c 28.141108
_cell_angle_alpha 90.000000
_cell_angle_beta 90.000000
_cell_angle_gamma 90.000000
_cell_volume 3751.708516
_symmetry_space_group_name_H-M "P M M A"
_symmetry_group_IT_number 51
_symmetry_cell_setting 'orthorhombic'
loop_
_space_group_symop_operation_xyz
x,y,z
1/2-x,-y,z
1/2+x,-y,-z
-x,y,-z
-x,-y,-z
1/2+x,y,-z
1/2-x,y,z
x,-y,z
loop_
_atom_site_type_symbol
_atom_site_label
_atom_site_fract_x
_atom_site_fract_y
_atom_site_fract_z
Si Si1 0.355546 0.670087 0.471468
Si Si2 0.898235 0.157721 0.982020
Si Si3 0.852350 0.167957 0.432684
Si Si4 0.848541 0.173866 0.079963
Si Si5 0.644238 0.670945 0.799569
Si Si6 0.540704 0.824721 0.883555
Si Si7 0.461692 0.831114 0.389478
Si Si8 0.644704 0.830934 0.703254
O O1 0.250000 0.702442 0.459348
O O2 0.377216 0.500000 0.474363
O O3 0.382171 0.737751 0.522065
O O4 0.416507 0.738581 0.430743
O O5 0.902563 0.234894 0.929994
O O6 0.850698 0.000000 0.973794
O O7 0.848463 0.242107 0.025776
O O8 0.000000 0.131440 0.000000
O O9 0.750000 0.212146 0.414297
O O10 0.927769 0.193518 0.391176
O O11 0.853075 0.000000 0.449100
O O12 0.750000 0.216248 0.103587
O O13 0.934032 0.227783 0.111753
O O14 0.858246 0.000000 0.073997
O O15 0.750000 0.704876 0.811541
O O16 0.623198 0.500000 0.800234
O O17 0.580700 0.750852 0.837276
O O18 0.618410 0.732780 0.748112
O O19 0.547518 0.000000 0.879555
O O20 0.422500 0.779057 0.338878
O O21 0.435700 0.000000 0.397617
O O22 0.750000 0.804292 0.687532
O O23 0.628583 0.000000 0.716609
#
# Coordination Sequence:
#
# PCOD8208515 Si02
#       8
#     8   8   8   8   8   8   8   8
#     4  10  20  31  44  67  99 131 161 192 225 264
#     4   7  11  20  35  60  92 120 147 182 221 258
#     4   9  18  32  48  67  95 129 160 189 222 262
#     4   8  13  22  39  66  98 126 152 186 225 262
#     4  10  21  35  49  66  90 119 149 184 230 280
#     4   9  16  27  46  70  93 119 154 191 225 266
#     4  10  19  31  50  73  94 120 154 190 230 273
#     4   9  18  33  52  72  91 111 142 187 235 282
#
# _framework density 17.058893999999999
#
# number of rings (size 3 to 8) (size 9 to 14) (size 15 to 20)
#    0.000    3.000    0.000    3.000    0.000    5.000 
#    0.000    2.500    0.000    4.500    0.000    3.500 
#    0.000    0.000    0.000    0.000    0.000    0.000 
#
# Total GULP energy -792905.404130 kJ/mol
# GULP energy per Si atom -12389.146940 kJ/mol
# Density = 1.702007 g / cm^3
# Si number density = 17.058894 Si / 1000 Ang^3
#
#
#
# Elastic Constant Matrix: (Units=GPa)
#
#
# Indices 1 2 3 4 5 6 
#
# 1 109.4589 38.7435 78.9629 0.0000 0.0000 0.0000
# 2 38.7435 45.6200 39.8727 0.0000 0.0000 0.0000
# 3 78.9629 39.8727 114.4142 0.0000 0.0000 0.0000
# 4 0.0000 0.0000 0.0000 -7.8456 0.0000 0.0000
# 5 0.0000 0.0000 0.0000 0.0000 28.3254 0.0000
# 6 0.0000 0.0000 0.0000 0.0000 0.0000 13.0108
#
#
#
# Elastic Compliance Matrix: (Units=1/GPa)
#
#
# Indices 1 2 3 4 5 6 
#
# 1 0.019611 -0.006939 -0.011117 0.000000 0.000000 0.000000
# 2 -0.006939 0.033977 -0.007052 0.000000 0.000000 0.000000
# 3 -0.011117 -0.007052 0.018870 0.000000 0.000000 0.000000
# 4 0.000000 0.000000 0.000000 -0.127460 0.000000 0.000000
# 5 0.000000 0.000000 0.000000 0.000000 0.035304 0.000000
# 6 0.000000 0.000000 0.000000 0.000000 0.000000 0.076859
#
#
# Mechanical properties :
#
#
# Convention : Reuss Voigt Hill
#
# Bulk Modulus (GPa) = 44.95777 64.96126 54.95952
# Shear Modulus (GPa) = 43.55778 14.15905 28.85841
#
# Velocity S-wave (km/s) = 5.05858 2.88411 4.11748
# Velocity P-wave (km/s) = 7.78014 7.01812 7.40894
#
# Compressibility (1/GPa) = 0.02224310
#
# Stress axis : x y z
#
# Youngs Moduli (GPa) = 50.99078 29.43193 52.99511
#
# Poissons Ratio (x) = 0.20424 0.58912
# Poissons Ratio (y) = 0.35384 0.37370
# Poissons Ratio (z) = 0.56684 0.20754
#
# Static dielectric constant tensor:
#      x y z
#    x 3.457310 0.000000 0.000000 
#    y 0.000000 2.916700 0.000000 
#    z 0.000000 0.000000 3.137840 
# 
# 
# High freq. dielectric constant tensor:
#      x y z
#    x 1.661950 0.000000 0.000000 
#    y 0.000000 1.625960 0.000000 
#    z 0.000000 0.000000 1.639970 
# 
# From -- ./inp_files/37793.got.cif
#   From: 2010.03.12/outbox.cif.g09.slc.cpg/sg51_19_cif.got.tgz:37793.got - 2010.04.16 13:43:02.
