data_PCOD8208640
_publ_section_title
;
Structure prediction by ZEFSAII (Michael W. Deem and Ramdas Pophale) SiO2 
 PCOD8208640
Probable space group: P M M A
;
_chemical_formula_sum "Si O2"
_cell_formula_units_Z 64
_cell_length_a 9.162367
_cell_length_b 24.335911
_cell_length_c 15.245387
_cell_angle_alpha 90.000000
_cell_angle_beta 90.000000
_cell_angle_gamma 90.000000
_cell_volume 3399.333273
_symmetry_space_group_name_H-M "P M M A"
_symmetry_group_IT_number 51
_symmetry_cell_setting 'orthorhombic'
loop_
_space_group_symop_operation_xyz
x,y,z
1/2-x,-y,z
1/2+x,-y,-z
-x,y,-z
-x,-y,-z
1/2+x,y,-z
1/2-x,y,z
x,-y,z
loop_
_atom_site_type_symbol
_atom_site_label
_atom_site_fract_x
_atom_site_fract_y
_atom_site_fract_z
Si Si1 0.082889 0.562968 0.245550
Si Si2 0.578369 0.169276 0.583471
Si Si3 0.083182 0.637760 0.087479
Si Si4 0.583951 0.739088 0.803147
Si Si5 0.917687 0.137495 0.778461
Si Si6 0.419234 0.064204 0.912368
Si Si7 0.082525 0.600726 0.585015
Si Si8 0.417124 0.276087 0.633547
O O1 0.250000 0.579179 0.267395
O O2 0.070080 0.500000 0.215805
O O3 0.022187 0.600724 0.166857
O O4 0.986048 0.573013 0.330229
O O5 0.500000 0.139547 0.500000
O O6 0.750000 0.171230 0.566662
O O7 0.542044 0.138362 0.674756
O O8 0.518526 0.231316 0.586570
O O9 0.250000 0.622720 0.070592
O O10 0.063414 0.702617 0.109667
O O11 0.000000 0.622480 0.000000
O O12 0.750000 0.733490 0.766589
O O13 0.552126 0.803069 0.822266
O O14 0.471866 0.715311 0.732586
O O15 0.750000 0.119877 0.791066
O O16 0.019520 0.093789 0.826208
O O17 0.250000 0.078381 0.923064
O O18 0.447105 0.000000 0.898436
O O19 0.500000 0.085282 0.000000
O O20 0.250000 0.582531 0.580203
O O21 0.066788 0.666436 0.584657
O O22 0.000000 0.577389 0.500000
O O23 0.250000 0.255409 0.634289
#
# Coordination Sequence:
#
# PCOD8208640 Si02
#       8
#     8   8   8   8   8   8   8   8
#     4  10  22  41  62  80 102 137 180 226 276 327
#     4  10  20  33  51  78 114 153 190 228 272 320
#     4  10  21  37  58  82 110 142 176 220 271 326
#     4   9  18  34  54  78 111 148 179 217 271 323
#     4   9  19  34  54  82 114 148 187 227 275 328
#     4  10  21  37  58  83 111 146 188 234 282 329
#     4  11  23  36  55  82 109 140 177 219 270 327
#     4  10  19  31  51  79 108 142 182 220 265 320
#
# _framework density 18.827221999999999
#
# number of rings (size 3 to 8) (size 9 to 14) (size 15 to 20)
#    0.000    2.125    1.250    2.625    0.000    8.000 
#    0.000    1.250    0.000    0.375    0.000    0.000 
#    0.000    0.000    0.000    0.000    0.000    0.000 
#
# Total GULP energy -793649.599856 kJ/mol
# GULP energy per Si atom -12400.774998 kJ/mol
# Density = 1.878437 g / cm^3
# Si number density = 18.827222 Si / 1000 Ang^3
#
#
#
# Elastic Constant Matrix: (Units=GPa)
#
#
# Indices 1 2 3 4 5 6 
#
# 1 102.9586 41.2847 66.9139 0.0000 0.0000 0.0000
# 2 41.2847 61.5144 47.9987 0.0000 0.0000 0.0000
# 3 66.9139 47.9987 136.9198 0.0000 0.0000 0.0000
# 4 0.0000 0.0000 0.0000 17.7995 0.0000 0.0000
# 5 0.0000 0.0000 0.0000 0.0000 39.9124 0.0000
# 6 0.0000 0.0000 0.0000 0.0000 0.0000 25.4023
#
#
#
# Elastic Compliance Matrix: (Units=1/GPa)
#
#
# Indices 1 2 3 4 5 6 
#
# 1 0.015836 -0.006318 -0.005525 0.000000 0.000000 0.000000
# 2 -0.006318 0.024898 -0.005641 0.000000 0.000000 0.000000
# 3 -0.005525 -0.005641 0.011981 0.000000 0.000000 0.000000
# 4 0.000000 0.000000 0.000000 0.056181 0.000000 0.000000
# 5 0.000000 0.000000 0.000000 0.000000 0.025055 0.000000
# 6 0.000000 0.000000 0.000000 0.000000 0.000000 0.039367
#
#
# Mechanical properties :
#
#
# Convention : Reuss Voigt Hill
#
# Bulk Modulus (GPa) = 56.34099 68.19859 62.26979
# Shear Modulus (GPa) = 23.34264 26.30253 24.82258
#
# Velocity S-wave (km/s) = 3.52495 3.74177 3.63497
# Velocity P-wave (km/s) = 6.82329 7.41416 7.12485
#
# Compressibility (1/GPa) = 0.01774907
#
# Stress axis : x y z
#
# Youngs Moduli (GPa) = 63.14535 40.16436 83.46609
#
# Poissons Ratio (x) = 0.25374 0.46113
# Poissons Ratio (y) = 0.39893 0.47080
# Poissons Ratio (z) = 0.34886 0.22655
#
# Static dielectric constant tensor:
#      x y z
#    x 3.522560 0.000000 0.000000 
#    y 0.000000 3.260520 0.000000 
#    z 0.000000 0.000000 3.456050 
# 
# 
# High freq. dielectric constant tensor:
#      x y z
#    x 1.735910 0.000000 0.000000 
#    y 0.000000 1.709630 0.000000 
#    z 0.000000 0.000000 1.731090 
# 
# From -- ./inp_files/22278.got.cif
#   From: 2010.03.12/outbox.cif.g09.slc.cpg/sg51_12_cif.got.tgz:22278.got - 2010.04.16 13:43:02.
