data_PCOD8208650
_publ_section_title
;
Structure prediction by ZEFSAII (Michael W. Deem and Ramdas Pophale) SiO2 
 PCOD8208650
Probable space group: P M M A
;
_chemical_formula_sum "Si O2"
_cell_formula_units_Z 40
_cell_length_a 17.258348
_cell_length_b 13.873088
_cell_length_c 8.992088
_cell_angle_alpha 90.000000
_cell_angle_beta 90.000000
_cell_angle_gamma 90.000000
_cell_volume 2152.944882
_symmetry_space_group_name_H-M "P M M A"
_symmetry_group_IT_number 51
_symmetry_cell_setting 'orthorhombic'
loop_
_space_group_symop_operation_xyz
x,y,z
1/2-x,-y,z
1/2+x,-y,-z
-x,y,-z
-x,-y,-z
1/2+x,y,-z
1/2-x,y,z
x,-y,z
loop_
_atom_site_type_symbol
_atom_site_label
_atom_site_fract_x
_atom_site_fract_y
_atom_site_fract_z
Si Si1 0.580990 0.395624 0.926369
Si Si2 0.572726 0.237760 0.408836
Si Si3 0.838997 0.111292 0.646419
Si Si4 0.839583 0.390340 0.223494
Si Si5 0.964451 0.196142 0.837482
O O1 0.608248 0.500000 0.854644
O O2 0.569088 0.306057 0.814193
O O3 0.500000 0.417273 0.000000
O O4 0.640012 0.360085 0.054665
O O5 0.500000 0.278642 0.500000
O O6 0.628735 0.171213 0.506811
O O7 0.618654 0.328419 0.347956
O O8 0.536391 0.176066 0.272793
O O9 0.750000 0.141529 0.679934
O O10 0.891803 0.128345 0.794022
O O11 0.843620 0.000000 0.601946
O O12 0.750000 0.374014 0.247707
O O13 0.865467 0.500000 0.249176
O O14 0.000000 0.176220 0.000000
#
# Coordination Sequence:
#
# PCOD8208650 Si02
#       5
#     8   8   8   8   8
#     4   9  16  30  53  80 113 148 177 213 267 328
#     4  10  20  35  58  80 110 148 186 221 272 333
#     4  10  23  42  59  77 108 148 184 228 288 342
#     4  10  19  31  51  81 114 147 185 227 269 318
#     4  10  19  35  59  89 110 139 185 233 274 321
#
# _framework density 18.579204000000001
#
# number of rings (size 3 to 8) (size 9 to 14) (size 15 to 20)
#    0.000    2.200    4.000    0.600    0.000    5.200 
#    0.000    3.000    0.000    3.600    0.000    0.000 
#    0.000    0.000    0.000    0.000    0.000    0.000 
#
# Total GULP energy -495569.670073 kJ/mol
# GULP energy per Si atom -12389.241752 kJ/mol
# Density = 1.853692 g / cm^3
# Si number density = 18.579204 Si / 1000 Ang^3
#
#
#
# Elastic Constant Matrix: (Units=GPa)
#
#
# Indices 1 2 3 4 5 6 
#
# 1 106.1568 52.7656 54.7838 0.0000 0.0000 0.0000
# 2 52.7656 67.0721 20.6373 0.0000 0.0000 0.0000
# 3 54.7838 20.6373 87.5759 0.0000 0.0000 0.0000
# 4 0.0000 0.0000 0.0000 25.2267 0.0000 0.0000
# 5 0.0000 0.0000 0.0000 0.0000 32.5254 0.0000
# 6 0.0000 0.0000 0.0000 0.0000 0.0000 28.3082
#
#
#
# Elastic Compliance Matrix: (Units=1/GPa)
#
#
# Indices 1 2 3 4 5 6 
#
# 1 0.021574 -0.013822 -0.010239 0.000000 0.000000 0.000000
# 2 -0.013822 0.024930 0.002772 0.000000 0.000000 0.000000
# 3 -0.010239 0.002772 0.017170 0.000000 0.000000 0.000000
# 4 0.000000 0.000000 0.000000 0.039641 0.000000 0.000000
# 5 0.000000 0.000000 0.000000 0.000000 0.030745 0.000000
# 6 0.000000 0.000000 0.000000 0.000000 0.000000 0.035325
#
#
# Mechanical properties :
#
#
# Convention : Reuss Voigt Hill
#
# Bulk Modulus (GPa) = 47.40080 57.46425 52.43253
# Shear Modulus (GPa) = 22.83140 26.05326 24.44233
#
# Velocity S-wave (km/s) = 3.50933 3.74877 3.63102
# Velocity P-wave (km/s) = 6.47987 7.05224 6.77211
#
# Compressibility (1/GPa) = 0.02109669
#
# Stress axis : x y z
#
# Youngs Moduli (GPa) = 46.35174 40.11180 58.23966
#
# Poissons Ratio (x) = 0.55443 0.59630
# Poissons Ratio (y) = 0.64068 -0.16142
# Poissons Ratio (z) = 0.47458 -0.11118
#
# Static dielectric constant tensor:
#      x y z
#    x 3.352530 0.000000 0.000000 
#    y 0.000000 3.497290 0.000000 
#    z 0.000000 0.000000 9.087760 
# 
# 
# High freq. dielectric constant tensor:
#      x y z
#    x 1.728540 0.000000 0.000000 
#    y 0.000000 1.712340 0.000000 
#    z 0.000000 0.000000 1.703870 
# 
# From -- ./inp_files/7941.got.cif
#   From: 2010.03.12/outbox.cif.g09.slc.cpg/sg51_4_cif.got.tgz:7941.got - 2010.04.16 13:43:02.
