data_PCOD8208130
_publ_section_title
;
Structure prediction by ZEFSAII (Michael W. Deem and Ramdas Pophale) SiO2 
 PCOD8208130
Probable space group: P M M A
;
_chemical_formula_sum "Si O2"
_cell_formula_units_Z 48
_cell_length_a 8.759563
_cell_length_b 13.661904
_cell_length_c 23.876709
_cell_angle_alpha 90.000000
_cell_angle_beta 90.000000
_cell_angle_gamma 90.000000
_cell_volume 2857.380892
_symmetry_space_group_name_H-M "P M M A"
_symmetry_group_IT_number 51
_symmetry_cell_setting 'orthorhombic'
loop_
_space_group_symop_operation_xyz
x,y,z
1/2-x,-y,z
1/2+x,-y,-z
-x,y,-z
-x,-y,-z
1/2+x,y,-z
1/2-x,y,z
x,-y,z
loop_
_atom_site_type_symbol
_atom_site_label
_atom_site_fract_x
_atom_site_fract_y
_atom_site_fract_z
Si Si1 0.569218 0.717311 0.662632
Si Si2 0.070764 0.887139 0.941282
Si Si3 0.568933 0.202467 0.833405
Si Si4 0.073496 0.887396 0.726676
Si Si5 0.570088 0.388441 0.441082
Si Si6 0.930432 0.607185 0.772286
O O1 0.750000 0.719514 0.656190
O O2 0.511400 0.825323 0.678817
O O3 0.494898 0.684493 0.605009
O O4 0.514902 0.642785 0.711196
O O5 0.250000 0.868981 0.942779
O O6 0.995780 0.820445 0.894144
O O7 0.030692 0.000000 0.928902
O O8 0.000000 0.853653 0.000000
O O9 0.750000 0.189866 0.832575
O O10 0.499590 0.129191 0.787694
O O11 0.518640 0.313966 0.818859
O O12 0.250000 0.856796 0.729477
O O13 0.053174 0.000000 0.710047
O O14 0.500000 0.355809 0.500000
O O15 0.750000 0.377152 0.444397
O O16 0.521805 0.500000 0.426856
O O17 0.750000 0.599537 0.771923
O O18 0.002390 0.500000 0.785146
#
# Coordination Sequence:
#
# PCOD8208130 Si02
#       6
#     8   8   8   8   8   8
#     4  10  19  31  50  74  99 128 162 202 246 290
#     4  10  20  33  49  69  94 124 156 193 238 286
#     4  10  19  30  48  73  98 126 159 196 238 284
#     4  10  20  33  49  70  98 131 164 199 240 287
#     4  10  20  33  50  73 101 132 165 201 241 287
#     4   8  15  28  46  69  96 125 156 190 231 278
#
# _framework density 16.7986
#
# number of rings (size 3 to 8) (size 9 to 14) (size 15 to 20)
#    0.000    2.333    0.000    4.500    0.000    6.000 
#    0.000    0.000    0.000   11.000    0.000    0.000 
#    0.000    0.000    0.000    0.000    0.000    0.000 
#
# Total GULP energy -595229.230652 kJ/mol
# GULP energy per Si atom -12400.608972 kJ/mol
# Density = 1.676037 g / cm^3
# Si number density = 16.798600 Si / 1000 Ang^3
#
#
#
# Elastic Constant Matrix: (Units=GPa)
#
#
# Indices 1 2 3 4 5 6 
#
# 1 68.8686 30.2976 42.2114 0.0000 0.0000 0.0000
# 2 30.2976 96.3624 59.4575 0.0000 0.0000 0.0000
# 3 42.2114 59.4575 132.9678 0.0000 0.0000 0.0000
# 4 0.0000 0.0000 0.0000 16.3901 0.0000 0.0000
# 5 0.0000 0.0000 0.0000 0.0000 33.3211 0.0000
# 6 0.0000 0.0000 0.0000 0.0000 0.0000 22.8790
#
#
#
# Elastic Compliance Matrix: (Units=1/GPa)
#
#
# Indices 1 2 3 4 5 6 
#
# 1 0.018657 -0.003054 -0.004557 0.000000 0.000000 0.000000
# 2 -0.003054 0.014832 -0.005662 0.000000 0.000000 0.000000
# 3 -0.004557 -0.005662 0.011499 0.000000 0.000000 0.000000
# 4 0.000000 0.000000 0.000000 0.061012 0.000000 0.000000
# 5 0.000000 0.000000 0.000000 0.000000 0.030011 0.000000
# 6 0.000000 0.000000 0.000000 0.000000 0.000000 0.043708
#
#
# Mechanical properties :
#
#
# Convention : Reuss Voigt Hill
#
# Bulk Modulus (GPa) = 54.22842 62.45908 58.34375
# Shear Modulus (GPa) = 23.53890 25.60019 24.56955
#
# Velocity S-wave (km/s) = 3.74738 3.90801 3.82854
# Velocity P-wave (km/s) = 7.14670 7.59113 7.37227
#
# Compressibility (1/GPa) = 0.01844051
#
# Stress axis : x y z
#
# Youngs Moduli (GPa) = 53.59844 67.42335 86.96161
#
# Poissons Ratio (x) = 0.20593 0.39630
# Poissons Ratio (y) = 0.16370 0.49242
# Poissons Ratio (z) = 0.24426 0.38178
#
# Static dielectric constant tensor:
#      x y z
#    x 3.175800 0.000000 0.000000 
#    y 0.000000 3.302540 0.000000 
#    z 0.000000 0.000000 3.079830 
# 
# 
# High freq. dielectric constant tensor:
#      x y z
#    x 1.653980 0.000000 0.000000 
#    y 0.000000 1.638660 0.000000 
#    z 0.000000 0.000000 1.639760 
# 
# From -- ./inp_files/31633.got.cif
#   From: 2010.03.12/outbox.cif.g09.slc.cpg/sg51_16_cif.got.tgz:31633.got - 2010.04.16 13:43:02.
