data_PCOD8208937
_publ_section_title
;
Structure prediction by ZEFSAII (Michael W. Deem and Ramdas Pophale) SiO2 
 PCOD8208937
Probable space group: P M M A
;
_chemical_formula_sum "Si O2"
_cell_formula_units_Z 64
_cell_length_a 9.234776
_cell_length_b 23.128671
_cell_length_c 17.518300
_cell_angle_alpha 90.000000
_cell_angle_beta 90.000000
_cell_angle_gamma 90.000000
_cell_volume 3741.700340
_symmetry_space_group_name_H-M "P M M A"
_symmetry_group_IT_number 51
_symmetry_cell_setting 'orthorhombic'
loop_
_space_group_symop_operation_xyz
x,y,z
1/2-x,-y,z
1/2+x,-y,-z
-x,y,-z
-x,-y,-z
1/2+x,y,-z
1/2-x,y,z
x,-y,z
loop_
_atom_site_type_symbol
_atom_site_label
_atom_site_fract_x
_atom_site_fract_y
_atom_site_fract_z
Si Si1 0.414206 0.352772 0.577076
Si Si2 0.079323 0.747668 0.079945
Si Si3 0.416939 0.830980 0.803304
Si Si4 0.420340 0.434644 0.715928
Si Si5 0.083838 0.651488 0.193328
Si Si6 0.912573 0.731124 0.300127
Si Si7 0.091608 0.068054 0.431340
Si Si8 0.579457 0.933838 0.738661
O O1 0.500000 0.360749 0.500000
O O2 0.250000 0.366220 0.555647
O O3 0.468033 0.398587 0.640985
O O4 0.432632 0.287092 0.610896
O O5 0.250000 0.762448 0.073078
O O6 0.058170 0.681958 0.111222
O O7 0.003073 0.794472 0.134111
O O8 0.000000 0.751289 0.000000
O O9 0.250000 0.838181 0.828849
O O10 0.426654 0.799018 0.720002
O O11 0.490348 0.893590 0.796273
O O12 0.250000 0.432542 0.727830
O O13 0.476512 0.500000 0.706513
O O14 0.491459 0.406762 0.792344
O O15 0.250000 0.635332 0.205771
O O16 0.037447 0.699053 0.254572
O O17 0.750000 0.709669 0.274985
O O18 0.250000 0.096600 0.435565
O O19 0.024470 0.079243 0.347604
O O20 0.000000 0.096576 0.500000
O O21 0.105222 0.000000 0.444546
O O22 0.750000 0.921121 0.745235
O O23 0.546443 0.000000 0.761085
#
# Coordination Sequence:
#
# PCOD8208937 Si02
#       8
#     8   8   8   8   8   8   8   8
#     4   9  17  29  44  63  90 124 163 206 249 290
#     4  10  20  34  54  80 106 128 153 189 237 289
#     4  10  19  32  52  75  98 125 160 200 239 285
#     4   9  18  32  48  66  93 132 171 203 241 290
#     4   9  17  29  48  74  98 120 152 196 237 274
#     4   8  16  31  47  63  88 122 156 194 242 291
#     4   8  14  25  41  60  83 114 153 196 238 276
#     4   9  18  32  48  68  98 134 167 201 245 294
#
# _framework density 17.104521999999999
#
# number of rings (size 3 to 8) (size 9 to 14) (size 15 to 20)
#    0.000    3.000    0.000    2.625    0.000    5.250 
#    0.000    1.875    0.000    3.750    0.000    0.000 
#    0.000    0.000    0.000    0.000    0.000    0.000 
#
# Total GULP energy -792882.539612 kJ/mol
# GULP energy per Si atom -12388.789681 kJ/mol
# Density = 1.706559 g / cm^3
# Si number density = 17.104522 Si / 1000 Ang^3
#
#
#
# Elastic Constant Matrix: (Units=GPa)
#
#
# Indices 1 2 3 4 5 6 
#
# 1 83.5745 48.4528 54.7345 0.0000 0.0000 0.0000
# 2 48.4528 91.9313 52.3077 0.0000 0.0000 0.0000
# 3 54.7345 52.3077 90.8813 0.0000 0.0000 0.0000
# 4 0.0000 0.0000 0.0000 18.1735 0.0000 0.0000
# 5 0.0000 0.0000 0.0000 0.0000 29.7553 0.0000
# 6 0.0000 0.0000 0.0000 0.0000 0.0000 23.8852
#
#
#
# Elastic Compliance Matrix: (Units=1/GPa)
#
#
# Indices 1 2 3 4 5 6 
#
# 1 0.021757 -0.005965 -0.009670 0.000000 0.000000 0.000000
# 2 -0.005965 0.017810 -0.006658 0.000000 0.000000 0.000000
# 3 -0.009670 -0.006658 0.020660 0.000000 0.000000 0.000000
# 4 0.000000 0.000000 0.000000 0.055025 0.000000 0.000000
# 5 0.000000 0.000000 0.000000 0.000000 0.033607 0.000000
# 6 0.000000 0.000000 0.000000 0.000000 0.000000 0.041867
#
#
# Mechanical properties :
#
#
# Convention : Reuss Voigt Hill
#
# Bulk Modulus (GPa) = 63.93982 64.15300 64.04641
# Shear Modulus (GPa) = 20.78782 21.75562 21.27172
#
# Velocity S-wave (km/s) = 3.48996 3.57027 3.53034
# Velocity P-wave (km/s) = 7.32821 7.38808 7.35820
#
# Compressibility (1/GPa) = 0.01563971
#
# Stress axis : x y z
#
# Youngs Moduli (GPa) = 45.96296 56.14838 48.40347
#
# Poissons Ratio (x) = 0.33491 0.46807
# Poissons Ratio (y) = 0.27416 0.32229
# Poissons Ratio (z) = 0.44447 0.37386
#
# Static dielectric constant tensor:
#      x y z
#    x 3.313340 0.000000 0.000000 
#    y 0.000000 3.172620 0.000000 
#    z 0.000000 0.000000 3.054070 
# 
# 
# High freq. dielectric constant tensor:
#      x y z
#    x 1.666280 0.000000 0.000000 
#    y 0.000000 1.640930 0.000000 
#    z 0.000000 0.000000 1.634090 
# 
# From -- ./inp_files/28631.got.cif
#   From: 2010.03.12/outbox.cif.g09.slc.cpg/sg51_15_cif.got.tgz:28631.got - 2010.04.16 13:43:02.
