data_PCOD8208170
_publ_section_title
;
Structure prediction by ZEFSAII (Michael W. Deem and Ramdas Pophale) SiO2 
 PCOD8208170
Probable space group: P M M A
;
_chemical_formula_sum "Si O2"
_cell_formula_units_Z 64
_cell_length_a 33.291638
_cell_length_b 8.745193
_cell_length_c 11.184972
_cell_angle_alpha 90.000000
_cell_angle_beta 90.000000
_cell_angle_gamma 90.000000
_cell_volume 3256.412877
_symmetry_space_group_name_H-M "P M M A"
_symmetry_group_IT_number 51
_symmetry_cell_setting 'orthorhombic'
loop_
_space_group_symop_operation_xyz
x,y,z
1/2-x,-y,z
1/2+x,-y,-z
-x,y,-z
-x,-y,-z
1/2+x,y,-z
1/2-x,y,z
x,-y,z
loop_
_atom_site_type_symbol
_atom_site_label
_atom_site_fract_x
_atom_site_fract_y
_atom_site_fract_z
Si Si1 0.932521 0.821688 0.556049
Si Si2 0.061153 0.319447 0.693411
Si Si3 0.204512 0.679166 0.929925
Si Si4 0.364462 0.325864 0.307569
Si Si5 0.416492 0.674707 0.070111
Si Si6 0.626371 0.180018 0.153786
Si Si7 0.015745 0.820875 0.211164
Si Si8 0.295686 0.174094 0.183844
O O1 0.949040 0.737039 0.439460
O O2 0.888402 0.759148 0.587527
O O3 0.962902 0.784932 0.663056
O O4 0.929975 0.000000 0.528321
O O5 0.059951 0.500000 0.697930
O O6 0.104730 0.258741 0.733479
O O7 0.028314 0.252991 0.785773
O O8 0.250000 0.722116 0.890416
O O9 0.196405 0.500000 0.919147
O O10 0.172880 0.766919 0.846203
O O11 0.197188 0.725176 0.066615
O O12 0.357330 0.500000 0.346647
O O13 0.388393 0.313620 0.184673
O O14 0.322024 0.241159 0.291770
O O15 0.421687 0.500000 0.027184
O O16 0.459838 0.745128 0.102185
O O17 0.395854 0.772418 0.967359
O O18 0.624484 0.000000 0.169794
O O19 0.012332 0.000000 0.186655
O O20 0.250000 0.183422 0.227603
O O21 0.308286 0.000000 0.154524
#
# Coordination Sequence:
#
# PCOD8208170 Si02
#       8
#     8   8   8   8   8   8   8   8
#     4  10  21  38  60  83 110 143 185 234 282 332
#     4  12  25  40  58  81 111 147 192 236 279 330
#     4  10  20  35  56  83 115 149 185 227 275 328
#     4  10  19  32  54  81 112 146 182 227 279 333
#     4  10  20  35  55  82 114 148 186 227 280 335
#     4  12  24  38  58  82 115 152 190 232 279 335
#     4  10  21  38  60  85 113 145 185 233 284 334
#     4  10  19  30  49  80 115 148 183 224 274 332
#
# _framework density 19.653528999999999
#
# number of rings (size 3 to 8) (size 9 to 14) (size 15 to 20)
#    0.000    1.500    1.250    4.875    0.000    6.000 
#    0.000    2.500    0.000    0.750    0.000    0.000 
#    0.000    0.000    0.000    0.000    0.000    0.000 
#
# Total GULP energy -793925.753437 kJ/mol
# GULP energy per Si atom -12405.089897 kJ/mol
# Density = 1.960880 g / cm^3
# Si number density = 19.653529 Si / 1000 Ang^3
#
#
#
# Elastic Constant Matrix: (Units=GPa)
#
#
# Indices 1 2 3 4 5 6 
#
# 1 96.3706 39.4552 5.0584 0.0000 0.0000 0.0000
# 2 39.4552 104.5775 13.9739 0.0000 0.0000 0.0000
# 3 5.0584 13.9739 24.5783 0.0000 0.0000 0.0000
# 4 0.0000 0.0000 0.0000 28.2294 0.0000 0.0000
# 5 0.0000 0.0000 0.0000 0.0000 22.9737 0.0000
# 6 0.0000 0.0000 0.0000 0.0000 0.0000 37.0307
#
#
#
# Elastic Compliance Matrix: (Units=1/GPa)
#
#
# Indices 1 2 3 4 5 6 
#
# 1 0.012273 -0.004646 0.000115 0.000000 0.000000 0.000000
# 2 -0.004646 0.012107 -0.005927 0.000000 0.000000 0.000000
# 3 0.000115 -0.005927 0.044033 0.000000 0.000000 0.000000
# 4 0.000000 0.000000 0.000000 0.035424 0.000000 0.000000
# 5 0.000000 0.000000 0.000000 0.000000 0.043528 0.000000
# 6 0.000000 0.000000 0.000000 0.000000 0.000000 0.027005
#
#
# Mechanical properties :
#
#
# Convention : Reuss Voigt Hill
#
# Bulk Modulus (GPa) = 21.05389 38.05569 29.55479
# Shear Modulus (GPa) = 23.68364 28.78267 26.23316
#
# Velocity S-wave (km/s) = 3.47516 3.83104 3.65743
# Velocity P-wave (km/s) = 5.18055 6.24295 5.73640
#
# Compressibility (1/GPa) = 0.04749716
#
# Stress axis : x y z
#
# Youngs Moduli (GPa) = 81.48287 82.59670 22.71049
#
# Poissons Ratio (x) = 0.38371 -0.00262
# Poissons Ratio (y) = 0.37854 0.13461
# Poissons Ratio (z) = -0.00941 0.48958
#
# Static dielectric constant tensor:
#      x y z
#    x 3.810990 0.000000 0.000000 
#    y 0.000000 3.690880 0.000000 
#    z 0.000000 0.000000 3.325010 
# 
# 
# High freq. dielectric constant tensor:
#      x y z
#    x 1.772990 0.000000 0.000000 
#    y 0.000000 1.783800 0.000000 
#    z 0.000000 0.000000 1.733130 
# 
# From -- ./inp_files/19566.got.cif
#   From: 2010.03.12/outbox.cif.g09.slc.cpg/sg51_10_cif.got.tgz:19566.got - 2010.04.16 13:43:02.
