data_PCOD8208882
_publ_section_title
;
Structure prediction by ZEFSAII (Michael W. Deem and Ramdas Pophale) SiO2 
 PCOD8208882
Probable space group: P M M A
;
_chemical_formula_sum "Si O2"
_cell_formula_units_Z 48
_cell_length_a 30.646425
_cell_length_b 9.327484
_cell_length_c 9.513878
_cell_angle_alpha 90.000000
_cell_angle_beta 90.000000
_cell_angle_gamma 90.000000
_cell_volume 2719.580451
_symmetry_space_group_name_H-M "P M M A"
_symmetry_group_IT_number 51
_symmetry_cell_setting 'orthorhombic'
loop_
_space_group_symop_operation_xyz
x,y,z
1/2-x,-y,z
1/2+x,-y,-z
-x,y,-z
-x,-y,-z
1/2+x,y,-z
1/2-x,y,z
x,-y,z
loop_
_atom_site_type_symbol
_atom_site_label
_atom_site_fract_x
_atom_site_fract_y
_atom_site_fract_z
Si Si1 0.889421 0.668937 0.712793
Si Si2 0.014140 0.669265 0.350289
Si Si3 0.855258 0.336583 0.410595
Si Si4 0.070405 0.664978 0.809830
Si Si5 0.371976 0.830811 0.014105
Si Si6 0.700753 0.167179 0.207268
O O1 0.888478 0.500000 0.746502
O O2 0.938878 0.727459 0.697715
O O3 0.862849 0.705021 0.571928
O O4 0.865922 0.756944 0.835559
O O5 0.017569 0.500000 0.370905
O O6 0.000000 0.737768 0.500000
O O7 0.978832 0.708586 0.230857
O O8 0.840412 0.500000 0.396020
O O9 0.900297 0.310148 0.328032
O O10 0.816256 0.242223 0.348501
O O11 0.072950 0.500000 0.860384
O O12 0.085566 0.765986 0.936900
O O13 0.378060 0.000000 0.031022
O O14 0.328849 0.790183 0.925785
O O15 0.750000 0.217029 0.174888
O O16 0.698076 0.000000 0.237197
#
# Coordination Sequence:
#
# PCOD8208882 Si02
#       6
#     8   8   8   8   8   8
#     4  10  19  32  51  76 105 134 166 205 248 293
#     4   9  15  27  50  76  99 130 175 215 242 281
#     4   9  17  30  52  79 103 125 156 205 256 296
#     4   9  16  30  52  74  97 131 174 212 245 285
#     4  10  21  35  50  71 103 137 168 206 252 299
#     4   9  19  37  58  75  93 125 168 206 243 299
#
# _framework density 17.649781000000001
#
# number of rings (size 3 to 8) (size 9 to 14) (size 15 to 20)
#    0.000    2.667    1.667    0.500    0.000    2.333 
#    0.000    5.000    0.000    4.000    0.000    0.000 
#    0.000    0.000    0.000    0.000    0.000    0.000 
#
# Total GULP energy -595224.080137 kJ/mol
# GULP energy per Si atom -12400.501670 kJ/mol
# Density = 1.760961 g / cm^3
# Si number density = 17.649781 Si / 1000 Ang^3
#
#
#
# Elastic Constant Matrix: (Units=GPa)
#
#
# Indices 1 2 3 4 5 6 
#
# 1 110.1012 39.0664 50.8081 0.0000 0.0000 0.0000
# 2 39.0664 55.2790 53.4499 0.0000 0.0000 0.0000
# 3 50.8081 53.4499 126.4182 0.0000 0.0000 0.0000
# 4 0.0000 0.0000 0.0000 24.4522 0.0000 0.0000
# 5 0.0000 0.0000 0.0000 0.0000 17.0381 0.0000
# 6 0.0000 0.0000 0.0000 0.0000 0.0000 18.8577
#
#
#
# Elastic Compliance Matrix: (Units=1/GPa)
#
#
# Indices 1 2 3 4 5 6 
#
# 1 0.012466 -0.006708 -0.002174 0.000000 0.000000 0.000000
# 2 -0.006708 0.034209 -0.011768 0.000000 0.000000 0.000000
# 3 -0.002174 -0.011768 0.013759 0.000000 0.000000 0.000000
# 4 0.000000 0.000000 0.000000 0.040896 0.000000 0.000000
# 5 0.000000 0.000000 0.000000 0.000000 0.058692 0.000000
# 6 0.000000 0.000000 0.000000 0.000000 0.000000 0.053029
#
#
# Mechanical properties :
#
#
# Convention : Reuss Voigt Hill
#
# Bulk Modulus (GPa) = 52.25971 64.27192 58.26581
# Shear Modulus (GPa) = 19.17705 21.96785 20.57245
#
# Velocity S-wave (km/s) = 3.29983 3.53179 3.41778
# Velocity P-wave (km/s) = 6.64771 7.28873 6.97559
#
# Compressibility (1/GPa) = 0.01913520
#
# Stress axis : x y z
#
# Youngs Moduli (GPa) = 80.21913 29.23222 72.67731
#
# Poissons Ratio (x) = 0.19608 0.15801
# Poissons Ratio (y) = 0.53808 0.85525
# Poissons Ratio (z) = 0.17440 0.34400
#
# Static dielectric constant tensor:
#      x y z
#    x 3.309460 0.000000 0.000000 
#    y 0.000000 3.052580 0.000000 
#    z 0.000000 0.000000 3.245970 
# 
# 
# High freq. dielectric constant tensor:
#      x y z
#    x 1.672860 0.000000 0.000000 
#    y 0.000000 1.658620 0.000000 
#    z 0.000000 0.000000 1.683170 
# 
# From -- ./inp_files/12839.got.cif
#   From: 2010.03.12/outbox.cif.g09.slc.cpg/sg51_7_cif.got.tgz:12839.got - 2010.04.16 13:43:02.
