data_PCOD8208426
_publ_section_title
;
Structure prediction by ZEFSAII (Michael W. Deem and Ramdas Pophale) SiO2 
 PCOD8208426
Probable space group: P M M A
;
_chemical_formula_sum "Si O2"
_cell_formula_units_Z 56
_cell_length_a 19.806743
_cell_length_b 8.888704
_cell_length_c 17.810227
_cell_angle_alpha 90.000000
_cell_angle_beta 90.000000
_cell_angle_gamma 90.000000
_cell_volume 3135.602236
_symmetry_space_group_name_H-M "P M M A"
_symmetry_group_IT_number 51
_symmetry_cell_setting 'orthorhombic'
loop_
_space_group_symop_operation_xyz
x,y,z
1/2-x,-y,z
1/2+x,-y,-z
-x,y,-z
-x,-y,-z
1/2+x,y,-z
1/2-x,y,z
x,-y,z
loop_
_atom_site_type_symbol
_atom_site_label
_atom_site_fract_x
_atom_site_fract_y
_atom_site_fract_z
Si Si1 0.064677 0.666171 0.346461
Si Si2 0.535398 0.678373 0.815005
Si Si3 0.607891 0.821265 0.212376
Si Si4 0.071723 0.823512 0.036667
Si Si5 0.172191 0.327437 0.923041
Si Si6 0.919868 0.167970 0.509556
Si Si7 0.595259 0.331983 0.363852
O O1 0.094318 0.500000 0.359596
O O2 0.077618 0.719329 0.260707
O O3 0.100208 0.772988 0.407547
O O4 0.984823 0.664680 0.357960
O O5 0.521194 0.500000 0.818156
O O6 0.464802 0.765740 0.815830
O O7 0.579141 0.734151 0.885130
O O8 0.663533 0.747471 0.158572
O O9 0.624764 0.770612 0.297215
O O10 0.610675 0.000000 0.206770
O O11 0.079994 0.000000 0.051332
O O12 0.130738 0.767035 0.983396
O O13 0.000000 0.784692 0.000000
O O14 0.250000 0.318712 0.946238
O O15 0.146840 0.500000 0.921132
O O16 0.883720 0.265031 0.444702
O O17 0.000000 0.174421 0.500000
O O18 0.892227 0.000000 0.502266
O O19 0.625073 0.500000 0.356918
#
# Coordination Sequence:
#
# PCOD8208426 Si02
#       7
#     8   8   8   8   8   8   8
#     4   8  15  25  37  57  86 122 160 197 242 290
#     4  10  19  31  49  71  97 131 169 210 251 301
#     4  11  20  31  48  71  98 127 164 208 254 302
#     4  11  22  35  54  80 104 132 169 213 263 313
#     4  11  24  40  57  76 100 134 173 212 258 312
#     4   9  15  22  34  55  84 120 158 197 242 289
#     4   9  16  26  40  58  85 123 163 200 238 288
#
# _framework density 17.859407999999998
#
# number of rings (size 3 to 8) (size 9 to 14) (size 15 to 20)
#    0.000    2.143    1.429    4.286    0.000    7.429 
#    0.000    0.000    0.000    0.000    0.000    0.000 
#    0.000    1.143    0.000   10.000    0.000    7.143 
#
# Total GULP energy -694325.421298 kJ/mol
# GULP energy per Si atom -12398.668237 kJ/mol
# Density = 1.781876 g / cm^3
# Si number density = 17.859408 Si / 1000 Ang^3
#
#
#
# Elastic Constant Matrix: (Units=GPa)
#
#
# Indices 1 2 3 4 5 6 
#
# 1 31.6075 14.8469 20.4482 0.0000 0.0000 0.0000
# 2 14.8469 106.1549 49.3345 0.0000 0.0000 0.0000
# 3 20.4482 49.3345 144.4543 0.0000 0.0000 0.0000
# 4 0.0000 0.0000 0.0000 37.1905 0.0000 0.0000
# 5 0.0000 0.0000 0.0000 0.0000 11.7908 0.0000
# 6 0.0000 0.0000 0.0000 0.0000 0.0000 12.6841
#
#
#
# Elastic Compliance Matrix: (Units=1/GPa)
#
#
# Indices 1 2 3 4 5 6 
#
# 1 0.035688 -0.003142 -0.003979 0.000000 0.000000 0.000000
# 2 -0.003142 0.011474 -0.003474 0.000000 0.000000 0.000000
# 3 -0.003979 -0.003474 0.008672 0.000000 0.000000 0.000000
# 4 0.000000 0.000000 0.000000 0.026889 0.000000 0.000000
# 5 0.000000 0.000000 0.000000 0.000000 0.084812 0.000000
# 6 0.000000 0.000000 0.000000 0.000000 0.000000 0.078839
#
#
# Mechanical properties :
#
#
# Convention : Reuss Voigt Hill
#
# Bulk Modulus (GPa) = 28.86443 50.16400 39.51421
# Shear Modulus (GPa) = 17.91395 25.50555 21.70975
#
# Velocity S-wave (km/s) = 3.17054 3.78316 3.49032
# Velocity P-wave (km/s) = 5.44061 6.87258 6.19809
#
# Compressibility (1/GPa) = 0.03464472
#
# Stress axis : x y z
#
# Youngs Moduli (GPa) = 28.02059 87.15256 115.31091
#
# Poissons Ratio (x) = 0.27386 0.45878
# Poissons Ratio (y) = 0.08805 0.40058
# Poissons Ratio (z) = 0.11148 0.30276
#
# Static dielectric constant tensor:
#      x y z
#    x 2.671930 0.000000 0.000000 
#    y 0.000000 3.483850 0.000000 
#    z 0.000000 0.000000 3.688810 
# 
# 
# High freq. dielectric constant tensor:
#      x y z
#    x 1.608170 0.000000 0.000000 
#    y 0.000000 1.708500 0.000000 
#    z 0.000000 0.000000 1.712070 
# 
# From -- ./inp_files/30435.got.cif
#   From: 2010.03.12/outbox.cif.g09.slc.cpg/sg51_16_cif.got.tgz:30435.got - 2010.04.16 13:43:02.
