data_PCOD8208123
_publ_section_title
;
Structure prediction by ZEFSAII (Michael W. Deem and Ramdas Pophale) SiO2 
 PCOD8208123
Probable space group: P M M A
;
_chemical_formula_sum "Si O2"
_cell_formula_units_Z 48
_cell_length_a 8.866249
_cell_length_b 13.688786
_cell_length_c 23.945079
_cell_angle_alpha 90.000000
_cell_angle_beta 90.000000
_cell_angle_gamma 90.000000
_cell_volume 2906.170782
_symmetry_space_group_name_H-M "P M M A"
_symmetry_group_IT_number 51
_symmetry_cell_setting 'orthorhombic'
loop_
_space_group_symop_operation_xyz
x,y,z
1/2-x,-y,z
1/2+x,-y,-z
-x,y,-z
-x,-y,-z
1/2+x,y,-z
1/2-x,y,z
x,-y,z
loop_
_atom_site_type_symbol
_atom_site_label
_atom_site_fract_x
_atom_site_fract_y
_atom_site_fract_z
Si Si1 0.072106 0.893107 0.725688
Si Si2 0.428795 0.778373 0.833372
Si Si3 0.424444 0.612201 0.229735
Si Si4 0.427046 0.612473 0.442070
Si Si5 0.928574 0.703340 0.335603
Si Si6 0.571931 0.888920 0.057001
O O1 0.250000 0.903189 0.726563
O O2 0.018669 0.855214 0.786175
O O3 0.024400 0.815127 0.678488
O O4 0.999368 0.000000 0.713663
O O5 0.250000 0.762006 0.831456
O O6 0.509370 0.675284 0.821504
O O7 0.483758 0.820109 0.892677
O O8 0.250000 0.638059 0.239491
O O9 0.446763 0.500000 0.212957
O O10 0.512820 0.632333 0.287080
O O11 0.500000 0.646567 0.500000
O O12 0.250000 0.629402 0.445599
O O13 0.467416 0.500000 0.429445
O O14 0.495305 0.678847 0.393904
O O15 0.750000 0.690166 0.340089
O O16 0.750000 0.884620 0.051358
O O17 0.518189 0.000000 0.068497
O O18 0.500000 0.848460 0.000000
#
# Coordination Sequence:
#
# PCOD8208123 Si02
#       6
#     8   8   8   8   8   8
#     4   8  14  26  45  68  92 118 149 184 222 264
#     4   9  17  29  47  69  91 119 154 190 227 268
#     4  10  20  32  46  66  93 123 152 186 230 275
#     4  10  20  33  49  69  94 123 153 188 230 273
#     4  10  19  30  48  72  95 122 154 187 224 268
#     4   9  17  29  46  69  96 124 153 186 227 275
#
# _framework density 16.516580000000001
#
# number of rings (size 3 to 8) (size 9 to 14) (size 15 to 20)
#    0.000    2.667    0.000    3.500    0.000    7.000 
#    0.000    0.000    0.000   17.500    0.000    0.000 
#    0.000    0.000    0.000    0.000    0.000    0.000 
#
# Total GULP energy -595137.882588 kJ/mol
# GULP energy per Si atom -12398.705887 kJ/mol
# Density = 1.647899 g / cm^3
# Si number density = 16.516580 Si / 1000 Ang^3
#
#
#
# Elastic Constant Matrix: (Units=GPa)
#
#
# Indices 1 2 3 4 5 6 
#
# 1 51.6801 37.5750 43.7789 0.0000 0.0000 0.0000
# 2 37.5750 116.3910 73.8450 0.0000 0.0000 0.0000
# 3 43.7789 73.8450 149.1015 0.0000 0.0000 0.0000
# 4 0.0000 0.0000 0.0000 26.5381 0.0000 0.0000
# 5 0.0000 0.0000 0.0000 0.0000 30.5547 0.0000
# 6 0.0000 0.0000 0.0000 0.0000 0.0000 19.1634
#
#
#
# Elastic Compliance Matrix: (Units=1/GPa)
#
#
# Indices 1 2 3 4 5 6 
#
# 1 0.028042 -0.005583 -0.005468 0.000000 0.000000 0.000000
# 2 -0.005583 0.013640 -0.005116 0.000000 0.000000 0.000000
# 3 -0.005468 -0.005116 0.010846 0.000000 0.000000 0.000000
# 4 0.000000 0.000000 0.000000 0.037682 0.000000 0.000000
# 5 0.000000 0.000000 0.000000 0.000000 0.032728 0.000000
# 6 0.000000 0.000000 0.000000 0.000000 0.000000 0.052183
#
#
# Mechanical properties :
#
#
# Convention : Reuss Voigt Hill
#
# Bulk Modulus (GPa) = 49.52348 69.73003 59.62676
# Shear Modulus (GPa) = 23.34407 26.04949 24.69678
#
# Velocity S-wave (km/s) = 3.76356 3.97567 3.87107
# Velocity P-wave (km/s) = 6.99536 7.96144 7.49398
#
# Compressibility (1/GPa) = 0.02019244
#
# Stress axis : x y z
#
# Youngs Moduli (GPa) = 35.66138 73.31258 92.19761
#
# Poissons Ratio (x) = 0.40934 0.50416
# Poissons Ratio (y) = 0.19911 0.47170
# Poissons Ratio (z) = 0.19500 0.37508
#
# Static dielectric constant tensor:
#      x y z
#    x 3.028250 0.000000 0.000000 
#    y 0.000000 3.281460 0.000000 
#    z 0.000000 0.000000 3.098030 
# 
# 
# High freq. dielectric constant tensor:
#      x y z
#    x 1.629990 0.000000 0.000000 
#    y 0.000000 1.627450 0.000000 
#    z 0.000000 0.000000 1.628260 
# 
# From -- ./inp_files/31585.got.cif
#   From: 2010.03.12/outbox.cif.g09.slc.cpg/sg51_16_cif.got.tgz:31585.got - 2010.04.16 13:43:02.
