data_PCOD8208178
_publ_section_title
;
Structure prediction by ZEFSAII (Michael W. Deem and Ramdas Pophale) SiO2 
 PCOD8208178
Probable space group: P M M A
;
_chemical_formula_sum "Si O2"
_cell_formula_units_Z 64
_cell_length_a 26.072814
_cell_length_b 19.388386
_cell_length_c 6.666083
_cell_angle_alpha 90.000000
_cell_angle_beta 90.000000
_cell_angle_gamma 90.000000
_cell_volume 3369.770164
_symmetry_space_group_name_H-M "P M M A"
_symmetry_group_IT_number 51
_symmetry_cell_setting 'orthorhombic'
loop_
_space_group_symop_operation_xyz
x,y,z
1/2-x,-y,z
1/2+x,-y,-z
-x,y,-z
-x,-y,-z
1/2+x,y,-z
1/2-x,y,z
x,-y,z
loop_
_atom_site_type_symbol
_atom_site_label
_atom_site_fract_x
_atom_site_fract_y
_atom_site_fract_z
Si Si1 0.058871 0.802046 0.980658
Si Si2 0.143424 0.698079 0.919585
Si Si3 0.122379 0.862550 0.331447
Si Si4 0.694886 0.221194 0.394265
Si Si5 0.398988 0.921536 0.721457
Si Si6 0.189893 0.421977 0.674561
Si Si7 0.305257 0.655351 0.309918
Si Si8 0.193351 0.919597 0.992514
O O1 0.086793 0.732187 0.903095
O O2 0.063288 0.867423 0.829534
O O3 0.080313 0.823425 0.199613
O O4 0.000000 0.782104 0.000000
O O5 0.180905 0.758803 0.836426
O O6 0.150911 0.626744 0.800302
O O7 0.153495 0.682690 0.152795
O O8 0.147567 0.815259 0.500465
O O9 0.096064 0.919514 0.478168
O O10 0.166758 0.892117 0.192506
O O11 0.750000 0.181377 0.398573
O O12 0.701533 0.292550 0.507824
O O13 0.340492 0.902148 0.794879
O O14 0.412125 0.000000 0.791600
O O15 0.250000 0.406156 0.722649
O O16 0.176318 0.500000 0.735414
O O17 0.179009 0.413616 0.433602
O O18 0.250000 0.645170 0.199608
O O19 0.250000 0.886184 0.968510
O O20 0.198958 0.000000 0.020973
#
# Coordination Sequence:
#
# PCOD8208178 Si02
#       8
#     8   8   8   8   8   8   8   8
#     4  11  25  42  60  83 112 148 202 262 310 351
#     4  11  19  36  56  82 116 156 192 233 288 337
#     4  11  20  37  55  82 111 146 189 240 297 353
#     4  10  19  30  50  83 114 143 178 222 275 346
#     4  10  22  41  60  80 109 147 194 250 308 368
#     4   9  19  34  55  88 126 158 189 224 270 342
#     4   9  17  30  50  79 116 151 182 218 267 331
#     4   9  19  34  52  78 112 148 183 222 278 355
#
# _framework density 18.992394999999998
#
# number of rings (size 3 to 8) (size 9 to 14) (size 15 to 20)
#    0.000    2.000    2.500    2.625    0.000    2.750 
#    0.000    3.125    0.000    0.375    0.000    0.875 
#    0.000    0.000    0.000    0.000    0.000    0.000 
#
# Total GULP energy -792948.905358 kJ/mol
# GULP energy per Si atom -12389.826646 kJ/mol
# Density = 1.894917 g / cm^3
# Si number density = 18.992395 Si / 1000 Ang^3
#
#
#
# Elastic Constant Matrix: (Units=GPa)
#
#
# Indices 1 2 3 4 5 6 
#
# 1 107.5492 40.9794 36.1446 0.0000 0.0000 0.0000
# 2 40.9794 77.0046 36.5970 0.0000 0.0000 0.0000
# 3 36.1446 36.5970 111.0269 0.0000 0.0000 0.0000
# 4 0.0000 0.0000 0.0000 28.5234 0.0000 0.0000
# 5 0.0000 0.0000 0.0000 0.0000 14.2903 0.0000
# 6 0.0000 0.0000 0.0000 0.0000 0.0000 19.3307
#
#
#
# Elastic Compliance Matrix: (Units=1/GPa)
#
#
# Indices 1 2 3 4 5 6 
#
# 1 0.012081 -0.005407 -0.002151 0.000000 0.000000 0.000000
# 2 -0.005407 0.017818 -0.004113 0.000000 0.000000 0.000000
# 3 -0.002151 -0.004113 0.011063 0.000000 0.000000 0.000000
# 4 0.000000 0.000000 0.000000 0.035059 0.000000 0.000000
# 5 0.000000 0.000000 0.000000 0.000000 0.069978 0.000000
# 6 0.000000 0.000000 0.000000 0.000000 0.000000 0.051731
#
#
# Mechanical properties :
#
#
# Convention : Reuss Voigt Hill
#
# Bulk Modulus (GPa) = 56.75169 58.11362 57.43266
# Shear Modulus (GPa) = 22.03172 24.55285 23.29229
#
# Velocity S-wave (km/s) = 3.40961 3.59942 3.50580
# Velocity P-wave (km/s) = 6.74142 6.92381 6.83323
#
# Compressibility (1/GPa) = 0.01762062
#
# Stress axis : x y z
#
# Youngs Moduli (GPa) = 82.77385 56.12154 90.39337
#
# Poissons Ratio (x) = 0.30345 0.19441
# Poissons Ratio (y) = 0.44756 0.37180
# Poissons Ratio (z) = 0.17802 0.23083
#
# Static dielectric constant tensor:
#      x y z
#    x 3.242520 0.000000 0.000000 
#    y 0.000000 3.574180 0.000000 
#    z 0.000000 0.000000 3.560930 
# 
# 
# High freq. dielectric constant tensor:
#      x y z
#    x 1.694170 0.000000 0.000000 
#    y 0.000000 1.733750 0.000000 
#    z 0.000000 0.000000 1.749290 
# 
# From -- ./inp_files/3670.got.cif
#   From: 2010.03.12/outbox.cif.g09.slc.cpg/sg51_2_cif.got.tgz:3670.got - 2010.04.16 13:43:02.
