data_PCOD8208778
_publ_section_title
;
Structure prediction by ZEFSAII (Michael W. Deem and Ramdas Pophale) SiO2 
 PCOD8208778
Probable space group: P M M A
;
_chemical_formula_sum "Si O2"
_cell_formula_units_Z 56
_cell_length_a 14.010170
_cell_length_b 13.358808
_cell_length_c 16.979534
_cell_angle_alpha 90.000000
_cell_angle_beta 90.000000
_cell_angle_gamma 90.000000
_cell_volume 3177.875509
_symmetry_space_group_name_H-M "P M M A"
_symmetry_group_IT_number 51
_symmetry_cell_setting 'orthorhombic'
loop_
_space_group_symop_operation_xyz
x,y,z
1/2-x,-y,z
1/2+x,-y,-z
-x,y,-z
-x,-y,-z
1/2+x,y,-z
1/2-x,y,z
x,-y,z
loop_
_atom_site_type_symbol
_atom_site_label
_atom_site_fract_x
_atom_site_fract_y
_atom_site_fract_z
Si Si1 0.645430 0.881281 0.685848
Si Si2 0.639410 0.381573 0.966467
Si Si3 0.861498 0.803263 0.355604
Si Si4 0.960515 0.692577 0.119653
Si Si5 0.358905 0.388868 0.733626
Si Si6 0.471645 0.114739 0.787014
Si Si7 0.636585 0.111632 0.515993
O O1 0.750000 0.836756 0.705559
O O2 0.576012 0.851434 0.756558
O O3 0.606285 0.841035 0.600923
O O4 0.651670 0.000000 0.676811
O O5 0.750000 0.357553 0.946612
O O6 0.621958 0.500000 0.973563
O O7 0.570293 0.335737 0.899608
O O8 0.610755 0.329621 0.048185
O O9 0.750000 0.825363 0.358211
O O10 0.884997 0.687839 0.335952
O O11 0.900820 0.875090 0.286911
O O12 0.905779 0.826088 0.441977
O O13 0.929046 0.625708 0.193150
O O14 0.948198 0.810560 0.141014
O O15 0.250000 0.371382 0.762457
O O16 0.372993 0.500000 0.699473
O O17 0.468804 0.000000 0.817499
O O18 0.750000 0.110419 0.514867
O O19 0.595813 0.000000 0.505888
#
# Coordination Sequence:
#
# PCOD8208778 Si02
#       7
#     8   8   8   8   8   8   8
#     4   8  15  28  44  62  86 118 157 197 230 258
#     4  10  20  35  56  78  95 112 140 181 227 271
#     4   9  17  27  40  63  93 122 155 195 235 272
#     4  10  19  32  50  72  97 120 145 182 223 266
#     4   9  16  27  45  68  92 119 151 187 230 278
#     4  10  20  31  45  67  94 127 159 184 217 265
#     4   8  13  23  40  61  87 118 151 191 233 266
#
# _framework density 17.621835000000001
#
# number of rings (size 3 to 8) (size 9 to 14) (size 15 to 20)
#    0.000    2.857    0.000    3.429    0.000    3.714 
#    0.000    3.571    0.000    0.857    0.000   10.000 
#    0.000    9.143    0.000    0.000    0.000    0.000 
#
# Total GULP energy -693998.389066 kJ/mol
# GULP energy per Si atom -12392.828376 kJ/mol
# Density = 1.758173 g / cm^3
# Si number density = 17.621835 Si / 1000 Ang^3
#
#
#
# Elastic Constant Matrix: (Units=GPa)
#
#
# Indices 1 2 3 4 5 6 
#
# 1 36.7615 9.2010 -8.9359 0.0000 0.0000 0.0000
# 2 9.2010 93.1431 29.0266 0.0000 0.0000 0.0000
# 3 -8.9359 29.0266 42.6867 0.0000 0.0000 0.0000
# 4 0.0000 0.0000 0.0000 15.9770 0.0000 0.0000
# 5 0.0000 0.0000 0.0000 0.0000 -8.9069 0.0000
# 6 0.0000 0.0000 0.0000 0.0000 0.0000 15.7896
#
#
#
# Elastic Compliance Matrix: (Units=1/GPa)
#
#
# Indices 1 2 3 4 5 6 
#
# 1 0.031534 -0.006563 0.011064 0.000000 0.000000 0.000000
# 2 -0.006563 0.014989 -0.011566 0.000000 0.000000 0.000000
# 3 0.011064 -0.011566 0.033608 0.000000 0.000000 0.000000
# 4 0.000000 0.000000 0.000000 0.062590 0.000000 0.000000
# 5 0.000000 0.000000 0.000000 0.000000 -0.112272 0.000000
# 6 0.000000 0.000000 0.000000 0.000000 0.000000 0.063333
#
#
# Mechanical properties :
#
#
# Convention : Reuss Voigt Hill
#
# Bulk Modulus (GPa) = 15.15138 25.68611 20.41874
# Shear Modulus (GPa) = 38.48739 14.12522 26.30630
#
# Velocity S-wave (km/s) = 4.67848 2.83428 3.86790
# Velocity P-wave (km/s) = 6.14825 5.03178 5.61782
#
# Compressibility (1/GPa) = 0.06600060
#
# Stress axis : x y z
#
# Youngs Moduli (GPa) = 31.71136 66.71581 29.75518
#
# Poissons Ratio (x) = 0.43786 -0.32922
# Poissons Ratio (y) = 0.20812 0.34416
# Poissons Ratio (z) = -0.35086 0.77165
#
# Static dielectric constant tensor:
#      x y z
#    x 3.480420 0.000000 0.000000 
#    y 0.000000 3.138840 0.000000 
#    z 0.000000 0.000000 3.302950 
# 
# 
# High freq. dielectric constant tensor:
#      x y z
#    x 1.688880 0.000000 0.000000 
#    y 0.000000 1.655410 0.000000 
#    z 0.000000 0.000000 1.667320 
# 
# From -- ./inp_files/29902.got.cif
#   From: 2010.03.12/outbox.cif.g09.slc.cpg/sg51_15_cif.got.tgz:29902.got - 2010.04.16 13:43:02.
