data_PCOD8208966
_publ_section_title
;
Structure prediction by ZEFSAII (Michael W. Deem and Ramdas Pophale) SiO2 
 PCOD8208966
Probable space group: P M M A
;
_chemical_formula_sum "Si O2"
_cell_formula_units_Z 64
_cell_length_a 28.313782
_cell_length_b 9.528043
_cell_length_c 12.500638
_cell_angle_alpha 90.000000
_cell_angle_beta 90.000000
_cell_angle_gamma 90.000000
_cell_volume 3372.358771
_symmetry_space_group_name_H-M "P M M A"
_symmetry_group_IT_number 51
_symmetry_cell_setting 'orthorhombic'
loop_
_space_group_symop_operation_xyz
x,y,z
1/2-x,-y,z
1/2+x,-y,-z
-x,y,-z
-x,-y,-z
1/2+x,y,-z
1/2-x,y,z
x,-y,z
loop_
_atom_site_type_symbol
_atom_site_label
_atom_site_fract_x
_atom_site_fract_y
_atom_site_fract_z
Si Si1 0.350464 0.836856 0.773163
Si Si2 0.138607 0.335531 0.167914
Si Si3 0.935218 0.844018 0.526808
Si Si4 0.957443 0.334703 0.730441
Si Si5 0.672652 0.153779 0.460240
Si Si6 0.044362 0.837449 0.711055
Si Si7 0.802086 0.344475 0.641571
Si Si8 0.694932 0.665689 0.036984
O O1 0.321177 0.811354 0.664630
O O2 0.404680 0.788487 0.754210
O O3 0.324684 0.742448 0.859519
O O4 0.348961 0.000000 0.806944
O O5 0.149641 0.500000 0.170654
O O6 0.082720 0.304427 0.179275
O O7 0.164244 0.268140 0.271879
O O8 0.162298 0.275656 0.060264
O O9 0.941786 0.725589 0.615703
O O10 0.881918 0.842567 0.488617
O O11 0.964396 0.813149 0.417125
O O12 0.948303 0.000000 0.571534
O O13 0.966310 0.500000 0.717764
O O14 0.005041 0.257679 0.770347
O O15 0.701167 0.263645 0.530133
O O16 0.693568 0.000000 0.484043
O O17 0.036688 0.000000 0.739388
O O18 0.750000 0.351048 0.692278
O O19 0.821357 0.500000 0.615757
O O20 0.750000 0.703286 0.017001
O O21 0.688483 0.500000 0.053053
#
# Coordination Sequence:
#
# PCOD8208966 Si02
#       8
#     8   8   8   8   8   8   8   8
#     4   9  20  39  59  79 108 144 181 225 275 322
#     4   9  19  36  54  77 110 143 177 221 274 326
#     4   9  17  31  50  72 104 147 184 213 253 313
#     4  11  20  30  50  80 111 143 180 222 268 315
#     4   9  18  33  52  75 106 142 175 212 265 323
#     4   9  19  35  53  75 108 149 185 216 262 324
#     4  10  19  32  52  76 105 141 177 217 269 329
#     4  10  21  39  63  84 102 135 184 231 275 326
#
# _framework density 18.977815
#
# number of rings (size 3 to 8) (size 9 to 14) (size 15 to 20)
#    0.000    2.500    1.250    2.625    0.000    5.500 
#    0.000    7.500    0.000    5.250    0.000    0.000 
#    0.000    0.000    0.000    0.000    0.000    0.000 
#
# Total GULP energy -793291.995996 kJ/mol
# GULP energy per Si atom -12395.187437 kJ/mol
# Density = 1.893462 g / cm^3
# Si number density = 18.977815 Si / 1000 Ang^3
#
#
#
# Elastic Constant Matrix: (Units=GPa)
#
#
# Indices 1 2 3 4 5 6 
#
# 1 61.9286 34.1203 33.7727 0.0000 0.0000 0.0000
# 2 34.1203 69.6925 43.8721 0.0000 0.0000 0.0000
# 3 33.7727 43.8721 88.3144 0.0000 0.0000 0.0000
# 4 0.0000 0.0000 0.0000 -2.1577 0.0000 0.0000
# 5 0.0000 0.0000 0.0000 0.0000 26.1029 0.0000
# 6 0.0000 0.0000 0.0000 0.0000 0.0000 24.9729
#
#
#
# Elastic Compliance Matrix: (Units=1/GPa)
#
#
# Indices 1 2 3 4 5 6 
#
# 1 0.023401 -0.008473 -0.004740 0.000000 0.000000 0.000000
# 2 -0.008473 0.023946 -0.008655 0.000000 0.000000 0.000000
# 3 -0.004740 -0.008655 0.017435 0.000000 0.000000 0.000000
# 4 0.000000 0.000000 0.000000 -0.463461 0.000000 0.000000
# 5 0.000000 0.000000 0.000000 0.000000 0.038310 0.000000
# 6 0.000000 0.000000 0.000000 0.000000 0.000000 0.040043
#
#
# Mechanical properties :
#
#
# Convention : Reuss Voigt Hill
#
# Bulk Modulus (GPa) = 47.51527 49.27397 48.39462
# Shear Modulus (GPa) = -18.54772 16.99499 -0.77636
#
# Velocity S-wave (km/s) = -3.12963 2.99577 -0.64030
# Velocity P-wave (km/s) = 3.46874 6.16332 5.00093
#
# Compressibility (1/GPa) = 0.02104587
#
# Stress axis : x y z
#
# Youngs Moduli (GPa) = 42.73386 41.76144 57.35459
#
# Poissons Ratio (x) = 0.35384 0.27184
# Poissons Ratio (y) = 0.36208 0.49642
# Poissons Ratio (z) = 0.20254 0.36146
#
# Static dielectric constant tensor:
#      x y z
#    x 3.622210 0.000000 0.000000 
#    y 0.000000 3.384810 0.000000 
#    z 0.000000 0.000000 3.367050 
# 
# 
# High freq. dielectric constant tensor:
#      x y z
#    x 1.753630 0.000000 0.000000 
#    y 0.000000 1.718180 0.000000 
#    z 0.000000 0.000000 1.715210 
# 
# From -- ./inp_files/19463.got.cif
#   From: 2010.03.12/outbox.cif.g09.slc.cpg/sg51_10_cif.got.tgz:19463.got - 2010.04.16 13:43:02.
