data_PCOD8208243
_publ_section_title
;
Structure prediction by ZEFSAII (Michael W. Deem and Ramdas Pophale) SiO2 
 PCOD8208243
Probable space group: P M M A
;
_chemical_formula_sum "Si O2"
_cell_formula_units_Z 52
_cell_length_a 9.144093
_cell_length_b 27.069805
_cell_length_c 13.376518
_cell_angle_alpha 90.000000
_cell_angle_beta 90.000000
_cell_angle_gamma 90.000000
_cell_volume 3311.073641
_symmetry_space_group_name_H-M "P M M A"
_symmetry_group_IT_number 51
_symmetry_cell_setting 'orthorhombic'
loop_
_space_group_symop_operation_xyz
x,y,z
1/2-x,-y,z
1/2+x,-y,-z
-x,y,-z
-x,-y,-z
1/2+x,y,-z
1/2-x,y,z
x,-y,z
loop_
_atom_site_type_symbol
_atom_site_label
_atom_site_fract_x
_atom_site_fract_y
_atom_site_fract_z
Si Si1 0.919731 0.241013 0.198166
Si Si2 0.078968 0.152811 0.099220
Si Si3 0.079505 0.552178 0.895507
Si Si4 0.579939 0.000000 0.605162
Si Si5 0.920857 0.658449 0.104793
Si Si6 0.580450 0.896695 0.695675
Si Si7 0.579673 0.808757 0.402183
O O1 0.750000 0.231037 0.173025
O O2 0.966194 0.297810 0.180050
O O3 0.952754 0.229850 0.313778
O O4 0.015759 0.206482 0.126779
O O5 0.250000 0.158368 0.078155
O O6 0.046153 0.114020 0.188011
O O7 0.000000 0.132437 0.000000
O O8 0.250000 0.552437 0.918341
O O9 0.039378 0.500000 0.837348
O O10 0.038116 0.604879 0.843543
O O11 0.000000 0.551368 0.000000
O O12 0.500000 0.000000 0.500000
O O13 0.536146 0.047245 0.671628
O O14 0.750000 0.000000 0.580221
O O15 0.750000 0.661280 0.081720
O O16 0.000000 0.666036 0.000000
O O17 0.750000 0.885837 0.672259
O O18 0.483793 0.862325 0.624719
O O19 0.500000 0.787566 0.500000
O O20 0.750000 0.814799 0.424220
#
# Coordination Sequence:
#
# PCOD8208243 Si02
#       7
#     8   8   8   4   8   8   8
#     4   9  18  30  43  61  84 110 140 173 207 245
#     4  10  19  31  47  65  87 115 144 173 204 240
#     4   8  13  21  33  49  71 101 134 165 197 234
#     4  10  20  34  51  70  90 110 135 170 211 250
#     4   9  16  25  37  55  80 108 137 168 201 236
#     4   9  19  34  50  68  89 113 140 169 203 245
#     4  10  19  31  47  65  86 110 136 168 207 250
#
# _framework density 15.704874999999999
#
# number of rings (size 3 to 8) (size 9 to 14) (size 15 to 20)
#    0.000    2.769    0.000    1.846    0.000    4.923 
#    0.000    0.385    0.000    0.000    0.000    0.000 
#    0.000    0.615    0.000    0.462    0.000    1.231 
#
# Total GULP energy -644348.194667 kJ/mol
# GULP energy per Si atom -12391.311436 kJ/mol
# Density = 1.566913 g / cm^3
# Si number density = 15.704875 Si / 1000 Ang^3
#
#
#
# Elastic Constant Matrix: (Units=GPa)
#
#
# Indices 1 2 3 4 5 6 
#
# 1 52.1980 36.8599 38.4597 0.0000 0.0000 0.0000
# 2 36.8599 157.6709 57.3741 0.0000 0.0000 0.0000
# 3 38.4597 57.3741 89.2542 0.0000 0.0000 0.0000
# 4 0.0000 0.0000 0.0000 6.4428 0.0000 0.0000
# 5 0.0000 0.0000 0.0000 0.0000 25.2395 0.0000
# 6 0.0000 0.0000 0.0000 0.0000 0.0000 16.5539
#
#
#
# Elastic Compliance Matrix: (Units=1/GPa)
#
#
# Indices 1 2 3 4 5 6 
#
# 1 0.029065 -0.002920 -0.010647 0.000000 0.000000 0.000000
# 2 -0.002920 0.008572 -0.004252 0.000000 0.000000 0.000000
# 3 -0.010647 -0.004252 0.018525 0.000000 0.000000 0.000000
# 4 0.000000 0.000000 0.000000 0.155211 0.000000 0.000000
# 5 0.000000 0.000000 0.000000 0.000000 0.039620 0.000000
# 6 0.000000 0.000000 0.000000 0.000000 0.000000 0.060409
#
#
# Mechanical properties :
#
#
# Convention : Reuss Voigt Hill
#
# Bulk Modulus (GPa) = 48.72451 62.72339 55.72395
# Shear Modulus (GPa) = 14.12903 20.74254 17.43579
#
# Velocity S-wave (km/s) = 3.00269 3.63818 3.33560
# Velocity P-wave (km/s) = 6.56612 7.59434 7.09887
#
# Compressibility (1/GPa) = 0.02052355
#
# Stress axis : x y z
#
# Youngs Moduli (GPa) = 34.40608 116.65482 53.98155
#
# Poissons Ratio (x) = 0.34069 0.57472
# Poissons Ratio (y) = 0.10048 0.22953
# Poissons Ratio (z) = 0.36631 0.49601
#
# Static dielectric constant tensor:
#      x y z
#    x 2.955110 0.000000 0.000000 
#    y 0.000000 3.481200 0.000000 
#    z 0.000000 0.000000 2.841890 
# 
# 
# High freq. dielectric constant tensor:
#      x y z
#    x 1.610230 0.000000 0.000000 
#    y 0.000000 1.607230 0.000000 
#    z 0.000000 0.000000 1.570330 
# 
# From -- ./inp_files/14728.got.cif
#   From: 2010.03.12/outbox.cif.g09.slc.cpg/sg51_8_cif.got.tgz:14728.got - 2010.04.16 13:43:02.
