data_PCOD8208397
_publ_section_title
;
Structure prediction by ZEFSAII (Michael W. Deem and Ramdas Pophale) SiO2 
 PCOD8208397
Probable space group: P M M A
;
_chemical_formula_sum "Si O2"
_cell_formula_units_Z 64
_cell_length_a 18.588573
_cell_length_b 13.945987
_cell_length_c 15.156458
_cell_angle_alpha 90.000000
_cell_angle_beta 90.000000
_cell_angle_gamma 90.000000
_cell_volume 3929.099507
_symmetry_space_group_name_H-M "P M M A"
_symmetry_group_IT_number 51
_symmetry_cell_setting 'orthorhombic'
loop_
_space_group_symop_operation_xyz
x,y,z
1/2-x,-y,z
1/2+x,-y,-z
-x,y,-z
-x,-y,-z
1/2+x,y,-z
1/2-x,y,z
x,-y,z
loop_
_atom_site_type_symbol
_atom_site_label
_atom_site_fract_x
_atom_site_fract_y
_atom_site_fract_z
Si Si1 0.333495 0.111805 0.450694
Si Si2 0.835198 0.603429 0.293690
Si Si3 0.166690 0.391097 0.907365
Si Si4 0.330838 0.113729 0.105902
Si Si5 0.835234 0.801369 0.365325
Si Si6 0.920771 0.217349 0.037581
Si Si7 0.589458 0.886807 0.722589
Si Si8 0.067937 0.111563 0.778300
O O1 0.250000 0.131058 0.430802
O O2 0.360012 0.166413 0.537996
O O3 0.379064 0.154385 0.369055
O O4 0.348475 0.000000 0.466143
O O5 0.750000 0.599706 0.295984
O O6 0.865229 0.500000 0.328305
O O7 0.859781 0.619119 0.193277
O O8 0.862939 0.691798 0.352854
O O9 0.250000 0.361057 0.916593
O O10 0.155359 0.500000 0.940748
O O11 0.118122 0.320471 0.965608
O O12 0.250000 0.153991 0.097767
O O13 0.365982 0.156253 0.195171
O O14 0.331046 0.000000 0.109031
O O15 0.377128 0.144003 0.022378
O O16 0.750000 0.810815 0.354008
O O17 0.868751 0.869816 0.291117
O O18 0.920603 0.174585 0.135280
O O19 0.000000 0.230698 0.000000
O O20 0.506482 0.857709 0.731820
O O21 0.600185 0.000000 0.721173
O O22 0.066800 0.000000 0.805317
#
# Coordination Sequence:
#
# PCOD8208397 Si02
#       8
#     8   8   8   8   8   8   8   8
#     4   9  17  30  49  72  98 126 159 204 248 287
#     4   8  14  27  48  70  92 119 151 190 236 289
#     4   9  18  34  54  74  97 126 163 206 248 295
#     4  10  20  33  50  71  96 133 179 216 243 284
#     4  10  19  31  48  74 102 126 157 198 250 307
#     4  12  22  33  50  73 103 133 165 206 254 302
#     4   9  18  33  49  66  92 131 175 210 241 279
#     4  11  22  33  47  68 101 139 167 198 247 298
#
# _framework density 16.288719
#
# number of rings (size 3 to 8) (size 9 to 14) (size 15 to 20)
#    0.000    2.250    2.500    2.250    0.000    4.000 
#    0.000    1.875    0.000    0.000    0.000    3.500 
#    0.000    4.000    0.000    0.000    0.000    0.000 
#
# Total GULP energy -793493.875469 kJ/mol
# GULP energy per Si atom -12398.341804 kJ/mol
# Density = 1.625164 g / cm^3
# Si number density = 16.288719 Si / 1000 Ang^3
#
#
#
# Elastic Constant Matrix: (Units=GPa)
#
#
# Indices 1 2 3 4 5 6 
#
# 1 80.2837 29.5059 47.0617 0.0000 0.0000 0.0000
# 2 29.5059 56.8981 26.9801 0.0000 0.0000 0.0000
# 3 47.0617 26.9801 103.7928 0.0000 0.0000 0.0000
# 4 0.0000 0.0000 0.0000 13.3294 0.0000 0.0000
# 5 0.0000 0.0000 0.0000 0.0000 29.0015 0.0000
# 6 0.0000 0.0000 0.0000 0.0000 0.0000 16.7937
#
#
#
# Elastic Compliance Matrix: (Units=1/GPa)
#
#
# Indices 1 2 3 4 5 6 
#
# 1 0.018881 -0.006537 -0.006861 0.000000 0.000000 0.000000
# 2 -0.006537 0.022310 -0.002835 0.000000 0.000000 0.000000
# 3 -0.006861 -0.002835 0.013483 0.000000 0.000000 0.000000
# 4 0.000000 0.000000 0.000000 0.075022 0.000000 0.000000
# 5 0.000000 0.000000 0.000000 0.000000 0.034481 0.000000
# 6 0.000000 0.000000 0.000000 0.000000 0.000000 0.059546
#
#
# Mechanical properties :
#
#
# Convention : Reuss Voigt Hill
#
# Bulk Modulus (GPa) = 45.03468 49.78557 47.41012
# Shear Modulus (GPa) = 18.96873 20.98671 19.97772
#
# Velocity S-wave (km/s) = 3.41623 3.59335 3.50591
# Velocity P-wave (km/s) = 6.57789 6.91715 6.74965
#
# Compressibility (1/GPa) = 0.02220511
#
# Stress axis : x y z
#
# Youngs Moduli (GPa) = 52.96439 44.82346 74.16930
#
# Poissons Ratio (x) = 0.29303 0.50891
# Poissons Ratio (y) = 0.34625 0.21027
# Poissons Ratio (z) = 0.36341 0.12708
#
# Static dielectric constant tensor:
#      x y z
#    x 3.047720 0.000000 0.000000 
#    y 0.000000 3.185500 0.000000 
#    z 0.000000 0.000000 3.127330 
# 
# 
# High freq. dielectric constant tensor:
#      x y z
#    x 1.620040 0.000000 0.000000 
#    y 0.000000 1.606210 0.000000 
#    z 0.000000 0.000000 1.623420 
# 
# From -- ./inp_files/25226.got.cif
#   From: 2010.03.12/outbox.cif.g09.slc.cpg/sg51_13_cif.got.tgz:25226.got - 2010.04.16 13:43:02.
