data_PCOD8208926
_publ_section_title
;
Structure prediction by ZEFSAII (Michael W. Deem and Ramdas Pophale) SiO2 
 PCOD8208926
Probable space group: P M M A
;
_chemical_formula_sum "Si O2"
_cell_formula_units_Z 48
_cell_length_a 16.333263
_cell_length_b 9.037402
_cell_length_c 18.303021
_cell_angle_alpha 90.000000
_cell_angle_beta 90.000000
_cell_angle_gamma 90.000000
_cell_volume 2701.713756
_symmetry_space_group_name_H-M "P M M A"
_symmetry_group_IT_number 51
_symmetry_cell_setting 'orthorhombic'
loop_
_space_group_symop_operation_xyz
x,y,z
1/2-x,-y,z
1/2+x,-y,-z
-x,y,-z
-x,-y,-z
1/2+x,y,-z
1/2-x,y,z
x,-y,z
loop_
_atom_site_type_symbol
_atom_site_label
_atom_site_fract_x
_atom_site_fract_y
_atom_site_fract_z
Si Si1 0.419016 0.333843 0.452021
Si Si2 0.994286 0.825462 0.328562
Si Si3 0.982517 0.324525 0.825699
Si Si4 0.341333 0.830640 0.576133
Si Si5 0.655801 0.170107 0.915763
Si Si6 0.084884 0.662412 0.958169
O O1 0.500000 0.332956 0.500000
O O2 0.393984 0.500000 0.429238
O O3 0.432984 0.236787 0.379512
O O4 0.348073 0.263057 0.501584
O O5 0.906013 0.781057 0.362227
O O6 0.000244 0.749148 0.251050
O O7 0.005420 0.000000 0.320104
O O8 0.973065 0.500000 0.817599
O O9 0.898095 0.263659 0.859372
O O10 0.061113 0.283716 0.876517
O O11 0.250000 0.808420 0.608059
O O12 0.358763 0.000000 0.554663
O O13 0.750000 0.190477 0.893327
O O14 0.628559 0.000000 0.911613
O O15 0.644016 0.224193 0.999732
O O16 0.126967 0.500000 0.955976
O O17 0.000000 0.649335 0.000000
#
# Coordination Sequence:
#
# PCOD8208926 Si02
#       6
#     8   8   8   8   8   8
#     4   9  17  30  49  72  97 126 162 201 239 286
#     4  10  19  32  52  75 101 134 167 202 247 296
#     4  10  20  34  52  74 101 133 168 205 246 295
#     4   9  18  33  52  74 100 130 165 205 249 296
#     4  10  20  33  51  76 102 128 163 207 251 295
#     4   8  16  31  50  71  95 126 163 199 238 288
#
# _framework density 17.766501000000002
#
# number of rings (size 3 to 8) (size 9 to 14) (size 15 to 20)
#    0.000    2.667    0.000    3.000    0.000    8.000 
#    0.000    1.667    0.000    8.000    0.000    0.000 
#    0.000    0.000    0.000    0.000    0.000    0.000 
#
# Total GULP energy -595042.632030 kJ/mol
# GULP energy per Si atom -12396.721501 kJ/mol
# Density = 1.772606 g / cm^3
# Si number density = 17.766501 Si / 1000 Ang^3
#
#
#
# Elastic Constant Matrix: (Units=GPa)
#
#
# Indices 1 2 3 4 5 6 
#
# 1 66.1468 42.0695 41.9330 0.0000 0.0000 0.0000
# 2 42.0695 115.0746 68.8555 0.0000 0.0000 0.0000
# 3 41.9330 68.8555 142.5449 0.0000 0.0000 0.0000
# 4 0.0000 0.0000 0.0000 35.3392 0.0000 0.0000
# 5 0.0000 0.0000 0.0000 0.0000 18.6985 0.0000
# 6 0.0000 0.0000 0.0000 0.0000 0.0000 19.7994
#
#
#
# Elastic Compliance Matrix: (Units=1/GPa)
#
#
# Indices 1 2 3 4 5 6 
#
# 1 0.020836 -0.005555 -0.003446 0.000000 0.000000 0.000000
# 2 -0.005555 0.013704 -0.004985 0.000000 0.000000 0.000000
# 3 -0.003446 -0.004985 0.010437 0.000000 0.000000 0.000000
# 4 0.000000 0.000000 0.000000 0.028297 0.000000 0.000000
# 5 0.000000 0.000000 0.000000 0.000000 0.053480 0.000000
# 6 0.000000 0.000000 0.000000 0.000000 0.000000 0.050507
#
#
# Mechanical properties :
#
#
# Convention : Reuss Voigt Hill
#
# Bulk Modulus (GPa) = 58.81101 69.94248 64.37675
# Shear Modulus (GPa) = 23.70772 26.16130 24.93451
#
# Velocity S-wave (km/s) = 3.65692 3.84149 3.75034
# Velocity P-wave (km/s) = 7.14176 7.68955 7.42071
#
# Compressibility (1/GPa) = 0.01700362
#
# Stress axis : x y z
#
# Youngs Moduli (GPa) = 47.99497 72.97138 95.81138
#
# Poissons Ratio (x) = 0.40538 0.33015
# Poissons Ratio (y) = 0.26663 0.47766
# Poissons Ratio (z) = 0.16538 0.36379
#
# Static dielectric constant tensor:
#      x y z
#    x 3.107710 0.000000 0.000000 
#    y 0.000000 3.465470 0.000000 
#    z 0.000000 0.000000 3.424860 
# 
# 
# High freq. dielectric constant tensor:
#      x y z
#    x 1.662450 0.000000 0.000000 
#    y 0.000000 1.699660 0.000000 
#    z 0.000000 0.000000 1.679420 
# 
# From -- ./inp_files/30028.got.cif
#   From: 2010.03.12/outbox.cif.g09.slc.cpg/sg51_16_cif.got.tgz:30028.got - 2010.04.16 13:43:02.
