data_PCOD8208574
_publ_section_title
;
Structure prediction by ZEFSAII (Michael W. Deem and Ramdas Pophale) SiO2 
 PCOD8208574
Probable space group: P M M A
;
_chemical_formula_sum "Si O2"
_cell_formula_units_Z 56
_cell_length_a 9.083855
_cell_length_b 20.452867
_cell_length_c 15.555741
_cell_angle_alpha 90.000000
_cell_angle_beta 90.000000
_cell_angle_gamma 90.000000
_cell_volume 2890.114781
_symmetry_space_group_name_H-M "P M M A"
_symmetry_group_IT_number 51
_symmetry_cell_setting 'orthorhombic'
loop_
_space_group_symop_operation_xyz
x,y,z
1/2-x,-y,z
1/2+x,-y,-z
-x,y,-z
-x,-y,-z
1/2+x,y,-z
1/2-x,y,z
x,-y,z
loop_
_atom_site_type_symbol
_atom_site_label
_atom_site_fract_x
_atom_site_fract_y
_atom_site_fract_z
Si Si1 0.418636 0.929153 0.245650
Si Si2 0.918150 0.248104 0.366157
Si Si3 0.424578 0.426985 0.234227
Si Si4 0.924638 0.373945 0.583678
Si Si5 0.419583 0.789720 0.197628
Si Si6 0.917186 0.102695 0.416693
Si Si7 0.420821 0.670683 0.087971
O O1 0.250000 0.923882 0.275026
O O2 0.454489 0.867346 0.182690
O O3 0.514626 0.927027 0.330946
O O4 0.448071 0.000000 0.199816
O O5 0.750000 0.273618 0.363511
O O6 0.929817 0.180767 0.417342
O O7 0.023118 0.298946 0.414189
O O8 0.973854 0.238615 0.269423
O O9 0.250000 0.422678 0.235980
O O10 0.478753 0.500000 0.210719
O O11 0.481945 0.409024 0.329557
O O12 0.485334 0.376184 0.163238
O O13 0.750000 0.377632 0.573701
O O14 0.000000 0.407614 0.500000
O O15 0.250000 0.779604 0.227166
O O16 0.448746 0.747055 0.112034
O O17 0.750000 0.078891 0.420975
O O18 0.000000 0.074650 0.500000
O O19 0.250000 0.656102 0.074329
O O20 0.500000 0.653313 0.000000
#
# Coordination Sequence:
#
# PCOD8208574 Si02
#       7
#     8   8   8   8   8   8   8
#     4   9  18  32  51  73  97 131 174 218 264 317
#     4  10  19  31  50  76 104 137 180 227 274 319
#     4   9  19  37  58  79 110 150 185 219 269 326
#     4  11  21  34  53  78 108 146 188 229 273 319
#     4   9  17  33  55  78 106 139 175 216 268 323
#     4  10  20  31  44  66  97 135 176 222 270 317
#     4  10  20  36  59  87 112 142 178 220 271 324
#
# _framework density 19.376391999999999
#
# number of rings (size 3 to 8) (size 9 to 14) (size 15 to 20)
#    0.000    2.286    1.429    1.714    0.000    4.571 
#    0.000    0.000    0.000    3.429    0.000    0.000 
#    0.000    0.000    0.000    0.000    0.000    0.000 
#
# Total GULP energy -694116.908869 kJ/mol
# GULP energy per Si atom -12394.944801 kJ/mol
# Density = 1.933229 g / cm^3
# Si number density = 19.376392 Si / 1000 Ang^3
#
#
#
# Elastic Constant Matrix: (Units=GPa)
#
#
# Indices 1 2 3 4 5 6 
#
# 1 64.1967 23.4448 34.3512 0.0000 0.0000 0.0000
# 2 23.4448 128.4334 56.4017 0.0000 0.0000 0.0000
# 3 34.3512 56.4017 119.4021 0.0000 0.0000 0.0000
# 4 0.0000 0.0000 0.0000 9.7850 0.0000 0.0000
# 5 0.0000 0.0000 0.0000 0.0000 28.7365 0.0000
# 6 0.0000 0.0000 0.0000 0.0000 0.0000 13.1867
#
#
#
# Elastic Compliance Matrix: (Units=1/GPa)
#
#
# Indices 1 2 3 4 5 6 
#
# 1 0.018587 -0.001318 -0.004725 0.000000 0.000000 0.000000
# 2 -0.001318 0.009918 -0.004306 0.000000 0.000000 0.000000
# 3 -0.004725 -0.004306 0.011768 0.000000 0.000000 0.000000
# 4 0.000000 0.000000 0.000000 0.102198 0.000000 0.000000
# 5 0.000000 0.000000 0.000000 0.000000 0.034799 0.000000
# 6 0.000000 0.000000 0.000000 0.000000 0.000000 0.075834
#
#
# Mechanical properties :
#
#
# Convention : Reuss Voigt Hill
#
# Bulk Modulus (GPa) = 51.08349 60.04752 55.56551
# Shear Modulus (GPa) = 17.83648 23.53061 20.68355
#
# Velocity S-wave (km/s) = 3.03731 3.48860 3.27075
# Velocity P-wave (km/s) = 6.22265 6.87637 6.55766
#
# Compressibility (1/GPa) = 0.01957579
#
# Stress axis : x y z
#
# Youngs Moduli (GPa) = 53.80227 100.83174 84.97553
#
# Poissons Ratio (x) = 0.13290 0.40148
# Poissons Ratio (y) = 0.07091 0.36586
# Poissons Ratio (z) = 0.25420 0.43413
#
# Static dielectric constant tensor:
#      x y z
#    x 3.431840 0.000000 0.000000 
#    y 0.000000 3.822330 0.000000 
#    z 0.000000 0.000000 3.295070 
# 
# 
# High freq. dielectric constant tensor:
#      x y z
#    x 1.740330 0.000000 0.000000 
#    y 0.000000 1.761570 0.000000 
#    z 0.000000 0.000000 1.723550 
# 
# From -- ./inp_files/21739.got.cif
#   From: 2010.03.12/outbox.cif.g09.slc.cpg/sg51_11_cif.got.tgz:21739.got - 2010.04.16 13:43:02.
