data_PCOD8208148
_publ_section_title
;
Structure prediction by ZEFSAII (Michael W. Deem and Ramdas Pophale) SiO2 
 PCOD8208148
Probable space group: P M M A
;
_chemical_formula_sum "Si O2"
_cell_formula_units_Z 48
_cell_length_a 9.245003
_cell_length_b 15.238196
_cell_length_c 19.588754
_cell_angle_alpha 90.000000
_cell_angle_beta 90.000000
_cell_angle_gamma 90.000000
_cell_volume 2759.608183
_symmetry_space_group_name_H-M "P M M A"
_symmetry_group_IT_number 51
_symmetry_cell_setting 'orthorhombic'
loop_
_space_group_symop_operation_xyz
x,y,z
1/2-x,-y,z
1/2+x,-y,-z
-x,y,-z
-x,-y,-z
1/2+x,y,-z
1/2-x,y,z
x,-y,z
loop_
_atom_site_type_symbol
_atom_site_label
_atom_site_fract_x
_atom_site_fract_y
_atom_site_fract_z
Si Si1 0.417833 0.760899 0.323489
Si Si2 0.912374 0.404620 0.325650
Si Si3 0.418671 0.897663 0.930715
Si Si4 0.920577 0.233541 0.834646
Si Si5 0.580514 0.099847 0.567215
Si Si6 0.913040 0.402907 0.163485
O O1 0.250000 0.744332 0.331429
O O2 0.490876 0.673777 0.354671
O O3 0.458789 0.777583 0.244999
O O4 0.469902 0.843951 0.367537
O O5 0.750000 0.390029 0.352042
O O6 0.969761 0.500000 0.351163
O O7 0.916648 0.403498 0.244461
O O8 0.250000 0.872331 0.937069
O O9 0.494267 0.844993 0.870169
O O10 0.438102 0.000000 0.914147
O O11 0.500000 0.871847 0.000000
O O12 0.750000 0.226832 0.849159
O O13 0.977973 0.327489 0.863242
O O14 0.500000 0.134871 0.500000
O O15 0.750000 0.108916 0.553838
O O16 0.535574 0.000000 0.583134
O O17 0.750000 0.382107 0.137989
O O18 0.961007 0.500000 0.136664
#
# Coordination Sequence:
#
# PCOD8208148 Si02
#       6
#     8   8   8   8   8   8
#     4   9  18  30  46  71  99 126 156 193 237 280
#     4   8  14  25  42  65  93 124 156 191 232 276
#     4  10  21  37  55  73  95 126 163 200 238 284
#     4  10  19  30  48  75 103 129 158 195 239 285
#     4   9  18  33  50  67  90 122 159 196 236 284
#     4   8  14  26  44  66  95 130 163 195 233 277
#
# _framework density 17.393772999999999
#
# number of rings (size 3 to 8) (size 9 to 14) (size 15 to 20)
#    0.000    3.000    0.000    2.000    0.000    3.667 
#    0.000    5.000    0.000    3.000    0.000    0.000 
#    0.000    0.000    0.000    0.000    0.000    0.000 
#
# Total GULP energy -594982.164988 kJ/mol
# GULP energy per Si atom -12395.461771 kJ/mol
# Density = 1.735418 g / cm^3
# Si number density = 17.393773 Si / 1000 Ang^3
#
#
#
# Elastic Constant Matrix: (Units=GPa)
#
#
# Indices 1 2 3 4 5 6 
#
# 1 86.2876 65.5983 45.5179 0.0000 0.0000 0.0000
# 2 65.5983 124.9987 59.7467 0.0000 0.0000 0.0000
# 3 45.5179 59.7467 61.9566 0.0000 0.0000 0.0000
# 4 0.0000 0.0000 0.0000 4.6893 0.0000 0.0000
# 5 0.0000 0.0000 0.0000 0.0000 23.5197 0.0000
# 6 0.0000 0.0000 0.0000 0.0000 0.0000 35.0072
#
#
#
# Elastic Compliance Matrix: (Units=1/GPa)
#
#
# Indices 1 2 3 4 5 6 
#
# 1 0.021807 -0.007024 -0.009248 0.000000 0.000000 0.000000
# 2 -0.007024 0.017103 -0.011332 0.000000 0.000000 0.000000
# 3 -0.009248 -0.011332 0.033863 0.000000 0.000000 0.000000
# 4 0.000000 0.000000 0.000000 0.213252 0.000000 0.000000
# 5 0.000000 0.000000 0.000000 0.000000 0.042518 0.000000
# 6 0.000000 0.000000 0.000000 0.000000 0.000000 0.028566
#
#
# Mechanical properties :
#
#
# Convention : Reuss Voigt Hill
#
# Bulk Modulus (GPa) = 56.93352 68.32984 62.63168
# Shear Modulus (GPa) = 11.95682 19.46858 15.71270
#
# Velocity S-wave (km/s) = 2.62471 3.34920 3.00884
# Velocity P-wave (km/s) = 6.47987 7.37059 6.93953
#
# Compressibility (1/GPa) = 0.01756435
#
# Stress axis : x y z
#
# Youngs Moduli (GPa) = 45.85595 58.46939 29.53103
#
# Poissons Ratio (x) = 0.41070 0.27310
# Poissons Ratio (y) = 0.32210 0.33466
# Poissons Ratio (z) = 0.42406 0.66260
#
# Static dielectric constant tensor:
#      x y z
#    x 3.314870 0.000000 0.000000 
#    y 0.000000 3.628930 0.000000 
#    z 0.000000 0.000000 2.981600 
# 
# 
# High freq. dielectric constant tensor:
#      x y z
#    x 1.673940 0.000000 0.000000 
#    y 0.000000 1.684220 0.000000 
#    z 0.000000 0.000000 1.629770 
# 
# From -- ./inp_files/31605.got.cif
#   From: 2010.03.12/outbox.cif.g09.slc.cpg/sg51_16_cif.got.tgz:31605.got - 2010.04.16 13:43:02.
