data_PCOD8208796
_publ_section_title
;
Structure prediction by ZEFSAII (Michael W. Deem and Ramdas Pophale) SiO2 
 PCOD8208796
Probable space group: P M M A
;
_chemical_formula_sum "Si O2"
_cell_formula_units_Z 52
_cell_length_a 9.129280
_cell_length_b 22.977077
_cell_length_c 14.090205
_cell_angle_alpha 90.000000
_cell_angle_beta 90.000000
_cell_angle_gamma 90.000000
_cell_volume 2955.620150
_symmetry_space_group_name_H-M "P M M A"
_symmetry_group_IT_number 51
_symmetry_cell_setting 'orthorhombic'
loop_
_space_group_symop_operation_xyz
x,y,z
1/2-x,-y,z
1/2+x,-y,-z
-x,y,-z
-x,-y,-z
1/2+x,y,-z
1/2-x,y,z
x,-y,z
loop_
_atom_site_type_symbol
_atom_site_label
_atom_site_fract_x
_atom_site_fract_y
_atom_site_fract_z
Si Si1 0.421457 0.000000 0.100312
Si Si2 0.578968 0.330329 0.773406
Si Si3 0.578074 0.148654 0.403309
Si Si4 0.921300 0.283509 0.404050
Si Si5 0.579191 0.777726 0.900944
Si Si6 0.922163 0.888184 0.778790
Si Si7 0.579481 0.565714 0.905131
O O1 0.468932 0.056263 0.159894
O O2 0.250000 0.000000 0.079710
O O3 0.500000 0.000000 0.000000
O O4 0.750000 0.324899 0.747216
O O5 0.484010 0.323424 0.679305
O O6 0.533660 0.281625 0.849427
O O7 0.538299 0.392934 0.817331
O O8 0.500000 0.129007 0.500000
O O9 0.750000 0.136728 0.412577
O O10 0.543739 0.216215 0.381911
O O11 0.511045 0.109938 0.319304
O O12 0.750000 0.294885 0.415193
O O13 0.000000 0.303416 0.500000
O O14 0.750000 0.780568 0.921815
O O15 0.528913 0.831265 0.836088
O O16 0.500000 0.782047 0.000000
O O17 0.750000 0.887810 0.755372
O O18 0.750000 0.569928 0.927576
O O19 0.531801 0.500000 0.878316
O O20 0.500000 0.587442 0.000000
#
# Coordination Sequence:
#
# PCOD8208796 Si02
#       7
#     4   8   8   8   8   8   8
#     4  10  22  38  57  78 103 140 179 216 256 302
#     4  10  19  32  50  74 104 136 170 210 258 305
#     4  10  20  34  55  81 106 135 168 209 259 312
#     4  10  20  33  52  78 106 135 168 208 257 312
#     4  10  20  31  47  71 101 133 165 208 256 300
#     4  10  20  36  54  75 104 137 173 213 256 304
#     4   9  18  32  50  73 103 140 178 214 253 300
#
# _framework density 17.593599000000001
#
# number of rings (size 3 to 8) (size 9 to 14) (size 15 to 20)
#    0.000    2.154    1.538    1.846    0.000    3.692 
#    0.000    0.385    0.000    0.462    0.000    0.000 
#    0.000    0.000    0.000    0.000    0.000    0.000 
#
# Total GULP energy -645010.666705 kJ/mol
# GULP energy per Si atom -12404.051283 kJ/mol
# Density = 1.755356 g / cm^3
# Si number density = 17.593599 Si / 1000 Ang^3
#
#
#
# Elastic Constant Matrix: (Units=GPa)
#
#
# Indices 1 2 3 4 5 6 
#
# 1 70.8799 38.9349 73.3319 0.0000 0.0000 0.0000
# 2 38.9349 90.6292 60.5015 0.0000 0.0000 0.0000
# 3 73.3319 60.5015 160.6949 0.0000 0.0000 0.0000
# 4 0.0000 0.0000 0.0000 25.3718 0.0000 0.0000
# 5 0.0000 0.0000 0.0000 0.0000 41.7905 0.0000
# 6 0.0000 0.0000 0.0000 0.0000 0.0000 13.6505
#
#
#
# Elastic Compliance Matrix: (Units=1/GPa)
#
#
# Indices 1 2 3 4 5 6 
#
# 1 0.028149 -0.004699 -0.011077 0.000000 0.000000 0.000000
# 2 -0.004699 0.015523 -0.003700 0.000000 0.000000 0.000000
# 3 -0.011077 -0.003700 0.012671 0.000000 0.000000 0.000000
# 4 0.000000 0.000000 0.000000 0.039414 0.000000 0.000000
# 5 0.000000 0.000000 0.000000 0.000000 0.023929 0.000000
# 6 0.000000 0.000000 0.000000 0.000000 0.000000 0.073257
#
#
# Mechanical properties :
#
#
# Convention : Reuss Voigt Hill
#
# Bulk Modulus (GPa) = 57.49799 74.19339 65.84569
# Shear Modulus (GPa) = 21.03575 26.12496 23.58036
#
# Velocity S-wave (km/s) = 3.46157 3.85764 3.66496
# Velocity P-wave (km/s) = 6.98060 7.88061 7.44422
#
# Compressibility (1/GPa) = 0.01739191
#
# Stress axis : x y z
#
# Youngs Moduli (GPa) = 35.52504 64.42230 78.92168
#
# Poissons Ratio (x) = 0.30269 0.87419
# Poissons Ratio (y) = 0.16692 0.29202
# Poissons Ratio (z) = 0.39350 0.23837
#
# Static dielectric constant tensor:
#      x y z
#    x 3.163310 0.000000 0.000000 
#    y 0.000000 3.303380 0.000000 
#    z 0.000000 0.000000 3.223840 
# 
# 
# High freq. dielectric constant tensor:
#      x y z
#    x 1.680250 0.000000 0.000000 
#    y 0.000000 1.666930 0.000000 
#    z 0.000000 0.000000 1.684980 
# 
# From -- ./inp_files/21594.got.cif
#   From: 2010.03.12/outbox.cif.g09.slc.cpg/sg51_11_cif.got.tgz:21594.got - 2010.04.16 13:43:02.
