data_PCOD8208651
_publ_section_title
;
Structure prediction by ZEFSAII (Michael W. Deem and Ramdas Pophale) SiO2 
 PCOD8208651
Probable space group: P M M A
;
_chemical_formula_sum "Si O2"
_cell_formula_units_Z 64
_cell_length_a 8.808611
_cell_length_b 14.964922
_cell_length_c 25.045651
_cell_angle_alpha 90.000000
_cell_angle_beta 90.000000
_cell_angle_gamma 90.000000
_cell_volume 3301.522136
_symmetry_space_group_name_H-M "P M M A"
_symmetry_group_IT_number 51
_symmetry_cell_setting 'orthorhombic'
loop_
_space_group_symop_operation_xyz
x,y,z
1/2-x,-y,z
1/2+x,-y,-z
-x,y,-z
-x,-y,-z
1/2+x,y,-z
1/2-x,y,z
x,-y,z
loop_
_atom_site_type_symbol
_atom_site_label
_atom_site_fract_x
_atom_site_fract_y
_atom_site_fract_z
Si Si1 0.571353 0.601739 0.555964
Si Si2 0.075313 0.899817 0.900778
Si Si3 0.071187 0.271352 0.055230
Si Si4 0.922916 0.334932 0.759596
Si Si5 0.920846 0.134643 0.792669
Si Si6 0.076617 0.600390 0.859375
Si Si7 0.427996 0.287839 0.649921
Si Si8 0.576962 0.096858 0.314302
O O1 0.500000 0.631140 0.500000
O O2 0.750000 0.611752 0.551425
O O3 0.524263 0.500000 0.570254
O O4 0.511301 0.668468 0.600412
O O5 0.250000 0.870854 0.906379
O O6 0.973738 0.831451 0.934481
O O7 0.031401 0.898867 0.838691
O O8 0.049574 0.000000 0.923171
O O9 0.250000 0.278284 0.051183
O O10 0.016014 0.334227 0.102658
O O11 0.000000 0.305477 0.000000
O O12 0.750000 0.365411 0.748550
O O13 0.928684 0.240741 0.789329
O O14 0.005499 0.402264 0.799953
O O15 0.011908 0.333104 0.703907
O O16 0.750000 0.102945 0.805431
O O17 0.971246 0.091830 0.737197
O O18 0.250000 0.633909 0.856214
O O19 0.067483 0.500000 0.882374
O O20 0.250000 0.305825 0.645233
O O21 0.467802 0.181310 0.648634
O O22 0.750000 0.111243 0.295156
O O23 0.559173 0.000000 0.344139
#
# Coordination Sequence:
#
# PCOD8208651 Si02
#       8
#     8   8   8   8   8   8   8   8
#     4  10  21  38  60  85 114 149 191 241 294 349
#     4  11  23  38  59  86 116 151 189 232 284 343
#     4  12  26  45  67  88 113 148 187 237 290 344
#     4  10  20  35  56  84 119 157 193 234 285 340
#     4  10  19  31  51  81 114 150 190 234 282 334
#     4  11  24  42  65  91 118 150 189 235 288 348
#     4  10  20  34  56  85 118 157 197 241 288 341
#     4   9  18  32  50  76 113 156 197 236 281 334
#
# _framework density 19.384996999999998
#
# number of rings (size 3 to 8) (size 9 to 14) (size 15 to 20)
#    0.000    1.625    1.250    3.750    0.000    7.000 
#    0.000    0.000    0.000    0.375    0.000    0.000 
#    0.000    0.000    0.000    0.000    0.000    0.000 
#
# Total GULP energy -793676.114839 kJ/mol
# GULP energy per Si atom -12401.189294 kJ/mol
# Density = 1.934088 g / cm^3
# Si number density = 19.384997 Si / 1000 Ang^3
#
#
#
# Elastic Constant Matrix: (Units=GPa)
#
#
# Indices 1 2 3 4 5 6 
#
# 1 110.4337 39.1521 41.5449 0.0000 0.0000 0.0000
# 2 39.1521 89.9227 50.2042 0.0000 0.0000 0.0000
# 3 41.5449 50.2042 107.9498 0.0000 0.0000 0.0000
# 4 0.0000 0.0000 0.0000 11.6760 0.0000 0.0000
# 5 0.0000 0.0000 0.0000 0.0000 37.6868 0.0000
# 6 0.0000 0.0000 0.0000 0.0000 0.0000 20.0401
#
#
#
# Elastic Compliance Matrix: (Units=1/GPa)
#
#
# Indices 1 2 3 4 5 6 
#
# 1 0.011295 -0.003364 -0.002782 0.000000 0.000000 0.000000
# 2 -0.003364 0.016023 -0.006157 0.000000 0.000000 0.000000
# 3 -0.002782 -0.006157 0.013198 0.000000 0.000000 0.000000
# 4 0.000000 0.000000 0.000000 0.085645 0.000000 0.000000
# 5 0.000000 0.000000 0.000000 0.000000 0.026535 0.000000
# 6 0.000000 0.000000 0.000000 0.000000 0.000000 0.049900
#
#
# Mechanical properties :
#
#
# Convention : Reuss Voigt Hill
#
# Bulk Modulus (GPa) = 62.86023 63.34540 63.10282
# Shear Modulus (GPa) = 21.50491 25.70758 23.60625
#
# Velocity S-wave (km/s) = 3.33432 3.64560 3.49343
# Velocity P-wave (km/s) = 6.87904 7.10415 6.99250
#
# Compressibility (1/GPa) = 0.01590831
#
# Stress axis : x y z
#
# Youngs Moduli (GPa) = 88.53786 62.41033 75.77076
#
# Poissons Ratio (x) = 0.20997 0.21080
# Poissons Ratio (y) = 0.29788 0.46652
# Poissons Ratio (z) = 0.24632 0.38426
#
# Static dielectric constant tensor:
#      x y z
#    x 3.684170 0.000000 0.000000 
#    y 0.000000 3.675980 0.000000 
#    z 0.000000 0.000000 3.288550 
# 
# 
# High freq. dielectric constant tensor:
#      x y z
#    x 1.770350 0.000000 0.000000 
#    y 0.000000 1.760530 0.000000 
#    z 0.000000 0.000000 1.729880 
# 
# From -- ./inp_files/35023.got.cif
#   From: 2010.03.12/outbox.cif.g09.slc.cpg/sg51_18_cif.got.tgz:35023.got - 2010.04.16 13:43:02.
