data_PCOD8208785
_publ_section_title
;
Structure prediction by ZEFSAII (Michael W. Deem and Ramdas Pophale) SiO2 
 PCOD8208785
Probable space group: P M M A
;
_chemical_formula_sum "Si O2"
_cell_formula_units_Z 64
_cell_length_a 8.701249
_cell_length_b 23.233436
_cell_length_c 18.967138
_cell_angle_alpha 90.000000
_cell_angle_beta 90.000000
_cell_angle_gamma 90.000000
_cell_volume 3834.394944
_symmetry_space_group_name_H-M "P M M A"
_symmetry_group_IT_number 51
_symmetry_cell_setting 'orthorhombic'
loop_
_space_group_symop_operation_xyz
x,y,z
1/2-x,-y,z
1/2+x,-y,-z
-x,y,-z
-x,-y,-z
1/2+x,y,-z
1/2-x,y,z
x,-y,z
loop_
_atom_site_type_symbol
_atom_site_label
_atom_site_fract_x
_atom_site_fract_y
_atom_site_fract_z
Si Si1 0.073827 0.565691 0.207988
Si Si2 0.928581 0.066851 0.425628
Si Si3 0.930656 0.726300 0.576823
Si Si4 0.569645 0.662233 0.298425
Si Si5 0.568105 0.614682 0.072596
Si Si6 0.570522 0.224889 0.210636
Si Si7 0.430143 0.837668 0.335400
Si Si8 0.568347 0.740185 0.927489
O O1 0.250000 0.582487 0.193039
O O2 0.057668 0.500000 0.232795
O O3 0.008670 0.604362 0.270908
O O4 0.977502 0.573421 0.136463
O O5 0.750000 0.082565 0.427369
O O6 0.000000 0.085367 0.500000
O O7 0.011775 0.101329 0.363700
O O8 0.957828 0.000000 0.410277
O O9 0.750000 0.717195 0.573675
O O10 0.974816 0.788502 0.608352
O O11 0.000000 0.721165 0.500000
O O12 0.003126 0.676225 0.624657
O O13 0.750000 0.652322 0.304166
O O14 0.528996 0.713781 0.245093
O O15 0.750000 0.619080 0.066662
O O16 0.501290 0.677594 0.087253
O O17 0.500000 0.589010 0.000000
O O18 0.750000 0.218335 0.196508
O O19 0.514371 0.173969 0.261518
O O20 0.480709 0.218746 0.136870
O O21 0.250000 0.839673 0.321408
O O22 0.750000 0.735909 0.933613
O O23 0.500000 0.765875 0.000000
#
# Coordination Sequence:
#
# PCOD8208785 Si02
#       8
#     8   8   8   8   8   8   8   8
#     4  11  23  37  53  72  95 124 158 198 242 291
#     4  10  20  33  49  70 100 140 181 218 254 294
#     4  10  20  33  51  75 102 128 159 198 244 293
#     4  10  20  34  53  73  96 124 157 195 241 294
#     4  11  21  34  51  71  95 126 161 199 241 287
#     4  10  19  32  50  73 100 130 164 204 249 294
#     4  10  20  32  49  74 103 136 171 209 250 291
#     4  11  20  31  49  71  99 131 165 201 243 296
#
# _framework density 16.691027999999999
#
# number of rings (size 3 to 8) (size 9 to 14) (size 15 to 20)
#    0.000    1.625    1.250    5.625    0.000    5.500 
#    0.000    0.000    0.000    0.375    0.000    0.000 
#    0.000    0.500    0.000    1.875    0.000    2.875 
#
# Total GULP energy -793915.060243 kJ/mol
# GULP energy per Si atom -12404.922816 kJ/mol
# Density = 1.665304 g / cm^3
# Si number density = 16.691028 Si / 1000 Ang^3
#
#
#
# Elastic Constant Matrix: (Units=GPa)
#
#
# Indices 1 2 3 4 5 6 
#
# 1 113.2182 32.1110 50.5758 0.0000 0.0000 0.0000
# 2 32.1110 59.3944 39.7095 0.0000 0.0000 0.0000
# 3 50.5758 39.7095 117.0754 0.0000 0.0000 0.0000
# 4 0.0000 0.0000 0.0000 38.4447 0.0000 0.0000
# 5 0.0000 0.0000 0.0000 0.0000 34.5866 0.0000
# 6 0.0000 0.0000 0.0000 0.0000 0.0000 24.2096
#
#
#
# Elastic Compliance Matrix: (Units=1/GPa)
#
#
# Indices 1 2 3 4 5 6 
#
# 1 0.011561 -0.003765 -0.003717 0.000000 0.000000 0.000000
# 2 -0.003765 0.023000 -0.006175 0.000000 0.000000 0.000000
# 3 -0.003717 -0.006175 0.012242 0.000000 0.000000 0.000000
# 4 0.000000 0.000000 0.000000 0.026011 0.000000 0.000000
# 5 0.000000 0.000000 0.000000 0.000000 0.028913 0.000000
# 6 0.000000 0.000000 0.000000 0.000000 0.000000 0.041306
#
#
# Mechanical properties :
#
#
# Convention : Reuss Voigt Hill
#
# Bulk Modulus (GPa) = 51.31123 59.38673 55.34898
# Shear Modulus (GPa) = 28.27358 30.60095 29.43727
#
# Velocity S-wave (km/s) = 4.12021 4.28644 4.20415
# Velocity P-wave (km/s) = 7.31050 7.75599 7.53654
#
# Compressibility (1/GPa) = 0.01948891
#
# Stress axis : x y z
#
# Youngs Moduli (GPa) = 86.49876 43.47747 81.68826
#
# Poissons Ratio (x) = 0.16369 0.30365
# Poissons Ratio (y) = 0.32567 0.50441
# Poissons Ratio (z) = 0.32153 0.26846
#
# Static dielectric constant tensor:
#      x y z
#    x 3.297830 0.000000 0.000000 
#    y 0.000000 2.888600 0.000000 
#    z 0.000000 0.000000 3.195630 
# 
# 
# High freq. dielectric constant tensor:
#      x y z
#    x 1.666900 0.000000 0.000000 
#    y 0.000000 1.604970 0.000000 
#    z 0.000000 0.000000 1.643130 
# 
# From -- ./inp_files/28365.got.cif
#   From: 2010.03.12/outbox.cif.g09.slc.cpg/sg51_15_cif.got.tgz:28365.got - 2010.04.16 13:43:02.
