data_PCOD8208823
_publ_section_title
;
Structure prediction by ZEFSAII (Michael W. Deem and Ramdas Pophale) SiO2 
 PCOD8208823
Probable space group: P M M A
;
_chemical_formula_sum "Si O2"
_cell_formula_units_Z 56
_cell_length_a 18.517344
_cell_length_b 9.085317
_cell_length_c 18.151602
_cell_angle_alpha 90.000000
_cell_angle_beta 90.000000
_cell_angle_gamma 90.000000
_cell_volume 3053.751829
_symmetry_space_group_name_H-M "P M M A"
_symmetry_group_IT_number 51
_symmetry_cell_setting 'orthorhombic'
loop_
_space_group_symop_operation_xyz
x,y,z
1/2-x,-y,z
1/2+x,-y,-z
-x,y,-z
-x,-y,-z
1/2+x,y,-z
1/2-x,y,z
x,-y,z
loop_
_atom_site_type_symbol
_atom_site_label
_atom_site_fract_x
_atom_site_fract_y
_atom_site_fract_z
Si Si1 0.335691 0.168018 0.222506
Si Si2 0.920275 0.671019 0.353832
Si Si3 0.588577 0.327932 0.644225
Si Si4 0.836007 0.833927 0.065590
Si Si5 0.833521 0.328528 0.211106
Si Si6 0.414182 0.165864 0.501580
Si Si7 0.663958 0.666264 0.922586
O O1 0.250000 0.176039 0.226518
O O2 0.366893 0.254828 0.291077
O O3 0.364459 0.244315 0.148039
O O4 0.362929 0.000000 0.223534
O O5 0.906378 0.500000 0.369583
O O6 0.878663 0.725206 0.281386
O O7 0.887529 0.759656 0.422849
O O8 0.004451 0.704182 0.342327
O O9 0.605610 0.500000 0.641824
O O10 0.615685 0.257607 0.567596
O O11 0.750000 0.831398 0.063534
O O12 0.863568 0.758761 0.140559
O O13 0.865584 0.000000 0.061995
O O14 0.866873 0.744342 0.995829
O O15 0.750000 0.292523 0.226295
O O16 0.845451 0.500000 0.195194
O O17 0.500000 0.168142 0.500000
O O18 0.383972 0.000000 0.497374
O O19 0.750000 0.665863 0.924301
O O20 0.633966 0.500000 0.918967
#
# Coordination Sequence:
#
# PCOD8208823 Si02
#       7
#     8   8   8   8   8   8   8
#     4  10  20  33  49  71  99 126 154 193 239 284
#     4   9  18  32  50  72  96 124 160 200 239 280
#     4  10  19  32  51  72  95 124 159 197 237 284
#     4   9  16  26  42  66  95 125 158 195 233 273
#     4   9  17  30  48  70  97 127 158 193 234 279
#     4   9  17  30  49  71  93 121 160 201 238 279
#     4   9  16  27  45  68  93 123 159 194 230 276
#
# _framework density 18.338097999999999
#
# number of rings (size 3 to 8) (size 9 to 14) (size 15 to 20)
#    0.000    2.714    0.000    2.143    0.000    7.143 
#    0.000    0.714    0.000    3.429    0.000    6.000 
#    0.000    0.000    0.000    0.000    0.000    0.000 
#
# Total GULP energy -694444.656706 kJ/mol
# GULP energy per Si atom -12400.797441 kJ/mol
# Density = 1.829636 g / cm^3
# Si number density = 18.338098 Si / 1000 Ang^3
#
#
#
# Elastic Constant Matrix: (Units=GPa)
#
#
# Indices 1 2 3 4 5 6 
#
# 1 12.0611 18.9529 22.6714 0.0000 0.0000 0.0000
# 2 18.9529 136.0826 89.4031 0.0000 0.0000 0.0000
# 3 22.6714 89.4031 181.2622 0.0000 0.0000 0.0000
# 4 0.0000 0.0000 0.0000 33.4771 0.0000 0.0000
# 5 0.0000 0.0000 0.0000 0.0000 -92.0670 0.0000
# 6 0.0000 0.0000 0.0000 0.0000 0.0000 16.1274
#
#
#
# Elastic Compliance Matrix: (Units=1/GPa)
#
#
# Indices 1 2 3 4 5 6 
#
# 1 0.116700 -0.009859 -0.009734 0.000000 0.000000 0.000000
# 2 -0.009859 0.011704 -0.004540 0.000000 0.000000 0.000000
# 3 -0.009734 -0.004540 0.008973 0.000000 0.000000 0.000000
# 4 0.000000 0.000000 0.000000 0.029871 0.000000 0.000000
# 5 0.000000 0.000000 0.000000 0.000000 -0.010862 0.000000
# 6 0.000000 0.000000 0.000000 0.000000 0.000000 0.062006
#
#
# Mechanical properties :
#
#
# Convention : Reuss Voigt Hill
#
# Bulk Modulus (GPa) = 11.22163 65.71785 38.46974
# Shear Modulus (GPa) = 16.87127 4.73273 10.80200
#
# Velocity S-wave (km/s) = 3.03646 1.60824 2.42966
# Velocity P-wave (km/s) = 4.29256 6.27401 5.37537
#
# Compressibility (1/GPa) = 0.08911359
#
# Stress axis : x y z
#
# Youngs Moduli (GPa) = 8.56896 85.44121 111.44071
#
# Poissons Ratio (x) = 0.84233 1.08474
# Poissons Ratio (y) = 0.08448 0.50590
# Poissons Ratio (z) = 0.08341 0.38787
#
# Static dielectric constant tensor:
#      x y z
#    x 2.883540 0.000000 0.000000 
#    y 0.000000 3.573710 0.000000 
#    z 0.000000 0.000000 3.605710 
# 
# 
# High freq. dielectric constant tensor:
#      x y z
#    x 1.651740 0.000000 0.000000 
#    y 0.000000 1.724000 0.000000 
#    z 0.000000 0.000000 1.729330 
# 
# From -- ./inp_files/30473.got.cif
#   From: 2010.03.12/outbox.cif.g09.slc.cpg/sg51_16_cif.got.tgz:30473.got - 2010.04.16 13:43:02.
