data_PCOD8208689
_publ_section_title
;
Structure prediction by ZEFSAII (Michael W. Deem and Ramdas Pophale) SiO2 
 PCOD8208689
Probable space group: P M M A
;
_chemical_formula_sum "Si O2"
_cell_formula_units_Z 64
_cell_length_a 25.445588
_cell_length_b 8.849215
_cell_length_c 16.959134
_cell_angle_alpha 90.000000
_cell_angle_beta 90.000000
_cell_angle_gamma 90.000000
_cell_volume 3818.747204
_symmetry_space_group_name_H-M "P M M A"
_symmetry_group_IT_number 51
_symmetry_cell_setting 'orthorhombic'
loop_
_space_group_symop_operation_xyz
x,y,z
1/2-x,-y,z
1/2+x,-y,-z
-x,y,-z
-x,-y,-z
1/2+x,y,-z
1/2-x,y,z
x,-y,z
loop_
_atom_site_type_symbol
_atom_site_label
_atom_site_fract_x
_atom_site_fract_y
_atom_site_fract_z
Si Si1 0.692271 0.820427 0.419744
Si Si2 0.440377 0.321084 0.834936
Si Si3 0.100530 0.324701 0.308731
Si Si4 0.562271 0.332891 0.992624
Si Si5 0.501275 0.675582 0.409061
Si Si6 0.403943 0.179014 0.682544
Si Si7 0.553499 0.823178 0.837416
Si Si8 0.810741 0.173497 0.597570
O O1 0.750000 0.760557 0.393188
O O2 0.647619 0.756707 0.361739
O O3 0.680164 0.767037 0.508606
O O4 0.692625 0.000000 0.418941
O O5 0.442798 0.500000 0.824626
O O6 0.402440 0.249136 0.769858
O O7 0.499044 0.261270 0.821708
O O8 0.417337 0.276786 0.921457
O O9 0.100691 0.500000 0.285741
O O10 0.055102 0.287416 0.371702
O O11 0.093811 0.226853 0.229791
O O12 0.156164 0.279795 0.345219
O O13 0.584528 0.500000 0.973160
O O14 0.578471 0.219638 0.922683
O O15 0.500000 0.341423 0.000000
O O16 0.500000 0.725235 0.500000
O O17 0.516125 0.500000 0.400004
O O18 0.544386 0.773636 0.364457
O O19 0.402773 0.000000 0.689384
O O20 0.543198 0.000000 0.834431
O O21 0.750000 0.189061 0.621408
O O22 0.829351 0.000000 0.605929
#
# Coordination Sequence:
#
# PCOD8208689 Si02
#       8
#     8   8   8   8   8   8   8   8
#     4   8  16  32  51  71  96 126 162 206 253 292
#     4  10  19  32  47  66  98 134 161 193 239 293
#     4  11  21  32  48  69  99 134 162 196 243 294
#     4   8  16  30  47  65  91 129 163 190 235 290
#     4  10  21  34  46  63  94 134 165 194 240 293
#     4  11  20  29  48  74  96 126 165 205 243 286
#     4  11  20  30  47  71  98 126 161 202 238 283
#     4   9  18  34  54  72  93 124 164 211 253 286
#
# _framework density 16.759422000000001
#
# number of rings (size 3 to 8) (size 9 to 14) (size 15 to 20)
#    0.000    2.250    1.250    4.500    0.000    3.750 
#    0.000    0.625    0.000    3.000    0.000    0.875 
#    0.000    3.000    0.000    0.000    0.000    0.000 
#
# Total GULP energy -793545.685354 kJ/mol
# GULP energy per Si atom -12399.151334 kJ/mol
# Density = 1.672128 g / cm^3
# Si number density = 16.759422 Si / 1000 Ang^3
#
#
#
# Elastic Constant Matrix: (Units=GPa)
#
#
# Indices 1 2 3 4 5 6 
#
# 1 68.2516 24.2767 41.7542 0.0000 0.0000 0.0000
# 2 24.2767 64.2181 38.4361 0.0000 0.0000 0.0000
# 3 41.7542 38.4361 125.5159 0.0000 0.0000 0.0000
# 4 0.0000 0.0000 0.0000 28.5692 0.0000 0.0000
# 5 0.0000 0.0000 0.0000 0.0000 18.1899 0.0000
# 6 0.0000 0.0000 0.0000 0.0000 0.0000 14.1017
#
#
#
# Elastic Compliance Matrix: (Units=1/GPa)
#
#
# Indices 1 2 3 4 5 6 
#
# 1 0.019289 -0.004226 -0.005122 0.000000 0.000000 0.000000
# 2 -0.004226 0.019992 -0.004716 0.000000 0.000000 0.000000
# 3 -0.005122 -0.004716 0.011115 0.000000 0.000000 0.000000
# 4 0.000000 0.000000 0.000000 0.035003 0.000000 0.000000
# 5 0.000000 0.000000 0.000000 0.000000 0.054976 0.000000
# 6 0.000000 0.000000 0.000000 0.000000 0.000000 0.070913
#
#
# Mechanical properties :
#
#
# Convention : Reuss Voigt Hill
#
# Bulk Modulus (GPa) = 44.90968 51.87997 48.39482
# Shear Modulus (GPa) = 20.25607 22.40673 21.33140
#
# Velocity S-wave (km/s) = 3.48032 3.66042 3.57150
# Velocity P-wave (km/s) = 6.55782 6.99198 6.77838
#
# Compressibility (1/GPa) = 0.02226692
#
# Stress axis : x y z
#
# Youngs Moduli (GPa) = 51.84417 50.01923 89.96490
#
# Poissons Ratio (x) = 0.21137 0.46084
# Poissons Ratio (y) = 0.21908 0.42431
# Poissons Ratio (z) = 0.26557 0.23591
#
# Static dielectric constant tensor:
#      x y z
#    x 2.988300 0.000000 0.000000 
#    y 0.000000 3.048390 0.000000 
#    z 0.000000 0.000000 3.546260 
# 
# 
# High freq. dielectric constant tensor:
#      x y z
#    x 1.607140 0.000000 0.000000 
#    y 0.000000 1.642120 0.000000 
#    z 0.000000 0.000000 1.655990 
# 
# From -- ./inp_files/30903.got.cif
#   From: 2010.03.12/outbox.cif.g09.slc.cpg/sg51_16_cif.got.tgz:30903.got - 2010.04.16 13:43:02.
