data_PCOD8208619
_publ_section_title
;
Structure prediction by ZEFSAII (Michael W. Deem and Ramdas Pophale) SiO2 
 PCOD8208619
Probable space group: P M M A
;
_chemical_formula_sum "Si O2"
_cell_formula_units_Z 64
_cell_length_a 14.222172
_cell_length_b 9.010399
_cell_length_c 28.201084
_cell_angle_alpha 90.000000
_cell_angle_beta 90.000000
_cell_angle_gamma 90.000000
_cell_volume 3613.896843
_symmetry_space_group_name_H-M "P M M A"
_symmetry_group_IT_number 51
_symmetry_cell_setting 'orthorhombic'
loop_
_space_group_symop_operation_xyz
x,y,z
1/2-x,-y,z
1/2+x,-y,-z
-x,y,-z
-x,-y,-z
1/2+x,y,-z
1/2-x,y,z
x,-y,z
loop_
_atom_site_type_symbol
_atom_site_label
_atom_site_fract_x
_atom_site_fract_y
_atom_site_fract_z
Si Si1 0.857445 0.674587 0.928395
Si Si2 0.024557 0.824661 0.616197
Si Si3 0.142126 0.171412 0.794723
Si Si4 0.358303 0.674033 0.428254
Si Si5 0.141527 0.171474 0.975103
Si Si6 0.523106 0.174967 0.115079
Si Si7 0.858305 0.170511 0.475194
Si Si8 0.358255 0.673747 0.697442
O O1 0.750000 0.721567 0.918097
O O2 0.869957 0.500000 0.928483
O O3 0.921899 0.745256 0.887252
O O4 0.890957 0.736538 0.979180
O O5 0.083019 0.776538 0.569954
O O6 0.074772 0.760308 0.661988
O O7 0.920534 0.755204 0.611649
O O8 0.017238 0.000000 0.621646
O O9 0.250000 0.193975 0.810540
O O10 0.076105 0.225562 0.837430
O O11 0.116618 0.272651 0.750047
O O12 0.123559 0.000000 0.781572
O O13 0.250000 0.714630 0.417994
O O14 0.376494 0.500000 0.425969
O O15 0.388656 0.731520 0.480077
O O16 0.250000 0.199373 0.963199
O O17 0.084206 0.227702 0.929783
O O18 0.120984 0.000000 0.986335
O O19 0.508189 0.000000 0.114773
O O20 0.750000 0.195056 0.461992
O O21 0.879564 0.000000 0.488300
O O22 0.250000 0.711949 0.685403
O O23 0.378170 0.500000 0.693463
#
# Coordination Sequence:
#
# PCOD8208619 Si02
#       8
#     8   8   8   8   8   8   8   8
#     4  10  21  34  46  65  97 135 171 206 245 287
#     4  11  21  33  53  77 101 134 174 212 251 296
#     4   9  18  34  55  78 104 130 157 195 245 300
#     4  10  21  35  50  71 102 138 173 211 255 299
#     4   9  17  30  48  71 100 131 163 200 242 290
#     4  10  19  31  51  76  98 126 165 204 244 291
#     4   9  18  32  49  72 103 136 170 207 248 297
#     4  10  21  36  54  78 107 135 163 199 246 300
#
# _framework density 17.709416000000001
#
# number of rings (size 3 to 8) (size 9 to 14) (size 15 to 20)
#    0.000    2.250    0.000    3.000    0.000    9.250 
#    0.000    1.250    0.000    4.500    0.000    3.500 
#    0.000    0.000    0.000    0.000    0.000    0.000 
#
# Total GULP energy -793829.862917 kJ/mol
# GULP energy per Si atom -12403.591608 kJ/mol
# Density = 1.766911 g / cm^3
# Si number density = 17.709416 Si / 1000 Ang^3
#
#
#
# Elastic Constant Matrix: (Units=GPa)
#
#
# Indices 1 2 3 4 5 6 
#
# 1 95.6447 47.4179 72.5579 0.0000 0.0000 0.0000
# 2 47.4179 68.5963 51.9040 0.0000 0.0000 0.0000
# 3 72.5579 51.9040 105.3069 0.0000 0.0000 0.0000
# 4 0.0000 0.0000 0.0000 0.7105 0.0000 0.0000
# 5 0.0000 0.0000 0.0000 0.0000 33.4411 0.0000
# 6 0.0000 0.0000 0.0000 0.0000 0.0000 28.0753
#
#
#
# Elastic Compliance Matrix: (Units=1/GPa)
#
#
# Indices 1 2 3 4 5 6 
#
# 1 0.023533 -0.006377 -0.013072 0.000000 0.000000 0.000000
# 2 -0.006377 0.024976 -0.007917 0.000000 0.000000 0.000000
# 3 -0.013072 -0.007917 0.022405 0.000000 0.000000 0.000000
# 4 0.000000 0.000000 0.000000 1.407470 0.000000 0.000000
# 5 0.000000 0.000000 0.000000 0.000000 0.029903 0.000000
# 6 0.000000 0.000000 0.000000 0.000000 0.000000 0.035619
#
#
# Mechanical properties :
#
#
# Convention : Reuss Voigt Hill
#
# Bulk Modulus (GPa) = 61.79020 68.14528 64.96774
# Shear Modulus (GPa) = 3.11715 18.95658 11.03686
#
# Velocity S-wave (km/s) = 1.32815 3.27528 2.49915
# Velocity P-wave (km/s) = 6.10892 7.27094 6.71511
#
# Compressibility (1/GPa) = 0.01618380
#
# Stress axis : x y z
#
# Youngs Moduli (GPa) = 42.49306 40.03800 44.63351
#
# Poissons Ratio (x) = 0.25531 0.58344
# Poissons Ratio (y) = 0.27097 0.35335
# Poissons Ratio (z) = 0.55546 0.31697
#
# Static dielectric constant tensor:
#      x y z
#    x 3.418370 0.000000 0.000000 
#    y 0.000000 3.243820 0.000000 
#    z 0.000000 0.000000 3.160300 
# 
# 
# High freq. dielectric constant tensor:
#      x y z
#    x 1.689310 0.000000 0.000000 
#    y 0.000000 1.686270 0.000000 
#    z 0.000000 0.000000 1.665480 
# 
# From -- ./inp_files/35702.got.cif
#   From: 2010.03.12/outbox.cif.g09.slc.cpg/sg51_18_cif.got.tgz:35702.got - 2010.04.16 13:43:02.
