data_PCOD8208850
_publ_section_title
;
Structure prediction by ZEFSAII (Michael W. Deem and Ramdas Pophale) SiO2 
 PCOD8208850
Probable space group: P M M A
;
_chemical_formula_sum "Si O2"
_cell_formula_units_Z 64
_cell_length_a 17.016749
_cell_length_b 8.963178
_cell_length_c 22.970178
_cell_angle_alpha 90.000000
_cell_angle_beta 90.000000
_cell_angle_gamma 90.000000
_cell_volume 3503.506881
_symmetry_space_group_name_H-M "P M M A"
_symmetry_group_IT_number 51
_symmetry_cell_setting 'orthorhombic'
loop_
_space_group_symop_operation_xyz
x,y,z
1/2-x,-y,z
1/2+x,-y,-z
-x,y,-z
-x,-y,-z
1/2+x,y,-z
1/2-x,y,z
x,-y,z
loop_
_atom_site_type_symbol
_atom_site_label
_atom_site_fract_x
_atom_site_fract_y
_atom_site_fract_z
Si Si1 0.836681 0.330161 0.672230
Si Si2 0.576867 0.666785 0.038838
Si Si3 0.512508 0.675471 0.741469
Si Si4 0.161107 0.173282 0.058909
Si Si5 0.596722 0.172006 0.567373
Si Si6 0.937260 0.826881 0.364886
Si Si7 0.013682 0.824094 0.134890
Si Si8 0.840760 0.673355 0.456434
O O1 0.750000 0.311417 0.699696
O O2 0.852272 0.500000 0.651924
O O3 0.899307 0.283189 0.720954
O O4 0.841491 0.226612 0.615579
O O5 0.601472 0.500000 0.058341
O O6 0.557991 0.767809 0.094789
O O7 0.500000 0.661224 0.000000
O O8 0.647012 0.738602 0.001248
O O9 0.498458 0.500000 0.745837
O O10 0.450310 0.743964 0.696282
O O11 0.500874 0.747874 0.803635
O O12 0.250000 0.206420 0.080764
O O13 0.098855 0.223184 0.108506
O O14 0.148635 0.000000 0.044792
O O15 0.509963 0.199622 0.591816
O O16 0.606285 0.263970 0.508503
O O17 0.612625 0.000000 0.553081
O O18 0.861590 0.756689 0.396258
O O19 0.923129 0.000000 0.351879
O O20 0.007404 0.000000 0.142075
O O21 0.750000 0.703139 0.470894
O O22 0.859384 0.500000 0.448596
#
# Coordination Sequence:
#
# PCOD8208850 Si02
#       8
#     8   8   8   8   8   8   8   8
#     4   9  18  32  48  68  98 135 170 204 247 299
#     4   9  17  30  49  73 100 131 168 207 245 286
#     4  10  20  34  52  73  99 133 172 212 251 292
#     4   9  18  32  50  75 108 141 169 202 248 297
#     4  10  20  33  51  76 102 129 165 207 250 300
#     4  10  21  37  55  75 100 131 169 211 253 300
#     4  10  19  32  51  74 101 135 174 211 246 291
#     4  11  23  36  52  76 103 130 162 203 254 310
#
# _framework density 18.267410000000002
#
# number of rings (size 3 to 8) (size 9 to 14) (size 15 to 20)
#    0.000    2.250    0.000    3.000    0.000    9.000 
#    0.000    0.000    0.000    0.750    0.000    0.000 
#    0.000    0.000    0.000    0.000    0.000    0.000 
#
# Total GULP energy -793694.541279 kJ/mol
# GULP energy per Si atom -12401.477207 kJ/mol
# Density = 1.822583 g / cm^3
# Si number density = 18.267410 Si / 1000 Ang^3
#
#
#
# Elastic Constant Matrix: (Units=GPa)
#
#
# Indices 1 2 3 4 5 6 
#
# 1 27.6410 24.3189 25.3508 0.0000 0.0000 0.0000
# 2 24.3189 101.7170 58.1849 0.0000 0.0000 0.0000
# 3 25.3508 58.1849 126.9093 0.0000 0.0000 0.0000
# 4 0.0000 0.0000 0.0000 36.5447 0.0000 0.0000
# 5 0.0000 0.0000 0.0000 0.0000 15.3804 0.0000
# 6 0.0000 0.0000 0.0000 0.0000 0.0000 21.0443
#
#
#
# Elastic Compliance Matrix: (Units=1/GPa)
#
#
# Indices 1 2 3 4 5 6 
#
# 1 0.048950 -0.008282 -0.005981 0.000000 0.000000 0.000000
# 2 -0.008282 0.014727 -0.005098 0.000000 0.000000 0.000000
# 3 -0.005981 -0.005098 0.011412 0.000000 0.000000 0.000000
# 4 0.000000 0.000000 0.000000 0.027364 0.000000 0.000000
# 5 0.000000 0.000000 0.000000 0.000000 0.065018 0.000000
# 6 0.000000 0.000000 0.000000 0.000000 0.000000 0.047519
#
#
# Mechanical properties :
#
#
# Convention : Reuss Voigt Hill
#
# Bulk Modulus (GPa) = 27.49698 52.44184 39.96941
# Shear Modulus (GPa) = 18.80879 24.48806 21.64842
#
# Velocity S-wave (km/s) = 3.21228 3.66530 3.44624
# Velocity P-wave (km/s) = 5.37061 6.83248 6.14517
#
# Compressibility (1/GPa) = 0.03636763
#
# Stress axis : x y z
#
# Youngs Moduli (GPa) = 20.42901 67.90093 87.63022
#
# Poissons Ratio (x) = 0.56235 0.52411
# Poissons Ratio (y) = 0.16919 0.44672
# Poissons Ratio (z) = 0.12219 0.34614
#
# Static dielectric constant tensor:
#      x y z
#    x 3.240290 0.000000 0.000000 
#    y 0.000000 3.509580 0.000000 
#    z 0.000000 0.000000 3.267310 
# 
# 
# High freq. dielectric constant tensor:
#      x y z
#    x 1.687400 0.000000 0.000000 
#    y 0.000000 1.721380 0.000000 
#    z 0.000000 0.000000 1.696230 
# 
# From -- ./inp_files/33782.got.cif
#   From: 2010.03.12/outbox.cif.g09.slc.cpg/sg51_17_cif.got.tgz:33782.got - 2010.04.16 13:43:02.
