data_PCOD8208065
_publ_section_title
;
Structure prediction by ZEFSAII (Michael W. Deem and Ramdas Pophale) SiO2 
 PCOD8208065
Probable space group: P M M A
;
_chemical_formula_sum "Si O2"
_cell_formula_units_Z 64
_cell_length_a 8.879749
_cell_length_b 22.244737
_cell_length_c 18.199985
_cell_angle_alpha 90.000000
_cell_angle_beta 90.000000
_cell_angle_gamma 90.000000
_cell_volume 3595.000834
_symmetry_space_group_name_H-M "P M M A"
_symmetry_group_IT_number 51
_symmetry_cell_setting 'orthorhombic'
loop_
_space_group_symop_operation_xyz
x,y,z
1/2-x,-y,z
1/2+x,-y,-z
-x,y,-z
-x,-y,-z
1/2+x,y,-z
1/2-x,y,z
x,-y,z
loop_
_atom_site_type_symbol
_atom_site_label
_atom_site_fract_x
_atom_site_fract_y
_atom_site_fract_z
Si Si1 0.077873 0.757521 0.790040
Si Si2 0.070985 0.310491 0.074211
Si Si3 0.077161 0.929179 0.576327
Si Si4 0.580699 0.334670 0.343717
Si Si5 0.585467 0.246181 0.565817
Si Si6 0.574045 0.432039 0.115941
Si Si7 0.082430 0.848220 0.307702
Si Si8 0.581837 0.433040 0.733125
O O1 0.250000 0.770182 0.813465
O O2 0.070673 0.709540 0.725398
O O3 0.987763 0.729365 0.858189
O O4 0.005484 0.821356 0.763348
O O5 0.250000 0.306784 0.072026
O O6 0.022027 0.380840 0.075658
O O7 0.000000 0.282609 0.000000
O O8 0.250000 0.908452 0.571743
O O9 0.000000 0.908209 0.500000
O O10 0.004878 0.901367 0.650180
O O11 0.060410 0.000000 0.585723
O O12 0.750000 0.356542 0.357190
O O13 0.518984 0.303195 0.416611
O O14 0.472024 0.391038 0.332331
O O15 0.500000 0.211044 0.500000
O O16 0.750000 0.267163 0.539954
O O17 0.600412 0.205330 0.635917
O O18 0.750000 0.418584 0.104294
O O19 0.532473 0.500000 0.087962
O O20 0.537523 0.426962 0.201622
O O21 0.250000 0.870433 0.283841
O O22 0.750000 0.414403 0.760306
O O23 0.584087 0.500000 0.701458
#
# Coordination Sequence:
#
# PCOD8208065 Si02
#       8
#     8   8   8   8   8   8   8   8
#     4  10  20  35  53  74 100 129 167 210 253 299
#     4  12  24  37  54  73 100 133 168 208 258 314
#     4  10  20  33  50  75 110 151 190 225 261 302
#     4  10  19  31  50  70  92 121 154 195 243 293
#     4  10  20  32  47  69  97 125 160 201 245 294
#     4  10  20  34  51  71  96 126 162 203 249 305
#     4  10  20  33  52  76 103 138 176 214 254 295
#     4  10  19  30  47  70  93 118 151 193 240 292
#
# _framework density 17.802499000000001
#
# number of rings (size 3 to 8) (size 9 to 14) (size 15 to 20)
#    0.000    1.750    1.250    4.125    0.000    6.000 
#    0.000    0.000    0.000    0.375    0.000    0.000 
#    0.000    0.500    0.000    1.875    0.000    2.875 
#
# Total GULP energy -793324.216965 kJ/mol
# GULP energy per Si atom -12395.690890 kJ/mol
# Density = 1.776198 g / cm^3
# Si number density = 17.802499 Si / 1000 Ang^3
#
#
#
# Elastic Constant Matrix: (Units=GPa)
#
#
# Indices 1 2 3 4 5 6 
#
# 1 152.7388 40.0774 44.2425 0.0000 0.0000 0.0000
# 2 40.0774 54.1711 25.1577 0.0000 0.0000 0.0000
# 3 44.2425 25.1577 58.3581 0.0000 0.0000 0.0000
# 4 0.0000 0.0000 0.0000 59.6794 0.0000 0.0000
# 5 0.0000 0.0000 0.0000 0.0000 29.1016 0.0000
# 6 0.0000 0.0000 0.0000 0.0000 0.0000 22.0612
#
#
#
# Elastic Compliance Matrix: (Units=1/GPa)
#
#
# Indices 1 2 3 4 5 6 
#
# 1 0.009173 -0.004447 -0.005037 0.000000 0.000000 0.000000
# 2 -0.004447 0.025237 -0.007508 0.000000 0.000000 0.000000
# 3 -0.005037 -0.007508 0.024191 0.000000 0.000000 0.000000
# 4 0.000000 0.000000 0.000000 0.016756 0.000000 0.000000
# 5 0.000000 0.000000 0.000000 0.000000 0.034362 0.000000
# 6 0.000000 0.000000 0.000000 0.000000 0.000000 0.045328
#
#
# Mechanical properties :
#
#
# Convention : Reuss Voigt Hill
#
# Bulk Modulus (GPa) = 40.62326 53.80257 47.21291
# Shear Modulus (GPa) = 25.35007 32.55447 28.95227
#
# Velocity S-wave (km/s) = 3.77763 4.28091 4.03712
# Velocity P-wave (km/s) = 6.47269 7.39746 6.95047
#
# Compressibility (1/GPa) = 0.02461644
#
# Stress axis : x y z
#
# Youngs Moduli (GPa) = 109.01428 39.62439 41.33778
#
# Poissons Ratio (x) = 0.17622 0.20823
# Poissons Ratio (y) = 0.48481 0.31036
# Poissons Ratio (z) = 0.54912 0.29750
#
# Static dielectric constant tensor:
#      x y z
#    x 3.641900 0.000000 0.000000 
#    y 0.000000 3.193220 0.000000 
#    z 0.000000 0.000000 3.133950 
# 
# 
# High freq. dielectric constant tensor:
#      x y z
#    x 1.713670 0.000000 0.000000 
#    y 0.000000 1.660790 0.000000 
#    z 0.000000 0.000000 1.661130 
# 
# From -- ./inp_files/28363.got.cif
#   From: 2010.03.12/outbox.cif.g09.slc.cpg/sg51_15_cif.got.tgz:28363.got - 2010.04.16 13:43:02.
