data_PCOD8208864
_publ_section_title
;
Structure prediction by ZEFSAII (Michael W. Deem and Ramdas Pophale) SiO2 
 PCOD8208864
Probable space group: P M M A
;
_chemical_formula_sum "Si O2"
_cell_formula_units_Z 52
_cell_length_a 9.023512
_cell_length_b 12.864792
_cell_length_c 27.477151
_cell_angle_alpha 90.000000
_cell_angle_beta 90.000000
_cell_angle_gamma 90.000000
_cell_volume 3189.701697
_symmetry_space_group_name_H-M "P M M A"
_symmetry_group_IT_number 51
_symmetry_cell_setting 'orthorhombic'
loop_
_space_group_symop_operation_xyz
x,y,z
1/2-x,-y,z
1/2+x,-y,-z
-x,y,-z
-x,-y,-z
1/2+x,y,-z
1/2-x,y,z
x,-y,z
loop_
_atom_site_type_symbol
_atom_site_label
_atom_site_fract_x
_atom_site_fract_y
_atom_site_fract_z
Si Si1 0.579301 0.823718 0.744624
Si Si2 0.914563 0.121340 0.640345
Si Si3 0.427555 0.500000 0.052412
Si Si4 0.583745 0.612910 0.787957
Si Si5 0.576256 0.330614 0.117808
Si Si6 0.415667 0.124082 0.547471
Si Si7 0.421867 0.884954 0.841915
O O1 0.750000 0.858554 0.746332
O O2 0.509326 0.858007 0.692999
O O3 0.557958 0.699425 0.747114
O O4 0.502815 0.878484 0.790240
O O5 0.750000 0.171475 0.639315
O O6 0.009892 0.170072 0.596499
O O7 0.902705 0.000000 0.631149
O O8 0.250000 0.500000 0.049685
O O9 0.481581 0.393660 0.078235
O O10 0.500000 0.500000 0.000000
O O11 0.750000 0.625904 0.810581
O O12 0.566859 0.500000 0.763110
O O13 0.461418 0.621828 0.829867
O O14 0.750000 0.345477 0.106392
O O15 0.530720 0.207037 0.120235
O O16 0.500000 0.166391 0.500000
O O17 0.250000 0.167727 0.545324
O O18 0.416633 0.000000 0.548097
O O19 0.250000 0.870054 0.830328
O O20 0.454211 0.000000 0.864543
#
# Coordination Sequence:
#
# PCOD8208864 Si02
#       7
#     8   8   4   8   8   8   8
#     4   9  17  27  40  61  88 120 156 189 223 262
#     4   9  16  25  36  51  76 109 142 178 216 255
#     4  12  24  38  56  78 102 124 152 194 239 280
#     4   9  16  27  44  65  91 122 153 187 223 263
#     4  10  19  32  51  74  99 127 158 191 230 274
#     4   9  16  25  37  52  70  96 132 172 214 261
#     4   9  18  31  47  69  98 130 161 192 225 266
#
# _framework density 16.302464000000001
#
# number of rings (size 3 to 8) (size 9 to 14) (size 15 to 20)
#    0.000    2.615    0.769    2.077    0.000    4.000 
#    0.000    1.538    0.000    0.462    0.000    0.000 
#    0.000    0.615    0.000    1.077    0.000    1.538 
#
# Total GULP energy -644362.025944 kJ/mol
# GULP energy per Si atom -12391.577422 kJ/mol
# Density = 1.626536 g / cm^3
# Si number density = 16.302464 Si / 1000 Ang^3
#
#
#
# Elastic Constant Matrix: (Units=GPa)
#
#
# Indices 1 2 3 4 5 6 
#
# 1 83.3551 30.5269 47.3417 0.0000 0.0000 0.0000
# 2 30.5269 93.2772 33.2495 0.0000 0.0000 0.0000
# 3 47.3417 33.2495 101.2673 0.0000 0.0000 0.0000
# 4 0.0000 0.0000 0.0000 16.2960 0.0000 0.0000
# 5 0.0000 0.0000 0.0000 0.0000 26.9945 0.0000
# 6 0.0000 0.0000 0.0000 0.0000 0.0000 15.1063
#
#
#
# Elastic Compliance Matrix: (Units=1/GPa)
#
#
# Indices 1 2 3 4 5 6 
#
# 1 0.017095 -0.003110 -0.006971 0.000000 0.000000 0.000000
# 2 -0.003110 0.012708 -0.002718 0.000000 0.000000 0.000000
# 3 -0.006971 -0.002718 0.014026 0.000000 0.000000 0.000000
# 4 0.000000 0.000000 0.000000 0.061365 0.000000 0.000000
# 5 0.000000 0.000000 0.000000 0.000000 0.037045 0.000000
# 6 0.000000 0.000000 0.000000 0.000000 0.000000 0.066198
#
#
# Mechanical properties :
#
#
# Convention : Reuss Voigt Hill
#
# Bulk Modulus (GPa) = 54.85305 55.57064 55.21184
# Shear Modulus (GPa) = 20.82377 22.79811 21.81094
#
# Velocity S-wave (km/s) = 3.57786 3.74364 3.66169
# Velocity P-wave (km/s) = 7.12659 7.26964 7.19847
#
# Compressibility (1/GPa) = 0.01823053
#
# Stress axis : x y z
#
# Youngs Moduli (GPa) = 58.49746 78.69350 71.29547
#
# Poissons Ratio (x) = 0.24473 0.49697
# Poissons Ratio (y) = 0.18192 0.19381
# Poissons Ratio (z) = 0.40776 0.21393
#
# Static dielectric constant tensor:
#      x y z
#    x 3.219870 0.000000 0.000000 
#    y 0.000000 3.216250 0.000000 
#    z 0.000000 0.000000 2.982790 
# 
# 
# High freq. dielectric constant tensor:
#      x y z
#    x 1.631800 0.000000 0.000000 
#    y 0.000000 1.603080 0.000000 
#    z 0.000000 0.000000 1.603650 
# 
# From -- ./inp_files/36356.got.cif
#   From: 2010.03.12/outbox.cif.g09.slc.cpg/sg51_19_cif.got.tgz:36356.got - 2010.04.16 13:43:02.
