data_PCOD8208836
_publ_section_title
;
Structure prediction by ZEFSAII (Michael W. Deem and Ramdas Pophale) SiO2 
 PCOD8208836
Probable space group: P M M A
;
_chemical_formula_sum "Si O2"
_cell_formula_units_Z 64
_cell_length_a 9.090032
_cell_length_b 14.174921
_cell_length_c 30.802255
_cell_angle_alpha 90.000000
_cell_angle_beta 90.000000
_cell_angle_gamma 90.000000
_cell_volume 3968.885511
_symmetry_space_group_name_H-M "P M M A"
_symmetry_group_IT_number 51
_symmetry_cell_setting 'orthorhombic'
loop_
_space_group_symop_operation_xyz
x,y,z
1/2-x,-y,z
1/2+x,-y,-z
-x,y,-z
-x,-y,-z
1/2+x,y,-z
1/2-x,y,z
x,-y,z
loop_
_atom_site_type_symbol
_atom_site_label
_atom_site_fract_x
_atom_site_fract_y
_atom_site_fract_z
Si Si1 0.079258 0.395789 0.836878
Si Si2 0.580319 0.604520 0.748928
Si Si3 0.918701 0.110895 0.212157
Si Si4 0.077564 0.890373 0.628671
Si Si5 0.584093 0.887799 0.542004
Si Si6 0.921590 0.204162 0.708486
Si Si7 0.577691 0.891560 0.956313
Si Si8 0.579914 0.206740 0.121434
O O1 0.250000 0.395052 0.825869
O O2 0.027748 0.500000 0.852820
O O3 0.044556 0.318286 0.873583
O O4 0.003232 0.366107 0.792331
O O5 0.750000 0.604413 0.761688
O O6 0.531504 0.500000 0.732272
O O7 0.549019 0.683284 0.712409
O O8 0.750000 0.135661 0.224343
O O9 0.961187 0.153998 0.165804
O O10 0.027060 0.152074 0.248100
O O11 0.943291 0.000000 0.209476
O O12 0.250000 0.872535 0.623956
O O13 0.000344 0.853813 0.584926
O O14 0.015405 0.830727 0.668159
O O15 0.042781 0.000000 0.637323
O O16 0.500000 0.846650 0.500000
O O17 0.750000 0.847872 0.542702
O O18 0.585637 0.000000 0.539800
O O19 0.750000 0.181724 0.700945
O O20 0.750000 0.877328 0.962185
O O21 0.523096 0.829890 0.916416
O O22 0.535721 0.000000 0.947183
O O23 0.500000 0.855409 0.000000
O O24 0.750000 0.188675 0.109308
#
# Coordination Sequence:
#
# PCOD8208836 Si02
#       8
#     8   8   8   8   8   8   8   8
#     4   9  17  30  50  74  96 120 153 192 232 274
#     4   9  18  32  48  66  90 120 154 195 241 283
#     4  10  20  32  45  64  93 128 160 189 225 271
#     4  10  20  32  45  62  89 127 165 198 236 282
#     4   9  16  27  44  65  89 118 156 200 241 280
#     4  11  21  31  45  65  91 123 159 197 235 278
#     4  10  21  36  54  75  98 124 155 191 231 275
#     4  10  19  32  51  73  98 125 155 191 231 276
#
# _framework density 16.125433000000001
#
# number of rings (size 3 to 8) (size 9 to 14) (size 15 to 20)
#    0.000    2.250    1.250    2.250    0.000    6.750 
#    0.000    0.000    0.000    0.375    0.000    0.000 
#    0.000    0.500    0.000    1.375    0.000    2.000 
#
# Total GULP energy -793590.936349 kJ/mol
# GULP energy per Si atom -12399.858380 kJ/mol
# Density = 1.608873 g / cm^3
# Si number density = 16.125433 Si / 1000 Ang^3
#
#
#
# Elastic Constant Matrix: (Units=GPa)
#
#
# Indices 1 2 3 4 5 6 
#
# 1 80.9640 36.7780 55.0446 0.0000 0.0000 0.0000
# 2 36.7780 73.7343 47.4436 0.0000 0.0000 0.0000
# 3 55.0446 47.4436 112.6348 0.0000 0.0000 0.0000
# 4 0.0000 0.0000 0.0000 2.7877 0.0000 0.0000
# 5 0.0000 0.0000 0.0000 0.0000 34.4049 0.0000
# 6 0.0000 0.0000 0.0000 0.0000 0.0000 18.9475
#
#
#
# Elastic Compliance Matrix: (Units=1/GPa)
#
#
# Indices 1 2 3 4 5 6 
#
# 1 0.019753 -0.004995 -0.007549 0.000000 0.000000 0.000000
# 2 -0.004995 0.019868 -0.005928 0.000000 0.000000 0.000000
# 3 -0.007549 -0.005928 0.015064 0.000000 0.000000 0.000000
# 4 0.000000 0.000000 0.000000 0.358721 0.000000 0.000000
# 5 0.000000 0.000000 0.000000 0.000000 0.029066 0.000000
# 6 0.000000 0.000000 0.000000 0.000000 0.000000 0.052777
#
#
# Mechanical properties :
#
#
# Convention : Reuss Voigt Hill
#
# Bulk Modulus (GPa) = 56.36586 60.65172 58.50879
# Shear Modulus (GPa) = 9.29186 19.76581 14.52884
#
# Velocity S-wave (km/s) = 2.40307 3.50488 3.00490
# Velocity P-wave (km/s) = 6.53683 7.35343 6.95712
#
# Compressibility (1/GPa) = 0.01774124
#
# Stress axis : x y z
#
# Youngs Moduli (GPa) = 50.62649 50.33298 66.38229
#
# Poissons Ratio (x) = 0.25141 0.50113
# Poissons Ratio (y) = 0.25288 0.39348
# Poissons Ratio (z) = 0.38218 0.29835
#
# Static dielectric constant tensor:
#      x y z
#    x 3.209610 0.000000 0.000000 
#    y 0.000000 3.224410 0.000000 
#    z 0.000000 0.000000 2.990180 
# 
# 
# High freq. dielectric constant tensor:
#      x y z
#    x 1.631010 0.000000 0.000000 
#    y 0.000000 1.603050 0.000000 
#    z 0.000000 0.000000 1.606050 
# 
# From -- ./inp_files/37629.got.cif
#   From: 2010.03.12/outbox.cif.g09.slc.cpg/sg51_19_cif.got.tgz:37629.got - 2010.04.16 13:43:02.
