data_PCOD8208799
_publ_section_title
;
Structure prediction by ZEFSAII (Michael W. Deem and Ramdas Pophale) SiO2 
 PCOD8208799
Probable space group: P M M A
;
_chemical_formula_sum "Si O2"
_cell_formula_units_Z 56
_cell_length_a 8.800749
_cell_length_b 16.410468
_cell_length_c 23.328738
_cell_angle_alpha 90.000000
_cell_angle_beta 90.000000
_cell_angle_gamma 90.000000
_cell_volume 3369.239218
_symmetry_space_group_name_H-M "P M M A"
_symmetry_group_IT_number 51
_symmetry_cell_setting 'orthorhombic'
loop_
_space_group_symop_operation_xyz
x,y,z
1/2-x,-y,z
1/2+x,-y,-z
-x,y,-z
-x,-y,-z
1/2+x,y,-z
1/2-x,y,z
x,-y,z
loop_
_atom_site_type_symbol
_atom_site_label
_atom_site_fract_x
_atom_site_fract_y
_atom_site_fract_z
Si Si1 0.430166 0.000000 0.746820
Si Si2 0.071410 0.158631 0.439893
Si Si3 0.070326 0.833360 0.225427
Si Si4 0.430118 0.000000 0.615212
Si Si5 0.571692 0.406474 0.939005
Si Si6 0.429161 0.590629 0.724526
Si Si7 0.069712 0.311352 0.835612
Si Si8 0.574191 0.268741 0.665040
O O1 0.495686 0.921848 0.779542
O O2 0.486462 0.000000 0.680852
O O3 0.250000 0.000000 0.750677
O O4 0.250000 0.142563 0.445695
O O5 0.035669 0.232639 0.396929
O O6 0.000000 0.184761 0.500000
O O7 0.993551 0.077696 0.417249
O O8 0.250000 0.840952 0.218717
O O9 0.021551 0.795755 0.286749
O O10 0.003451 0.777381 0.174686
O O11 0.250000 0.000000 0.611135
O O12 0.750000 0.388983 0.940995
O O13 0.537373 0.500000 0.922016
O O14 0.492328 0.347043 0.894340
O O15 0.500000 0.385676 0.000000
O O16 0.250000 0.586982 0.721982
O O17 0.498608 0.500000 0.718928
O O18 0.484010 0.628844 0.784593
O O19 0.486518 0.646020 0.671988
O O20 0.250000 0.303069 0.838372
O O21 0.750000 0.287897 0.672773
#
# Coordination Sequence:
#
# PCOD8208799 Si02
#       8
#     4   8   8   4   8   8   8   8
#     4  11  21  32  50  75 102 131 166 203 248 297
#     4  11  22  36  51  70  96 126 162 200 244 294
#     4  10  19  33  51  72  99 132 167 204 251 299
#     4  11  22  34  51  73  98 129 163 197 240 293
#     4  10  20  33  50  74 105 142 180 215 253 297
#     4   9  18  31  49  73  99 127 159 198 245 294
#     4  10  19  32  50  74 105 136 170 208 249 297
#     4   9  19  33  49  69  94 124 158 198 244 294
#
# _framework density 16.620961999999999
#
# number of rings (size 3 to 8) (size 9 to 14) (size 15 to 20)
#    0.000    2.000    1.429    2.786    0.000    4.571 
#    0.000    0.000    0.000    0.429    0.000    0.500 
#    0.000    0.000    0.000    0.000    0.000    0.000 
#
# Total GULP energy -694581.057251 kJ/mol
# GULP energy per Si atom -12403.233165 kJ/mol
# Density = 1.658313 g / cm^3
# Si number density = 16.620962 Si / 1000 Ang^3
#
#
#
# Elastic Constant Matrix: (Units=GPa)
#
#
# Indices 1 2 3 4 5 6 
#
# 1 69.5623 46.1105 40.6362 0.0000 0.0000 0.0000
# 2 46.1105 137.0758 59.2448 0.0000 0.0000 0.0000
# 3 40.6362 59.2448 93.5265 0.0000 0.0000 0.0000
# 4 0.0000 0.0000 0.0000 -422.4795 0.0000 0.0000
# 5 0.0000 0.0000 0.0000 0.0000 28.6954 0.0000
# 6 0.0000 0.0000 0.0000 0.0000 0.0000 30.8151
#
#
#
# Elastic Compliance Matrix: (Units=1/GPa)
#
#
# Indices 1 2 3 4 5 6 
#
# 1 0.020948 -0.004286 -0.006386 0.000000 0.000000 0.000000
# 2 -0.004286 0.010923 -0.005057 0.000000 0.000000 0.000000
# 3 -0.006386 -0.005057 0.016670 0.000000 0.000000 0.000000
# 4 0.000000 0.000000 0.000000 -0.002367 0.000000 0.000000
# 5 0.000000 0.000000 0.000000 0.000000 0.034849 0.000000
# 6 0.000000 0.000000 0.000000 0.000000 0.000000 0.032452
#
#
# Mechanical properties :
#
#
# Convention : Reuss Voigt Hill
#
# Bulk Modulus (GPa) = 58.54195 65.79419 62.16807
# Shear Modulus (GPa) = 33.19483 -62.31559 -14.56038
#
# Velocity S-wave (km/s) = 4.47382 -6.12973 -2.96298
# Velocity P-wave (km/s) = 7.87305 3.22910 5.07729
#
# Compressibility (1/GPa) = 0.01708177
#
# Stress axis : x y z
#
# Youngs Moduli (GPa) = 47.73837 91.55343 59.98778
#
# Poissons Ratio (x) = 0.39242 0.38310
# Poissons Ratio (y) = 0.20462 0.30334
# Poissons Ratio (z) = 0.30487 0.46295
#
# Static dielectric constant tensor:
#      x y z
#    x 3.177840 0.000000 0.000000 
#    y 0.000000 3.062150 0.000000 
#    z 0.000000 0.000000 3.031480 
# 
# 
# High freq. dielectric constant tensor:
#      x y z
#    x 1.653130 0.000000 0.000000 
#    y 0.000000 1.636370 0.000000 
#    z 0.000000 0.000000 1.619810 
# 
# From -- ./inp_files/32092.got.cif
#   From: 2010.03.12/outbox.cif.g09.slc.cpg/sg51_17_cif.got.tgz:32092.got - 2010.04.16 13:43:02.
