data_PCOD8208598
_publ_section_title
;
Structure prediction by ZEFSAII (Michael W. Deem and Ramdas Pophale) SiO2 
 PCOD8208598
Probable space group: P M M A
;
_chemical_formula_sum "Si O2"
_cell_formula_units_Z 32
_cell_length_a 27.032497
_cell_length_b 10.724720
_cell_length_c 5.032941
_cell_angle_alpha 90.000000
_cell_angle_beta 90.000000
_cell_angle_gamma 90.000000
_cell_volume 1459.129928
_symmetry_space_group_name_H-M "P M M A"
_symmetry_group_IT_number 51
_symmetry_cell_setting 'orthorhombic'
loop_
_space_group_symop_operation_xyz
x,y,z
1/2-x,-y,z
1/2+x,-y,-z
-x,y,-z
-x,-y,-z
1/2+x,y,-z
1/2-x,y,z
x,-y,z
loop_
_atom_site_type_symbol
_atom_site_label
_atom_site_fract_x
_atom_site_fract_y
_atom_site_fract_z
Si Si1 0.366630 0.644739 0.303893
Si Si2 0.964519 0.000000 0.248405
Si Si3 0.534891 0.500000 0.254034
Si Si4 0.442381 0.748264 0.934006
Si Si5 0.695451 0.356923 0.213902
O O1 0.385328 0.500000 0.331331
O O2 0.411891 0.733294 0.207770
O O3 0.323836 0.656300 0.083719
O O4 0.343295 0.702351 0.574280
O O5 0.930135 0.124418 0.228018
O O6 0.000000 0.000000 0.500000
O O7 0.000000 0.000000 0.000000
O O8 0.500000 0.500000 0.500000
O O9 0.569397 0.625064 0.250467
O O10 0.500000 0.500000 0.000000
O O11 0.500000 0.748313 0.000000
O O12 0.750000 0.294220 0.231561
O O13 0.700345 0.500000 0.300722
#
# Coordination Sequence:
#
# PCOD8208598 Si02
#       5
#     8   4   4   8   8
#     4  10  19  31  50  78 104 137 174 214 265 320
#     4  10  22  38  54  72 103 148 189 218 254 306
#     4  10  20  32  50  72 101 138 171 210 260 298
#     4  10  21  37  53  79 110 145 180 221 262 317
#     4   9  18  32  50  74 106 136 170 217 268 317
#
# _framework density 21.930879000000001
#
# number of rings (size 3 to 8) (size 9 to 14) (size 15 to 20)
#    0.000    2.250    1.250    1.500    0.000   11.000 
#    0.000    0.000    0.000    0.000    0.000    5.250 
#    0.000    0.000    0.000    0.000    0.000    0.000 
#
# Total GULP energy -396626.554684 kJ/mol
# GULP energy per Si atom -12394.579834 kJ/mol
# Density = 2.188096 g / cm^3
# Si number density = 21.930879 Si / 1000 Ang^3
#
#
#
# Elastic Constant Matrix: (Units=GPa)
#
#
# Indices 1 2 3 4 5 6 
#
# 1 67.2195 -1.4942 -32.2075 0.0000 0.0000 0.0000
# 2 -1.4942 137.9786 2.0193 0.0000 0.0000 0.0000
# 3 -32.2075 2.0193 50.1455 0.0000 0.0000 0.0000
# 4 0.0000 0.0000 0.0000 19.6559 0.0000 0.0000
# 5 0.0000 0.0000 0.0000 0.0000 24.0522 0.0000
# 6 0.0000 0.0000 0.0000 0.0000 0.0000 7.0241
#
#
#
# Elastic Compliance Matrix: (Units=1/GPa)
#
#
# Indices 1 2 3 4 5 6 
#
# 1 0.021490 0.000031 0.013801 0.000000 0.000000 0.000000
# 2 0.000031 0.007252 -0.000272 0.000000 0.000000 0.000000
# 3 0.013801 -0.000272 0.028817 0.000000 0.000000 0.000000
# 4 0.000000 0.000000 0.000000 0.050875 0.000000 0.000000
# 5 0.000000 0.000000 0.000000 0.000000 0.041576 0.000000
# 6 0.000000 0.000000 0.000000 0.000000 0.000000 0.142366
#
#
# Mechanical properties :
#
#
# Convention : Reuss Voigt Hill
#
# Bulk Modulus (GPa) = 11.80929 21.33100 16.57014
# Shear Modulus (GPa) = 17.03673 29.28152 23.15912
#
# Velocity S-wave (km/s) = 2.79020 3.65797 3.25315
# Velocity P-wave (km/s) = 3.97200 5.25248 4.65646
#
# Compressibility (1/GPa) = 0.08467909
#
# Stress axis : x y z
#
# Youngs Moduli (GPa) = 46.53299 137.89649 34.70133
#
# Poissons Ratio (x) = -0.00424 -0.47893
# Poissons Ratio (y) = -0.00143 0.00945
# Poissons Ratio (z) = -0.64222 0.03755
#
# Static dielectric constant tensor:
#      x y z
#    x 3.997370 0.000000 0.000000 
#    y 0.000000 -1.734850 0.000000 
#    z 0.000000 0.000000 4.564520 
# 
# 
# High freq. dielectric constant tensor:
#      x y z
#    x 1.856910 0.000000 0.000000 
#    y 0.000000 1.807480 0.000000 
#    z 0.000000 0.000000 1.881050 
# 
# From -- ./inp_files/2869.got.cif
#   From: 2010.03.12/outbox.cif.g09.slc.cpg/sg51_2_cif.got.tgz:2869.got - 2010.04.16 13:43:02.
