data_PCOD8208038
_publ_section_title
;
Structure prediction by ZEFSAII (Michael W. Deem and Ramdas Pophale) SiO2 
 PCOD8208038
Probable space group: P M M A
;
_chemical_formula_sum "Si O2"
_cell_formula_units_Z 48
_cell_length_a 9.188175
_cell_length_b 13.698808
_cell_length_c 23.469536
_cell_angle_alpha 90.000000
_cell_angle_beta 90.000000
_cell_angle_gamma 90.000000
_cell_volume 2954.041148
_symmetry_space_group_name_H-M "P M M A"
_symmetry_group_IT_number 51
_symmetry_cell_setting 'orthorhombic'
loop_
_space_group_symop_operation_xyz
x,y,z
1/2-x,-y,z
1/2+x,-y,-z
-x,y,-z
-x,-y,-z
1/2+x,y,-z
1/2-x,y,z
x,-y,z
loop_
_atom_site_type_symbol
_atom_site_label
_atom_site_fract_x
_atom_site_fract_y
_atom_site_fract_z
Si Si1 0.583647 0.706203 0.659063
Si Si2 0.079876 0.888445 0.944004
Si Si3 0.421982 0.213752 0.828477
Si Si4 0.917033 0.889752 0.729441
Si Si5 0.579728 0.387555 0.442661
Si Si6 0.919098 0.610997 0.778177
O O1 0.750000 0.690824 0.639120
O O2 0.552882 0.818715 0.675979
O O3 0.476047 0.679273 0.608466
O O4 0.547900 0.637563 0.712792
O O5 0.250000 0.880328 0.955210
O O6 0.031516 0.823014 0.890709
O O7 0.033453 0.000000 0.931578
O O8 0.000000 0.847785 0.000000
O O9 0.250000 0.218314 0.821184
O O10 0.482583 0.137541 0.782529
O O11 0.487905 0.321354 0.820180
O O12 0.750000 0.876859 0.749272
O O13 0.951029 0.000000 0.709876
O O14 0.500000 0.353856 0.500000
O O15 0.750000 0.370548 0.450896
O O16 0.542820 0.500000 0.428769
O O17 0.750000 0.628216 0.791561
O O18 0.966407 0.500000 0.789149
#
# Coordination Sequence:
#
# PCOD8208038 Si02
#       6
#     8   8   8   8   8   8
#     4   9  17  30  48  69  93 120 150 187 228 267
#     4   9  18  31  46  66  92 121 152 187 229 275
#     4  10  19  30  46  70  98 123 150 190 236 277
#     4   9  18  32  49  69  94 126 160 189 223 272
#     4  10  20  32  47  68  93 121 152 186 226 272
#     4   9  18  32  49  69  94 125 158 189 225 273
#
# _framework density 16.248926999999998
#
# number of rings (size 3 to 8) (size 9 to 14) (size 15 to 20)
#    0.000    2.667    0.000    3.000    0.000    7.000 
#    0.000    1.667    0.000    1.000    0.000    0.000 
#    0.000    0.000    0.000    0.000    0.000    0.000 
#
# Total GULP energy -595266.861061 kJ/mol
# GULP energy per Si atom -12401.392939 kJ/mol
# Density = 1.621194 g / cm^3
# Si number density = 16.248927 Si / 1000 Ang^3
#
#
#
# Elastic Constant Matrix: (Units=GPa)
#
#
# Indices 1 2 3 4 5 6 
#
# 1 73.0677 48.4024 62.5728 0.0000 0.0000 0.0000
# 2 48.4024 121.5679 65.8764 0.0000 0.0000 0.0000
# 3 62.5728 65.8764 119.5539 0.0000 0.0000 0.0000
# 4 0.0000 0.0000 0.0000 23.3467 0.0000 0.0000
# 5 0.0000 0.0000 0.0000 0.0000 32.8490 0.0000
# 6 0.0000 0.0000 0.0000 0.0000 0.0000 24.6248
#
#
#
# Elastic Compliance Matrix: (Units=1/GPa)
#
#
# Indices 1 2 3 4 5 6 
#
# 1 0.026285 -0.004292 -0.011392 0.000000 0.000000 0.000000
# 2 -0.004292 0.012428 -0.004602 0.000000 0.000000 0.000000
# 3 -0.011392 -0.004602 0.016863 0.000000 0.000000 0.000000
# 4 0.000000 0.000000 0.000000 0.042833 0.000000 0.000000
# 5 0.000000 0.000000 0.000000 0.000000 0.030442 0.000000
# 6 0.000000 0.000000 0.000000 0.000000 0.000000 0.040609
#
#
# Mechanical properties :
#
#
# Convention : Reuss Voigt Hill
#
# Bulk Modulus (GPa) = 66.64969 74.21028 70.42998
# Shear Modulus (GPa) = 23.25210 25.31996 24.28603
#
# Velocity S-wave (km/s) = 3.78695 3.95176 3.87023
# Velocity P-wave (km/s) = 7.76069 8.16038 7.96304
#
# Compressibility (1/GPa) = 0.01500382
#
# Stress axis : x y z
#
# Youngs Moduli (GPa) = 38.04439 80.46034 59.30260
#
# Poissons Ratio (x) = 0.34535 0.67559
# Poissons Ratio (y) = 0.16329 0.27290
# Poissons Ratio (z) = 0.43341 0.37027
#
# Static dielectric constant tensor:
#      x y z
#    x 3.052750 0.000000 0.000000 
#    y 0.000000 3.167160 0.000000 
#    z 0.000000 0.000000 2.940330 
# 
# 
# High freq. dielectric constant tensor:
#      x y z
#    x 1.629460 0.000000 0.000000 
#    y 0.000000 1.619070 0.000000 
#    z 0.000000 0.000000 1.610860 
# 
# From -- ./inp_files/31629.got.cif
#   From: 2010.03.12/outbox.cif.g09.slc.cpg/sg51_16_cif.got.tgz:31629.got - 2010.04.16 13:43:02.
