data_PCOD8208632
_publ_section_title
;
Structure prediction by ZEFSAII (Michael W. Deem and Ramdas Pophale) SiO2 
 PCOD8208632
Probable space group: P M M A
;
_chemical_formula_sum "Si O2"
_cell_formula_units_Z 44
_cell_length_a 9.192731
_cell_length_b 17.355120
_cell_length_c 15.066113
_cell_angle_alpha 90.000000
_cell_angle_beta 90.000000
_cell_angle_gamma 90.000000
_cell_volume 2403.661975
_symmetry_space_group_name_H-M "P M M A"
_symmetry_group_IT_number 51
_symmetry_cell_setting 'orthorhombic'
loop_
_space_group_symop_operation_xyz
x,y,z
1/2-x,-y,z
1/2+x,-y,-z
-x,y,-z
-x,-y,-z
1/2+x,y,-z
1/2-x,y,z
x,-y,z
loop_
_atom_site_type_symbol
_atom_site_label
_atom_site_fract_x
_atom_site_fract_y
_atom_site_fract_z
Si Si1 0.077907 0.706311 0.761089
Si Si2 0.408897 0.121736 0.419117
Si Si3 0.579757 0.000000 0.906666
Si Si4 0.077201 0.863932 0.224365
Si Si5 0.913344 0.696114 0.583328
Si Si6 0.581085 0.587259 0.086991
O O1 0.250000 0.717082 0.746723
O O2 0.038692 0.641209 0.831687
O O3 0.009505 0.785977 0.796155
O O4 0.004579 0.676885 0.670920
O O5 0.500000 0.085020 0.500000
O O6 0.250000 0.084689 0.427647
O O7 0.471957 0.102481 0.320926
O O8 0.401544 0.213005 0.429425
O O9 0.534497 0.075353 0.851196
O O10 0.750000 0.000000 0.925400
O O11 0.500000 0.000000 0.000000
O O12 0.250000 0.846382 0.226925
O O13 0.750000 0.661028 0.589129
O O14 0.000000 0.659587 0.500000
O O15 0.750000 0.591967 0.065634
O O16 0.533140 0.500000 0.110329
O O17 0.500000 0.617988 0.000000
#
# Coordination Sequence:
#
# PCOD8208632 Si02
#       6
#     8   8   4   8   8   8
#     4  10  19  31  51  78 104 131 166 208 250 296
#     4   8  14  25  43  67  94 123 153 188 232 281
#     4  10  22  40  57  70  92 130 171 212 258 302
#     4   9  19  35  52  71  98 132 168 205 248 299
#     4   9  16  27  45  71 103 136 169 205 245 291
#     4   9  19  35  53  74 101 132 165 204 253 306
#
# _framework density 18.305402999999998
#
# number of rings (size 3 to 8) (size 9 to 14) (size 15 to 20)
#    0.000    2.909    0.000    2.182    0.000    7.273 
#    0.000    4.091    0.000    0.545    0.000    0.000 
#    0.000    0.000    0.000    0.000    0.000    0.000 
#
# Total GULP energy -545430.604295 kJ/mol
# GULP energy per Si atom -12396.150098 kJ/mol
# Density = 1.826374 g / cm^3
# Si number density = 18.305403 Si / 1000 Ang^3
#
#
#
# Elastic Constant Matrix: (Units=GPa)
#
#
# Indices 1 2 3 4 5 6 
#
# 1 92.5977 46.2625 78.2288 0.0000 0.0000 0.0000
# 2 46.2625 68.9954 70.2216 0.0000 0.0000 0.0000
# 3 78.2288 70.2216 176.2665 0.0000 0.0000 0.0000
# 4 0.0000 0.0000 0.0000 -35.5331 0.0000 0.0000
# 5 0.0000 0.0000 0.0000 0.0000 38.2935 0.0000
# 6 0.0000 0.0000 0.0000 0.0000 0.0000 14.0462
#
#
#
# Elastic Compliance Matrix: (Units=1/GPa)
#
#
# Indices 1 2 3 4 5 6 
#
# 1 0.019112 -0.007034 -0.005680 0.000000 0.000000 0.000000
# 2 -0.007034 0.026967 -0.007621 0.000000 0.000000 0.000000
# 3 -0.005680 -0.007621 0.011230 0.000000 0.000000 0.000000
# 4 0.000000 0.000000 0.000000 -0.028143 0.000000 0.000000
# 5 0.000000 0.000000 0.000000 0.000000 0.026114 0.000000
# 6 0.000000 0.000000 0.000000 0.000000 0.000000 0.071194
#
#
# Mechanical properties :
#
#
# Convention : Reuss Voigt Hill
#
# Bulk Modulus (GPa) = 60.10114 80.80947 70.45530
# Shear Modulus (GPa) = 28.95332 12.90445 20.92889
#
# Velocity S-wave (km/s) = 3.98135 2.65798 3.38497
# Velocity P-wave (km/s) = 7.35110 7.32535 7.33823
#
# Compressibility (1/GPa) = 0.01663862
#
# Stress axis : x y z
#
# Youngs Moduli (GPa) = 52.32234 37.08215 89.04519
#
# Poissons Ratio (x) = 0.26085 0.50577
# Poissons Ratio (y) = 0.36805 0.67865
# Poissons Ratio (z) = 0.29719 0.28262
#
# Static dielectric constant tensor:
#      x y z
#    x 3.530690 0.000000 0.000000 
#    y 0.000000 3.091340 0.000000 
#    z 0.000000 0.000000 3.525710 
# 
# 
# High freq. dielectric constant tensor:
#      x y z
#    x 1.711650 0.000000 0.000000 
#    y 0.000000 1.675300 0.000000 
#    z 0.000000 0.000000 1.719020 
# 
# From -- ./inp_files/20916.got.cif
#   From: 2010.03.12/outbox.cif.g09.slc.cpg/sg51_11_cif.got.tgz:20916.got - 2010.04.16 13:43:02.
