data_PCOD8208765
_publ_section_title
;
Structure prediction by ZEFSAII (Michael W. Deem and Ramdas Pophale) SiO2 
 PCOD8208765
Probable space group: P M M A
;
_chemical_formula_sum "Si O2"
_cell_formula_units_Z 52
_cell_length_a 8.976536
_cell_length_b 10.255307
_cell_length_c 30.520350
_cell_angle_alpha 90.000000
_cell_angle_beta 90.000000
_cell_angle_gamma 90.000000
_cell_volume 2809.615903
_symmetry_space_group_name_H-M "P M M A"
_symmetry_group_IT_number 51
_symmetry_cell_setting 'orthorhombic'
loop_
_space_group_symop_operation_xyz
x,y,z
1/2-x,-y,z
1/2+x,-y,-z
-x,y,-z
-x,-y,-z
1/2+x,y,-z
1/2-x,y,z
x,-y,z
loop_
_atom_site_type_symbol
_atom_site_label
_atom_site_fract_x
_atom_site_fract_y
_atom_site_fract_z
Si Si1 0.587458 0.645824 0.370258
Si Si2 0.924335 0.718395 0.547352
Si Si3 0.573780 0.849376 0.867903
Si Si4 0.574256 0.650896 0.199231
Si Si5 0.915332 0.653822 0.711616
Si Si6 0.583061 0.845856 0.042450
Si Si7 0.417705 0.000000 0.455492
O O1 0.750000 0.714712 0.375753
O O2 0.615217 0.500000 0.353498
O O3 0.502455 0.630357 0.416563
O O4 0.489561 0.715721 0.332384
O O5 0.750000 0.683873 0.542838
O O6 0.000000 0.698808 0.500000
O O7 0.952357 0.863740 0.568527
O O8 0.750000 0.832046 0.868641
O O9 0.504531 0.749988 0.833480
O O10 0.510216 0.807164 0.914873
O O11 0.530655 0.000000 0.856800
O O12 0.750000 0.672135 0.197047
O O13 0.532587 0.500000 0.188200
O O14 0.518083 0.690074 0.247342
O O15 0.750000 0.715096 0.717357
O O16 0.898999 0.500000 0.706665
O O17 0.750000 0.787132 0.045715
O O18 0.592770 0.000000 0.037543
O O19 0.500000 0.786195 0.000000
O O20 0.500000 0.000000 0.500000
O O21 0.250000 0.000000 0.471017
#
# Coordination Sequence:
#
# PCOD8208765 Si02
#       7
#     8   8   8   8   8   8   4
#     4  10  20  33  49  71  99 128 158 194 237 286
#     4  10  19  32  50  71  95 123 156 194 237 284
#     4  10  20  33  51  77 108 141 177 218 265 312
#     4  10  20  34  54  79 105 135 173 216 260 311
#     4   9  17  31  52  75  97 125 162 202 244 291
#     4   9  16  27  45  70 101 137 177 219 261 308
#     4   8  16  30  48  68  88 114 150 190 228 268
#
# _framework density 18.507867999999998
#
# number of rings (size 3 to 8) (size 9 to 14) (size 15 to 20)
#    0.000    2.462    0.000    2.769    0.000    7.385 
#    0.000    0.000    1.692    0.462    0.000    0.000 
#    0.000    0.000    0.000    0.000    0.000    0.000 
#
# Total GULP energy -644310.122861 kJ/mol
# GULP energy per Si atom -12390.579286 kJ/mol
# Density = 1.846574 g / cm^3
# Si number density = 18.507868 Si / 1000 Ang^3
#
#
#
# Elastic Constant Matrix: (Units=GPa)
#
#
# Indices 1 2 3 4 5 6 
#
# 1 144.8294 31.5729 73.7435 0.0000 0.0000 0.0000
# 2 31.5729 43.6799 36.4262 0.0000 0.0000 0.0000
# 3 73.7435 36.4262 151.2666 0.0000 0.0000 0.0000
# 4 0.0000 0.0000 0.0000 11.5463 0.0000 0.0000
# 5 0.0000 0.0000 0.0000 0.0000 39.6446 0.0000
# 6 0.0000 0.0000 0.0000 0.0000 0.0000 19.8786
#
#
#
# Elastic Compliance Matrix: (Units=1/GPa)
#
#
# Indices 1 2 3 4 5 6 
#
# 1 0.009670 -0.003827 -0.003793 0.000000 0.000000 0.000000
# 2 -0.003827 0.030161 -0.005397 0.000000 0.000000 0.000000
# 3 -0.003793 -0.005397 0.009760 0.000000 0.000000 0.000000
# 4 0.000000 0.000000 0.000000 0.086608 0.000000 0.000000
# 5 0.000000 0.000000 0.000000 0.000000 0.025224 0.000000
# 6 0.000000 0.000000 0.000000 0.000000 0.000000 0.050305
#
#
# Mechanical properties :
#
#
# Convention : Reuss Voigt Hill
#
# Bulk Modulus (GPa) = 42.45071 69.25122 55.85097
# Shear Modulus (GPa) = 20.35712 27.41612 23.88662
#
# Velocity S-wave (km/s) = 3.32010 3.85297 3.59642
# Velocity P-wave (km/s) = 6.13871 7.56916 6.89115
#
# Compressibility (1/GPa) = 0.02355673
#
# Stress axis : x y z
#
# Youngs Moduli (GPa) = 103.41172 33.15535 102.46400
#
# Poissons Ratio (x) = 0.12688 0.38861
# Poissons Ratio (y) = 0.39575 0.55304
# Poissons Ratio (z) = 0.39221 0.17895
#
# Static dielectric constant tensor:
#      x y z
#    x 3.746990 0.000000 0.000000 
#    y 0.000000 3.231800 0.000000 
#    z 0.000000 0.000000 3.373380 
# 
# 
# High freq. dielectric constant tensor:
#      x y z
#    x 1.742620 0.000000 0.000000 
#    y 0.000000 1.670100 0.000000 
#    z 0.000000 0.000000 1.716780 
# 
# From -- ./inp_files/36257.got.cif
#   From: 2010.03.12/outbox.cif.g09.slc.cpg/sg51_19_cif.got.tgz:36257.got - 2010.04.16 13:43:02.
