data_PCOD8208735
_publ_section_title
;
Structure prediction by ZEFSAII (Michael W. Deem and Ramdas Pophale) SiO2 
 PCOD8208735
Probable space group: P M M A
;
_chemical_formula_sum "Si O2"
_cell_formula_units_Z 48
_cell_length_a 25.940403
_cell_length_b 8.677107
_cell_length_c 11.747573
_cell_angle_alpha 90.000000
_cell_angle_beta 90.000000
_cell_angle_gamma 90.000000
_cell_volume 2644.233629
_symmetry_space_group_name_H-M "P M M A"
_symmetry_group_IT_number 51
_symmetry_cell_setting 'orthorhombic'
loop_
_space_group_symop_operation_xyz
x,y,z
1/2-x,-y,z
1/2+x,-y,-z
-x,y,-z
-x,-y,-z
1/2+x,y,-z
1/2-x,y,z
x,-y,z
loop_
_atom_site_type_symbol
_atom_site_label
_atom_site_fract_x
_atom_site_fract_y
_atom_site_fract_z
Si Si1 0.896824 0.819750 0.336059
Si Si2 0.808283 0.820143 0.167404
Si Si3 0.377232 0.679065 0.016205
Si Si4 0.467206 0.678515 0.842866
Si Si5 0.056577 0.681117 0.458309
Si Si6 0.430972 0.820776 0.212919
O O1 0.841926 0.776935 0.278945
O O2 0.941840 0.721511 0.277120
O O3 0.899280 0.768024 0.467450
O O4 0.908513 0.000000 0.322462
O O5 0.750000 0.768167 0.193372
O O6 0.812240 0.000000 0.141159
O O7 0.827534 0.733643 0.054298
O O8 0.371582 0.500000 0.042813
O O9 0.382021 0.769872 0.135846
O O10 0.427941 0.717185 0.943126
O O11 0.483369 0.500000 0.841939
O O12 0.518136 0.780200 0.860337
O O13 0.063189 0.500000 0.473541
O O14 0.067274 0.724937 0.328705
O O15 0.000000 0.736116 0.500000
O O16 0.427562 0.000000 0.241282
#
# Coordination Sequence:
#
# PCOD8208735 Si02
#       6
#     8   8   8   8   8   8
#     4  10  19  32  53  80 107 138 179 222 262 310
#     4   9  19  37  60  84 109 136 170 218 273 321
#     4  10  21  35  52  76 107 139 176 219 264 316
#     4  10  19  32  49  72 105 143 177 214 259 309
#     4  11  22  35  52  73 106 148 183 219 264 314
#     4  12  23  33  50  74 105 143 182 219 260 314
#
# _framework density 18.152708000000001
#
# number of rings (size 3 to 8) (size 9 to 14) (size 15 to 20)
#    0.000    1.667    1.667    4.000    0.000    5.667 
#    0.000    0.000    0.000    1.000    0.000    2.333 
#    0.000    0.000    0.000    0.000    0.000    0.000 
#
# Total GULP energy -595271.046729 kJ/mol
# GULP energy per Si atom -12401.480140 kJ/mol
# Density = 1.811139 g / cm^3
# Si number density = 18.152708 Si / 1000 Ang^3
#
#
#
# Elastic Constant Matrix: (Units=GPa)
#
#
# Indices 1 2 3 4 5 6 
#
# 1 83.6260 25.3960 38.6251 0.0000 0.0000 0.0000
# 2 25.3960 51.8743 23.9191 0.0000 0.0000 0.0000
# 3 38.6251 23.9191 94.8962 0.0000 0.0000 0.0000
# 4 0.0000 0.0000 0.0000 31.9586 0.0000 0.0000
# 5 0.0000 0.0000 0.0000 0.0000 15.2634 0.0000
# 6 0.0000 0.0000 0.0000 0.0000 0.0000 19.6796
#
#
#
# Elastic Compliance Matrix: (Units=1/GPa)
#
#
# Indices 1 2 3 4 5 6 
#
# 1 0.015986 -0.005461 -0.005130 0.000000 0.000000 0.000000
# 2 -0.005461 0.023678 -0.003746 0.000000 0.000000 0.000000
# 3 -0.005130 -0.003746 0.013570 0.000000 0.000000 0.000000
# 4 0.000000 0.000000 0.000000 0.031290 0.000000 0.000000
# 5 0.000000 0.000000 0.000000 0.000000 0.065516 0.000000
# 6 0.000000 0.000000 0.000000 0.000000 0.000000 0.050814
#
#
# Mechanical properties :
#
#
# Convention : Reuss Voigt Hill
#
# Bulk Modulus (GPa) = 40.71513 45.14189 42.92851
# Shear Modulus (GPa) = 21.03367 22.87740 21.95553
#
# Velocity S-wave (km/s) = 3.40767 3.55389 3.48155
# Velocity P-wave (km/s) = 6.16124 6.46235 6.31359
#
# Compressibility (1/GPa) = 0.02456090
#
# Stress axis : x y z
#
# Youngs Moduli (GPa) = 62.55520 42.23372 73.69165
#
# Poissons Ratio (x) = 0.23062 0.37806
# Poissons Ratio (y) = 0.34159 0.27601
# Poissons Ratio (z) = 0.32093 0.15819
#
# Static dielectric constant tensor:
#      x y z
#    x 3.232530 0.000000 0.000000 
#    y 0.000000 3.329570 0.000000 
#    z 0.000000 0.000000 3.418580 
# 
# 
# High freq. dielectric constant tensor:
#      x y z
#    x 1.665310 0.000000 0.000000 
#    y 0.000000 1.712970 0.000000 
#    z 0.000000 0.000000 1.707360 
# 
# From -- ./inp_files/18530.got.cif
#   From: 2010.03.12/outbox.cif.g09.slc.cpg/sg51_10_cif.got.tgz:18530.got - 2010.04.16 13:43:02.
