data_PCOD8208394
_publ_section_title
;
Structure prediction by ZEFSAII (Michael W. Deem and Ramdas Pophale) SiO2 
 PCOD8208394
Probable space group: P M M A
;
_chemical_formula_sum "Si O2"
_cell_formula_units_Z 56
_cell_length_a 8.694404
_cell_length_b 22.675743
_cell_length_c 14.825816
_cell_angle_alpha 90.000000
_cell_angle_beta 90.000000
_cell_angle_gamma 90.000000
_cell_volume 2922.940323
_symmetry_space_group_name_H-M "P M M A"
_symmetry_group_IT_number 51
_symmetry_cell_setting 'orthorhombic'
loop_
_space_group_symop_operation_xyz
x,y,z
1/2-x,-y,z
1/2+x,-y,-z
-x,y,-z
-x,-y,-z
1/2+x,y,-z
1/2-x,y,z
x,-y,z
loop_
_atom_site_type_symbol
_atom_site_label
_atom_site_fract_x
_atom_site_fract_y
_atom_site_fract_z
Si Si1 0.432491 0.243516 0.593537
Si Si2 0.431308 0.433524 0.405860
Si Si3 0.930719 0.837926 0.905447
Si Si4 0.071534 0.890796 0.590029
Si Si5 0.067840 0.333608 0.270561
Si Si6 0.432510 0.712281 0.903125
Si Si7 0.072126 0.066657 0.781472
O O1 0.500000 0.269154 0.500000
O O2 0.250000 0.252022 0.595946
O O3 0.486069 0.176029 0.604985
O O4 0.509073 0.276693 0.676578
O O5 0.500000 0.410121 0.500000
O O6 0.250000 0.430916 0.415765
O O7 0.489025 0.500000 0.385662
O O8 0.486644 0.392215 0.323770
O O9 0.750000 0.826801 0.914946
O O10 0.010366 0.777318 0.874546
O O11 0.962326 0.889536 0.834901
O O12 0.000000 0.859274 0.000000
O O13 0.250000 0.890356 0.572993
O O14 0.026672 0.929780 0.676277
O O15 0.000000 0.919135 0.500000
O O16 0.250000 0.330958 0.259969
O O17 0.991363 0.334185 0.171500
O O18 0.250000 0.711693 0.908117
O O19 0.500000 0.693769 0.000000
O O20 0.250000 0.085323 0.795398
O O21 0.043880 0.000000 0.814972
#
# Coordination Sequence:
#
# PCOD8208394 Si02
#       7
#     8   8   8   8   8   8   8
#     4  10  19  31  48  73 106 140 176 220 271 324
#     4   9  19  35  54  78 112 153 193 231 268 310
#     4  11  22  38  60  83 108 137 171 213 266 324
#     4   9  19  34  51  71  98 134 172 213 260 311
#     4  11  21  33  53  81 111 143 182 225 271 320
#     4  11  22  38  59  83 111 140 174 216 267 324
#     4  10  21  37  55  76 104 138 177 220 265 315
#
# _framework density 19.158791000000001
#
# number of rings (size 3 to 8) (size 9 to 14) (size 15 to 20)
#    0.000    1.857    0.000    5.571    0.000    5.429 
#    0.000    0.000    0.000    0.429    0.000    0.000 
#    0.000    0.000    0.000    0.000    0.000    0.000 
#
# Total GULP energy -694538.561065 kJ/mol
# GULP energy per Si atom -12402.474305 kJ/mol
# Density = 1.911518 g / cm^3
# Si number density = 19.158791 Si / 1000 Ang^3
#
#
#
# Elastic Constant Matrix: (Units=GPa)
#
#
# Indices 1 2 3 4 5 6 
#
# 1 97.9773 34.5110 48.0996 0.0000 0.0000 0.0000
# 2 34.5110 73.0836 54.9985 0.0000 0.0000 0.0000
# 3 48.0996 54.9985 128.0869 0.0000 0.0000 0.0000
# 4 0.0000 0.0000 0.0000 24.5423 0.0000 0.0000
# 5 0.0000 0.0000 0.0000 0.0000 36.7452 0.0000
# 6 0.0000 0.0000 0.0000 0.0000 0.0000 16.9296
#
#
#
# Elastic Compliance Matrix: (Units=1/GPa)
#
#
# Indices 1 2 3 4 5 6 
#
# 1 0.013152 -0.003684 -0.003357 0.000000 0.000000 0.000000
# 2 -0.003684 0.021247 -0.007740 0.000000 0.000000 0.000000
# 3 -0.003357 -0.007740 0.012391 0.000000 0.000000 0.000000
# 4 0.000000 0.000000 0.000000 0.040746 0.000000 0.000000
# 5 0.000000 0.000000 0.000000 0.000000 0.027214 0.000000
# 6 0.000000 0.000000 0.000000 0.000000 0.000000 0.059068
#
#
# Mechanical properties :
#
#
# Convention : Reuss Voigt Hill
#
# Bulk Modulus (GPa) = 58.04324 63.81847 60.93085
# Shear Modulus (GPa) = 23.90927 26.41266 25.16097
#
# Velocity S-wave (km/s) = 3.53647 3.71700 3.62786
# Velocity P-wave (km/s) = 6.85836 7.19750 7.02998
#
# Compressibility (1/GPa) = 0.01722853
#
# Stress axis : x y z
#
# Youngs Moduli (GPa) = 76.03274 47.06511 80.70323
#
# Poissons Ratio (x) = 0.17341 0.27092
# Poissons Ratio (y) = 0.28014 0.62461
# Poissons Ratio (z) = 0.25524 0.36427
#
# Static dielectric constant tensor:
#      x y z
#    x 3.503640 0.000000 0.000000 
#    y 0.000000 3.481840 0.000000 
#    z 0.000000 0.000000 3.698760 
# 
# 
# High freq. dielectric constant tensor:
#      x y z
#    x 1.748660 0.000000 0.000000 
#    y 0.000000 1.726080 0.000000 
#    z 0.000000 0.000000 1.750580 
# 
# From -- ./inp_files/21725.got.cif
#   From: 2010.03.12/outbox.cif.g09.slc.cpg/sg51_11_cif.got.tgz:21725.got - 2010.04.16 13:43:02.
