data_PCOD8208568
_publ_section_title
;
Structure prediction by ZEFSAII (Michael W. Deem and Ramdas Pophale) SiO2 
 PCOD8208568
Probable space group: P M M A
;
_chemical_formula_sum "Si O2"
_cell_formula_units_Z 64
_cell_length_a 9.285170
_cell_length_b 17.671887
_cell_length_c 22.236218
_cell_angle_alpha 90.000000
_cell_angle_beta 90.000000
_cell_angle_gamma 90.000000
_cell_volume 3648.662629
_symmetry_space_group_name_H-M "P M M A"
_symmetry_group_IT_number 51
_symmetry_cell_setting 'orthorhombic'
loop_
_space_group_symop_operation_xyz
x,y,z
1/2-x,-y,z
1/2+x,-y,-z
-x,y,-z
-x,-y,-z
1/2+x,y,-z
1/2-x,y,z
x,-y,z
loop_
_atom_site_type_symbol
_atom_site_label
_atom_site_fract_x
_atom_site_fract_y
_atom_site_fract_z
Si Si1 0.912126 0.198410 0.663217
Si Si2 0.087099 0.417594 0.640595
Si Si3 0.501178 0.676293 0.750087
Si Si4 0.907928 0.795794 0.159632
Si Si5 0.412329 0.582463 0.140816
Si Si6 0.583475 0.912604 0.257503
Si Si7 0.076561 0.718989 0.563051
Si Si8 0.421724 0.282116 0.062400
O O1 0.750000 0.180701 0.640949
O O2 0.899706 0.267971 0.710470
O O3 0.979614 0.123904 0.692994
O O4 0.016468 0.216888 0.607494
O O5 0.250000 0.432273 0.623092
O O6 0.006827 0.500000 0.640776
O O7 0.023172 0.362090 0.589545
O O8 0.086300 0.378429 0.705847
O O9 0.398495 0.728623 0.790757
O O10 0.590711 0.621535 0.793833
O O11 0.750000 0.799935 0.129181
O O12 0.945503 0.874247 0.192735
O O13 0.028883 0.782953 0.108926
O O14 0.250000 0.568328 0.121685
O O15 0.492245 0.500000 0.141524
O O16 0.478686 0.637988 0.090052
O O17 0.750000 0.900417 0.276495
O O18 0.543106 0.000000 0.251499
O O19 0.250000 0.725409 0.558460
O O20 0.000000 0.730973 0.500000
O O21 0.250000 0.278453 0.055172
O O22 0.500000 0.268307 0.000000
#
# Coordination Sequence:
#
# PCOD8208568 Si02
#       8
#     8   8   8   8   8   8   8   8
#     4  10  19  31  50  76 103 131 165 201 237 283
#     4   9  17  28  43  65  93 125 162 206 254 300
#     4   9  16  27  45  67  96 127 161 198 241 292
#     4   9  17  30  50  74  99 127 159 194 233 280
#     4   9  17  28  42  62  89 121 157 200 249 294
#     4   9  18  33  54  81 111 137 157 183 227 282
#     4  10  20  34  51  69  93 128 170 213 253 293
#     4  10  20  33  49  67  90 123 164 207 246 286
#
# _framework density 17.540673999999999
#
# number of rings (size 3 to 8) (size 9 to 14) (size 15 to 20)
#    0.000    2.625    0.000    2.250    0.000    6.750 
#    0.000    0.000    0.000   15.000    0.000    0.000 
#    0.000    0.000    0.000    0.000    0.000    0.000 
#
# Total GULP energy -793024.702886 kJ/mol
# GULP energy per Si atom -12391.010983 kJ/mol
# Density = 1.750075 g / cm^3
# Si number density = 17.540674 Si / 1000 Ang^3
#
#
#
# Elastic Constant Matrix: (Units=GPa)
#
#
# Indices 1 2 3 4 5 6 
#
# 1 86.1023 40.7055 45.4998 0.0000 0.0000 0.0000
# 2 40.7055 122.7157 51.6416 0.0000 0.0000 0.0000
# 3 45.4998 51.6416 112.5421 0.0000 0.0000 0.0000
# 4 0.0000 0.0000 0.0000 12.2995 0.0000 0.0000
# 5 0.0000 0.0000 0.0000 0.0000 28.9079 0.0000
# 6 0.0000 0.0000 0.0000 0.0000 0.0000 17.7124
#
#
#
# Elastic Compliance Matrix: (Units=1/GPa)
#
#
# Indices 1 2 3 4 5 6 
#
# 1 0.015689 -0.003142 -0.004902 0.000000 0.000000 0.000000
# 2 -0.003142 0.010728 -0.003653 0.000000 0.000000 0.000000
# 3 -0.004902 -0.003653 0.012543 0.000000 0.000000 0.000000
# 4 0.000000 0.000000 0.000000 0.081304 0.000000 0.000000
# 5 0.000000 0.000000 0.000000 0.000000 0.034593 0.000000
# 6 0.000000 0.000000 0.000000 0.000000 0.000000 0.056458
#
#
# Mechanical properties :
#
#
# Convention : Reuss Voigt Hill
#
# Bulk Modulus (GPa) = 64.22893 66.33932 65.28412
# Shear Modulus (GPa) = 20.84232 24.01819 22.43025
#
# Velocity S-wave (km/s) = 3.45081 3.70440 3.57985
# Velocity P-wave (km/s) = 7.25080 7.49661 7.37473
#
# Compressibility (1/GPa) = 0.01556931
#
# Stress axis : x y z
#
# Youngs Moduli (GPa) = 63.73693 93.21302 79.72400
#
# Poissons Ratio (x) = 0.29284 0.39077
# Poissons Ratio (y) = 0.20024 0.29120
# Poissons Ratio (z) = 0.31241 0.34047
#
# Static dielectric constant tensor:
#      x y z
#    x 3.063540 0.000000 0.000000 
#    y 0.000000 3.400970 0.000000 
#    z 0.000000 0.000000 3.156580 
# 
# 
# High freq. dielectric constant tensor:
#      x y z
#    x 1.664210 0.000000 0.000000 
#    y 0.000000 1.666820 0.000000 
#    z 0.000000 0.000000 1.667070 
# 
# From -- ./inp_files/32402.got.cif
#   From: 2010.03.12/outbox.cif.g09.slc.cpg/sg51_17_cif.got.tgz:32402.got - 2010.04.16 13:43:02.
