data_PCOD8208870
_publ_section_title
;
Structure prediction by ZEFSAII (Michael W. Deem and Ramdas Pophale) SiO2 
 PCOD8208870
Probable space group: P M M A
;
_chemical_formula_sum "Si O2"
_cell_formula_units_Z 48
_cell_length_a 8.816133
_cell_length_b 16.281205
_cell_length_c 18.403252
_cell_angle_alpha 90.000000
_cell_angle_beta 90.000000
_cell_angle_gamma 90.000000
_cell_volume 2641.552527
_symmetry_space_group_name_H-M "P M M A"
_symmetry_group_IT_number 51
_symmetry_cell_setting 'orthorhombic'
loop_
_space_group_symop_operation_xyz
x,y,z
1/2-x,-y,z
1/2+x,-y,-z
-x,y,-z
-x,-y,-z
1/2+x,y,-z
1/2-x,y,z
x,-y,z
loop_
_atom_site_type_symbol
_atom_site_label
_atom_site_fract_x
_atom_site_fract_y
_atom_site_fract_z
Si Si1 0.925666 0.000000 0.576675
Si Si2 0.073327 0.742278 0.711557
Si Si3 0.429505 0.162117 0.854881
Si Si4 0.425327 0.686051 0.071912
Si Si5 0.575738 0.593591 0.783195
Si Si6 0.930820 0.000000 0.919228
Si Si7 0.071880 0.177028 0.420954
O O1 0.970902 0.913384 0.613974
O O2 0.000000 0.000000 0.500000
O O3 0.750000 0.000000 0.561416
O O4 0.250000 0.747494 0.697129
O O5 0.024720 0.807562 0.773806
O O6 0.030385 0.650129 0.733976
O O7 0.989267 0.757824 0.636069
O O8 0.250000 0.149072 0.862480
O O9 0.483558 0.230817 0.911116
O O10 0.515258 0.078231 0.873048
O O11 0.250000 0.708690 0.060298
O O12 0.446554 0.617149 0.132917
O O13 0.500000 0.647716 0.000000
O O14 0.750000 0.606828 0.759942
O O15 0.524284 0.500000 0.772169
O O16 0.750000 0.000000 0.925730
O O17 0.000000 0.000000 0.000000
O O18 0.250000 0.188538 0.429925
O O19 0.000000 0.190950 0.500000
#
# Coordination Sequence:
#
# PCOD8208870 Si02
#       7
#     4   8   8   8   8   4   8
#     4   8  16  29  46  71 101 134 168 202 241 283
#     4  10  21  36  55  79 106 137 173 214 261 312
#     4  10  21  37  53  72 101 137 178 220 262 309
#     4  10  19  32  51  75 103 134 169 211 259 310
#     4   9  19  36  56  77 102 134 171 210 256 312
#     4  12  24  37  54  75 102 138 182 228 270 311
#     4  10  19  33  54  80 111 144 179 217 257 305
#
# _framework density 18.171132
#
# number of rings (size 3 to 8) (size 9 to 14) (size 15 to 20)
#    0.000    2.167    0.000    3.250    0.000    4.667 
#    0.000    1.667    0.000    0.500    0.000    0.000 
#    0.000    0.000    0.000    0.000    0.000    0.000 
#
# Total GULP energy -595042.579283 kJ/mol
# GULP energy per Si atom -12396.720402 kJ/mol
# Density = 1.812977 g / cm^3
# Si number density = 18.171132 Si / 1000 Ang^3
#
#
#
# Elastic Constant Matrix: (Units=GPa)
#
#
# Indices 1 2 3 4 5 6 
#
# 1 86.4864 44.3816 49.7162 0.0000 0.0000 0.0000
# 2 44.3816 111.2847 50.9527 0.0000 0.0000 0.0000
# 3 49.7162 50.9527 108.0574 0.0000 0.0000 0.0000
# 4 0.0000 0.0000 0.0000 14.4517 0.0000 0.0000
# 5 0.0000 0.0000 0.0000 0.0000 31.4783 0.0000
# 6 0.0000 0.0000 0.0000 0.0000 0.0000 27.6072
#
#
#
# Elastic Compliance Matrix: (Units=1/GPa)
#
#
# Indices 1 2 3 4 5 6 
#
# 1 0.017068 -0.004096 -0.005922 0.000000 0.000000 0.000000
# 2 -0.004096 0.012443 -0.003983 0.000000 0.000000 0.000000
# 3 -0.005922 -0.003983 0.013857 0.000000 0.000000 0.000000
# 4 0.000000 0.000000 0.000000 0.069196 0.000000 0.000000
# 5 0.000000 0.000000 0.000000 0.000000 0.031768 0.000000
# 6 0.000000 0.000000 0.000000 0.000000 0.000000 0.036222
#
#
# Mechanical properties :
#
#
# Convention : Reuss Voigt Hill
#
# Bulk Modulus (GPa) = 65.07193 66.21438 65.64316
# Shear Modulus (GPa) = 23.39970 25.42598 24.41284
#
# Velocity S-wave (km/s) = 3.59240 3.74471 3.66935
# Velocity P-wave (km/s) = 7.28667 7.43072 7.35905
#
# Compressibility (1/GPa) = 0.01536761
#
# Stress axis : x y z
#
# Youngs Moduli (GPa) = 58.58799 80.36663 72.16613
#
# Poissons Ratio (x) = 0.32916 0.42735
# Poissons Ratio (y) = 0.23996 0.28743
# Poissons Ratio (z) = 0.34694 0.32009
#
# Static dielectric constant tensor:
#      x y z
#    x 3.423520 0.000000 0.000000 
#    y 0.000000 3.335500 0.000000 
#    z 0.000000 0.000000 3.215020 
# 
# 
# High freq. dielectric constant tensor:
#      x y z
#    x 1.717010 0.000000 0.000000 
#    y 0.000000 1.698400 0.000000 
#    z 0.000000 0.000000 1.690860 
# 
# From -- ./inp_files/27669.got.cif
#   From: 2010.03.12/outbox.cif.g09.slc.cpg/sg51_14_cif.got.tgz:27669.got - 2010.04.16 13:43:02.
