data_PCOD8208110
_publ_section_title
;
Structure prediction by ZEFSAII (Michael W. Deem and Ramdas Pophale) SiO2 
 PCOD8208110
Probable space group: P M M A
;
_chemical_formula_sum "Si O2"
_cell_formula_units_Z 64
_cell_length_a 19.258624
_cell_length_b 9.330814
_cell_length_c 18.834102
_cell_angle_alpha 90.000000
_cell_angle_beta 90.000000
_cell_angle_gamma 90.000000
_cell_volume 3384.462486
_symmetry_space_group_name_H-M "P M M A"
_symmetry_group_IT_number 51
_symmetry_cell_setting 'orthorhombic'
loop_
_space_group_symop_operation_xyz
x,y,z
1/2-x,-y,z
1/2+x,-y,-z
-x,y,-z
-x,-y,-z
1/2+x,y,-z
1/2-x,y,z
x,-y,z
loop_
_atom_site_type_symbol
_atom_site_label
_atom_site_fract_x
_atom_site_fract_y
_atom_site_fract_z
Si Si1 0.828663 0.838014 0.460835
Si Si2 0.674312 0.159677 0.210552
Si Si3 0.870652 0.338614 0.331795
Si Si4 0.948058 0.162796 0.562363
Si Si5 0.328793 0.831107 0.043306
Si Si6 0.418983 0.830260 0.913783
Si Si7 0.439939 0.168142 0.154850
Si Si8 0.527528 0.663835 0.703388
O O1 0.750000 0.783025 0.471676
O O2 0.871112 0.737608 0.407528
O O3 0.868775 0.830862 0.535313
O O4 0.829151 0.000000 0.430979
O O5 0.750000 0.153335 0.174224
O O6 0.681625 0.255901 0.280407
O O7 0.621314 0.228541 0.154976
O O8 0.649622 0.000000 0.232604
O O9 0.844764 0.500000 0.342359
O O10 0.944893 0.330619 0.294418
O O11 0.948159 0.262539 0.630916
O O12 0.000000 0.217383 0.500000
O O13 0.969217 0.000000 0.583379
O O14 0.250000 0.766042 0.041765
O O15 0.365741 0.797502 0.118617
O O16 0.323411 0.000000 0.031930
O O17 0.379766 0.764224 0.982559
O O18 0.499625 0.786486 0.902192
O O19 0.412663 0.000000 0.919673
O O20 0.442900 0.255200 0.227899
O O21 0.447937 0.000000 0.172841
O O22 0.554347 0.500000 0.704250
#
# Coordination Sequence:
#
# PCOD8208110 Si02
#       8
#     8   8   8   8   8   8   8   8
#     4  10  21  37  57  82 110 138 171 215 267 320
#     4  10  19  30  47  73 106 144 179 213 258 313
#     4  11  22  34  50  74 108 145 179 216 260 313
#     4  10  20  36  60  84 106 137 177 219 263 314
#     4   9  17  30  51  82 113 137 172 228 284 324
#     4   9  16  28  49  78 110 139 172 217 268 320
#     4  10  19  33  56  81 106 141 183 224 268 321
#     4  11  23  37  55  80 109 143 183 225 268 313
#
# _framework density 18.909946000000001
#
# number of rings (size 3 to 8) (size 9 to 14) (size 15 to 20)
#    0.000    2.000    2.500    1.875    0.000    6.750 
#    0.000    0.625    0.000    6.375    0.000    0.000 
#    0.000    0.000    0.000    0.000    0.000    0.000 
#
# Total GULP energy -793290.541366 kJ/mol
# GULP energy per Si atom -12395.164709 kJ/mol
# Density = 1.886691 g / cm^3
# Si number density = 18.909946 Si / 1000 Ang^3
#
#
#
# Elastic Constant Matrix: (Units=GPa)
#
#
# Indices 1 2 3 4 5 6 
#
# 1 91.6388 27.5754 51.8781 0.0000 0.0000 0.0000
# 2 27.5754 79.7610 55.2025 0.0000 0.0000 0.0000
# 3 51.8781 55.2025 121.5269 0.0000 0.0000 0.0000
# 4 0.0000 0.0000 0.0000 1.8578 0.0000 0.0000
# 5 0.0000 0.0000 0.0000 0.0000 24.7468 0.0000
# 6 0.0000 0.0000 0.0000 0.0000 0.0000 13.2521
#
#
#
# Elastic Compliance Matrix: (Units=1/GPa)
#
#
# Indices 1 2 3 4 5 6 
#
# 1 0.014451 -0.001060 -0.005688 0.000000 0.000000 0.000000
# 2 -0.001060 0.018364 -0.007889 0.000000 0.000000 0.000000
# 3 -0.005688 -0.007889 0.014240 0.000000 0.000000 0.000000
# 4 0.000000 0.000000 0.000000 0.538261 0.000000 0.000000
# 5 0.000000 0.000000 0.000000 0.000000 0.040409 0.000000
# 6 0.000000 0.000000 0.000000 0.000000 0.000000 0.075459
#
#
# Mechanical properties :
#
#
# Convention : Reuss Voigt Hill
#
# Bulk Modulus (GPa) = 56.23635 62.47096 59.35366
# Shear Modulus (GPa) = 6.78992 18.52273 12.65632
#
# Velocity S-wave (km/s) = 1.89696 3.13313 2.58988
# Velocity P-wave (km/s) = 5.88231 6.79679 6.35602
#
# Compressibility (1/GPa) = 0.01778209
#
# Stress axis : x y z
#
# Youngs Moduli (GPa) = 69.19867 54.45433 70.22354
#
# Poissons Ratio (x) = 0.05771 0.39940
# Poissons Ratio (y) = 0.07333 0.55401
# Poissons Ratio (z) = 0.39358 0.42961
#
# Static dielectric constant tensor:
#      x y z
#    x 3.563170 0.000000 0.000000 
#    y 0.000000 3.189850 0.000000 
#    z 0.000000 0.000000 3.345890 
# 
# 
# High freq. dielectric constant tensor:
#      x y z
#    x 1.736250 0.000000 0.000000 
#    y 0.000000 1.695930 0.000000 
#    z 0.000000 0.000000 1.730300 
# 
# From -- ./inp_files/30670.got.cif
#   From: 2010.03.12/outbox.cif.g09.slc.cpg/sg51_16_cif.got.tgz:30670.got - 2010.04.16 13:43:02.
