data_PCOD8208049
_publ_section_title
;
Structure prediction by ZEFSAII (Michael W. Deem and Ramdas Pophale) SiO2 
 PCOD8208049
Probable space group: P M M A
;
_chemical_formula_sum "Si O2"
_cell_formula_units_Z 64
_cell_length_a 33.432282
_cell_length_b 8.935761
_cell_length_c 12.725074
_cell_angle_alpha 90.000000
_cell_angle_beta 90.000000
_cell_angle_gamma 90.000000
_cell_volume 3801.525276
_symmetry_space_group_name_H-M "P M M A"
_symmetry_group_IT_number 51
_symmetry_cell_setting 'orthorhombic'
loop_
_space_group_symop_operation_xyz
x,y,z
1/2-x,-y,z
1/2+x,-y,-z
-x,y,-z
-x,-y,-z
1/2+x,y,-z
1/2-x,y,z
x,-y,z
loop_
_atom_site_type_symbol
_atom_site_label
_atom_site_fract_x
_atom_site_fract_y
_atom_site_fract_z
Si Si1 0.796633 0.826363 0.129671
Si Si2 0.796430 0.173376 0.525994
Si Si3 0.007362 0.834317 0.623647
Si Si4 0.655382 0.323203 0.711660
Si Si5 0.583156 0.671184 0.416407
Si Si6 0.703900 0.327063 0.915261
Si Si7 0.080028 0.176988 0.362498
Si Si8 0.668710 0.672533 0.327269
O O1 0.750000 0.794972 0.149486
O O2 0.809124 0.772614 0.013854
O O3 0.822026 0.731315 0.211610
O O4 0.807169 0.000000 0.141502
O O5 0.750000 0.198262 0.550514
O O6 0.821882 0.264388 0.609722
O O7 0.805842 0.232311 0.409972
O O8 0.808321 0.000000 0.532576
O O9 0.044009 0.723623 0.649533
O O10 0.000000 0.840215 0.500000
O O11 0.965189 0.779155 0.673755
O O12 0.018405 0.000000 0.665255
O O13 0.652769 0.500000 0.701806
O O14 0.610831 0.255064 0.717168
O O15 0.678176 0.272264 0.816282
O O16 0.577279 0.500000 0.451006
O O17 0.589540 0.769546 0.519737
O O18 0.621374 0.692647 0.342742
O O19 0.750000 0.300331 0.885680
O O20 0.695756 0.500000 0.942295
O O21 0.085827 0.000000 0.360071
O O22 0.681485 0.500000 0.337876
#
# Coordination Sequence:
#
# PCOD8208049 Si02
#       8
#     8   8   8   8   8   8   8   8
#     4  10  21  36  54  75  97 125 167 214 254 294
#     4  11  23  35  48  69  99 135 170 203 245 297
#     4   8  16  29  45  66  94 131 167 198 242 293
#     4  11  21  33  51  75 101 132 168 205 249 298
#     4  10  19  30  46  71  99 130 167 205 244 293
#     4   9  19  36  55  73  96 128 166 209 254 297
#     4  10  19  31  47  69 100 135 167 202 244 294
#     4  11  22  34  50  73 101 133 167 204 249 298
#
# _framework density 16.835346999999999
#
# number of rings (size 3 to 8) (size 9 to 14) (size 15 to 20)
#    0.000    2.000    1.250    3.750    0.000    9.000 
#    0.000    1.250    0.000    0.000    0.000    0.875 
#    0.000    7.000    0.000    0.000    0.000    0.000 
#
# Total GULP energy -793688.240818 kJ/mol
# GULP energy per Si atom -12401.378763 kJ/mol
# Density = 1.679703 g / cm^3
# Si number density = 16.835347 Si / 1000 Ang^3
#
#
#
# Elastic Constant Matrix: (Units=GPa)
#
#
# Indices 1 2 3 4 5 6 
#
# 1 83.2846 43.1415 33.4948 0.0000 0.0000 0.0000
# 2 43.1415 79.2155 28.6082 0.0000 0.0000 0.0000
# 3 33.4948 28.6082 67.7285 0.0000 0.0000 0.0000
# 4 0.0000 0.0000 0.0000 16.5113 0.0000 0.0000
# 5 0.0000 0.0000 0.0000 0.0000 16.2479 0.0000
# 6 0.0000 0.0000 0.0000 0.0000 0.0000 30.1238
#
#
#
# Elastic Compliance Matrix: (Units=1/GPa)
#
#
# Indices 1 2 3 4 5 6 
#
# 1 0.018451 -0.007969 -0.005759 0.000000 0.000000 0.000000
# 2 -0.007969 0.018338 -0.003805 0.000000 0.000000 0.000000
# 3 -0.005759 -0.003805 0.019220 0.000000 0.000000 0.000000
# 4 0.000000 0.000000 0.000000 0.060564 0.000000 0.000000
# 5 0.000000 0.000000 0.000000 0.000000 0.061547 0.000000
# 6 0.000000 0.000000 0.000000 0.000000 0.000000 0.033196
#
#
# Mechanical properties :
#
#
# Convention : Reuss Voigt Hill
#
# Bulk Modulus (GPa) = 47.74702 48.96864 48.35783
# Shear Modulus (GPa) = 19.73459 20.90887 20.32173
#
# Velocity S-wave (km/s) = 3.42747 3.52797 3.47809
# Velocity P-wave (km/s) = 6.63974 6.76353 6.70192
#
# Compressibility (1/GPa) = 0.02094371
#
# Stress axis : x y z
#
# Youngs Moduli (GPa) = 54.19792 54.53228 52.02910
#
# Poissons Ratio (x) = 0.43455 0.29963
# Poissons Ratio (y) = 0.43189 0.19796
# Poissons Ratio (z) = 0.31212 0.20749
#
# Static dielectric constant tensor:
#      x y z
#    x 3.564650 0.000000 0.000000 
#    y 0.000000 3.288550 0.000000 
#    z 0.000000 0.000000 2.868830 
# 
# 
# High freq. dielectric constant tensor:
#      x y z
#    x 1.655250 0.000000 0.000000 
#    y 0.000000 1.663820 0.000000 
#    z 0.000000 0.000000 1.609710 
# 
# From -- ./inp_files/19541.got.cif
#   From: 2010.03.12/outbox.cif.g09.slc.cpg/sg51_10_cif.got.tgz:19541.got - 2010.04.16 13:43:02.
