data_PCOD8208599
_publ_section_title
;
Structure prediction by ZEFSAII (Michael W. Deem and Ramdas Pophale) SiO2 
 PCOD8208599
Probable space group: P M M A
;
_chemical_formula_sum "Si O2"
_cell_formula_units_Z 56
_cell_length_a 8.825045
_cell_length_b 22.523845
_cell_length_c 14.495325
_cell_angle_alpha 90.000000
_cell_angle_beta 90.000000
_cell_angle_gamma 90.000000
_cell_volume 2881.292944
_symmetry_space_group_name_H-M "P M M A"
_symmetry_group_IT_number 51
_symmetry_cell_setting 'orthorhombic'
loop_
_space_group_symop_operation_xyz
x,y,z
1/2-x,-y,z
1/2+x,-y,-z
-x,y,-z
-x,-y,-z
1/2+x,y,-z
1/2-x,y,z
x,-y,z
loop_
_atom_site_type_symbol
_atom_site_label
_atom_site_fract_x
_atom_site_fract_y
_atom_site_fract_z
Si Si1 0.927143 0.610067 0.777205
Si Si2 0.570916 0.155077 0.094115
Si Si3 0.071372 0.112702 0.713463
Si Si4 0.428956 0.220159 0.594407
Si Si5 0.428800 0.645428 0.595806
Si Si6 0.071456 0.717992 0.094034
Si Si7 0.068648 0.000000 0.601500
Si Si8 0.929010 0.500000 0.899541
O O1 0.750000 0.603546 0.757637
O O2 0.967027 0.672657 0.824408
O O3 0.984723 0.557669 0.843573
O O4 0.012881 0.605042 0.679745
O O5 0.750000 0.161292 0.082190
O O6 0.527555 0.110794 0.178065
O O7 0.504374 0.219434 0.117945
O O8 0.500000 0.129023 0.000000
O O9 0.250000 0.110639 0.702425
O O10 0.011007 0.175140 0.672626
O O11 0.004558 0.056815 0.657800
O O12 0.500000 0.196782 0.500000
O O13 0.250000 0.218338 0.584606
O O14 0.483656 0.287023 0.615853
O O15 0.500000 0.622433 0.500000
O O16 0.250000 0.640217 0.587855
O O17 0.250000 0.726364 0.080204
O O18 0.000000 0.692149 0.000000
O O19 0.000000 0.000000 0.500000
O O20 0.250000 0.000000 0.594654
O O21 0.750000 0.500000 0.911939
O O22 0.000000 0.500000 0.000000
#
# Coordination Sequence:
#
# PCOD8208599 Si02
#       8
#     8   8   8   8   8   8   4   4
#     4  10  21  36  54  77 106 138 174 213 255 301
#     4  10  19  33  51  73 101 133 169 210 254 304
#     4   9  18  32  51  72  99 134 169 203 248 302
#     4   9  17  30  48  74 103 132 164 202 249 301
#     4  10  20  34  54  78 106 137 172 214 260 309
#     4  10  19  31  50  78 108 137 169 210 257 307
#     4  10  20  36  55  76 100 130 167 206 247 296
#     4  10  22  40  59  80 107 138 171 212 254 300
#
# _framework density 19.43572
#
# number of rings (size 3 to 8) (size 9 to 14) (size 15 to 20)
#    0.000    2.286    0.000    3.857    0.000    3.429 
#    0.000    3.571    0.000    0.000    0.000    0.000 
#    0.000    0.000    0.000    0.000    0.000    0.000 
#
# Total GULP energy -694346.054237 kJ/mol
# GULP energy per Si atom -12399.036683 kJ/mol
# Density = 1.939148 g / cm^3
# Si number density = 19.435720 Si / 1000 Ang^3
#
#
#
# Elastic Constant Matrix: (Units=GPa)
#
#
# Indices 1 2 3 4 5 6 
#
# 1 60.0558 26.3821 49.2567 0.0000 0.0000 0.0000
# 2 26.3821 75.1547 71.7419 0.0000 0.0000 0.0000
# 3 49.2567 71.7419 184.2745 0.0000 0.0000 0.0000
# 4 0.0000 0.0000 0.0000 31.8731 0.0000 0.0000
# 5 0.0000 0.0000 0.0000 0.0000 35.9631 0.0000
# 6 0.0000 0.0000 0.0000 0.0000 0.0000 16.7699
#
#
#
# Elastic Compliance Matrix: (Units=1/GPa)
#
#
# Indices 1 2 3 4 5 6 
#
# 1 0.021839 -0.003332 -0.004540 0.000000 0.000000 0.000000
# 2 -0.003332 0.021684 -0.007551 0.000000 0.000000 0.000000
# 3 -0.004540 -0.007551 0.009580 0.000000 0.000000 0.000000
# 4 0.000000 0.000000 0.000000 0.031374 0.000000 0.000000
# 5 0.000000 0.000000 0.000000 0.000000 0.027806 0.000000
# 6 0.000000 0.000000 0.000000 0.000000 0.000000 0.059631
#
#
# Mechanical properties :
#
#
# Convention : Reuss Voigt Hill
#
# Bulk Modulus (GPa) = 44.93268 68.24962 56.59115
# Shear Modulus (GPa) = 23.78908 28.39483 26.09195
#
# Velocity S-wave (km/s) = 3.50235 3.82640 3.66795
# Velocity P-wave (km/s) = 6.28682 7.39686 6.86431
#
# Compressibility (1/GPa) = 0.02225552
#
# Stress axis : x y z
#
# Youngs Moduli (GPa) = 45.79007 46.11676 104.38186
#
# Poissons Ratio (x) = 0.15367 0.47392
# Poissons Ratio (y) = 0.15258 0.78823
# Poissons Ratio (z) = 0.20790 0.34825
#
# Static dielectric constant tensor:
#      x y z
#    x 3.344150 0.000000 0.000000 
#    y 0.000000 3.569060 0.000000 
#    z 0.000000 0.000000 3.742960 
# 
# 
# High freq. dielectric constant tensor:
#      x y z
#    x 1.741790 0.000000 0.000000 
#    y 0.000000 1.737580 0.000000 
#    z 0.000000 0.000000 1.772010 
# 
# From -- ./inp_files/21951.got.cif
#   From: 2010.03.12/outbox.cif.g09.slc.cpg/sg51_11_cif.got.tgz:21951.got - 2010.04.16 13:43:02.
