data_PCOD8208512
_publ_section_title
;
Structure prediction by ZEFSAII (Michael W. Deem and Ramdas Pophale) SiO2 
 PCOD8208512
Probable space group: P M M A
;
_chemical_formula_sum "Si O2"
_cell_formula_units_Z 48
_cell_length_a 30.485172
_cell_length_b 9.228952
_cell_length_c 9.532011
_cell_angle_alpha 90.000000
_cell_angle_beta 90.000000
_cell_angle_gamma 90.000000
_cell_volume 2681.794969
_symmetry_space_group_name_H-M "P M M A"
_symmetry_group_IT_number 51
_symmetry_cell_setting 'orthorhombic'
loop_
_space_group_symop_operation_xyz
x,y,z
1/2-x,-y,z
1/2+x,-y,-z
-x,y,-z
-x,-y,-z
1/2+x,y,-z
1/2-x,y,z
x,-y,z
loop_
_atom_site_type_symbol
_atom_site_label
_atom_site_fract_x
_atom_site_fract_y
_atom_site_fract_z
Si Si1 0.933424 0.830415 0.209369
Si Si2 0.641904 0.169516 0.427525
Si Si3 0.625845 0.666765 0.006497
Si Si4 0.200095 0.667701 0.780061
Si Si5 0.611115 0.667234 0.690932
Si Si6 0.489525 0.331029 0.342156
O O1 0.901897 0.793806 0.340282
O O2 0.913033 0.764693 0.068042
O O3 0.980395 0.758677 0.235739
O O4 0.939711 0.000000 0.187439
O O5 0.683788 0.239380 0.351838
O O6 0.637575 0.235548 0.581722
O O7 0.650192 0.000000 0.440248
O O8 0.612421 0.500000 0.030803
O O9 0.671787 0.704353 0.081615
O O10 0.631810 0.699846 0.842544
O O11 0.250000 0.710062 0.814323
O O12 0.195446 0.500000 0.738718
O O13 0.616486 0.500000 0.646917
O O14 0.560132 0.709785 0.693805
O O15 0.500000 0.282153 0.500000
O O16 0.499536 0.500000 0.320440
#
# Coordination Sequence:
#
# PCOD8208512 Si02
#       6
#     8   8   8   8   8   8
#     4  10  20  33  50  73 102 138 178 217 258 304
#     4  10  20  33  52  77 105 135 167 208 256 307
#     4   9  19  35  54  75 103 136 170 212 262 313
#     4   9  18  35  59  81  99 126 166 208 251 306
#     4  10  20  34  52  76 105 139 177 217 261 306
#     4  10  19  31  50  73 100 139 184 224 258 299
#
# _framework density 17.898461000000001
#
# number of rings (size 3 to 8) (size 9 to 14) (size 15 to 20)
#    0.000    2.333    1.667    1.000    0.000    4.000 
#    0.000    4.167    0.000    3.000    0.000    0.000 
#    0.000    0.000    0.000    0.000    0.000    0.000 
#
# Total GULP energy -595405.944143 kJ/mol
# GULP energy per Si atom -12404.290503 kJ/mol
# Density = 1.785772 g / cm^3
# Si number density = 17.898461 Si / 1000 Ang^3
#
#
#
# Elastic Constant Matrix: (Units=GPa)
#
#
# Indices 1 2 3 4 5 6 
#
# 1 102.0574 44.1319 53.5445 0.0000 0.0000 0.0000
# 2 44.1319 70.6887 51.5297 0.0000 0.0000 0.0000
# 3 53.5445 51.5297 111.8905 0.0000 0.0000 0.0000
# 4 0.0000 0.0000 0.0000 19.2881 0.0000 0.0000
# 5 0.0000 0.0000 0.0000 0.0000 21.3514 0.0000
# 6 0.0000 0.0000 0.0000 0.0000 0.0000 10.3942
#
#
#
# Elastic Compliance Matrix: (Units=1/GPa)
#
#
# Indices 1 2 3 4 5 6 
#
# 1 0.014629 -0.006066 -0.004207 0.000000 0.000000 0.000000
# 2 -0.006066 0.023812 -0.008063 0.000000 0.000000 0.000000
# 3 -0.004207 -0.008063 0.014664 0.000000 0.000000 0.000000
# 4 0.000000 0.000000 0.000000 0.051845 0.000000 0.000000
# 5 0.000000 0.000000 0.000000 0.000000 0.046835 0.000000
# 6 0.000000 0.000000 0.000000 0.000000 0.000000 0.096208
#
#
# Mechanical properties :
#
#
# Convention : Reuss Voigt Hill
#
# Bulk Modulus (GPa) = 60.85783 64.78320 62.82051
# Shear Modulus (GPa) = 17.23295 19.23544 18.23420
#
# Velocity S-wave (km/s) = 3.10630 3.28182 3.19526
# Velocity P-wave (km/s) = 6.85135 7.11575 6.98480
#
# Compressibility (1/GPa) = 0.01643174
#
# Stress axis : x y z
#
# Youngs Moduli (GPa) = 68.35893 41.99640 68.19540
#
# Poissons Ratio (x) = 0.25476 0.28688
# Poissons Ratio (y) = 0.41469 0.54987
# Poissons Ratio (z) = 0.28756 0.33862
#
# Static dielectric constant tensor:
#      x y z
#    x 3.210880 0.000000 0.000000 
#    y 0.000000 3.252120 0.000000 
#    z 0.000000 0.000000 3.267290 
# 
# 
# High freq. dielectric constant tensor:
#      x y z
#    x 1.679900 0.000000 0.000000 
#    y 0.000000 1.691100 0.000000 
#    z 0.000000 0.000000 1.688780 
# 
# From -- ./inp_files/12769.got.cif
#   From: 2010.03.12/outbox.cif.g09.slc.cpg/sg51_7_cif.got.tgz:12769.got - 2010.04.16 13:43:02.
