data_PCOD8208520
_publ_section_title
;
Structure prediction by ZEFSAII (Michael W. Deem and Ramdas Pophale) SiO2 
 PCOD8208520
Probable space group: P M M A
;
_chemical_formula_sum "Si O2"
_cell_formula_units_Z 64
_cell_length_a 9.014070
_cell_length_b 28.715592
_cell_length_c 14.158631
_cell_angle_alpha 90.000000
_cell_angle_beta 90.000000
_cell_angle_gamma 90.000000
_cell_volume 3664.881728
_symmetry_space_group_name_H-M "P M M A"
_symmetry_group_IT_number 51
_symmetry_cell_setting 'orthorhombic'
loop_
_space_group_symop_operation_xyz
x,y,z
1/2-x,-y,z
1/2+x,-y,-z
-x,y,-z
-x,-y,-z
1/2+x,y,-z
1/2-x,y,z
x,-y,z
loop_
_atom_site_type_symbol
_atom_site_label
_atom_site_fract_x
_atom_site_fract_y
_atom_site_fract_z
Si Si1 0.923001 0.761428 0.900074
Si Si2 0.076969 0.406317 0.898701
Si Si3 0.412273 0.945667 0.585753
Si Si4 0.918918 0.686354 0.216246
Si Si5 0.926334 0.370611 0.399454
Si Si6 0.074716 0.948321 0.224176
Si Si7 0.422803 0.134001 0.096949
Si Si8 0.920645 0.446389 0.722736
O O1 0.750000 0.753036 0.916338
O O2 0.957489 0.814068 0.865312
O O3 0.978346 0.728948 0.815161
O O4 0.000000 0.750037 0.000000
O O5 0.250000 0.419656 0.907400
O O6 0.056830 0.354338 0.859774
O O7 0.998603 0.440722 0.824531
O O8 0.000000 0.411251 0.000000
O O9 0.500000 0.921501 0.500000
O O10 0.250000 0.922515 0.597112
O O11 0.511214 0.936292 0.675250
O O12 0.391983 0.000000 0.565523
O O13 0.750000 0.703540 0.214887
O O14 0.961932 0.669616 0.322110
O O15 0.750000 0.376958 0.411609
O O16 0.000000 0.357465 0.500000
O O17 0.994803 0.418409 0.359652
O O18 0.250000 0.946525 0.231155
O O19 0.010109 0.906995 0.160703
O O20 0.023206 0.000000 0.189126
O O21 0.250000 0.126699 0.082967
O O22 0.500000 0.125790 0.000000
O O23 0.750000 0.429308 0.729661
O O24 0.928834 0.500000 0.692973
#
# Coordination Sequence:
#
# PCOD8208520 Si02
#       8
#     8   8   8   8   8   8   8   8
#     4  10  19  31  50  74 100 130 160 195 240 290
#     4  10  20  33  50  73 102 134 167 206 251 299
#     4   9  16  26  42  65  90 115 147 188 233 280
#     4   9  19  34  52  76 101 125 158 200 244 292
#     4  10  21  37  57  79 103 131 164 205 250 295
#     4   9  17  30  47  66  92 127 164 203 244 284
#     4   9  19  33  47  68  97 128 164 201 239 285
#     4  10  21  36  53  74 101 135 175 214 250 291
#
# _framework density 17.463047
#
# number of rings (size 3 to 8) (size 9 to 14) (size 15 to 20)
#    0.000    2.500    0.000    3.000    0.000    8.250 
#    0.000    0.000    0.000    0.750    0.000    1.750 
#    0.000    0.000    0.000    0.000    0.000    0.000 
#
# Total GULP energy -793343.934148 kJ/mol
# GULP energy per Si atom -12395.998971 kJ/mol
# Density = 1.742330 g / cm^3
# Si number density = 17.463047 Si / 1000 Ang^3
#
#
#
# Elastic Constant Matrix: (Units=GPa)
#
#
# Indices 1 2 3 4 5 6 
#
# 1 62.1893 46.3187 55.3718 0.0000 0.0000 0.0000
# 2 46.3187 96.2895 64.0802 0.0000 0.0000 0.0000
# 3 55.3718 64.0802 110.7482 0.0000 0.0000 0.0000
# 4 0.0000 0.0000 0.0000 16.6324 0.0000 0.0000
# 5 0.0000 0.0000 0.0000 0.0000 21.6578 0.0000
# 6 0.0000 0.0000 0.0000 0.0000 0.0000 20.2628
#
#
#
# Elastic Compliance Matrix: (Units=1/GPa)
#
#
# Indices 1 2 3 4 5 6 
#
# 1 0.032195 -0.007764 -0.011604 0.000000 0.000000 0.000000
# 2 -0.007764 0.018761 -0.006973 0.000000 0.000000 0.000000
# 3 -0.011604 -0.006973 0.018866 0.000000 0.000000 0.000000
# 4 0.000000 0.000000 0.000000 0.060123 0.000000 0.000000
# 5 0.000000 0.000000 0.000000 0.000000 0.046173 0.000000
# 6 0.000000 0.000000 0.000000 0.000000 0.000000 0.049351
#
#
# Mechanical properties :
#
#
# Convention : Reuss Voigt Hill
#
# Bulk Modulus (GPa) = 58.34880 66.75208 62.55044
# Shear Modulus (GPa) = 17.61391 18.60770 18.11081
#
# Velocity S-wave (km/s) = 3.17935 3.26781 3.22389
# Velocity P-wave (km/s) = 6.85295 7.24885 7.05368
#
# Compressibility (1/GPa) = 0.01713831
#
# Stress axis : x y z
#
# Youngs Moduli (GPa) = 31.06070 53.30208 53.00466
#
# Poissons Ratio (x) = 0.41386 0.61508
# Poissons Ratio (y) = 0.24117 0.36962
# Poissons Ratio (z) = 0.36044 0.37169
#
# Static dielectric constant tensor:
#      x y z
#    x 3.414420 0.000000 0.000000 
#    y 0.000000 3.259550 0.000000 
#    z 0.000000 0.000000 3.283350 
# 
# 
# High freq. dielectric constant tensor:
#      x y z
#    x 1.688640 0.000000 0.000000 
#    y 0.000000 1.653960 0.000000 
#    z 0.000000 0.000000 1.669750 
# 
# From -- ./inp_files/14834.got.cif
#   From: 2010.03.12/outbox.cif.g09.slc.cpg/sg51_8_cif.got.tgz:14834.got - 2010.04.16 13:43:02.
