data_PCOD8208840
_publ_section_title
;
Structure prediction by ZEFSAII (Michael W. Deem and Ramdas Pophale) SiO2 
 PCOD8208840
Probable space group: P M M A
;
_chemical_formula_sum "Si O2"
_cell_formula_units_Z 48
_cell_length_a 16.529014
_cell_length_b 16.783672
_cell_length_c 9.203393
_cell_angle_alpha 90.000000
_cell_angle_beta 90.000000
_cell_angle_gamma 90.000000
_cell_volume 2553.182733
_symmetry_space_group_name_H-M "P M M A"
_symmetry_group_IT_number 51
_symmetry_cell_setting 'orthorhombic'
loop_
_space_group_symop_operation_xyz
x,y,z
1/2-x,-y,z
1/2+x,-y,-z
-x,y,-z
-x,-y,-z
1/2+x,y,-z
1/2-x,y,z
x,-y,z
loop_
_atom_site_type_symbol
_atom_site_label
_atom_site_fract_x
_atom_site_fract_y
_atom_site_fract_z
Si Si1 0.391756 0.189460 0.711419
Si Si2 0.846203 0.412251 0.199293
Si Si3 0.340030 0.326903 0.524877
Si Si4 0.654439 0.910790 0.533035
Si Si5 0.655686 0.736948 0.011173
Si Si6 0.422581 0.768772 0.293055
O O1 0.332396 0.247625 0.622418
O O2 0.381433 0.104821 0.630067
O O3 0.362024 0.189411 0.878353
O O4 0.482224 0.221862 0.696566
O O5 0.750000 0.409322 0.200256
O O6 0.878121 0.500000 0.153032
O O7 0.875211 0.394642 0.365684
O O8 0.876358 0.345321 0.085454
O O9 0.250000 0.348819 0.467470
O O10 0.397653 0.309174 0.387483
O O11 0.750000 0.902182 0.531865
O O12 0.619023 0.849376 0.650341
O O13 0.628222 0.000000 0.577861
O O14 0.750000 0.733280 0.969644
O O15 0.602754 0.752677 0.870813
#
# Coordination Sequence:
#
# PCOD8208840 Si02
#       6
#     8   8   8   8   8   8
#     4  10  19  32  51  73  99 132 169 202 239 296
#     4   8  15  29  50  74  98 129 170 211 249 293
#     4   9  16  29  50  71  94 127 166 204 242 292
#     4  10  20  35  55  77 102 132 166 204 246 294
#     4  10  19  33  53  73  99 134 171 209 248 299
#     4  11  20  31  50  77 105 129 162 209 256 296
#
# _framework density 18.800063999999999
#
# number of rings (size 3 to 8) (size 9 to 14) (size 15 to 20)
#    0.000    2.333    0.000    7.500    0.000    1.333 
#    0.000    1.667    0.000   25.000    0.000    0.000 
#    0.000    0.000    0.000    0.000    0.000    0.000 
#
# Total GULP energy -594818.671281 kJ/mol
# GULP energy per Si atom -12392.055652 kJ/mol
# Density = 1.875727 g / cm^3
# Si number density = 18.800064 Si / 1000 Ang^3
#
#
#
# Elastic Constant Matrix: (Units=GPa)
#
#
# Indices 1 2 3 4 5 6 
#
# 1 62.4458 18.9336 6.6740 0.0000 0.0000 0.0000
# 2 18.9336 94.6083 41.9530 0.0000 0.0000 0.0000
# 3 6.6740 41.9530 108.8149 0.0000 0.0000 0.0000
# 4 0.0000 0.0000 0.0000 22.4446 0.0000 0.0000
# 5 0.0000 0.0000 0.0000 0.0000 24.4287 0.0000
# 6 0.0000 0.0000 0.0000 0.0000 0.0000 10.7852
#
#
#
# Elastic Compliance Matrix: (Units=1/GPa)
#
#
# Indices 1 2 3 4 5 6 
#
# 1 0.017058 -0.003558 0.000326 0.000000 0.000000 0.000000
# 2 -0.003558 0.013492 -0.004983 0.000000 0.000000 0.000000
# 3 0.000326 -0.004983 0.011091 0.000000 0.000000 0.000000
# 4 0.000000 0.000000 0.000000 0.044554 0.000000 0.000000
# 5 0.000000 0.000000 0.000000 0.000000 0.040935 0.000000
# 6 0.000000 0.000000 0.000000 0.000000 0.000000 0.092720
#
#
# Mechanical properties :
#
#
# Convention : Reuss Voigt Hill
#
# Bulk Modulus (GPa) = 39.66829 44.55446 42.11137
# Shear Modulus (GPa) = 20.43439 24.75226 22.59333
#
# Velocity S-wave (km/s) = 3.30044 3.63244 3.47041
# Velocity P-wave (km/s) = 5.97242 6.42988 6.20537
#
# Compressibility (1/GPa) = 0.02520905
#
# Stress axis : x y z
#
# Youngs Moduli (GPa) = 58.62383 74.11886 90.16072
#
# Poissons Ratio (x) = 0.26372 -0.02936
# Poissons Ratio (y) = 0.20859 0.44931
# Poissons Ratio (z) = -0.01909 0.36937
#
# Static dielectric constant tensor:
#      x y z
#    x 3.309850 0.000000 0.000000 
#    y 0.000000 3.662200 0.000000 
#    z 0.000000 0.000000 3.534820 
# 
# 
# High freq. dielectric constant tensor:
#      x y z
#    x 1.727390 0.000000 0.000000 
#    y 0.000000 1.703420 0.000000 
#    z 0.000000 0.000000 1.724550 
# 
# From -- ./inp_files/8236.got.cif
#   From: 2010.03.12/outbox.cif.g09.slc.cpg/sg51_5_cif.got.tgz:8236.got - 2010.04.16 13:43:02.
