data_PCOD8208586
_publ_section_title
;
Structure prediction by ZEFSAII (Michael W. Deem and Ramdas Pophale) SiO2 
 PCOD8208586
Probable space group: P M M A
;
_chemical_formula_sum "Si O2"
_cell_formula_units_Z 48
_cell_length_a 31.009482
_cell_length_b 9.318628
_cell_length_c 9.019508
_cell_angle_alpha 90.000000
_cell_angle_beta 90.000000
_cell_angle_gamma 90.000000
_cell_volume 2606.329590
_symmetry_space_group_name_H-M "P M M A"
_symmetry_group_IT_number 51
_symmetry_cell_setting 'orthorhombic'
loop_
_space_group_symop_operation_xyz
x,y,z
1/2-x,-y,z
1/2+x,-y,-z
-x,y,-z
-x,-y,-z
1/2+x,y,-z
1/2-x,y,z
x,-y,z
loop_
_atom_site_type_symbol
_atom_site_label
_atom_site_fract_x
_atom_site_fract_y
_atom_site_fract_z
Si Si1 0.169225 0.833950 0.167179
Si Si2 0.668206 0.331831 0.137073
Si Si3 0.085865 0.167401 0.359301
Si Si4 0.494663 0.342004 0.324636
Si Si5 0.750000 0.831564 0.636540
Si Si6 0.250000 0.331773 0.670115
Si Si7 0.411212 0.331396 0.663457
O O1 0.124324 0.801594 0.247000
O O2 0.207853 0.783847 0.273147
O O3 0.174188 0.000000 0.126460
O O4 0.171790 0.745846 0.017933
O O5 0.668869 0.500000 0.105780
O O6 0.708079 0.284685 0.238483
O O7 0.624370 0.283771 0.218184
O O8 0.042380 0.228922 0.282076
O O9 0.096681 0.244634 0.513013
O O10 0.079299 0.000000 0.390877
O O11 0.500000 0.348810 0.500000
O O12 0.481733 0.500000 0.263714
O O13 0.541898 0.295740 0.263630
O O14 0.750000 0.750322 0.482930
O O15 0.750000 0.000000 0.603250
O O16 0.250000 0.500000 0.636100
O O17 0.407899 0.500000 0.624208
#
# Coordination Sequence:
#
# PCOD8208586 Si02
#       7
#     8   8   8   8   4   4   8
#     4  10  22  37  52  75 106 137 171 208 247 300
#     4  10  21  36  54  77 105 136 169 207 254 304
#     4  10  19  31  50  77 104 131 169 214 256 298
#     4   8  15  29  49  72  99 132 170 211 252 296
#     4  10  21  38  58  78 102 136 173 204 244 304
#     4  10  21  36  56  84 108 126 163 216 258 296
#     4   9  18  33  52  75 102 133 172 212 250 301
#
# _framework density 18.416703999999999
#
# number of rings (size 3 to 8) (size 9 to 14) (size 15 to 20)
#    0.000    2.500    0.000    3.000    0.000    6.333 
#    0.000    0.833    0.000    5.000    0.000    0.000 
#    0.000    0.000    0.000    0.000    0.000    0.000 
#
# Total GULP energy -595195.394161 kJ/mol
# GULP energy per Si atom -12399.904045 kJ/mol
# Density = 1.837479 g / cm^3
# Si number density = 18.416704 Si / 1000 Ang^3
#
#
#
# Elastic Constant Matrix: (Units=GPa)
#
#
# Indices 1 2 3 4 5 6 
#
# 1 168.0589 63.2255 76.3137 0.0000 0.0000 0.0000
# 2 63.2255 76.0740 66.9957 0.0000 0.0000 0.0000
# 3 76.3137 66.9957 124.2567 0.0000 0.0000 0.0000
# 4 0.0000 0.0000 0.0000 34.1377 0.0000 0.0000
# 5 0.0000 0.0000 0.0000 0.0000 -0.0899 0.0000
# 6 0.0000 0.0000 0.0000 0.0000 0.0000 29.2160
#
#
#
# Elastic Compliance Matrix: (Units=1/GPa)
#
#
# Indices 1 2 3 4 5 6 
#
# 1 0.009175 -0.005071 -0.002901 0.000000 0.000000 0.000000
# 2 -0.005071 0.027832 -0.011892 0.000000 0.000000 0.000000
# 3 -0.002901 -0.011892 0.016242 0.000000 0.000000 0.000000
# 4 0.000000 0.000000 0.000000 0.029293 0.000000 0.000000
# 5 0.000000 0.000000 0.000000 0.000000-11.124567 0.000000
# 6 0.000000 0.000000 0.000000 0.000000 0.000000 0.034228
#
#
# Mechanical properties :
#
#
# Convention : Reuss Voigt Hill
#
# Bulk Modulus (GPa) = 73.95810 86.82884 80.39347
# Shear Modulus (GPa) = -0.45606 23.44306 11.49350
#
# Velocity S-wave (km/s) = -0.49817 3.57168 2.50087
# Velocity P-wave (km/s) = 6.31779 8.01613 7.21709
#
# Compressibility (1/GPa) = 0.01352117
#
# Stress axis : x y z
#
# Youngs Moduli (GPa) = 108.98784 35.92924 61.57038
#
# Poissons Ratio (x) = 0.18219 0.17862
# Poissons Ratio (y) = 0.55265 0.73221
# Poissons Ratio (z) = 0.31619 0.42728
#
# Static dielectric constant tensor:
#      x y z
#    x 3.985500 0.000000 0.000000 
#    y 0.000000 3.356190 0.000000 
#    z 0.000000 0.000000 3.074310 
# 
# 
# High freq. dielectric constant tensor:
#      x y z
#    x 1.739030 0.000000 0.000000 
#    y 0.000000 1.709610 0.000000 
#    z 0.000000 0.000000 1.691290 
# 
# From -- ./inp_files/12960.got.cif
#   From: 2010.03.12/outbox.cif.g09.slc.cpg/sg51_7_cif.got.tgz:12960.got - 2010.04.16 13:43:02.
