data_PCOD8208322
_publ_section_title
;
Structure prediction by ZEFSAII (Michael W. Deem and Ramdas Pophale) SiO2 
 PCOD8208322
Probable space group: P M M A
;
_chemical_formula_sum "Si O2"
_cell_formula_units_Z 64
_cell_length_a 18.700807
_cell_length_b 9.258994
_cell_length_c 20.695083
_cell_angle_alpha 90.000000
_cell_angle_beta 90.000000
_cell_angle_gamma 90.000000
_cell_volume 3583.367276
_symmetry_space_group_name_H-M "P M M A"
_symmetry_group_IT_number 51
_symmetry_cell_setting 'orthorhombic'
loop_
_space_group_symop_operation_xyz
x,y,z
1/2-x,-y,z
1/2+x,-y,-z
-x,y,-z
-x,-y,-z
1/2+x,y,-z
1/2-x,y,z
x,-y,z
loop_
_atom_site_type_symbol
_atom_site_label
_atom_site_fract_x
_atom_site_fract_y
_atom_site_fract_z
Si Si1 0.914382 0.837542 0.429221
Si Si2 0.167053 0.833621 0.058550
Si Si3 0.580179 0.833346 0.816741
Si Si4 0.165874 0.333620 0.930816
Si Si5 0.084480 0.838018 0.428142
Si Si6 0.586384 0.337321 0.308463
Si Si7 0.416019 0.661556 0.307751
Si Si8 0.086868 0.831215 0.817788
O O1 0.890348 0.783995 0.500726
O O2 0.882503 0.731620 0.374617
O O3 0.999403 0.837804 0.425043
O O4 0.886149 0.000000 0.416771
O O5 0.250000 0.812733 0.075142
O O6 0.122073 0.780882 0.120031
O O7 0.149865 0.000000 0.041152
O O8 0.143087 0.733810 0.999238
O O9 0.610251 0.745308 0.755766
O O10 0.496858 0.804542 0.828480
O O11 0.595395 0.000000 0.801814
O O12 0.250000 0.318486 0.920127
O O13 0.141187 0.500000 0.928599
O O14 0.127543 0.243313 0.875914
O O15 0.116087 0.735670 0.372245
O O16 0.112784 0.000000 0.416013
O O17 0.616117 0.500000 0.301592
O O18 0.501226 0.337235 0.310542
O O19 0.613515 0.241818 0.248555
O O20 0.385664 0.500000 0.304664
O O21 0.105871 0.000000 0.815271
#
# Coordination Sequence:
#
# PCOD8208322 Si02
#       8
#     8   8   8   8   8   8   8   8
#     4   8  13  21  33  50  74 109 150 185 221 266
#     4   9  18  34  54  72  91 118 152 187 223 267
#     4   9  18  31  47  68  93 121 152 187 227 268
#     4  10  21  36  52  70  93 119 147 183 227 271
#     4   8  13  21  33  49  74 110 149 186 222 264
#     4   9  16  25  37  56  84 115 147 185 227 267
#     4   9  16  24  36  56  83 115 149 185 225 268
#     4  10  19  31  48  68  92 122 154 187 223 268
#
# _framework density 17.860295000000001
#
# number of rings (size 3 to 8) (size 9 to 14) (size 15 to 20)
#    0.000    3.000    0.000    2.250    0.000    5.750 
#    0.000    5.000    0.000    0.000    0.000    0.000 
#    0.000    1.000    0.000    8.250    0.000   12.625 
#
# Total GULP energy -793427.585782 kJ/mol
# GULP energy per Si atom -12397.306028 kJ/mol
# Density = 1.781964 g / cm^3
# Si number density = 17.860295 Si / 1000 Ang^3
#
#
#
# Elastic Constant Matrix: (Units=GPa)
#
#
# Indices 1 2 3 4 5 6 
#
# 1 16.3913 25.8770 36.1680 0.0000 0.0000 0.0000
# 2 25.8770 140.1644 108.5619 0.0000 0.0000 0.0000
# 3 36.1680 108.5619 193.1384 0.0000 0.0000 0.0000
# 4 0.0000 0.0000 0.0000 21.8385 0.0000 0.0000
# 5 0.0000 0.0000 0.0000 0.0000 -3.4470 0.0000
# 6 0.0000 0.0000 0.0000 0.0000 0.0000 13.7148
#
#
#
# Elastic Compliance Matrix: (Units=1/GPa)
#
#
# Indices 1 2 3 4 5 6 
#
# 1 0.108348 -0.007594 -0.016021 0.000000 0.000000 0.000000
# 2 -0.007594 0.013168 -0.005979 0.000000 0.000000 0.000000
# 3 -0.016021 -0.005979 0.011539 0.000000 0.000000 0.000000
# 4 0.000000 0.000000 0.000000 0.045791 0.000000 0.000000
# 5 0.000000 0.000000 0.000000 0.000000 -0.290109 0.000000
# 6 0.000000 0.000000 0.000000 0.000000 0.000000 0.072914
#
#
# Mechanical properties :
#
#
# Convention : Reuss Voigt Hill
#
# Bulk Modulus (GPa) = 13.53815 76.76755 45.15285
# Shear Modulus (GPa) = 109.98393 18.36042 64.17217
#
# Velocity S-wave (km/s) = 7.85581 3.20973 6.00067
# Velocity P-wave (km/s) = 9.48059 7.53737 8.56427
#
# Compressibility (1/GPa) = 0.07386533
#
# Stress axis : x y z
#
# Youngs Moduli (GPa) = 9.22949 75.94316 86.66427
#
# Poissons Ratio (x) = 0.57674 1.38846
# Poissons Ratio (y) = 0.07009 0.51820
# Poissons Ratio (z) = 0.14787 0.45409
#
# Static dielectric constant tensor:
#      x y z
#    x 2.738020 0.000000 0.000000 
#    y 0.000000 3.495360 0.000000 
#    z 0.000000 0.000000 3.605100 
# 
# 
# High freq. dielectric constant tensor:
#      x y z
#    x 1.623030 0.000000 0.000000 
#    y 0.000000 1.697540 0.000000 
#    z 0.000000 0.000000 1.709350 
# 
# From -- ./inp_files/34133.got.cif
#   From: 2010.03.12/outbox.cif.g09.slc.cpg/sg51_18_cif.got.tgz:34133.got - 2010.04.16 13:43:02.
