data_PCOD8208757
_publ_section_title
;
Structure prediction by ZEFSAII (Michael W. Deem and Ramdas Pophale) SiO2 
 PCOD8208757
Probable space group: P M M A
;
_chemical_formula_sum "Si O2"
_cell_formula_units_Z 64
_cell_length_a 28.923226
_cell_length_b 9.396941
_cell_length_c 13.075054
_cell_angle_alpha 90.000000
_cell_angle_beta 90.000000
_cell_angle_gamma 90.000000
_cell_volume 3553.666943
_symmetry_space_group_name_H-M "P M M A"
_symmetry_group_IT_number 51
_symmetry_cell_setting 'orthorhombic'
loop_
_space_group_symop_operation_xyz
x,y,z
1/2-x,-y,z
1/2+x,-y,-z
-x,y,-z
-x,-y,-z
1/2+x,y,-z
1/2-x,y,z
x,-y,z
loop_
_atom_site_type_symbol
_atom_site_label
_atom_site_fract_x
_atom_site_fract_y
_atom_site_fract_z
Si Si1 0.303963 0.165550 0.594485
Si Si2 0.123917 0.337077 0.202859
Si Si3 0.138977 0.162922 0.401318
Si Si4 0.303132 0.665519 0.793333
Si Si5 0.040692 0.161013 0.919138
Si Si6 0.129755 0.334934 0.976858
Si Si7 0.518855 0.335854 0.774017
Si Si8 0.465519 0.845160 0.408016
O O1 0.250000 0.193844 0.579262
O O2 0.328649 0.224310 0.491808
O O3 0.322106 0.248382 0.695064
O O4 0.315591 0.000000 0.610988
O O5 0.128743 0.500000 0.238135
O O6 0.146366 0.244127 0.293369
O O7 0.069840 0.299776 0.182709
O O8 0.148758 0.309699 0.093113
O O9 0.087051 0.180903 0.443520
O O10 0.152252 0.000000 0.379111
O O11 0.250000 0.705451 0.815277
O O12 0.309076 0.500000 0.768013
O O13 0.331137 0.708360 0.895242
O O14 0.085781 0.236273 0.961844
O O15 0.022349 0.246635 0.822546
O O16 0.053268 0.000000 0.887910
O O17 0.000000 0.164714 0.000000
O O18 0.115135 0.500000 0.964360
O O19 0.506321 0.500000 0.786092
O O20 0.518335 0.289042 0.656905
O O21 0.500000 0.852673 0.500000
O O22 0.467127 0.000000 0.350063
#
# Coordination Sequence:
#
# PCOD8208757 Si02
#       8
#     8   8   8   8   8   8   8   8
#     4   9  18  34  55  77 103 135 171 213 262 313
#     4   9  18  32  50  73 102 136 170 205 251 308
#     4   9  18  32  51  72  96 130 169 208 254 304
#     4   9  19  36  57  80 105 135 172 215 262 311
#     4  11  22  33  49  75 104 134 174 218 255 300
#     4  10  20  35  54  76 106 142 177 214 264 318
#     4  10  19  32  50  70  99 137 172 209 253 304
#     4   9  18  32  48  68  98 133 167 208 256 304
#
# _framework density 18.009568000000002
#
# number of rings (size 3 to 8) (size 9 to 14) (size 15 to 20)
#    0.000    2.500    1.250    0.750    0.000    3.750 
#    0.000    1.875    0.000    0.750    0.000    0.000 
#    0.000    0.000    0.000    0.000    0.000    0.000 
#
# Total GULP energy -793312.974507 kJ/mol
# GULP energy per Si atom -12395.515227 kJ/mol
# Density = 1.796858 g / cm^3
# Si number density = 18.009568 Si / 1000 Ang^3
#
#
#
# Elastic Constant Matrix: (Units=GPa)
#
#
# Indices 1 2 3 4 5 6 
#
# 1 56.3635 39.5691 58.2443 0.0000 0.0000 0.0000
# 2 39.5691 79.2309 62.2037 0.0000 0.0000 0.0000
# 3 58.2443 62.2037 140.5193 0.0000 0.0000 0.0000
# 4 0.0000 0.0000 0.0000 27.9791 0.0000 0.0000
# 5 0.0000 0.0000 0.0000 0.0000 31.4441 0.0000
# 6 0.0000 0.0000 0.0000 0.0000 0.0000 11.1514
#
#
#
# Elastic Compliance Matrix: (Units=1/GPa)
#
#
# Indices 1 2 3 4 5 6 
#
# 1 0.035032 -0.009342 -0.010385 0.000000 0.000000 0.000000
# 2 -0.009342 0.021836 -0.005794 0.000000 0.000000 0.000000
# 3 -0.010385 -0.005794 0.013986 0.000000 0.000000 0.000000
# 4 0.000000 0.000000 0.000000 0.035741 0.000000 0.000000
# 5 0.000000 0.000000 0.000000 0.000000 0.031802 0.000000
# 6 0.000000 0.000000 0.000000 0.000000 0.000000 0.089675
#
#
# Mechanical properties :
#
#
# Convention : Reuss Voigt Hill
#
# Bulk Modulus (GPa) = 50.47597 66.23866 58.35732
# Shear Modulus (GPa) = 17.49982 21.85470 19.67726
#
# Velocity S-wave (km/s) = 3.12058 3.48732 3.30904
# Velocity P-wave (km/s) = 6.40876 7.28524 6.86101
#
# Compressibility (1/GPa) = 0.01981141
#
# Stress axis : x y z
#
# Youngs Moduli (GPa) = 28.54516 45.79676 71.50191
#
# Poissons Ratio (x) = 0.42785 0.74255
# Poissons Ratio (y) = 0.26668 0.41425
# Poissons Ratio (z) = 0.29644 0.26533
#
# Static dielectric constant tensor:
#      x y z
#    x 3.387250 0.000000 0.000000 
#    y 0.000000 3.513800 0.000000 
#    z 0.000000 0.000000 3.383590 
# 
# 
# High freq. dielectric constant tensor:
#      x y z
#    x 1.676500 0.000000 0.000000 
#    y 0.000000 1.699050 0.000000 
#    z 0.000000 0.000000 1.698130 
# 
# From -- ./inp_files/19474.got.cif
#   From: 2010.03.12/outbox.cif.g09.slc.cpg/sg51_10_cif.got.tgz:19474.got - 2010.04.16 13:43:02.
