data_PCOD8208070
_publ_section_title
;
Structure prediction by ZEFSAII (Michael W. Deem and Ramdas Pophale) SiO2 
 PCOD8208070
Probable space group: P M M A
;
_chemical_formula_sum "Si O2"
_cell_formula_units_Z 52
_cell_length_a 8.933953
_cell_length_b 18.047783
_cell_length_c 18.262890
_cell_angle_alpha 90.000000
_cell_angle_beta 90.000000
_cell_angle_gamma 90.000000
_cell_volume 2944.672681
_symmetry_space_group_name_H-M "P M M A"
_symmetry_group_IT_number 51
_symmetry_cell_setting 'orthorhombic'
loop_
_space_group_symop_operation_xyz
x,y,z
1/2-x,-y,z
1/2+x,-y,-z
-x,y,-z
-x,-y,-z
1/2+x,y,-z
1/2-x,y,z
x,-y,z
loop_
_atom_site_type_symbol
_atom_site_label
_atom_site_fract_x
_atom_site_fract_y
_atom_site_fract_z
Si Si1 0.422342 0.788856 0.422349
Si Si2 0.915348 0.298520 0.215795
Si Si3 0.426551 0.500000 0.579102
Si Si4 0.082947 0.141846 0.705710
Si Si5 0.420893 0.366247 0.341736
Si Si6 0.578200 0.915910 0.840429
Si Si7 0.572528 0.214260 0.076230
O O1 0.500000 0.789618 0.500000
O O2 0.250000 0.809900 0.431459
O O3 0.498528 0.851286 0.371688
O O4 0.442038 0.707753 0.388307
O O5 0.750000 0.335092 0.214915
O O6 0.907366 0.221601 0.257868
O O7 0.969717 0.279952 0.133350
O O8 0.029499 0.353155 0.257301
O O9 0.250000 0.500000 0.568589
O O10 0.500000 0.500000 0.500000
O O11 0.473953 0.427656 0.623307
O O12 0.250000 0.110013 0.693029
O O13 0.991821 0.087861 0.759222
O O14 0.250000 0.393651 0.341871
O O15 0.750000 0.889553 0.836057
O O16 0.491566 0.864655 0.897982
O O17 0.565618 0.000000 0.868794
O O18 0.750000 0.205625 0.069010
O O19 0.500000 0.237994 0.000000
#
# Coordination Sequence:
#
# PCOD8208070 Si02
#       7
#     8   8   4   8   8   8   8
#     4  10  19  30  47  70  95 123 157 200 246 289
#     4   8  16  31  49  70  95 125 161 199 239 282
#     4  12  24  36  50  70 103 140 171 206 244 286
#     4   9  17  30  48  68  91 120 157 200 241 286
#     4  10  20  33  50  72  98 130 166 201 238 285
#     4  10  20  33  49  69  95 128 163 197 237 290
#     4  10  20  33  51  75 103 131 161 200 243 288
#
# _framework density 17.659008
#
# number of rings (size 3 to 8) (size 9 to 14) (size 15 to 20)
#    0.000    2.308    0.000    4.385    0.000    8.923 
#    0.000    0.000    0.000    0.462    0.000    0.538 
#    0.000    0.000    0.000    0.000    0.000    0.000 
#
# Total GULP energy -644766.910221 kJ/mol
# GULP energy per Si atom -12399.363658 kJ/mol
# Density = 1.761882 g / cm^3
# Si number density = 17.659008 Si / 1000 Ang^3
#
#
#
# Elastic Constant Matrix: (Units=GPa)
#
#
# Indices 1 2 3 4 5 6 
#
# 1 130.6203 28.3991 70.5513 0.0000 0.0000 0.0000
# 2 28.3991 36.6365 31.2608 0.0000 0.0000 0.0000
# 3 70.5513 31.2608 143.6168 0.0000 0.0000 0.0000
# 4 0.0000 0.0000 0.0000 23.0199 0.0000 0.0000
# 5 0.0000 0.0000 0.0000 0.0000 35.9212 0.0000
# 6 0.0000 0.0000 0.0000 0.0000 0.0000 24.2048
#
#
#
# Elastic Compliance Matrix: (Units=1/GPa)
#
#
# Indices 1 2 3 4 5 6 
#
# 1 0.011079 -0.004844 -0.004388 0.000000 0.000000 0.000000
# 2 -0.004844 0.035639 -0.005378 0.000000 0.000000 0.000000
# 3 -0.004388 -0.005378 0.010289 0.000000 0.000000 0.000000
# 4 0.000000 0.000000 0.000000 0.043441 0.000000 0.000000
# 5 0.000000 0.000000 0.000000 0.000000 0.027839 0.000000
# 6 0.000000 0.000000 0.000000 0.000000 0.000000 0.041314
#
#
# Mechanical properties :
#
#
# Convention : Reuss Voigt Hill
#
# Bulk Modulus (GPa) = 35.98772 63.47733 49.73253
# Shear Modulus (GPa) = 24.02890 28.67334 26.35112
#
# Velocity S-wave (km/s) = 3.69279 4.03392 3.86712
# Velocity P-wave (km/s) = 6.21335 7.59742 6.93998
#
# Compressibility (1/GPa) = 0.02778726
#
# Stress axis : x y z
#
# Youngs Moduli (GPa) = 90.26021 28.05942 97.18831
#
# Poissons Ratio (x) = 0.13591 0.42649
# Poissons Ratio (y) = 0.43719 0.52268
# Poissons Ratio (z) = 0.39608 0.15090
#
# Static dielectric constant tensor:
#      x y z
#    x 3.548850 0.000000 0.000000 
#    y 0.000000 2.964000 0.000000 
#    z 0.000000 0.000000 3.454020 
# 
# 
# High freq. dielectric constant tensor:
#      x y z
#    x 1.702260 0.000000 0.000000 
#    y 0.000000 1.641310 0.000000 
#    z 0.000000 0.000000 1.682020 
# 
# From -- ./inp_files/27939.got.cif
#   From: 2010.03.12/outbox.cif.g09.slc.cpg/sg51_14_cif.got.tgz:27939.got - 2010.04.16 13:43:02.
