data_PCOD8208349
_publ_section_title
;
Structure prediction by ZEFSAII (Michael W. Deem and Ramdas Pophale) SiO2 
 PCOD8208349
Probable space group: P M M A
;
_chemical_formula_sum "Si O2"
_cell_formula_units_Z 64
_cell_length_a 9.001961
_cell_length_b 19.613773
_cell_length_c 19.868559
_cell_angle_alpha 90.000000
_cell_angle_beta 90.000000
_cell_angle_gamma 90.000000
_cell_volume 3508.040851
_symmetry_space_group_name_H-M "P M M A"
_symmetry_group_IT_number 51
_symmetry_cell_setting 'orthorhombic'
loop_
_space_group_symop_operation_xyz
x,y,z
1/2-x,-y,z
1/2+x,-y,-z
-x,y,-z
-x,-y,-z
1/2+x,y,-z
1/2-x,y,z
x,-y,z
loop_
_atom_site_type_symbol
_atom_site_label
_atom_site_fract_x
_atom_site_fract_y
_atom_site_fract_z
Si Si1 0.419992 0.894203 0.758854
Si Si2 0.420696 0.212439 0.434812
Si Si3 0.426145 0.210355 0.933994
Si Si4 0.578552 0.580257 0.431347
Si Si5 0.422215 0.076075 0.108252
Si Si6 0.419572 0.074599 0.373413
Si Si7 0.076046 0.675476 0.328513
Si Si8 0.080676 0.739849 0.789955
O O1 0.250000 0.914711 0.774397
O O2 0.526465 0.925952 0.814667
O O3 0.470258 0.926187 0.689152
O O4 0.436239 0.812959 0.755196
O O5 0.500000 0.243061 0.500000
O O6 0.250000 0.218833 0.451353
O O7 0.470175 0.133861 0.424345
O O8 0.462871 0.255934 0.369344
O O9 0.250000 0.209109 0.940705
O O10 0.481015 0.131999 0.931074
O O11 0.474335 0.253290 0.867735
O O12 0.500000 0.244954 0.000000
O O13 0.500000 0.605716 0.500000
O O14 0.750000 0.602054 0.435398
O O15 0.559043 0.500000 0.423006
O O16 0.503889 0.612890 0.365467
O O17 0.250000 0.097436 0.104530
O O18 0.446247 0.000000 0.077670
O O19 0.250000 0.089641 0.349655
O O20 0.430389 0.000000 0.408461
O O21 0.250000 0.659925 0.325256
O O22 0.016577 0.685441 0.252130
O O23 0.250000 0.714308 0.788368
#
# Coordination Sequence:
#
# PCOD8208349 Si02
#       8
#     8   8   8   8   8   8   8   8
#     4  10  19  31  48  70  94 121 158 209 264 318
#     4  10  22  36  49  70  95 126 168 213 264 315
#     4  10  21  36  53  74 100 133 169 212 266 321
#     4  10  21  37  57  83 118 156 189 221 259 308
#     4  10  20  32  47  67  92 125 163 206 260 322
#     4  10  20  34  49  64  88 122 162 212 268 325
#     4  11  21  34  56  82 107 140 179 220 263 308
#     4   9  19  34  52  75 102 132 169 214 261 309
#
# _framework density 18.2438
#
# number of rings (size 3 to 8) (size 9 to 14) (size 15 to 20)
#    0.000    2.000    1.250    3.375    0.000    9.000 
#    0.000    0.000    0.000    0.000    0.000    0.000 
#    0.000    0.500    0.000    1.625    0.000    2.000 
#
# Total GULP energy -793494.744371 kJ/mol
# GULP energy per Si atom -12398.355381 kJ/mol
# Density = 1.820228 g / cm^3
# Si number density = 18.243800 Si / 1000 Ang^3
#
#
#
# Elastic Constant Matrix: (Units=GPa)
#
#
# Indices 1 2 3 4 5 6 
#
# 1 89.7156 33.7195 53.3938 0.0000 0.0000 0.0000
# 2 33.7195 49.2745 31.2866 0.0000 0.0000 0.0000
# 3 53.3938 31.2866 114.9299 0.0000 0.0000 0.0000
# 4 0.0000 0.0000 0.0000 16.0699 0.0000 0.0000
# 5 0.0000 0.0000 0.0000 0.0000 32.4275 0.0000
# 6 0.0000 0.0000 0.0000 0.0000 0.0000 23.2837
#
#
#
# Elastic Compliance Matrix: (Units=1/GPa)
#
#
# Indices 1 2 3 4 5 6 
#
# 1 0.017895 -0.008423 -0.006021 0.000000 0.000000 0.000000
# 2 -0.008423 0.028500 -0.003845 0.000000 0.000000 0.000000
# 3 -0.006021 -0.003845 0.012545 0.000000 0.000000 0.000000
# 4 0.000000 0.000000 0.000000 0.062228 0.000000 0.000000
# 5 0.000000 0.000000 0.000000 0.000000 0.030838 0.000000
# 6 0.000000 0.000000 0.000000 0.000000 0.000000 0.042948
#
#
# Mechanical properties :
#
#
# Convention : Reuss Voigt Hill
#
# Bulk Modulus (GPa) = 44.71882 54.52441 49.62161
# Shear Modulus (GPa) = 20.92157 23.39088 22.15622
#
# Velocity S-wave (km/s) = 3.39008 3.58457 3.48868
# Velocity P-wave (km/s) = 6.31574 6.86175 6.59440
#
# Compressibility (1/GPa) = 0.02236195
#
# Stress axis : x y z
#
# Youngs Moduli (GPa) = 55.88002 35.08747 79.71422
#
# Poissons Ratio (x) = 0.29555 0.47994
# Poissons Ratio (y) = 0.47070 0.30651
# Poissons Ratio (z) = 0.33644 0.13492
#
# Static dielectric constant tensor:
#      x y z
#    x 3.407480 0.000000 0.000000 
#    y 0.000000 3.148920 0.000000 
#    z 0.000000 0.000000 3.330060 
# 
# 
# High freq. dielectric constant tensor:
#      x y z
#    x 1.716230 0.000000 0.000000 
#    y 0.000000 1.670590 0.000000 
#    z 0.000000 0.000000 1.698040 
# 
# From -- ./inp_files/32671.got.cif
#   From: 2010.03.12/outbox.cif.g09.slc.cpg/sg51_17_cif.got.tgz:32671.got - 2010.04.16 13:43:02.
