data_PCOD8208103
_publ_section_title
;
Structure prediction by ZEFSAII (Michael W. Deem and Ramdas Pophale) SiO2 
 PCOD8208103
Probable space group: P M M A
;
_chemical_formula_sum "Si O2"
_cell_formula_units_Z 48
_cell_length_a 16.580095
_cell_length_b 9.277602
_cell_length_c 18.108302
_cell_angle_alpha 90.000000
_cell_angle_beta 90.000000
_cell_angle_gamma 90.000000
_cell_volume 2785.482801
_symmetry_space_group_name_H-M "P M M A"
_symmetry_group_IT_number 51
_symmetry_cell_setting 'orthorhombic'
loop_
_space_group_symop_operation_xyz
x,y,z
1/2-x,-y,z
1/2+x,-y,-z
-x,y,-z
-x,-y,-z
1/2+x,y,-z
1/2-x,y,z
x,-y,z
loop_
_atom_site_type_symbol
_atom_site_label
_atom_site_fract_x
_atom_site_fract_y
_atom_site_fract_z
Si Si1 0.340190 0.665641 0.571157
Si Si2 0.341031 0.830873 0.092309
Si Si3 0.491290 0.332571 0.666366
Si Si4 0.577907 0.158201 0.050701
Si Si5 0.513444 0.330892 0.835802
Si Si6 0.420601 0.162175 0.450841
O O1 0.250000 0.692114 0.601946
O O2 0.353913 0.500000 0.548954
O O3 0.403171 0.711040 0.634938
O O4 0.350875 0.757889 0.496560
O O5 0.250000 0.792509 0.116107
O O6 0.401569 0.741336 0.143553
O O7 0.359946 0.000000 0.103241
O O8 0.351179 0.790766 0.005061
O O9 0.509299 0.500000 0.652957
O O10 0.492915 0.292512 0.751934
O O11 0.561763 0.243697 0.625774
O O12 0.561733 0.270892 0.116289
O O13 0.597271 0.000000 0.084652
O O14 0.500000 0.147467 0.000000
O O15 0.520610 0.500000 0.850134
O O16 0.500000 0.165002 0.500000
O O17 0.392562 0.000000 0.432973
#
# Coordination Sequence:
#
# PCOD8208103 Si02
#       6
#     8   8   8   8   8   8
#     4   9  17  31  51  70  90 122 160 194 231 277
#     4   9  18  33  51  69  91 122 160 199 237 279
#     4   9  18  32  48  68  96 128 159 189 226 279
#     4   8  15  29  48  67  88 119 156 189 225 275
#     4  10  19  30  47  72  99 125 155 193 234 276
#     4   9  17  29  47  70  92 116 150 191 231 271
#
# _framework density 17.232201
#
# number of rings (size 3 to 8) (size 9 to 14) (size 15 to 20)
#    0.000    3.000    0.000    2.000    0.000    7.000 
#    0.000    1.667    0.000    2.000    0.000    0.000 
#    0.000    0.000    0.000    0.000    0.000    0.000 
#
# Total GULP energy -594997.020761 kJ/mol
# GULP energy per Si atom -12395.771266 kJ/mol
# Density = 1.719298 g / cm^3
# Si number density = 17.232201 Si / 1000 Ang^3
#
#
#
# Elastic Constant Matrix: (Units=GPa)
#
#
# Indices 1 2 3 4 5 6 
#
# 1 76.8394 39.4246 45.2893 0.0000 0.0000 0.0000
# 2 39.4246 89.2417 66.1602 0.0000 0.0000 0.0000
# 3 45.2893 66.1602 120.3664 0.0000 0.0000 0.0000
# 4 0.0000 0.0000 0.0000 22.3377 0.0000 0.0000
# 5 0.0000 0.0000 0.0000 0.0000 19.1128 0.0000
# 6 0.0000 0.0000 0.0000 0.0000 0.0000 19.7893
#
#
#
# Elastic Compliance Matrix: (Units=1/GPa)
#
#
# Indices 1 2 3 4 5 6 
#
# 1 0.017919 -0.004924 -0.004036 0.000000 0.000000 0.000000
# 2 -0.004924 0.020265 -0.009286 0.000000 0.000000 0.000000
# 3 -0.004036 -0.009286 0.014931 0.000000 0.000000 0.000000
# 4 0.000000 0.000000 0.000000 0.044767 0.000000 0.000000
# 5 0.000000 0.000000 0.000000 0.000000 0.052321 0.000000
# 6 0.000000 0.000000 0.000000 0.000000 0.000000 0.050532
#
#
# Mechanical properties :
#
#
# Convention : Reuss Voigt Hill
#
# Bulk Modulus (GPa) = 60.15775 65.35509 62.75642
# Shear Modulus (GPa) = 20.59566 21.28618 20.94092
#
# Velocity S-wave (km/s) = 3.46089 3.51843 3.48978
# Velocity P-wave (km/s) = 7.13837 7.38338 7.26191
#
# Compressibility (1/GPa) = 0.01662296
#
# Stress axis : x y z
#
# Youngs Moduli (GPa) = 55.80552 49.34526 66.97662
#
# Poissons Ratio (x) = 0.24300 0.27029
# Poissons Ratio (y) = 0.27481 0.62195
# Poissons Ratio (z) = 0.22521 0.45823
#
# Static dielectric constant tensor:
#      x y z
#    x 3.305140 0.000000 0.000000 
#    y 0.000000 3.280100 0.000000 
#    z 0.000000 0.000000 3.194640 
# 
# 
# High freq. dielectric constant tensor:
#      x y z
#    x 1.646470 0.000000 0.000000 
#    y 0.000000 1.667120 0.000000 
#    z 0.000000 0.000000 1.651040 
# 
# From -- ./inp_files/30031.got.cif
#   From: 2010.03.12/outbox.cif.g09.slc.cpg/sg51_16_cif.got.tgz:30031.got - 2010.04.16 13:43:02.
