data_PCOD8208159
_publ_section_title
;
Structure prediction by ZEFSAII (Michael W. Deem and Ramdas Pophale) SiO2 
 PCOD8208159
Probable space group: P M M A
;
_chemical_formula_sum "Si O2"
_cell_formula_units_Z 56
_cell_length_a 9.160089
_cell_length_b 15.317596
_cell_length_c 20.127752
_cell_angle_alpha 90.000000
_cell_angle_beta 90.000000
_cell_angle_gamma 90.000000
_cell_volume 2824.135805
_symmetry_space_group_name_H-M "P M M A"
_symmetry_group_IT_number 51
_symmetry_cell_setting 'orthorhombic'
loop_
_space_group_symop_operation_xyz
x,y,z
1/2-x,-y,z
1/2+x,-y,-z
-x,y,-z
-x,-y,-z
1/2+x,y,-z
1/2-x,y,z
x,-y,z
loop_
_atom_site_type_symbol
_atom_site_label
_atom_site_fract_x
_atom_site_fract_y
_atom_site_fract_z
Si Si1 0.917665 0.596115 0.872139
Si Si2 0.083384 0.367369 0.740055
Si Si3 0.581123 0.827627 0.302133
Si Si4 0.084781 0.405978 0.387263
Si Si5 0.577590 0.780551 0.565887
Si Si6 0.078445 0.225081 0.066430
Si Si7 0.416940 0.098522 0.183918
O O1 0.750000 0.612452 0.852974
O O2 0.939083 0.500000 0.905801
O O3 0.969039 0.674160 0.920489
O O4 0.007404 0.597075 0.805045
O O5 0.250000 0.395437 0.743948
O O6 0.062859 0.264207 0.734371
O O7 0.016220 0.413910 0.676560
O O8 0.750000 0.849918 0.317087
O O9 0.491661 0.829506 0.370954
O O10 0.512911 0.896478 0.250861
O O11 0.250000 0.391009 0.362539
O O12 0.070446 0.500000 0.425487
O O13 0.040461 0.323359 0.432274
O O14 0.500000 0.817974 0.500000
O O15 0.750000 0.799353 0.563107
O O16 0.250000 0.215080 0.055547
O O17 0.024819 0.164224 0.127166
O O18 0.000000 0.192438 0.000000
O O19 0.250000 0.122411 0.202088
O O20 0.429182 0.000000 0.156418
#
# Coordination Sequence:
#
# PCOD8208159 Si02
#       7
#     8   8   8   8   8   8   8
#     4  10  20  34  53  76 106 149 195 234 279 335
#     4  10  19  30  48  76 107 140 183 236 287 331
#     4  10  20  35  57  84 114 147 186 232 283 337
#     4   9  18  31  46  67 100 144 190 235 286 341
#     4  10  20  34  53  77 109 150 194 237 285 341
#     4  10  22  39  58  82 116 153 190 233 281 335
#     4  10  21  39  64  91 116 146 185 228 281 344
#
# _framework density 19.829073999999999
#
# number of rings (size 3 to 8) (size 9 to 14) (size 15 to 20)
#    0.000    2.143    1.429    1.714    0.000    6.286 
#    0.000    0.000    0.000    0.429    0.000    0.000 
#    0.000    0.000    0.000    0.000    0.000    0.000 
#
# Total GULP energy -694276.246884 kJ/mol
# GULP energy per Si atom -12397.790123 kJ/mol
# Density = 1.978394 g / cm^3
# Si number density = 19.829074 Si / 1000 Ang^3
#
#
#
# Elastic Constant Matrix: (Units=GPa)
#
#
# Indices 1 2 3 4 5 6 
#
# 1 84.6594 27.5621 55.8773 0.0000 0.0000 0.0000
# 2 27.5621 77.4280 39.3260 0.0000 0.0000 0.0000
# 3 55.8773 39.3260 123.3599 0.0000 0.0000 0.0000
# 4 0.0000 0.0000 0.0000 -11.3417 0.0000 0.0000
# 5 0.0000 0.0000 0.0000 0.0000 33.4873 0.0000
# 6 0.0000 0.0000 0.0000 0.0000 0.0000 17.7493
#
#
#
# Elastic Compliance Matrix: (Units=1/GPa)
#
#
# Indices 1 2 3 4 5 6 
#
# 1 0.017276 -0.002595 -0.006998 0.000000 0.000000 0.000000
# 2 -0.002595 0.015800 -0.003861 0.000000 0.000000 0.000000
# 3 -0.006998 -0.003861 0.012507 0.000000 0.000000 0.000000
# 4 0.000000 0.000000 0.000000 -0.088170 0.000000 0.000000
# 5 0.000000 0.000000 0.000000 0.000000 0.029862 0.000000
# 6 0.000000 0.000000 0.000000 0.000000 0.000000 0.056340
#
#
# Mechanical properties :
#
#
# Convention : Reuss Voigt Hill
#
# Bulk Modulus (GPa) = 53.55076 58.99758 56.27417
# Shear Modulus (GPa) = 65.14741 18.82445 41.98593
#
# Velocity S-wave (km/s) = 5.73810 3.08447 4.60651
# Velocity P-wave (km/s) = 8.42413 6.51943 7.53223
#
# Compressibility (1/GPa) = 0.01867387
#
# Stress axis : x y z
#
# Youngs Moduli (GPa) = 57.88451 63.28981 79.95463
#
# Poissons Ratio (x) = 0.16426 0.55951
# Poissons Ratio (y) = 0.15024 0.30873
# Poissons Ratio (z) = 0.40507 0.24439
#
# Static dielectric constant tensor:
#      x y z
#    x 3.570700 0.000000 0.000000 
#    y 0.000000 3.585670 0.000000 
#    z 0.000000 0.000000 3.341920 
# 
# 
# High freq. dielectric constant tensor:
#      x y z
#    x 1.773710 0.000000 0.000000 
#    y 0.000000 1.764840 0.000000 
#    z 0.000000 0.000000 1.755250 
# 
# From -- ./inp_files/32028.got.cif
#   From: 2010.03.12/outbox.cif.g09.slc.cpg/sg51_17_cif.got.tgz:32028.got - 2010.04.16 13:43:02.
