data_PCOD8208330
_publ_section_title
;
Structure prediction by ZEFSAII (Michael W. Deem and Ramdas Pophale) SiO2 
 PCOD8208330
Probable space group: P M M A
;
_chemical_formula_sum "Si O2"
_cell_formula_units_Z 64
_cell_length_a 17.685666
_cell_length_b 9.353708
_cell_length_c 22.831780
_cell_angle_alpha 90.000000
_cell_angle_beta 90.000000
_cell_angle_gamma 90.000000
_cell_volume 3776.982722
_symmetry_space_group_name_H-M "P M M A"
_symmetry_group_IT_number 51
_symmetry_cell_setting 'orthorhombic'
loop_
_space_group_symop_operation_xyz
x,y,z
1/2-x,-y,z
1/2+x,-y,-z
-x,y,-z
-x,-y,-z
1/2+x,y,-z
1/2-x,y,z
x,-y,z
loop_
_atom_site_type_symbol
_atom_site_label
_atom_site_fract_x
_atom_site_fract_y
_atom_site_fract_z
Si Si1 0.961346 0.166882 0.741357
Si Si2 0.573283 0.338873 0.039844
Si Si3 0.468931 0.836428 0.622062
Si Si4 0.096938 0.666628 0.436537
Si Si5 0.980459 0.167626 0.872125
Si Si6 0.336095 0.660224 0.314412
Si Si7 0.337000 0.833783 0.050522
Si Si8 0.164525 0.162945 0.542899
O O1 0.987242 0.219962 0.804991
O O2 0.880788 0.234389 0.727324
O O3 0.021072 0.210455 0.690168
O O4 0.947658 0.000000 0.743973
O O5 0.599326 0.500000 0.056050
O O6 0.548960 0.251691 0.097306
O O7 0.500000 0.343452 0.000000
O O8 0.641725 0.258637 0.006783
O O9 0.517050 0.739464 0.577838
O O10 0.381948 0.817569 0.603341
O O11 0.496323 0.000000 0.614562
O O12 0.082837 0.500000 0.447834
O O13 0.153588 0.696619 0.382830
O O14 0.133658 0.732817 0.493693
O O15 0.896357 0.204238 0.897376
O O16 0.996543 0.000000 0.879593
O O17 0.250000 0.678835 0.296921
O O18 0.365351 0.500000 0.302654
O O19 0.250000 0.798273 0.069390
O O20 0.344600 0.000000 0.033686
O O21 0.250000 0.204382 0.558264
O O22 0.157760 0.000000 0.520090
#
# Coordination Sequence:
#
# PCOD8208330 Si02
#       8
#     8   8   8   8   8   8   8   8
#     4   9  18  31  48  68  89 119 158 195 227 263
#     4   9  17  29  46  68  93 122 155 187 220 261
#     4   9  18  33  49  66  91 121 154 192 232 276
#     4  10  19  31  48  69  92 118 150 188 232 283
#     4   9  17  30  48  69  93 122 157 194 228 266
#     4   9  18  31  44  61  90 124 152 183 227 276
#     4   9  17  29  46  69  97 125 150 182 228 275
#     4  10  20  32  47  67  90 117 149 188 236 285
#
# _framework density 16.944742000000002
#
# number of rings (size 3 to 8) (size 9 to 14) (size 15 to 20)
#    0.000    2.750    0.000    1.500    0.000    6.250 
#    0.000    1.250    0.000    0.750    0.000    3.500 
#    0.000    0.000    0.000    0.000    0.000    0.000 
#
# Total GULP energy -793388.148450 kJ/mol
# GULP energy per Si atom -12396.689820 kJ/mol
# Density = 1.690618 g / cm^3
# Si number density = 16.944742 Si / 1000 Ang^3
#
#
#
# Elastic Constant Matrix: (Units=GPa)
#
#
# Indices 1 2 3 4 5 6 
#
# 1 81.1450 37.6987 51.9762 0.0000 0.0000 0.0000
# 2 37.6987 62.1836 49.0775 0.0000 0.0000 0.0000
# 3 51.9762 49.0775 108.3355 0.0000 0.0000 0.0000
# 4 0.0000 0.0000 0.0000 18.3806 0.0000 0.0000
# 5 0.0000 0.0000 0.0000 0.0000 14.1842 0.0000
# 6 0.0000 0.0000 0.0000 0.0000 0.0000 11.8415
#
#
#
# Elastic Compliance Matrix: (Units=1/GPa)
#
#
# Indices 1 2 3 4 5 6 
#
# 1 0.019533 -0.006920 -0.006237 0.000000 0.000000 0.000000
# 2 -0.006920 0.027482 -0.009130 0.000000 0.000000 0.000000
# 3 -0.006237 -0.009130 0.016359 0.000000 0.000000 0.000000
# 4 0.000000 0.000000 0.000000 0.054405 0.000000 0.000000
# 5 0.000000 0.000000 0.000000 0.000000 0.070501 0.000000
# 6 0.000000 0.000000 0.000000 0.000000 0.000000 0.084449
#
#
# Mechanical properties :
#
#
# Convention : Reuss Voigt Hill
#
# Bulk Modulus (GPa) = 53.18757 58.79652 55.99204
# Shear Modulus (GPa) = 15.45265 16.40871 15.93068
#
# Velocity S-wave (km/s) = 3.02312 3.11523 3.06952
# Velocity P-wave (km/s) = 6.60626 6.90752 6.75857
#
# Compressibility (1/GPa) = 0.01880139
#
# Stress axis : x y z
#
# Youngs Moduli (GPa) = 51.19468 36.38728 61.12926
#
# Poissons Ratio (x) = 0.25179 0.38125
# Poissons Ratio (y) = 0.35425 0.55810
# Poissons Ratio (z) = 0.31929 0.33221
#
# Static dielectric constant tensor:
#      x y z
#    x 3.145190 0.000000 0.000000 
#    y 0.000000 3.278980 0.000000 
#    z 0.000000 0.000000 3.207130 
# 
# 
# High freq. dielectric constant tensor:
#      x y z
#    x 1.635590 0.000000 0.000000 
#    y 0.000000 1.656910 0.000000 
#    z 0.000000 0.000000 1.641180 
# 
# From -- ./inp_files/35896.got.cif
#   From: 2010.03.12/outbox.cif.g09.slc.cpg/sg51_18_cif.got.tgz:35896.got - 2010.04.16 13:43:02.
