data_PCOD8208726
_publ_section_title
;
Structure prediction by ZEFSAII (Michael W. Deem and Ramdas Pophale) SiO2 
 PCOD8208726
Probable space group: P M M A
;
_chemical_formula_sum "Si O2"
_cell_formula_units_Z 44
_cell_length_a 9.081315
_cell_length_b 16.705675
_cell_length_c 15.592175
_cell_angle_alpha 90.000000
_cell_angle_beta 90.000000
_cell_angle_gamma 90.000000
_cell_volume 2365.481026
_symmetry_space_group_name_H-M "P M M A"
_symmetry_group_IT_number 51
_symmetry_cell_setting 'orthorhombic'
loop_
_space_group_symop_operation_xyz
x,y,z
1/2-x,-y,z
1/2+x,-y,-z
-x,y,-z
-x,-y,-z
1/2+x,y,-z
1/2-x,y,z
x,-y,z
loop_
_atom_site_type_symbol
_atom_site_label
_atom_site_fract_x
_atom_site_fract_y
_atom_site_fract_z
Si Si1 0.922508 0.092629 0.586695
Si Si2 0.581032 0.798752 0.742447
Si Si3 0.077603 0.500000 0.588681
Si Si4 0.085204 0.413052 0.866528
Si Si5 0.919394 0.761833 0.083365
Si Si6 0.583197 0.380487 0.701665
O O1 0.750000 0.107846 0.574912
O O2 0.979150 0.137389 0.672803
O O3 0.000000 0.125219 0.500000
O O4 0.961742 0.000000 0.600131
O O5 0.750000 0.816784 0.767896
O O6 0.487017 0.799152 0.829854
O O7 0.566472 0.714321 0.694872
O O8 0.250000 0.500000 0.577027
O O9 0.000000 0.500000 0.500000
O O10 0.028406 0.580759 0.635346
O O11 0.250000 0.407375 0.825757
O O12 0.070231 0.500000 0.915078
O O13 0.061853 0.334808 0.924948
O O14 0.960243 0.411758 0.795018
O O15 0.750000 0.787598 0.080649
O O16 0.000000 0.798698 0.000000
O O17 0.750000 0.407812 0.682820
#
# Coordination Sequence:
#
# PCOD8208726 Si02
#       6
#     8   8   4   8   8   8
#     4   9  18  34  57  85 115 143 170 207 258 315
#     4   9  19  35  55  79 108 141 176 215 260 315
#     4  12  24  36  48  64  91 128 171 218 264 310
#     4   9  17  30  48  68  93 128 169 213 260 311
#     4  10  20  33  50  74 104 140 181 224 269 316
#     4  10  19  32  49  70  95 127 169 213 258 306
#
# _framework density 18.600867999999998
#
# number of rings (size 3 to 8) (size 9 to 14) (size 15 to 20)
#    0.000    2.364    0.909    1.909    0.000    3.273 
#    0.000    1.818    0.000    0.545    0.000    0.000 
#    0.000    0.000    0.000    0.000    0.000    0.000 
#
# Total GULP energy -545294.039654 kJ/mol
# GULP energy per Si atom -12393.046356 kJ/mol
# Density = 1.855853 g / cm^3
# Si number density = 18.600868 Si / 1000 Ang^3
#
#
#
# Elastic Constant Matrix: (Units=GPa)
#
#
# Indices 1 2 3 4 5 6 
#
# 1 119.0983 30.0702 71.5156 0.0000 0.0000 0.0000
# 2 30.0702 63.5092 47.0621 0.0000 0.0000 0.0000
# 3 71.5156 47.0621 131.9242 0.0000 0.0000 0.0000
# 4 0.0000 0.0000 0.0000 21.1529 0.0000 0.0000
# 5 0.0000 0.0000 0.0000 0.0000 34.2705 0.0000
# 6 0.0000 0.0000 0.0000 0.0000 0.0000 14.9661
#
#
#
# Elastic Compliance Matrix: (Units=1/GPa)
#
#
# Indices 1 2 3 4 5 6 
#
# 1 0.012518 -0.001221 -0.006350 0.000000 0.000000 0.000000
# 2 -0.001221 0.021523 -0.007016 0.000000 0.000000 0.000000
# 3 -0.006350 -0.007016 0.013525 0.000000 0.000000 0.000000
# 4 0.000000 0.000000 0.000000 0.047275 0.000000 0.000000
# 5 0.000000 0.000000 0.000000 0.000000 0.029180 0.000000
# 6 0.000000 0.000000 0.000000 0.000000 0.000000 0.066818
#
#
# Mechanical properties :
#
#
# Convention : Reuss Voigt Hill
#
# Bulk Modulus (GPa) = 54.37331 67.98082 61.17707
# Shear Modulus (GPa) = 22.10979 25.13683 23.62331
#
# Velocity S-wave (km/s) = 3.45141 3.68010 3.56759
# Velocity P-wave (km/s) = 6.72146 7.39486 7.06619
#
# Compressibility (1/GPa) = 0.01839137
#
# Stress axis : x y z
#
# Youngs Moduli (GPa) = 79.88530 46.46182 73.93481
#
# Poissons Ratio (x) = 0.05674 0.46951
# Poissons Ratio (y) = 0.09756 0.51873
# Poissons Ratio (z) = 0.50729 0.32598
#
# Static dielectric constant tensor:
#      x y z
#    x 3.460160 0.000000 0.000000 
#    y 0.000000 3.285320 0.000000 
#    z 0.000000 0.000000 3.175760 
# 
# 
# High freq. dielectric constant tensor:
#      x y z
#    x 1.728800 0.000000 0.000000 
#    y 0.000000 1.699890 0.000000 
#    z 0.000000 0.000000 1.710500 
# 
# From -- ./inp_files/20887.got.cif
#   From: 2010.03.12/outbox.cif.g09.slc.cpg/sg51_11_cif.got.tgz:20887.got - 2010.04.16 13:43:02.
