data_PCOD8208915
_publ_section_title
;
Structure prediction by ZEFSAII (Michael W. Deem and Ramdas Pophale) SiO2 
 PCOD8208915
Probable space group: P M M A
;
_chemical_formula_sum "Si O2"
_cell_formula_units_Z 64
_cell_length_a 33.183303
_cell_length_b 9.150673
_cell_length_c 11.468058
_cell_angle_alpha 90.000000
_cell_angle_beta 90.000000
_cell_angle_gamma 90.000000
_cell_volume 3482.270706
_symmetry_space_group_name_H-M "P M M A"
_symmetry_group_IT_number 51
_symmetry_cell_setting 'orthorhombic'
loop_
_space_group_symop_operation_xyz
x,y,z
1/2-x,-y,z
1/2+x,-y,-z
-x,y,-z
-x,-y,-z
1/2+x,y,-z
1/2-x,y,z
x,-y,z
loop_
_atom_site_type_symbol
_atom_site_label
_atom_site_fract_x
_atom_site_fract_y
_atom_site_fract_z
Si Si1 0.203066 0.163604 0.503081
Si Si2 0.644681 0.331834 0.654615
Si Si3 0.443935 0.671695 0.736735
Si Si4 0.938504 0.332854 0.533626
Si Si5 0.875638 0.827579 0.121349
Si Si6 0.476903 0.828574 0.261318
Si Si7 0.205720 0.173125 0.762786
Si Si8 0.105884 0.830002 0.141344
O O1 0.250000 0.160024 0.475960
O O2 0.183610 0.265766 0.406227
O O3 0.195178 0.229500 0.632450
O O4 0.184841 0.000000 0.493256
O O5 0.652717 0.500000 0.680116
O O6 0.607467 0.305306 0.568321
O O7 0.637187 0.255825 0.778386
O O8 0.444974 0.500000 0.762291
O O9 0.442960 0.708711 0.600362
O O10 0.404433 0.740110 0.792891
O O11 0.483806 0.747581 0.790177
O O12 0.951487 0.500000 0.557883
O O13 0.967650 0.230289 0.609046
O O14 0.829473 0.779117 0.148223
O O15 0.881769 0.000000 0.141493
O O16 0.886215 0.781049 0.990468
O O17 0.440085 0.790927 0.174748
O O18 0.485448 0.000000 0.267746
O O19 0.250000 0.233859 0.802812
O O20 0.208726 0.000000 0.755333
O O21 0.114410 0.000000 0.159887
#
# Coordination Sequence:
#
# PCOD8208915 Si02
#       8
#     8   8   8   8   8   8   8   8
#     4   9  17  30  50  77 107 133 158 196 248 302
#     4  10  19  32  52  74  98 131 168 205 248 301
#     4  11  22  34  50  74 105 134 164 209 260 308
#     4   9  19  34  50  72 102 132 162 204 261 314
#     4  10  20  35  55  76 100 133 174 213 248 295
#     4  10  20  34  52  73  99 133 173 213 253 301
#     4   8  15  30  54  82 106 128 159 202 249 295
#     4   9  20  37  53  71  99 135 173 214 255 295
#
# _framework density 18.378813000000001
#
# number of rings (size 3 to 8) (size 9 to 14) (size 15 to 20)
#    0.000    2.500    0.000    3.000    0.000    4.750 
#    0.000    3.125    0.000    3.375    0.000    0.000 
#    0.000    0.000    0.000    0.000    0.000    0.000 
#
# Total GULP energy -793645.679677 kJ/mol
# GULP energy per Si atom -12400.713745 kJ/mol
# Density = 1.833698 g / cm^3
# Si number density = 18.378813 Si / 1000 Ang^3
#
#
#
# Elastic Constant Matrix: (Units=GPa)
#
#
# Indices 1 2 3 4 5 6 
#
# 1 113.3696 47.1659 71.2287 0.0000 0.0000 0.0000
# 2 47.1659 65.3458 44.4288 0.0000 0.0000 0.0000
# 3 71.2287 44.4288 89.0402 0.0000 0.0000 0.0000
# 4 0.0000 0.0000 0.0000 20.3846 0.0000 0.0000
# 5 0.0000 0.0000 0.0000 0.0000 20.8682 0.0000
# 6 0.0000 0.0000 0.0000 0.0000 0.0000 14.4312
#
#
#
# Elastic Compliance Matrix: (Units=1/GPa)
#
#
# Indices 1 2 3 4 5 6 
#
# 1 0.018776 -0.005055 -0.012498 0.000000 0.000000 0.000000
# 2 -0.005055 0.024521 -0.008192 0.000000 0.000000 0.000000
# 3 -0.012498 -0.008192 0.025316 0.000000 0.000000 0.000000
# 4 0.000000 0.000000 0.000000 0.049057 0.000000 0.000000
# 5 0.000000 0.000000 0.000000 0.000000 0.047920 0.000000
# 6 0.000000 0.000000 0.000000 0.000000 0.000000 0.069294
#
#
# Mechanical properties :
#
#
# Convention : Reuss Voigt Hill
#
# Bulk Modulus (GPa) = 58.39596 65.93360 62.16478
# Shear Modulus (GPa) = 17.11854 18.13229 17.62541
#
# Velocity S-wave (km/s) = 3.05524 3.14440 3.10014
# Velocity P-wave (km/s) = 6.65496 7.00969 6.83463
#
# Compressibility (1/GPa) = 0.01712447
#
# Stress axis : x y z
#
# Youngs Moduli (GPa) = 53.25965 40.78058 39.50074
#
# Poissons Ratio (x) = 0.20615 0.49367
# Poissons Ratio (y) = 0.26923 0.32358
# Poissons Ratio (z) = 0.66562 0.33406
#
# Static dielectric constant tensor:
#      x y z
#    x 3.529000 0.000000 0.000000 
#    y 0.000000 3.268850 0.000000 
#    z 0.000000 0.000000 3.302090 
# 
# 
# High freq. dielectric constant tensor:
#      x y z
#    x 1.718430 0.000000 0.000000 
#    y 0.000000 1.700570 0.000000 
#    z 0.000000 0.000000 1.701220 
# 
# From -- ./inp_files/19614.got.cif
#   From: 2010.03.12/outbox.cif.g09.slc.cpg/sg51_10_cif.got.tgz:19614.got - 2010.04.16 13:43:02.
