data_PCOD8208134
_publ_section_title
;
Structure prediction by ZEFSAII (Michael W. Deem and Ramdas Pophale) SiO2 
 PCOD8208134
Probable space group: P M M A
;
_chemical_formula_sum "Si O2"
_cell_formula_units_Z 56
_cell_length_a 17.423023
_cell_length_b 13.821226
_cell_length_c 13.922753
_cell_angle_alpha 90.000000
_cell_angle_beta 90.000000
_cell_angle_gamma 90.000000
_cell_volume 3352.703879
_symmetry_space_group_name_H-M "P M M A"
_symmetry_group_IT_number 51
_symmetry_cell_setting 'orthorhombic'
loop_
_space_group_symop_operation_xyz
x,y,z
1/2-x,-y,z
1/2+x,-y,-z
-x,y,-z
-x,-y,-z
1/2+x,y,-z
1/2-x,y,z
x,-y,z
loop_
_atom_site_type_symbol
_atom_site_label
_atom_site_fract_x
_atom_site_fract_y
_atom_site_fract_z
Si Si1 0.609037 0.891733 0.148069
Si Si2 0.835588 0.109820 0.353517
Si Si3 0.163426 0.111185 0.059805
Si Si4 0.469959 0.385631 0.276648
Si Si5 0.663730 0.386876 0.580501
Si Si6 0.930692 0.281669 0.428407
Si Si7 0.473650 0.755453 0.107510
O O1 0.663986 0.877289 0.238724
O O2 0.659409 0.870833 0.054164
O O3 0.537057 0.821370 0.157514
O O4 0.574960 0.000000 0.143807
O O5 0.750000 0.136729 0.389014
O O6 0.898910 0.177070 0.401184
O O7 0.856024 0.000000 0.382644
O O8 0.250000 0.133934 0.094168
O O9 0.141493 0.000000 0.084695
O O10 0.105690 0.184811 0.111475
O O11 0.481854 0.500000 0.267398
O O12 0.391045 0.358345 0.330932
O O13 0.541783 0.341706 0.335353
O O14 0.464925 0.341772 0.169740
O O15 0.750000 0.352066 0.604949
O O16 0.660189 0.500000 0.562463
O O17 0.636509 0.340217 0.480916
O O18 0.000000 0.263469 0.500000
O O19 0.500000 0.727402 0.000000
#
# Coordination Sequence:
#
# PCOD8208134 Si02
#       7
#     8   8   8   8   8   8   8
#     4   9  16  29  48  71  97 126 162 202 242 288
#     4  10  19  30  48  74 101 129 160 194 239 298
#     4   9  17  29  47  72 100 127 160 206 250 285
#     4  10  20  34  51  73 100 130 167 211 253 292
#     4   9  18  33  54  77  96 120 161 210 256 297
#     4  10  19  33  52  73  98 129 162 203 251 296
#     4  10  19  31  49  73  98 134 171 199 239 295
#
# _framework density 16.702936999999999
#
# number of rings (size 3 to 8) (size 9 to 14) (size 15 to 20)
#    0.000    2.429    1.429    1.714    0.000    6.286 
#    0.000    0.000    0.000    0.000    0.000    8.000 
#    0.000    0.000    0.000    0.000    0.000    0.000 
#
# Total GULP energy -694304.255052 kJ/mol
# GULP energy per Si atom -12398.290269 kJ/mol
# Density = 1.666492 g / cm^3
# Si number density = 16.702937 Si / 1000 Ang^3
#
#
#
# Elastic Constant Matrix: (Units=GPa)
#
#
# Indices 1 2 3 4 5 6 
#
# 1 92.6020 53.1765 29.8959 0.0000 0.0000 0.0000
# 2 53.1765 89.4017 47.1691 0.0000 0.0000 0.0000
# 3 29.8959 47.1691 69.4529 0.0000 0.0000 0.0000
# 4 0.0000 0.0000 0.0000 29.8738 0.0000 0.0000
# 5 0.0000 0.0000 0.0000 0.0000 14.3151 0.0000
# 6 0.0000 0.0000 0.0000 0.0000 0.0000 25.4298
#
#
#
# Elastic Compliance Matrix: (Units=1/GPa)
#
#
# Indices 1 2 3 4 5 6 
#
# 1 0.016421 -0.009410 -0.000678 0.000000 0.000000 0.000000
# 2 -0.009410 0.022824 -0.011450 0.000000 0.000000 0.000000
# 3 -0.000678 -0.011450 0.022467 0.000000 0.000000 0.000000
# 4 0.000000 0.000000 0.000000 0.033474 0.000000 0.000000
# 5 0.000000 0.000000 0.000000 0.000000 0.069856 0.000000
# 6 0.000000 0.000000 0.000000 0.000000 0.000000 0.039324
#
#
# Mechanical properties :
#
#
# Convention : Reuss Voigt Hill
#
# Bulk Modulus (GPa) = 53.66074 56.88218 55.27146
# Shear Modulus (GPa) = 19.71190 22.00475 20.85833
#
# Velocity S-wave (km/s) = 3.43905 3.63356 3.53764
# Velocity P-wave (km/s) = 6.92573 7.19255 7.06040
#
# Compressibility (1/GPa) = 0.01863560
#
# Stress axis : x y z
#
# Youngs Moduli (GPa) = 60.89654 43.81391 44.51054
#
# Poissons Ratio (x) = 0.41228 0.03017
# Poissons Ratio (y) = 0.57303 0.50966
# Poissons Ratio (z) = 0.04128 0.50169
#
# Static dielectric constant tensor:
#      x y z
#    x 3.261080 0.000000 0.000000 
#    y 0.000000 3.016710 0.000000 
#    z 0.000000 0.000000 3.007690 
# 
# 
# High freq. dielectric constant tensor:
#      x y z
#    x 1.648840 0.000000 0.000000 
#    y 0.000000 1.635110 0.000000 
#    z 0.000000 0.000000 1.630470 
# 
# From -- ./inp_files/24325.got.cif
#   From: 2010.03.12/outbox.cif.g09.slc.cpg/sg51_13_cif.got.tgz:24325.got - 2010.04.16 13:43:02.
