data_PCOD8208843
_publ_section_title
;
Structure prediction by ZEFSAII (Michael W. Deem and Ramdas Pophale) SiO2 
 PCOD8208843
Probable space group: P M M A
;
_chemical_formula_sum "Si O2"
_cell_formula_units_Z 48
_cell_length_a 26.028828
_cell_length_b 13.214347
_cell_length_c 7.617003
_cell_angle_alpha 90.000000
_cell_angle_beta 90.000000
_cell_angle_gamma 90.000000
_cell_volume 2619.898385
_symmetry_space_group_name_H-M "P M M A"
_symmetry_group_IT_number 51
_symmetry_cell_setting 'orthorhombic'
loop_
_space_group_symop_operation_xyz
x,y,z
1/2-x,-y,z
1/2+x,-y,-z
-x,y,-z
-x,-y,-z
1/2+x,y,-z
1/2-x,y,z
x,-y,z
loop_
_atom_site_type_symbol
_atom_site_label
_atom_site_fract_x
_atom_site_fract_y
_atom_site_fract_z
Si Si1 0.626296 0.386229 0.001498
Si Si2 0.553074 0.381473 0.683933
Si Si3 0.190044 0.197235 0.011657
Si Si4 0.692297 0.881594 0.611745
Si Si5 0.058622 0.691822 0.696692
Si Si6 0.122389 0.884292 0.713033
O O1 0.647378 0.500000 0.987820
O O2 0.595830 0.355002 0.826366
O O3 0.675210 0.313643 0.025583
O O4 0.588455 0.378072 0.166158
O O5 0.538971 0.500000 0.682962
O O6 0.502009 0.318150 0.729957
O O7 0.574402 0.347495 0.495552
O O8 0.250000 0.179646 0.975803
O O9 0.158081 0.123903 0.884484
O O10 0.174599 0.172913 0.210823
O O11 0.750000 0.848193 0.560217
O O12 0.655144 0.849059 0.455056
O O13 0.689791 0.000000 0.647211
O O14 0.073503 0.809911 0.723939
O O15 0.103035 0.000000 0.696205
#
# Coordination Sequence:
#
# PCOD8208843 Si02
#       6
#     8   8   8   8   8   8
#     4  10  20  33  51  74 100 130 163 201 245 292
#     4  10  19  33  54  76  98 129 167 203 241 291
#     4  10  20  33  51  74 100 130 164 203 245 290
#     4   9  17  30  49  71  94 123 162 204 242 286
#     4  10  19  32  51  74 100 127 164 207 244 288
#     4  10  20  33  50  73 100 130 164 203 248 294
#
# _framework density 18.321321000000001
#
# number of rings (size 3 to 8) (size 9 to 14) (size 15 to 20)
#    0.000    2.167    0.000    4.500    0.000    3.333 
#    0.000    1.667    0.000    9.000    0.000    4.667 
#    0.000    0.000    0.000    0.000    0.000    0.000 
#
# Total GULP energy -595303.915511 kJ/mol
# GULP energy per Si atom -12402.164906 kJ/mol
# Density = 1.827962 g / cm^3
# Si number density = 18.321321 Si / 1000 Ang^3
#
#
#
# Elastic Constant Matrix: (Units=GPa)
#
#
# Indices 1 2 3 4 5 6 
#
# 1 32.4441 24.5397 12.4553 0.0000 0.0000 0.0000
# 2 24.5397 77.9313 25.9454 0.0000 0.0000 0.0000
# 3 12.4553 25.9454 65.1024 0.0000 0.0000 0.0000
# 4 0.0000 0.0000 0.0000 24.9132 0.0000 0.0000
# 5 0.0000 0.0000 0.0000 0.0000 10.6006 0.0000
# 6 0.0000 0.0000 0.0000 0.0000 0.0000 14.8561
#
#
#
# Elastic Compliance Matrix: (Units=1/GPa)
#
#
# Indices 1 2 3 4 5 6 
#
# 1 0.040998 -0.011874 -0.003112 0.000000 0.000000 0.000000
# 2 -0.011874 0.018234 -0.004995 0.000000 0.000000 0.000000
# 3 -0.003112 -0.004995 0.017946 0.000000 0.000000 0.000000
# 4 0.000000 0.000000 0.000000 0.040139 0.000000 0.000000
# 5 0.000000 0.000000 0.000000 0.000000 0.094335 0.000000
# 6 0.000000 0.000000 0.000000 0.000000 0.000000 0.067313
#
#
# Mechanical properties :
#
#
# Convention : Reuss Voigt Hill
#
# Bulk Modulus (GPa) = 26.86942 33.48431 30.17686
# Shear Modulus (GPa) = 15.09066 17.57646 16.33356
#
# Velocity S-wave (km/s) = 2.87307 3.10069 2.98905
# Velocity P-wave (km/s) = 5.06987 5.57986 5.33097
#
# Compressibility (1/GPa) = 0.03721703
#
# Stress axis : x y z
#
# Youngs Moduli (GPa) = 24.39164 54.84343 55.72150
#
# Poissons Ratio (x) = 0.65120 0.17338
# Poissons Ratio (y) = 0.28962 0.27833
# Poissons Ratio (z) = 0.07590 0.27395
#
# Static dielectric constant tensor:
#      x y z
#    x 3.145640 0.000000 0.000000 
#    y 0.000000 3.281170 0.000000 
#    z 0.000000 0.000000 3.574800 
# 
# 
# High freq. dielectric constant tensor:
#      x y z
#    x 1.690480 0.000000 0.000000 
#    y 0.000000 1.707250 0.000000 
#    z 0.000000 0.000000 1.728450 
# 
# From -- ./inp_files/11678.got.cif
#   From: 2010.03.12/outbox.cif.g09.slc.cpg/sg51_6_cif.got.tgz:11678.got - 2010.04.16 13:43:02.
