data_PCOD8208081
_publ_section_title
;
Structure prediction by ZEFSAII (Michael W. Deem and Ramdas Pophale) SiO2 
 PCOD8208081
Probable space group: P M M A
;
_chemical_formula_sum "Si O2"
_cell_formula_units_Z 64
_cell_length_a 9.121136
_cell_length_b 20.303060
_cell_length_c 19.831104
_cell_angle_alpha 90.000000
_cell_angle_beta 90.000000
_cell_angle_gamma 90.000000
_cell_volume 3672.462091
_symmetry_space_group_name_H-M "P M M A"
_symmetry_group_IT_number 51
_symmetry_cell_setting 'orthorhombic'
loop_
_space_group_symop_operation_xyz
x,y,z
1/2-x,-y,z
1/2+x,-y,-z
-x,y,-z
-x,-y,-z
1/2+x,y,-z
1/2-x,y,z
x,-y,z
loop_
_atom_site_type_symbol
_atom_site_label
_atom_site_fract_x
_atom_site_fract_y
_atom_site_fract_z
Si Si1 0.917701 0.738219 0.708368
Si Si2 0.081182 0.678680 0.152873
Si Si3 0.580130 0.125492 0.288800
Si Si4 0.078535 0.871670 0.562068
Si Si5 0.419144 0.073691 0.164820
Si Si6 0.579952 0.268322 0.561465
Si Si7 0.079078 0.424106 0.931998
Si Si8 0.421976 0.809157 0.071045
O O1 0.750000 0.763862 0.713506
O O2 0.949828 0.686420 0.767565
O O3 0.942267 0.700771 0.636316
O O4 0.021308 0.800573 0.717207
O O5 0.250000 0.661149 0.138408
O O6 0.036275 0.745611 0.114977
O O7 0.980524 0.618579 0.129656
O O8 0.750000 0.127986 0.270664
O O9 0.556102 0.095368 0.364317
O O10 0.501633 0.078194 0.235908
O O11 0.250000 0.862831 0.546204
O O12 0.000000 0.911803 0.500000
O O13 0.996772 0.802206 0.565215
O O14 0.250000 0.089241 0.179320
O O15 0.480077 0.126151 0.110603
O O16 0.441813 0.000000 0.135798
O O17 0.500000 0.308559 0.500000
O O18 0.750000 0.261584 0.543211
O O19 0.250000 0.411415 0.941639
O O20 0.043488 0.500000 0.916267
O O21 0.000000 0.400420 0.000000
O O22 0.250000 0.814069 0.057919
O O23 0.500000 0.804175 0.000000
#
# Coordination Sequence:
#
# PCOD8208081 Si02
#       8
#     8   8   8   8   8   8   8   8
#     4   9  17  30  47  68  97 133 166 199 242 291
#     4  10  19  33  53  76 103 133 168 207 243 286
#     4  10  19  30  47  71  97 122 155 202 249 291
#     4   9  16  25  39  63  91 120 153 190 235 285
#     4  10  21  38  56  70  90 125 164 200 245 303
#     4   9  15  23  38  60  91 128 162 196 236 282
#     4  10  21  36  53  75 104 137 172 206 242 290
#     4  10  21  36  53  75  99 123 157 199 244 293
#
# _framework density 17.427001000000001
#
# number of rings (size 3 to 8) (size 9 to 14) (size 15 to 20)
#    0.000    2.375    1.250    2.625    0.000    5.750 
#    0.000    0.000    0.000    0.375    0.000    0.000 
#    0.000    0.500    0.000    1.125    0.000    2.250 
#
# Total GULP energy -793217.581310 kJ/mol
# GULP energy per Si atom -12394.024708 kJ/mol
# Density = 1.738734 g / cm^3
# Si number density = 17.427001 Si / 1000 Ang^3
#
#
#
# Elastic Constant Matrix: (Units=GPa)
#
#
# Indices 1 2 3 4 5 6 
#
# 1 82.6230 29.3561 53.4245 0.0000 0.0000 0.0000
# 2 29.3561 58.1182 40.6976 0.0000 0.0000 0.0000
# 3 53.4245 40.6976 145.1575 0.0000 0.0000 0.0000
# 4 0.0000 0.0000 0.0000 14.9298 0.0000 0.0000
# 5 0.0000 0.0000 0.0000 0.0000 31.7992 0.0000
# 6 0.0000 0.0000 0.0000 0.0000 0.0000 18.5840
#
#
#
# Elastic Compliance Matrix: (Units=1/GPa)
#
#
# Indices 1 2 3 4 5 6 
#
# 1 0.017084 -0.005259 -0.004813 0.000000 0.000000 0.000000
# 2 -0.005259 0.023028 -0.004521 0.000000 0.000000 0.000000
# 3 -0.004813 -0.004521 0.009928 0.000000 0.000000 0.000000
# 4 0.000000 0.000000 0.000000 0.066980 0.000000 0.000000
# 5 0.000000 0.000000 0.000000 0.000000 0.031447 0.000000
# 6 0.000000 0.000000 0.000000 0.000000 0.000000 0.053810
#
#
# Mechanical properties :
#
#
# Convention : Reuss Voigt Hill
#
# Bulk Modulus (GPa) = 47.95142 59.20613 53.57877
# Shear Modulus (GPa) = 20.97182 23.89062 22.43122
#
# Velocity S-wave (km/s) = 3.47278 3.70658 3.59158
# Velocity P-wave (km/s) = 6.60724 7.23643 6.92898
#
# Compressibility (1/GPa) = 0.02085444
#
# Stress axis : x y z
#
# Youngs Moduli (GPa) = 58.53474 43.42465 100.72402
#
# Poissons Ratio (x) = 0.22836 0.48481
# Poissons Ratio (y) = 0.30782 0.45537
# Poissons Ratio (z) = 0.28174 0.19632
#
# Static dielectric constant tensor:
#      x y z
#    x 3.306920 0.000000 0.000000 
#    y 0.000000 2.819470 0.000000 
#    z 0.000000 0.000000 3.979300 
# 
# 
# High freq. dielectric constant tensor:
#      x y z
#    x 1.680950 0.000000 0.000000 
#    y 0.000000 1.616270 0.000000 
#    z 0.000000 0.000000 1.692460 
# 
# From -- ./inp_files/32359.got.cif
#   From: 2010.03.12/outbox.cif.g09.slc.cpg/sg51_17_cif.got.tgz:32359.got - 2010.04.16 13:43:02.
