data_PCOD8208459
_publ_section_title
;
Structure prediction by ZEFSAII (Michael W. Deem and Ramdas Pophale) SiO2 
 PCOD8208459
Probable space group: P M M A
;
_chemical_formula_sum "Si O2"
_cell_formula_units_Z 64
_cell_length_a 9.148344
_cell_length_b 25.614025
_cell_length_c 14.313074
_cell_angle_alpha 90.000000
_cell_angle_beta 90.000000
_cell_angle_gamma 90.000000
_cell_volume 3353.924117
_symmetry_space_group_name_H-M "P M M A"
_symmetry_group_IT_number 51
_symmetry_cell_setting 'orthorhombic'
loop_
_space_group_symop_operation_xyz
x,y,z
1/2-x,-y,z
1/2+x,-y,-z
-x,y,-z
-x,-y,-z
1/2+x,y,-z
1/2-x,y,z
x,-y,z
loop_
_atom_site_type_symbol
_atom_site_label
_atom_site_fract_x
_atom_site_fract_y
_atom_site_fract_z
Si Si1 0.092818 0.559712 0.918762
Si Si2 0.578409 0.757421 0.402461
Si Si3 0.921897 0.293168 0.907826
Si Si4 0.420972 0.815835 0.909992
Si Si5 0.916903 0.140321 0.287214
Si Si6 0.920318 0.060224 0.593917
Si Si7 0.416605 0.331118 0.295359
Si Si8 0.415822 0.556620 0.267310
O O1 0.250000 0.588111 0.913246
O O2 0.116056 0.500000 0.948421
O O3 0.019365 0.563009 0.819550
O O4 0.000000 0.588234 0.000000
O O5 0.500000 0.766963 0.500000
O O6 0.750000 0.752276 0.419628
O O7 0.538058 0.805487 0.335732
O O8 0.524571 0.704307 0.354668
O O9 0.750000 0.285644 0.926931
O O10 0.949789 0.328824 0.816297
O O11 0.996790 0.237754 0.886448
O O12 0.000000 0.317687 0.000000
O O13 0.250000 0.804801 0.929716
O O14 0.439446 0.854988 0.823545
O O15 0.500000 0.841832 0.000000
O O16 0.750000 0.126263 0.312108
O O17 0.020818 0.093757 0.320034
O O18 0.750000 0.070514 0.580298
O O19 0.000000 0.079107 0.500000
O O20 0.955188 0.000000 0.615351
O O21 0.250000 0.312961 0.314352
O O22 0.440647 0.391476 0.330297
O O23 0.250000 0.557315 0.230069
O O24 0.446787 0.500000 0.318050
#
# Coordination Sequence:
#
# PCOD8208459 Si02
#       8
#     8   8   8   8   8   8   8   8
#     4   9  16  26  41  62  89 122 161 204 250 301
#     4  11  23  39  58  83 113 142 175 219 272 329
#     4  10  19  31  49  73 104 141 180 220 265 319
#     4  10  19  33  52  79 112 146 187 228 272 324
#     4  10  21  36  57  85 116 151 190 229 274 327
#     4  10  21  36  56  84 118 156 197 239 284 332
#     4  10  21  36  54  78 106 139 177 217 271 329
#     4   9  18  33  51  70  95 128 168 214 263 320
#
# _framework density 19.082125999999999
#
# number of rings (size 3 to 8) (size 9 to 14) (size 15 to 20)
#    0.000    2.125    1.250    3.000    0.000    6.750 
#    0.000    1.250    0.000    0.750    0.000    0.000 
#    0.000    0.000    0.000    0.000    0.000    0.000 
#
# Total GULP energy -793286.936085 kJ/mol
# GULP energy per Si atom -12395.108376 kJ/mol
# Density = 1.903869 g / cm^3
# Si number density = 19.082126 Si / 1000 Ang^3
#
#
#
# Elastic Constant Matrix: (Units=GPa)
#
#
# Indices 1 2 3 4 5 6 
#
# 1 115.3358 50.0643 41.3563 0.0000 0.0000 0.0000
# 2 50.0643 89.9798 37.7568 0.0000 0.0000 0.0000
# 3 41.3563 37.7568 83.8655 0.0000 0.0000 0.0000
# 4 0.0000 0.0000 0.0000 14.4001 0.0000 0.0000
# 5 0.0000 0.0000 0.0000 0.0000 32.4259 0.0000
# 6 0.0000 0.0000 0.0000 0.0000 0.0000 22.8048
#
#
#
# Elastic Compliance Matrix: (Units=1/GPa)
#
#
# Indices 1 2 3 4 5 6 
#
# 1 0.012286 -0.005294 -0.003675 0.000000 0.000000 0.000000
# 2 -0.005294 0.015983 -0.004585 0.000000 0.000000 0.000000
# 3 -0.003675 -0.004585 0.015801 0.000000 0.000000 0.000000
# 4 0.000000 0.000000 0.000000 0.069444 0.000000 0.000000
# 5 0.000000 0.000000 0.000000 0.000000 0.030840 0.000000
# 6 0.000000 0.000000 0.000000 0.000000 0.000000 0.043850
#
#
# Mechanical properties :
#
#
# Convention : Reuss Voigt Hill
#
# Bulk Modulus (GPa) = 58.95817 60.83734 59.89775
# Shear Modulus (GPa) = 22.62796 24.59307 23.61052
#
# Velocity S-wave (km/s) = 3.44731 3.59388 3.52136
# Velocity P-wave (km/s) = 6.84174 7.01230 6.92755
#
# Compressibility (1/GPa) = 0.01696118
#
# Stress axis : x y z
#
# Youngs Moduli (GPa) = 81.39304 62.56647 63.28899
#
# Poissons Ratio (x) = 0.33121 0.23261
# Poissons Ratio (y) = 0.43087 0.29019
# Poissons Ratio (z) = 0.29915 0.28688
#
# Static dielectric constant tensor:
#      x y z
#    x 3.665910 0.000000 0.000000 
#    y 0.000000 3.452170 0.000000 
#    z 0.000000 0.000000 3.329530 
# 
# 
# High freq. dielectric constant tensor:
#      x y z
#    x 1.756150 0.000000 0.000000 
#    y 0.000000 1.731180 0.000000 
#    z 0.000000 0.000000 1.715870 
# 
# From -- ./inp_files/22271.got.cif
#   From: 2010.03.12/outbox.cif.g09.slc.cpg/sg51_12_cif.got.tgz:22271.got - 2010.04.16 13:43:02.
