data_PCOD8208374
_publ_section_title
;
Structure prediction by ZEFSAII (Michael W. Deem and Ramdas Pophale) SiO2 
 PCOD8208374
Probable space group: P M M A
;
_chemical_formula_sum "Si O2"
_cell_formula_units_Z 64
_cell_length_a 8.794230
_cell_length_b 19.725190
_cell_length_c 19.925903
_cell_angle_alpha 90.000000
_cell_angle_beta 90.000000
_cell_angle_gamma 90.000000
_cell_volume 3456.503705
_symmetry_space_group_name_H-M "P M M A"
_symmetry_group_IT_number 51
_symmetry_cell_setting 'orthorhombic'
loop_
_space_group_symop_operation_xyz
x,y,z
1/2-x,-y,z
1/2+x,-y,-z
-x,y,-z
-x,-y,-z
1/2+x,y,-z
1/2-x,y,z
x,-y,z
loop_
_atom_site_type_symbol
_atom_site_label
_atom_site_fract_x
_atom_site_fract_y
_atom_site_fract_z
Si Si1 0.923513 0.926663 0.882628
Si Si2 0.428244 0.782366 0.068424
Si Si3 0.424712 0.258802 0.796318
Si Si4 0.428818 0.423590 0.430689
Si Si5 0.571029 0.206776 0.431953
Si Si6 0.923227 0.893075 0.249062
Si Si7 0.574577 0.923545 0.615212
Si Si8 0.570035 0.691877 0.669860
O O1 0.750000 0.915242 0.858688
O O2 0.971515 0.862642 0.928117
O O3 0.031932 0.931338 0.818567
O O4 0.939809 0.000000 0.920420
O O5 0.250000 0.769988 0.066637
O O6 0.495293 0.740843 0.131170
O O7 0.500000 0.753516 0.000000
O O8 0.250000 0.279183 0.806604
O O9 0.443938 0.186598 0.761331
O O10 0.504591 0.312100 0.745651
O O11 0.500000 0.396490 0.500000
O O12 0.250000 0.420830 0.440077
O O13 0.485326 0.500000 0.415168
O O14 0.480595 0.376224 0.369121
O O15 0.500000 0.237461 0.500000
O O16 0.750000 0.217662 0.432400
O O17 0.531084 0.127090 0.427351
O O18 0.499909 0.243666 0.368016
O O19 0.750000 0.910921 0.268160
O O20 0.034018 0.919073 0.306581
O O21 0.750000 0.902707 0.605432
O O22 0.545311 0.000000 0.589599
O O23 0.750000 0.700141 0.672779
#
# Coordination Sequence:
#
# PCOD8208374 Si02
#       8
#     8   8   8   8   8   8   8   8
#     4   9  18  31  46  65  91 125 164 207 258 321
#     4  10  20  34  51  71  99 134 171 216 270 329
#     4  10  20  34  53  77 104 135 174 220 265 314
#     4   9  19  35  55  83 119 157 192 223 260 309
#     4  12  25  40  56  75 100 132 171 219 269 323
#     4  10  19  31  48  71  96 124 160 210 265 319
#     4  11  23  37  53  71  93 124 164 214 272 330
#     4  11  21  35  58  84 111 144 181 223 265 309
#
# _framework density 18.515820000000001
#
# number of rings (size 3 to 8) (size 9 to 14) (size 15 to 20)
#    0.000    1.750    1.250    3.750    0.000    6.750 
#    0.000    0.000    0.000    0.000    0.000    0.000 
#    0.000    0.500    0.000    1.375    0.000    2.000 
#
# Total GULP energy -793607.439038 kJ/mol
# GULP energy per Si atom -12400.116235 kJ/mol
# Density = 1.847368 g / cm^3
# Si number density = 18.515820 Si / 1000 Ang^3
#
#
#
# Elastic Constant Matrix: (Units=GPa)
#
#
# Indices 1 2 3 4 5 6 
#
# 1 91.3656 28.9045 50.4200 0.0000 0.0000 0.0000
# 2 28.9045 64.6629 40.5759 0.0000 0.0000 0.0000
# 3 50.4200 40.5759 130.8012 0.0000 0.0000 0.0000
# 4 0.0000 0.0000 0.0000 16.8744 0.0000 0.0000
# 5 0.0000 0.0000 0.0000 0.0000 33.3874 0.0000
# 6 0.0000 0.0000 0.0000 0.0000 0.0000 14.6900
#
#
#
# Elastic Compliance Matrix: (Units=1/GPa)
#
#
# Indices 1 2 3 4 5 6 
#
# 1 0.014587 -0.003715 -0.004470 0.000000 0.000000 0.000000
# 2 -0.003715 0.020149 -0.004818 0.000000 0.000000 0.000000
# 3 -0.004470 -0.004818 0.010863 0.000000 0.000000 0.000000
# 4 0.000000 0.000000 0.000000 0.059262 0.000000 0.000000
# 5 0.000000 0.000000 0.000000 0.000000 0.029951 0.000000
# 6 0.000000 0.000000 0.000000 0.000000 0.000000 0.068073
#
#
# Mechanical properties :
#
#
# Convention : Reuss Voigt Hill
#
# Bulk Modulus (GPa) = 51.04300 58.51448 54.77874
# Shear Modulus (GPa) = 21.23821 24.11899 22.67860
#
# Velocity S-wave (km/s) = 3.39046 3.61309 3.50354
# Velocity P-wave (km/s) = 6.55393 7.00549 6.78347
#
# Compressibility (1/GPa) = 0.01959132
#
# Stress axis : x y z
#
# Youngs Moduli (GPa) = 68.55194 49.63013 92.05469
#
# Poissons Ratio (x) = 0.18440 0.41153
# Poissons Ratio (y) = 0.25470 0.44354
# Poissons Ratio (z) = 0.30646 0.23913
#
# Static dielectric constant tensor:
#      x y z
#    x 3.453770 0.000000 0.000000 
#    y 0.000000 3.272130 0.000000 
#    z 0.000000 0.000000 3.367680 
# 
# 
# High freq. dielectric constant tensor:
#      x y z
#    x 1.729110 0.000000 0.000000 
#    y 0.000000 1.678930 0.000000 
#    z 0.000000 0.000000 1.710810 
# 
# From -- ./inp_files/32318.got.cif
#   From: 2010.03.12/outbox.cif.g09.slc.cpg/sg51_17_cif.got.tgz:32318.got - 2010.04.16 13:43:02.
