data_PCOD8208221
_publ_section_title
;
Structure prediction by ZEFSAII (Michael W. Deem and Ramdas Pophale) SiO2 
 PCOD8208221
Probable space group: P M M A
;
_chemical_formula_sum "Si O2"
_cell_formula_units_Z 36
_cell_length_a 8.617098
_cell_length_b 18.441963
_cell_length_c 14.260447
_cell_angle_alpha 90.000000
_cell_angle_beta 90.000000
_cell_angle_gamma 90.000000
_cell_volume 2266.216083
_symmetry_space_group_name_H-M "P M M A"
_symmetry_group_IT_number 51
_symmetry_cell_setting 'orthorhombic'
loop_
_space_group_symop_operation_xyz
x,y,z
1/2-x,-y,z
1/2+x,-y,-z
-x,y,-z
-x,-y,-z
1/2+x,y,-z
1/2-x,y,z
x,-y,z
loop_
_atom_site_type_symbol
_atom_site_label
_atom_site_fract_x
_atom_site_fract_y
_atom_site_fract_z
Si Si1 0.065557 0.734135 0.104550
Si Si2 0.431392 0.915489 0.400814
Si Si3 0.067566 0.000000 0.102868
Si Si4 0.931943 0.576430 0.897822
Si Si5 0.067795 0.133832 0.786192
O O1 0.250000 0.747473 0.102849
O O2 0.020388 0.653977 0.147055
O O3 0.982822 0.789025 0.174145
O O4 0.000000 0.744752 0.000000
O O5 0.500000 0.890643 0.500000
O O6 0.250000 0.898340 0.397882
O O7 0.518513 0.869161 0.322122
O O8 0.465312 0.000000 0.382694
O O9 0.016680 0.071297 0.156803
O O10 0.250000 0.000000 0.095591
O O11 0.000000 0.000000 0.000000
O O12 0.750000 0.577083 0.909193
O O13 0.982548 0.500000 0.845187
O O14 0.000000 0.574223 0.000000
O O15 0.250000 0.122989 0.796342
#
# Coordination Sequence:
#
# PCOD8208221 Si02
#       5
#     8   8   4   8   8
#     4  10  19  31  46  66  95 128 162 198 236 278
#     4  10  20  35  55  75  95 118 149 192 239 286
#     4  12  24  38  51  66  89 122 162 200 236 276
#     4   8  14  25  42  63  87 118 155 193 232 274
#     4  12  23  35  50  69  94 124 159 196 235 279
#
# _framework density 15.885510999999999
#
# number of rings (size 3 to 8) (size 9 to 14) (size 15 to 20)
#    0.000    1.778    1.111    5.000    0.000    1.778 
#    0.000    0.000    0.000    0.000    0.000    0.000 
#    0.000    0.889    0.000    2.444    0.000    4.000 
#
# Total GULP energy -446080.014409 kJ/mol
# GULP energy per Si atom -12391.111511 kJ/mol
# Density = 1.584935 g / cm^3
# Si number density = 15.885511 Si / 1000 Ang^3
#
#
#
# Elastic Constant Matrix: (Units=GPa)
#
#
# Indices 1 2 3 4 5 6 
#
# 1 95.2764 41.7198 38.7739 0.0000 0.0000 0.0000
# 2 41.7198 131.8699 53.1026 0.0000 0.0000 0.0000
# 3 38.7739 53.1026 93.3376 0.0000 0.0000 0.0000
# 4 0.0000 0.0000 0.0000 -2.0060 0.0000 0.0000
# 5 0.0000 0.0000 0.0000 0.0000 26.4703 0.0000
# 6 0.0000 0.0000 0.0000 0.0000 0.0000 11.0626
#
#
#
# Elastic Compliance Matrix: (Units=1/GPa)
#
#
# Indices 1 2 3 4 5 6 
#
# 1 0.013268 -0.002566 -0.004052 0.000000 0.000000 0.000000
# 2 -0.002566 0.010333 -0.004813 0.000000 0.000000 0.000000
# 3 -0.004052 -0.004813 0.015135 0.000000 0.000000 0.000000
# 4 0.000000 0.000000 0.000000 -0.498504 0.000000 0.000000
# 5 0.000000 0.000000 0.000000 0.000000 0.037778 0.000000
# 6 0.000000 0.000000 0.000000 0.000000 0.000000 0.090394
#
#
# Mechanical properties :
#
#
# Convention : Reuss Voigt Hill
#
# Bulk Modulus (GPa) = 62.99220 65.29737 64.14478
# Shear Modulus (GPa) = -16.47765 19.56456 1.54346
#
# Velocity S-wave (km/s) = -3.22417 3.51322 0.98677
# Velocity P-wave (km/s) = 5.08720 7.59284 6.46261
#
# Compressibility (1/GPa) = 0.01587498
#
# Stress axis : x y z
#
# Youngs Moduli (GPa) = 75.36694 96.77598 66.07096
#
# Poissons Ratio (x) = 0.24833 0.26772
# Poissons Ratio (y) = 0.19339 0.31799
# Poissons Ratio (z) = 0.30539 0.46577
#
# Static dielectric constant tensor:
#      x y z
#    x 3.251600 0.000000 0.000000 
#    y 0.000000 3.630810 0.000000 
#    z 0.000000 0.000000 2.844490 
# 
# 
# High freq. dielectric constant tensor:
#      x y z
#    x 1.629830 0.000000 0.000000 
#    y 0.000000 1.615780 0.000000 
#    z 0.000000 0.000000 1.572090 
# 
# From -- ./inp_files/14004.got.cif
#   From: 2010.03.12/outbox.cif.g09.slc.cpg/sg51_8_cif.got.tgz:14004.got - 2010.04.16 13:43:02.
