data_PCOD8208631
_publ_section_title
;
Structure prediction by ZEFSAII (Michael W. Deem and Ramdas Pophale) SiO2 
 PCOD8208631
Probable space group: P M M A
;
_chemical_formula_sum "Si O2"
_cell_formula_units_Z 64
_cell_length_a 31.432642
_cell_length_b 9.212758
_cell_length_c 11.976988
_cell_angle_alpha 90.000000
_cell_angle_beta 90.000000
_cell_angle_gamma 90.000000
_cell_volume 3468.312043
_symmetry_space_group_name_H-M "P M M A"
_symmetry_group_IT_number 51
_symmetry_cell_setting 'orthorhombic'
loop_
_space_group_symop_operation_xyz
x,y,z
1/2-x,-y,z
1/2+x,-y,-z
-x,y,-z
-x,-y,-z
1/2+x,y,-z
1/2-x,y,z
x,-y,z
loop_
_atom_site_type_symbol
_atom_site_label
_atom_site_fract_x
_atom_site_fract_y
_atom_site_fract_z
Si Si1 0.549446 0.668302 0.007142
Si Si2 0.200871 0.329922 0.994148
Si Si3 0.125102 0.170047 0.114859
Si Si4 0.388554 0.833262 0.367702
Si Si5 0.485229 0.830140 0.380272
Si Si6 0.630723 0.672394 0.415337
Si Si7 0.796359 0.672386 0.258079
Si Si8 0.553864 0.667080 0.260881
O O1 0.551759 0.500000 0.970971
O O2 0.567428 0.690014 0.132565
O O3 0.500000 0.721365 0.000000
O O4 0.581026 0.758388 0.927514
O O5 0.250000 0.296762 0.028185
O O6 0.191165 0.500000 0.010113
O O7 0.192497 0.279619 0.867369
O O8 0.167882 0.238540 0.066222
O O9 0.131149 0.195444 0.246852
O O10 0.122529 0.000000 0.086028
O O11 0.437154 0.784565 0.362107
O O12 0.365571 0.737265 0.461212
O O13 0.384496 0.000000 0.404348
O O14 0.500000 0.769787 0.500000
O O15 0.510919 0.754902 0.281228
O O16 0.493261 0.000000 0.370706
O O17 0.631889 0.500000 0.423970
O O18 0.670385 0.735871 0.346090
O O19 0.589497 0.725502 0.346512
O O20 0.750000 0.732150 0.292065
O O21 0.796693 0.500000 0.260994
O O22 0.544290 0.500000 0.284648
#
# Coordination Sequence:
#
# PCOD8208631 Si02
#       8
#     8   8   8   8   8   8   8   8
#     4  10  21  37  56  79 110 146 183 227 276 327
#     4   9  18  36  63  88 110 140 178 223 275 331
#     4  11  23  37  55  79 111 150 185 227 277 328
#     4  10  22  38  51  70 104 143 181 217 261 313
#     4  10  19  33  52  71  97 139 183 220 257 308
#     4  10  19  31  51  78 103 130 168 212 256 305
#     4   8  15  31  56  83 108 132 161 207 265 315
#     4  10  20  32  50  78 106 131 168 221 272 312
#
# _framework density 18.452780000000001
#
# number of rings (size 3 to 8) (size 9 to 14) (size 15 to 20)
#    0.000    2.250    1.250    2.625    0.000    4.750 
#    0.000    2.500    0.000    3.375    0.000    0.000 
#    0.000    0.000    0.000    0.000    0.000    0.000 
#
# Total GULP energy -793503.613425 kJ/mol
# GULP energy per Si atom -12398.493960 kJ/mol
# Density = 1.841078 g / cm^3
# Si number density = 18.452780 Si / 1000 Ang^3
#
#
#
# Elastic Constant Matrix: (Units=GPa)
#
#
# Indices 1 2 3 4 5 6 
#
# 1 125.9525 50.8383 68.8436 0.0000 0.0000 0.0000
# 2 50.8383 52.0670 41.3205 0.0000 0.0000 0.0000
# 3 68.8436 41.3205 104.6904 0.0000 0.0000 0.0000
# 4 0.0000 0.0000 0.0000 21.5790 0.0000 0.0000
# 5 0.0000 0.0000 0.0000 0.0000 34.9940 0.0000
# 6 0.0000 0.0000 0.0000 0.0000 0.0000 18.2971
#
#
#
# Elastic Compliance Matrix: (Units=1/GPa)
#
#
# Indices 1 2 3 4 5 6 
#
# 1 0.015380 -0.010179 -0.006096 0.000000 0.000000 0.000000
# 2 -0.010179 0.034703 -0.007003 0.000000 0.000000 0.000000
# 3 -0.006096 -0.007003 0.016325 0.000000 0.000000 0.000000
# 4 0.000000 0.000000 0.000000 0.046341 0.000000 0.000000
# 5 0.000000 0.000000 0.000000 0.000000 0.028576 0.000000
# 6 0.000000 0.000000 0.000000 0.000000 0.000000 0.054653
#
#
# Mechanical properties :
#
#
# Convention : Reuss Voigt Hill
#
# Bulk Modulus (GPa) = 50.37618 67.19052 58.78335
# Shear Modulus (GPa) = 20.06795 23.08785 21.57790
#
# Velocity S-wave (km/s) = 3.30135 3.54105 3.42330
# Velocity P-wave (km/s) = 6.47234 7.29451 6.89569
#
# Compressibility (1/GPa) = 0.01985065
#
# Stress axis : x y z
#
# Youngs Moduli (GPa) = 65.01820 28.81605 61.25617
#
# Poissons Ratio (x) = 0.29333 0.37343
# Poissons Ratio (y) = 0.66184 0.42898
# Poissons Ratio (z) = 0.39637 0.20180
#
# Static dielectric constant tensor:
#      x y z
#    x 3.556190 0.000000 0.000000 
#    y 0.000000 3.154560 0.000000 
#    z 0.000000 0.000000 3.513140 
# 
# 
# High freq. dielectric constant tensor:
#      x y z
#    x 1.716480 0.000000 0.000000 
#    y 0.000000 1.694440 0.000000 
#    z 0.000000 0.000000 1.720050 
# 
# From -- ./inp_files/19552.got.cif
#   From: 2010.03.12/outbox.cif.g09.slc.cpg/sg51_10_cif.got.tgz:19552.got - 2010.04.16 13:43:02.
