data_PCOD8208232
_publ_section_title
;
Structure prediction by ZEFSAII (Michael W. Deem and Ramdas Pophale) SiO2 
 PCOD8208232
Probable space group: P M M A
;
_chemical_formula_sum "Si O2"
_cell_formula_units_Z 56
_cell_length_a 18.342870
_cell_length_b 9.488352
_cell_length_c 19.140487
_cell_angle_alpha 90.000000
_cell_angle_beta 90.000000
_cell_angle_gamma 90.000000
_cell_volume 3331.279402
_symmetry_space_group_name_H-M "P M M A"
_symmetry_group_IT_number 51
_symmetry_cell_setting 'orthorhombic'
loop_
_space_group_symop_operation_xyz
x,y,z
1/2-x,-y,z
1/2+x,-y,-z
-x,y,-z
-x,-y,-z
1/2+x,y,-z
1/2-x,y,z
x,-y,z
loop_
_atom_site_type_symbol
_atom_site_label
_atom_site_fract_x
_atom_site_fract_y
_atom_site_fract_z
Si Si1 0.078296 0.833591 0.916216
Si Si2 0.333771 0.166347 0.205600
Si Si3 0.472910 0.667566 0.573416
Si Si4 0.551942 0.337249 0.712361
Si Si5 0.401191 0.662584 0.786328
Si Si6 0.086623 0.166403 0.069437
Si Si7 0.169681 0.332210 0.644778
O O1 0.120070 0.753336 0.854283
O O2 0.994757 0.780213 0.914893
O O3 0.085219 0.000000 0.903509
O O4 0.112301 0.787826 0.991457
O O5 0.250000 0.207047 0.216305
O O6 0.379810 0.242688 0.265511
O O7 0.358348 0.222188 0.128870
O O8 0.346895 0.000000 0.212249
O O9 0.500000 0.732897 0.500000
O O10 0.469323 0.500000 0.569053
O O11 0.528726 0.711238 0.634554
O O12 0.391491 0.725922 0.590933
O O13 0.575981 0.500000 0.712606
O O14 0.485098 0.312644 0.764999
O O15 0.386635 0.500000 0.803675
O O16 0.349754 0.715552 0.723384
O O17 0.083895 0.000000 0.070167
O O18 0.250000 0.274321 0.624288
O O19 0.168003 0.500000 0.642769
#
# Coordination Sequence:
#
# PCOD8208232 Si02
#       7
#     8   8   8   8   8   8   8
#     4   9  15  26  45  63  82 110 145 187 227 263
#     4  10  19  31  47  64  85 118 157 191 222 264
#     4   8  14  26  45  68  93 119 149 184 216 254
#     4   9  17  29  45  66  92 117 142 181 228 264
#     4   9  16  26  42  65  89 113 145 182 219 263
#     4   8  15  27  42  61  83 109 146 187 225 262
#     4   8  14  25  41  61  87 119 149 177 216 265
#
# _framework density 16.810358999999998
#
# number of rings (size 3 to 8) (size 9 to 14) (size 15 to 20)
#    0.000    3.286    1.429    2.571    0.000    0.286 
#    0.000    3.571    0.000    4.286    0.000    0.000 
#    0.000    0.000    0.000    0.000    0.000    0.000 
#
# Total GULP energy -693963.809602 kJ/mol
# GULP energy per Si atom -12392.210886 kJ/mol
# Density = 1.677210 g / cm^3
# Si number density = 16.810359 Si / 1000 Ang^3
#
#
#
# Elastic Constant Matrix: (Units=GPa)
#
#
# Indices 1 2 3 4 5 6 
#
# 1 113.8538 26.1553 66.1067 0.0000 0.0000 0.0000
# 2 26.1553 27.6581 31.8404 0.0000 0.0000 0.0000
# 3 66.1067 31.8404 144.8581 0.0000 0.0000 0.0000
# 4 0.0000 0.0000 0.0000 13.4905 0.0000 0.0000
# 5 0.0000 0.0000 0.0000 0.0000 20.3189 0.0000
# 6 0.0000 0.0000 0.0000 0.0000 0.0000 12.7215
#
#
#
# Elastic Compliance Matrix: (Units=1/GPa)
#
#
# Indices 1 2 3 4 5 6 
#
# 1 0.012963 -0.007294 -0.004312 0.000000 0.000000 0.000000
# 2 -0.007294 0.052508 -0.008213 0.000000 0.000000 0.000000
# 3 -0.004312 -0.008213 0.010676 0.000000 0.000000 0.000000
# 4 0.000000 0.000000 0.000000 0.074126 0.000000 0.000000
# 5 0.000000 0.000000 0.000000 0.000000 0.049215 0.000000
# 6 0.000000 0.000000 0.000000 0.000000 0.000000 0.078607
#
#
# Mechanical properties :
#
#
# Convention : Reuss Voigt Hill
#
# Bulk Modulus (GPa) = 27.39054 59.39720 43.39387
# Shear Modulus (GPa) = 15.15594 20.12403 17.63998
#
# Velocity S-wave (km/s) = 3.00589 3.46370 3.24288
# Velocity P-wave (km/s) = 5.32695 7.16984 6.31598
#
# Compressibility (1/GPa) = 0.03650896
#
# Stress axis : x y z
#
# Youngs Moduli (GPa) = 77.14460 19.04470 93.66385
#
# Poissons Ratio (x) = 0.13891 0.40391
# Poissons Ratio (y) = 0.56269 0.76925
# Poissons Ratio (z) = 0.33267 0.15641
#
# Static dielectric constant tensor:
#      x y z
#    x 3.186830 0.000000 0.000000 
#    y 0.000000 2.685910 0.000000 
#    z 0.000000 0.000000 3.399750 
# 
# 
# High freq. dielectric constant tensor:
#      x y z
#    x 1.630960 0.000000 0.000000 
#    y 0.000000 1.599070 0.000000 
#    z 0.000000 0.000000 1.651650 
# 
# From -- ./inp_files/30230.got.cif
#   From: 2010.03.12/outbox.cif.g09.slc.cpg/sg51_16_cif.got.tgz:30230.got - 2010.04.16 13:43:02.
