data_PCOD8208287
_publ_section_title
;
Structure prediction by ZEFSAII (Michael W. Deem and Ramdas Pophale) SiO2 
 PCOD8208287
Probable space group: P M M A
;
_chemical_formula_sum "Si O2"
_cell_formula_units_Z 64
_cell_length_a 18.296197
_cell_length_b 9.087298
_cell_length_c 21.609231
_cell_angle_alpha 90.000000
_cell_angle_beta 90.000000
_cell_angle_gamma 90.000000
_cell_volume 3592.815453
_symmetry_space_group_name_H-M "P M M A"
_symmetry_group_IT_number 51
_symmetry_cell_setting 'orthorhombic'
loop_
_space_group_symop_operation_xyz
x,y,z
1/2-x,-y,z
1/2+x,-y,-z
-x,y,-z
-x,-y,-z
1/2+x,y,-z
1/2-x,y,z
x,-y,z
loop_
_atom_site_type_symbol
_atom_site_label
_atom_site_fract_x
_atom_site_fract_y
_atom_site_fract_z
Si Si1 0.336830 0.666899 0.626114
Si Si2 0.164604 0.828832 0.747502
Si Si3 0.088118 0.826886 0.247190
Si Si4 0.332732 0.827542 0.121931
Si Si5 0.335185 0.673974 0.359447
Si Si6 0.037013 0.671978 0.062507
Si Si7 0.043164 0.327305 0.812451
Si Si8 0.836611 0.335726 0.506659
O O1 0.250000 0.663042 0.627286
O O2 0.366572 0.500000 0.635025
O O3 0.365237 0.769583 0.681432
O O4 0.362206 0.736645 0.559019
O O5 0.250000 0.796440 0.756348
O O6 0.123018 0.742955 0.802278
O O7 0.146611 0.000000 0.751503
O O8 0.143432 0.786925 0.191601
O O9 0.120142 0.767044 0.310544
O O10 0.011324 0.747488 0.236228
O O11 0.074896 0.000000 0.252168
O O12 0.250000 0.771276 0.112125
O O13 0.385003 0.749398 0.072300
O O14 0.338761 0.000000 0.110391
O O15 0.250000 0.706999 0.349332
O O16 0.350584 0.500000 0.352483
O O17 0.362167 0.733458 0.427647
O O18 0.053129 0.500000 0.057708
O O19 0.981645 0.709459 0.117982
O O20 0.000000 0.732422 0.000000
O O21 0.045727 0.500000 0.799880
O O22 0.750000 0.340183 0.509426
O O23 0.867648 0.500000 0.504086
#
# Coordination Sequence:
#
# PCOD8208287 Si02
#       8
#     8   8   8   8   8   8   8   8
#     4   8  13  24  44  67  90 120 159 199 240 287
#     4  10  20  33  50  74 102 127 154 195 245 290
#     4  10  19  31  47  68  98 132 163 200 246 289
#     4   9  18  32  50  74 103 134 169 204 236 279
#     4   9  16  26  42  66  96 129 166 205 242 284
#     4   9  19  36  56  78 103 130 162 201 243 285
#     4  10  20  35  55  75  95 124 161 195 233 287
#     4   7  11  21  38  61  89 121 158 200 241 282
#
# _framework density 17.813329
#
# number of rings (size 3 to 8) (size 9 to 14) (size 15 to 20)
#    0.000    3.000    0.000    3.000    0.000    3.000 
#    0.000    1.250    0.000    6.750    0.000    5.250 
#    0.000    0.000    0.000    0.000    0.000    0.000 
#
# Total GULP energy -793079.373976 kJ/mol
# GULP energy per Si atom -12391.865218 kJ/mol
# Density = 1.777278 g / cm^3
# Si number density = 17.813329 Si / 1000 Ang^3
#
#
#
# Elastic Constant Matrix: (Units=GPa)
#
#
# Indices 1 2 3 4 5 6 
#
# 1 82.4405 44.4220 59.3641 0.0000 0.0000 0.0000
# 2 44.4220 68.7165 45.3513 0.0000 0.0000 0.0000
# 3 59.3641 45.3513 114.7355 0.0000 0.0000 0.0000
# 4 0.0000 0.0000 0.0000 20.1716 0.0000 0.0000
# 5 0.0000 0.0000 0.0000 0.0000 22.2384 0.0000
# 6 0.0000 0.0000 0.0000 0.0000 0.0000 26.8263
#
#
#
# Elastic Compliance Matrix: (Units=1/GPa)
#
#
# Indices 1 2 3 4 5 6 
#
# 1 0.023214 -0.009578 -0.008225 0.000000 0.000000 0.000000
# 2 -0.009578 0.023641 -0.004389 0.000000 0.000000 0.000000
# 3 -0.008225 -0.004389 0.014706 0.000000 0.000000 0.000000
# 4 0.000000 0.000000 0.000000 0.049575 0.000000 0.000000
# 5 0.000000 0.000000 0.000000 0.000000 0.044967 0.000000
# 6 0.000000 0.000000 0.000000 0.000000 0.000000 0.037277
#
#
# Mechanical properties :
#
#
# Convention : Reuss Voigt Hill
#
# Bulk Modulus (GPa) = 58.21763 62.68524 60.45144
# Shear Modulus (GPa) = 20.53488 21.63095 21.08291
#
# Velocity S-wave (km/s) = 3.39895 3.48848 3.44400
# Velocity P-wave (km/s) = 6.93951 7.17582 7.05866
#
# Compressibility (1/GPa) = 0.01717693
#
# Stress axis : x y z
#
# Youngs Moduli (GPa) = 43.07817 42.29954 68.00027
#
# Poissons Ratio (x) = 0.40516 0.55928
# Poissons Ratio (y) = 0.41262 0.29843
# Poissons Ratio (z) = 0.35430 0.18564
#
# Static dielectric constant tensor:
#      x y z
#    x 3.121190 0.000000 0.000000 
#    y 0.000000 3.163530 0.000000 
#    z 0.000000 0.000000 3.578460 
# 
# 
# High freq. dielectric constant tensor:
#      x y z
#    x 1.662940 0.000000 0.000000 
#    y 0.000000 1.673490 0.000000 
#    z 0.000000 0.000000 1.694380 
# 
# From -- ./inp_files/33747.got.cif
#   From: 2010.03.12/outbox.cif.g09.slc.cpg/sg51_17_cif.got.tgz:33747.got - 2010.04.16 13:43:02.
