data_PCOD8208649
_publ_section_title
;
Structure prediction by ZEFSAII (Michael W. Deem and Ramdas Pophale) SiO2 
 PCOD8208649
Probable space group: P M M A
;
_chemical_formula_sum "Si O2"
_cell_formula_units_Z 56
_cell_length_a 8.954303
_cell_length_b 14.933077
_cell_length_c 20.432958
_cell_angle_alpha 90.000000
_cell_angle_beta 90.000000
_cell_angle_gamma 90.000000
_cell_volume 2732.199031
_symmetry_space_group_name_H-M "P M M A"
_symmetry_group_IT_number 51
_symmetry_cell_setting 'orthorhombic'
loop_
_space_group_symop_operation_xyz
x,y,z
1/2-x,-y,z
1/2+x,-y,-z
-x,y,-z
-x,-y,-z
1/2+x,y,-z
1/2-x,y,z
x,-y,z
loop_
_atom_site_type_symbol
_atom_site_label
_atom_site_fract_x
_atom_site_fract_y
_atom_site_fract_z
Si Si1 0.424701 0.000000 0.931140
Si Si2 0.914440 0.900084 0.720412
Si Si3 0.423500 0.100944 0.589998
Si Si4 0.582117 0.157593 0.161029
Si Si5 0.426341 0.716591 0.435878
Si Si6 0.073590 0.397042 0.308915
Si Si7 0.418630 0.356076 0.827642
Si Si8 0.573036 0.500000 0.070989
O O1 0.477368 0.910415 0.893704
O O2 0.250000 0.000000 0.942342
O O3 0.500000 0.000000 0.000000
O O4 0.750000 0.867014 0.695101
O O5 0.041497 0.895877 0.666345
O O6 0.968728 0.838753 0.778760
O O7 0.900825 0.000000 0.747957
O O8 0.250000 0.122395 0.578060
O O9 0.525290 0.178617 0.559319
O O10 0.463848 0.000000 0.563511
O O11 0.750000 0.128190 0.182358
O O12 0.579277 0.259375 0.137486
O O13 0.500000 0.669441 0.500000
O O14 0.250000 0.709844 0.442313
O O15 0.481651 0.666497 0.369377
O O16 0.250000 0.389980 0.303087
O O17 0.024593 0.500000 0.322464
O O18 0.007746 0.362459 0.240444
O O19 0.250000 0.385341 0.810156
O O20 0.484385 0.416813 0.885536
O O21 0.750000 0.500000 0.060737
O O22 0.500000 0.500000 0.000000
#
# Coordination Sequence:
#
# PCOD8208649 Si02
#       8
#     4   8   8   8   8   8   8   4
#     4  10  22  38  54  76 112 156 199 242 289 346
#     4  10  19  31  51  81 114 146 186 237 289 341
#     4  10  21  37  58  84 117 159 202 245 296 353
#     4  10  20  35  56  80 110 150 194 239 290 347
#     4  11  24  41  61  88 123 161 204 253 304 361
#     4  10  22  41  65  92 122 155 197 249 306 365
#     4  10  21  38  62  91 119 152 197 246 295 354
#     4  10  22  40  60  88 123 154 191 238 293 354
#
# _framework density 20.496312
#
# number of rings (size 3 to 8) (size 9 to 14) (size 15 to 20)
#    0.000    1.857    1.429    2.143    0.000    7.714 
#    0.000    0.000    0.000    0.000    0.000    0.000 
#    0.000    0.000    0.000    0.000    0.000    0.000 
#
# Total GULP energy -693973.431376 kJ/mol
# GULP energy per Si atom -12392.382703 kJ/mol
# Density = 2.044966 g / cm^3
# Si number density = 20.496312 Si / 1000 Ang^3
#
#
#
# Elastic Constant Matrix: (Units=GPa)
#
#
# Indices 1 2 3 4 5 6 
#
# 1 60.0461 28.0535 42.6865 0.0000 0.0000 0.0000
# 2 28.0535 125.7923 59.9843 0.0000 0.0000 0.0000
# 3 42.6865 59.9843 155.4796 0.0000 0.0000 0.0000
# 4 0.0000 0.0000 0.0000 14.5054 0.0000 0.0000
# 5 0.0000 0.0000 0.0000 0.0000 37.1167 0.0000
# 6 0.0000 0.0000 0.0000 0.0000 0.0000 23.4918
#
#
#
# Elastic Compliance Matrix: (Units=1/GPa)
#
#
# Indices 1 2 3 4 5 6 
#
# 1 0.021268 -0.002400 -0.004913 0.000000 0.000000 0.000000
# 2 -0.002400 0.010013 -0.003204 0.000000 0.000000 0.000000
# 3 -0.004913 -0.003204 0.009017 0.000000 0.000000 0.000000
# 4 0.000000 0.000000 0.000000 0.068940 0.000000 0.000000
# 5 0.000000 0.000000 0.000000 0.000000 0.026942 0.000000
# 6 0.000000 0.000000 0.000000 0.000000 0.000000 0.042568
#
#
# Mechanical properties :
#
#
# Convention : Reuss Voigt Hill
#
# Bulk Modulus (GPa) = 51.91345 66.97407 59.44376
# Shear Modulus (GPa) = 24.24796 29.06233 26.65515
#
# Velocity S-wave (km/s) = 3.44327 3.76963 3.61014
# Velocity P-wave (km/s) = 6.41804 7.18984 6.81488
#
# Compressibility (1/GPa) = 0.01926283
#
# Stress axis : x y z
#
# Youngs Moduli (GPa) = 47.01917 99.87305 110.90590
#
# Poissons Ratio (x) = 0.23972 0.54488
# Poissons Ratio (y) = 0.11286 0.35534
# Poissons Ratio (z) = 0.23101 0.31999
#
# Static dielectric constant tensor:
#      x y z
#    x 3.695360 0.000000 0.000000 
#    y 0.000000 4.031790 0.000000 
#    z 0.000000 0.000000 3.685610 
# 
# 
# High freq. dielectric constant tensor:
#      x y z
#    x 1.793660 0.000000 0.000000 
#    y 0.000000 1.809780 0.000000 
#    z 0.000000 0.000000 1.794730 
# 
# From -- ./inp_files/32064.got.cif
#   From: 2010.03.12/outbox.cif.g09.slc.cpg/sg51_17_cif.got.tgz:32064.got - 2010.04.16 13:43:02.
