data_PCOD8208253
_publ_section_title
;
Structure prediction by ZEFSAII (Michael W. Deem and Ramdas Pophale) SiO2 
 PCOD8208253
Probable space group: P M M A
;
_chemical_formula_sum "Si O2"
_cell_formula_units_Z 40
_cell_length_a 9.562006
_cell_length_b 13.998422
_cell_length_c 19.890777
_cell_angle_alpha 90.000000
_cell_angle_beta 90.000000
_cell_angle_gamma 90.000000
_cell_volume 2662.440077
_symmetry_space_group_name_H-M "P M M A"
_symmetry_group_IT_number 51
_symmetry_cell_setting 'orthorhombic'
loop_
_space_group_symop_operation_xyz
x,y,z
1/2-x,-y,z
1/2+x,-y,-z
-x,y,-z
-x,-y,-z
1/2+x,y,-z
1/2-x,y,z
x,-y,z
loop_
_atom_site_type_symbol
_atom_site_label
_atom_site_fract_x
_atom_site_fract_y
_atom_site_fract_z
Si Si1 0.750000 0.108034 0.415421
Si Si2 0.589794 0.386631 0.189995
Si Si3 0.996701 0.235153 0.579295
Si Si4 0.250000 0.895477 0.425524
Si Si5 0.588986 0.613724 0.936160
Si Si6 0.413056 0.388321 0.318786
O O1 0.625039 0.175270 0.392288
O O2 0.750000 0.094535 0.494754
O O3 0.750000 0.000000 0.383507
O O4 0.750000 0.346356 0.188664
O O5 0.596320 0.500000 0.186125
O O6 0.497060 0.347262 0.128096
O O7 0.507760 0.353723 0.256613
O O8 0.879058 0.162437 0.601183
O O9 0.973423 0.335893 0.615559
O O10 0.000000 0.257278 0.500000
O O11 0.250000 0.000000 0.392450
O O12 0.750000 0.652865 0.937173
O O13 0.595345 0.500000 0.935164
O O14 0.500000 0.650205 0.000000
O O15 0.250000 0.364158 0.305152
O O16 0.432318 0.500000 0.332618
#
# Coordination Sequence:
#
# PCOD8208253 Si02
#       6
#     4   8   8   4   8   8
#     4   9  18  30  47  69  89 105 127 172 228 278
#     4   9  17  28  41  57  77 106 145 183 218 256
#     4  10  19  31  47  66  86 110 143 182 223 270
#     4   9  16  30  49  67  85 105 133 172 224 280
#     4   9  15  23  37  57  80 105 136 177 218 254
#     4  10  20  33  45  58  82 117 154 188 219 254
#
# _framework density 15.023813000000001
#
# number of rings (size 3 to 8) (size 9 to 14) (size 15 to 20)
#    0.000    2.600    1.000    1.800    1.400    7.600 
#    0.000    0.000    0.000    0.000    0.000    0.000 
#    0.000    0.000    0.000    0.000    0.000    6.000 
#
# Total GULP energy -495579.944813 kJ/mol
# GULP energy per Si atom -12389.498620 kJ/mol
# Density = 1.498962 g / cm^3
# Si number density = 15.023813 Si / 1000 Ang^3
#
#
#
# Elastic Constant Matrix: (Units=GPa)
#
#
# Indices 1 2 3 4 5 6 
#
# 1 153.9958 38.0841 55.8631 0.0000 0.0000 0.0000
# 2 38.0841 51.5560 36.6171 0.0000 0.0000 0.0000
# 3 55.8631 36.6171 88.3088 0.0000 0.0000 0.0000
# 4 0.0000 0.0000 0.0000 1.5666 0.0000 0.0000
# 5 0.0000 0.0000 0.0000 0.0000 26.0695 0.0000
# 6 0.0000 0.0000 0.0000 0.0000 0.0000 24.5827
#
#
#
# Elastic Compliance Matrix: (Units=1/GPa)
#
#
# Indices 1 2 3 4 5 6 
#
# 1 0.008886 -0.003645 -0.004110 0.000000 0.000000 0.000000
# 2 -0.003645 0.028988 -0.009714 0.000000 0.000000 0.000000
# 3 -0.004110 -0.009714 0.017952 0.000000 0.000000 0.000000
# 4 0.000000 0.000000 0.000000 0.638329 0.000000 0.000000
# 5 0.000000 0.000000 0.000000 0.000000 0.038359 0.000000
# 6 0.000000 0.000000 0.000000 0.000000 0.000000 0.040679
#
#
# Mechanical properties :
#
#
# Convention : Reuss Voigt Hill
#
# Bulk Modulus (GPa) = 47.87433 61.66546 54.76989
# Shear Modulus (GPa) = 6.13426 21.33019 13.73222
#
# Velocity S-wave (km/s) = 2.02284 3.77206 3.02657
# Velocity P-wave (km/s) = 6.11479 7.75277 6.98198
#
# Compressibility (1/GPa) = 0.02088802
#
# Stress axis : x y z
#
# Youngs Moduli (GPa) = 112.53692 34.49659 55.70538
#
# Poissons Ratio (x) = 0.12574 0.22893
# Poissons Ratio (y) = 0.41021 0.54113
# Poissons Ratio (z) = 0.46249 0.33510
#
# Static dielectric constant tensor:
#      x y z
#    x -0.195470 0.000000 0.000000 
#    y 0.000000 2.564540 0.000000 
#    z 0.000000 0.000000 2.783950 
# 
# 
# High freq. dielectric constant tensor:
#      x y z
#    x 1.603120 0.000000 0.000000 
#    y 0.000000 1.522120 0.000000 
#    z 0.000000 0.000000 1.553970 
# 
# From -- ./inp_files/31425.got.cif
#   From: 2010.03.12/outbox.cif.g09.slc.cpg/sg51_16_cif.got.tgz:31425.got - 2010.04.16 13:43:02.
