data_PCOD8208517
_publ_section_title
;
Structure prediction by ZEFSAII (Michael W. Deem and Ramdas Pophale) SiO2 
 PCOD8208517
Probable space group: P M M A
;
_chemical_formula_sum "Si O2"
_cell_formula_units_Z 64
_cell_length_a 14.118174
_cell_length_b 9.091591
_cell_length_c 28.370643
_cell_angle_alpha 90.000000
_cell_angle_beta 90.000000
_cell_angle_gamma 90.000000
_cell_volume 3641.561082
_symmetry_space_group_name_H-M "P M M A"
_symmetry_group_IT_number 51
_symmetry_cell_setting 'orthorhombic'
loop_
_space_group_symop_operation_xyz
x,y,z
1/2-x,-y,z
1/2+x,-y,-z
-x,y,-z
-x,-y,-z
1/2+x,y,-z
1/2-x,y,z
x,-y,z
loop_
_atom_site_type_symbol
_atom_site_label
_atom_site_fract_x
_atom_site_fract_y
_atom_site_fract_z
Si Si1 0.640545 0.828062 0.196420
Si Si2 0.140381 0.827973 0.070785
Si Si3 0.644122 0.330281 0.564054
Si Si4 0.358797 0.330529 0.707715
Si Si5 0.540757 0.330135 0.386347
Si Si6 0.861757 0.167082 0.471068
Si Si7 0.523860 0.326273 0.115872
Si Si8 0.640858 0.331527 0.024276
O O1 0.750000 0.794316 0.184473
O O2 0.615574 0.772479 0.248513
O O3 0.575052 0.739986 0.160847
O O4 0.618009 0.000000 0.192997
O O5 0.250000 0.792588 0.080806
O O6 0.080189 0.745014 0.110918
O O7 0.118836 0.000000 0.072568
O O8 0.110004 0.768201 0.019545
O O9 0.750000 0.276487 0.578571
O O10 0.646451 0.500000 0.549361
O O11 0.572455 0.303974 0.607726
O O12 0.602857 0.243807 0.519054
O O13 0.250000 0.308241 0.691978
O O14 0.377572 0.500000 0.721675
O O15 0.426919 0.278209 0.665346
O O16 0.567902 0.500000 0.393261
O O17 0.596273 0.240350 0.425129
O O18 0.750000 0.182390 0.467768
O O19 0.896049 0.000000 0.473028
O O20 0.515227 0.500000 0.122345
O O21 0.582600 0.281595 0.069632
O O22 0.750000 0.308136 0.037279
O O23 0.619270 0.500000 0.010385
#
# Coordination Sequence:
#
# PCOD8208517 Si02
#       8
#     8   8   8   8   8   8   8   8
#     4  10  21  36  54  77 104 131 160 198 246 300
#     4  10  21  35  50  71 102 138 173 211 253 294
#     4   9  18  32  48  67  95 130 165 201 239 280
#     4   9  18  33  52  73  97 124 156 197 245 296
#     4  10  19  31  50  73  95 125 165 203 242 290
#     4  10  20  31  44  67  99 131 162 198 241 289
#     4  11  21  33  53  77 101 133 172 210 249 296
#     4   9  18  32  49  72 103 136 169 205 247 297
#
# _framework density 17.574878999999999
#
# number of rings (size 3 to 8) (size 9 to 14) (size 15 to 20)
#    0.000    2.250    0.000    3.000    0.000    8.250 
#    0.000    2.500    0.000    0.750    0.000    1.750 
#    0.000    0.000    0.000    0.000    0.000    0.000 
#
# Total GULP energy -793733.405466 kJ/mol
# GULP energy per Si atom -12402.084460 kJ/mol
# Density = 1.753488 g / cm^3
# Si number density = 17.574879 Si / 1000 Ang^3
#
#
#
# Elastic Constant Matrix: (Units=GPa)
#
#
# Indices 1 2 3 4 5 6 
#
# 1 70.9362 48.4145 72.0560 0.0000 0.0000 0.0000
# 2 48.4145 85.3075 60.6100 0.0000 0.0000 0.0000
# 3 72.0560 60.6100 112.5688 0.0000 0.0000 0.0000
# 4 0.0000 0.0000 0.0000 -4.4444 0.0000 0.0000
# 5 0.0000 0.0000 0.0000 0.0000 32.7541 0.0000
# 6 0.0000 0.0000 0.0000 0.0000 0.0000 23.7806
#
#
#
# Elastic Compliance Matrix: (Units=1/GPa)
#
#
# Indices 1 2 3 4 5 6 
#
# 1 0.043371 -0.007919 -0.023498 0.000000 0.000000 0.000000
# 2 -0.007919 0.020431 -0.005931 0.000000 0.000000 0.000000
# 3 -0.023498 -0.005931 0.027119 0.000000 0.000000 0.000000
# 4 0.000000 0.000000 0.000000 -0.225002 0.000000 0.000000
# 5 0.000000 0.000000 0.000000 0.000000 0.030531 0.000000
# 6 0.000000 0.000000 0.000000 0.000000 0.000000 0.042051
#
#
# Mechanical properties :
#
#
# Convention : Reuss Voigt Hill
#
# Bulk Modulus (GPa) = 61.64145 70.10815 65.87480
# Shear Modulus (GPa) = 268.73188 16.26687 142.49938
#
# Velocity S-wave (km/s) = 12.37896 3.04563 9.01428
# Velocity P-wave (km/s) = 15.47476 7.23502 12.07919
#
# Compressibility (1/GPa) = 0.01622285
#
# Stress axis : x y z
#
# Youngs Moduli (GPa) = 23.05663 48.94566 36.87513
#
# Poissons Ratio (x) = 0.38761 0.86651
# Poissons Ratio (y) = 0.18259 0.21872
# Poissons Ratio (z) = 0.54180 0.29031
#
# Static dielectric constant tensor:
#      x y z
#    x 3.451640 0.000000 0.000000 
#    y 0.000000 3.326240 0.000000 
#    z 0.000000 0.000000 3.121800 
# 
# 
# High freq. dielectric constant tensor:
#      x y z
#    x 1.682730 0.000000 0.000000 
#    y 0.000000 1.684630 0.000000 
#    z 0.000000 0.000000 1.659170 
# 
# From -- ./inp_files/35762.got.cif
#   From: 2010.03.12/outbox.cif.g09.slc.cpg/sg51_18_cif.got.tgz:35762.got - 2010.04.16 13:43:02.
