data_PCOD8208888
_publ_section_title
;
Structure prediction by ZEFSAII (Michael W. Deem and Ramdas Pophale) SiO2 
 PCOD8208888
Probable space group: P M M A
;
_chemical_formula_sum "Si O2"
_cell_formula_units_Z 40
_cell_length_a 8.920381
_cell_length_b 26.156434
_cell_length_c 9.179120
_cell_angle_alpha 90.000000
_cell_angle_beta 90.000000
_cell_angle_gamma 90.000000
_cell_volume 2141.721450
_symmetry_space_group_name_H-M "P M M A"
_symmetry_group_IT_number 51
_symmetry_cell_setting 'orthorhombic'
loop_
_space_group_symop_operation_xyz
x,y,z
1/2-x,-y,z
1/2+x,-y,-z
-x,y,-z
-x,-y,-z
1/2+x,y,-z
1/2-x,y,z
x,-y,z
loop_
_atom_site_type_symbol
_atom_site_label
_atom_site_fract_x
_atom_site_fract_y
_atom_site_fract_z
Si Si1 0.575528 0.406075 0.155112
Si Si2 0.427656 0.500000 0.655411
Si Si3 0.073576 0.903161 0.343202
Si Si4 0.427210 0.000000 0.157476
Si Si5 0.427623 0.805331 0.158679
Si Si6 0.074432 0.294034 0.843432
O O1 0.750000 0.414021 0.126899
O O2 0.513184 0.449476 0.262174
O O3 0.545767 0.349940 0.228298
O O4 0.500000 0.412344 0.000000
O O5 0.250000 0.500000 0.640163
O O6 0.500000 0.500000 0.500000
O O7 0.250000 0.905431 0.365508
O O8 0.023414 0.851637 0.261882
O O9 0.000000 0.905947 0.500000
O O10 0.017454 0.950468 0.245926
O O11 0.250000 0.000000 0.136552
O O12 0.500000 0.000000 0.000000
O O13 0.250000 0.801629 0.141349
O O14 0.492015 0.753484 0.236411
O O15 0.500000 0.813436 0.000000
O O16 0.250000 0.281896 0.855943
O O17 0.000000 0.296919 0.000000
#
# Coordination Sequence:
#
# PCOD8208888 Si02
#       6
#     8   4   8   4   8   8
#     4   9  18  32  52  76 100 126 164 208 250 297
#     4  10  21  36  50  70 100 132 165 204 248 300
#     4  10  22  37  54  77 106 137 172 209 250 299
#     4  10  21  38  58  82 106 132 169 212 254 302
#     4  10  19  32  51  77 104 133 169 208 247 295
#     4   9  16  28  48  74 101 130 163 205 251 294
#
# _framework density 18.676565
#
# number of rings (size 3 to 8) (size 9 to 14) (size 15 to 20)
#    0.000    2.400    0.000    3.600    0.000    4.000 
#    0.000    1.000    0.000    4.800    0.000    0.000 
#    0.000    0.000    0.000    0.000    0.000    0.000 
#
# Total GULP energy -495790.089379 kJ/mol
# GULP energy per Si atom -12394.752234 kJ/mol
# Density = 1.863406 g / cm^3
# Si number density = 18.676565 Si / 1000 Ang^3
#
#
#
# Elastic Constant Matrix: (Units=GPa)
#
#
# Indices 1 2 3 4 5 6 
#
# 1 59.2370 54.3670 39.1270 0.0000 0.0000 0.0000
# 2 54.3670 212.5365 89.7739 0.0000 0.0000 0.0000
# 3 39.1270 89.7739 119.6436 0.0000 0.0000 0.0000
# 4 0.0000 0.0000 0.0000 8.9898 0.0000 0.0000
# 5 0.0000 0.0000 0.0000 0.0000 30.2995 0.0000
# 6 0.0000 0.0000 0.0000 0.0000 0.0000 27.3743
#
#
#
# Elastic Compliance Matrix: (Units=1/GPa)
#
#
# Indices 1 2 3 4 5 6 
#
# 1 0.023734 -0.004089 -0.004694 0.000000 0.000000 0.000000
# 2 -0.004089 0.007593 -0.004360 0.000000 0.000000 0.000000
# 3 -0.004694 -0.004360 0.013165 0.000000 0.000000 0.000000
# 4 0.000000 0.000000 0.000000 0.111237 0.000000 0.000000
# 5 0.000000 0.000000 0.000000 0.000000 0.033004 0.000000
# 6 0.000000 0.000000 0.000000 0.000000 0.000000 0.036531
#
#
# Mechanical properties :
#
#
# Convention : Reuss Voigt Hill
#
# Bulk Modulus (GPa) = 54.92545 84.21700 69.57123
# Shear Modulus (GPa) = 19.40869 27.20933 23.30901
#
# Velocity S-wave (km/s) = 3.22716 3.82104 3.53659
# Velocity P-wave (km/s) = 6.58473 8.04098 7.34901
#
# Compressibility (1/GPa) = 0.01820650
#
# Stress axis : x y z
#
# Youngs Moduli (GPa) = 42.13334 131.70842 75.96083
#
# Poissons Ratio (x) = 0.53849 0.35656
# Poissons Ratio (y) = 0.17226 0.33118
# Poissons Ratio (z) = 0.19777 0.57424
#
# Static dielectric constant tensor:
#      x y z
#    x 3.391650 0.000000 0.000000 
#    y 0.000000 4.478900 0.000000 
#    z 0.000000 0.000000 3.100900 
# 
# 
# High freq. dielectric constant tensor:
#      x y z
#    x 1.725090 0.000000 0.000000 
#    y 0.000000 1.756410 0.000000 
#    z 0.000000 0.000000 1.690870 
# 
# From -- ./inp_files/5524.got.cif
#   From: 2010.03.12/outbox.cif.g09.slc.cpg/sg51_3_cif.got.tgz:5524.got - 2010.04.16 13:43:02.
