data_PCOD8208202
_publ_section_title
;
Structure prediction by ZEFSAII (Michael W. Deem and Ramdas Pophale) SiO2 
 PCOD8208202
Probable space group: P M M A
;
_chemical_formula_sum "Si O2"
_cell_formula_units_Z 64
_cell_length_a 27.138204
_cell_length_b 14.903126
_cell_length_c 9.946791
_cell_angle_alpha 90.000000
_cell_angle_beta 90.000000
_cell_angle_gamma 90.000000
_cell_volume 4022.920672
_symmetry_space_group_name_H-M "P M M A"
_symmetry_group_IT_number 51
_symmetry_cell_setting 'orthorhombic'
loop_
_space_group_symop_operation_xyz
x,y,z
1/2-x,-y,z
1/2+x,-y,-z
-x,y,-z
-x,-y,-z
1/2+x,y,-z
1/2-x,y,z
x,-y,z
loop_
_atom_site_type_symbol
_atom_site_label
_atom_site_fract_x
_atom_site_fract_y
_atom_site_fract_z
Si Si1 0.446808 0.102852 0.490641
Si Si2 0.191499 0.599763 0.856053
Si Si3 0.882527 0.103260 0.762653
Si Si4 0.382941 0.105103 0.730145
Si Si5 0.807886 0.245192 0.337412
Si Si6 0.191932 0.243013 0.348976
Si Si7 0.444576 0.894520 0.990379
Si Si8 0.191535 0.599944 0.156652
O O1 0.500000 0.151174 0.500000
O O2 0.426817 0.112898 0.341948
O O3 0.408658 0.144023 0.596267
O O4 0.453328 0.000000 0.536046
O O5 0.250000 0.598547 0.852689
O O6 0.171372 0.500000 0.822558
O O7 0.171757 0.667656 0.742268
O O8 0.173883 0.628449 0.006376
O O9 0.834600 0.157014 0.715329
O O10 0.865479 0.000000 0.778041
O O11 0.906490 0.143459 0.898354
O O12 0.331748 0.158729 0.735278
O O13 0.420570 0.129181 0.848473
O O14 0.369658 0.000000 0.727160
O O15 0.750000 0.233201 0.318224
O O16 0.821534 0.254641 0.494497
O O17 0.250000 0.228065 0.328890
O O18 0.172264 0.330473 0.268805
O O19 0.449045 0.000000 0.015701
O O20 0.500000 0.852813 0.000000
O O21 0.250000 0.598243 0.160379
O O22 0.171450 0.500000 0.191078
#
# Coordination Sequence:
#
# PCOD8208202 Si02
#       8
#     8   8   8   8   8   8   8   8
#     4   9  16  28  47  65  84 115 155 197 237 272
#     4   8  15  29  48  67  87 115 152 194 237 273
#     4  10  19  31  45  66  94 125 159 191 227 272
#     4  10  19  31  45  66  94 125 159 191 227 272
#     4  10  20  31  44  66  97 131 161 188 219 261
#     4  10  20  31  44  66  97 131 161 188 219 261
#     4   9  18  32  49  67  88 115 151 201 251 280
#     4   8  15  29  48  67  87 115 152 194 237 273
#
# _framework density 15.908839
#
# number of rings (size 3 to 8) (size 9 to 14) (size 15 to 20)
#    0.000    2.750    1.250    1.500    1.750    4.000 
#    0.000    3.750    0.000    2.250    0.000    0.000 
#    0.000    6.000    0.000    0.000    0.000    0.000 
#
# Total GULP energy -793177.396164 kJ/mol
# GULP energy per Si atom -12393.396815 kJ/mol
# Density = 1.587263 g / cm^3
# Si number density = 15.908839 Si / 1000 Ang^3
#
#
#
# Elastic Constant Matrix: (Units=GPa)
#
#
# Indices 1 2 3 4 5 6 
#
# 1 52.2387 37.7918 27.7124 0.0000 0.0000 0.0000
# 2 37.7918 81.8003 49.5983 0.0000 0.0000 0.0000
# 3 27.7124 49.5983 87.1036 0.0000 0.0000 0.0000
# 4 0.0000 0.0000 0.0000 23.9820 0.0000 0.0000
# 5 0.0000 0.0000 0.0000 0.0000 22.4635 0.0000
# 6 0.0000 0.0000 0.0000 0.0000 0.0000 2.9696
#
#
#
# Elastic Compliance Matrix: (Units=1/GPa)
#
#
# Indices 1 2 3 4 5 6 
#
# 1 0.029091 -0.011956 -0.002447 0.000000 0.000000 0.000000
# 2 -0.011956 0.023585 -0.009626 0.000000 0.000000 0.000000
# 3 -0.002447 -0.009626 0.017740 0.000000 0.000000 0.000000
# 4 0.000000 0.000000 0.000000 0.041698 0.000000 0.000000
# 5 0.000000 0.000000 0.000000 0.000000 0.044517 0.000000
# 6 0.000000 0.000000 0.000000 0.000000 0.000000 0.336748
#
#
# Mechanical properties :
#
#
# Convention : Reuss Voigt Hill
#
# Bulk Modulus (GPa) = 44.72748 50.14973 47.43861
# Shear Modulus (GPa) = 9.10928 16.95233 13.03081
#
# Velocity S-wave (km/s) = 2.39549 3.26788 2.86508
# Velocity P-wave (km/s) = 5.98557 6.76981 6.38973
#
# Compressibility (1/GPa) = 0.02235762
#
# Stress axis : x y z
#
# Youngs Moduli (GPa) = 34.37517 42.39967 56.36849
#
# Poissons Ratio (x) = 0.50693 0.13796
# Poissons Ratio (y) = 0.41099 0.54260
# Poissons Ratio (z) = 0.08413 0.40814
#
# Static dielectric constant tensor:
#      x y z
#    x 2.829480 0.000000 0.000000 
#    y 0.000000 2.951370 0.000000 
#    z 0.000000 0.000000 3.240900 
# 
# 
# High freq. dielectric constant tensor:
#      x y z
#    x 1.583600 0.000000 0.000000 
#    y 0.000000 1.578920 0.000000 
#    z 0.000000 0.000000 1.628590 
# 
# From -- ./inp_files/13247.got.cif
#   From: 2010.03.12/outbox.cif.g09.slc.cpg/sg51_7_cif.got.tgz:13247.got - 2010.04.16 13:43:02.
