data_PCOD8208819
_publ_section_title
;
Structure prediction by ZEFSAII (Michael W. Deem and Ramdas Pophale) SiO2 
 PCOD8208819
Probable space group: P M M A
;
_chemical_formula_sum "Si O2"
_cell_formula_units_Z 64
_cell_length_a 9.133011
_cell_length_b 14.246948
_cell_length_c 30.919381
_cell_angle_alpha 90.000000
_cell_angle_beta 90.000000
_cell_angle_gamma 90.000000
_cell_volume 4023.153571
_symmetry_space_group_name_H-M "P M M A"
_symmetry_group_IT_number 51
_symmetry_cell_setting 'orthorhombic'
loop_
_space_group_symop_operation_xyz
x,y,z
1/2-x,-y,z
1/2+x,-y,-z
-x,y,-z
-x,-y,-z
1/2+x,y,-z
1/2-x,y,z
x,-y,z
loop_
_atom_site_type_symbol
_atom_site_label
_atom_site_fract_x
_atom_site_fract_y
_atom_site_fract_z
Si Si1 0.084533 0.611702 0.626034
Si Si2 0.077595 0.293246 0.043525
Si Si3 0.582194 0.390366 0.121184
Si Si4 0.079016 0.608910 0.288544
Si Si5 0.417958 0.896224 0.827296
Si Si6 0.915729 0.611928 0.542177
Si Si7 0.081373 0.294427 0.788698
Si Si8 0.921087 0.896386 0.915065
O O1 0.250000 0.650724 0.625442
O O2 0.084117 0.500000 0.624604
O O3 0.004202 0.647328 0.669189
O O4 0.998267 0.651354 0.584471
O O5 0.250000 0.308302 0.038778
O O6 0.035799 0.183463 0.050501
O O7 0.022309 0.355316 0.083216
O O8 0.000000 0.328424 0.000000
O O9 0.750000 0.367537 0.108854
O O10 0.556783 0.500000 0.128222
O O11 0.538347 0.339416 0.165514
O O12 0.250000 0.625994 0.295621
O O13 0.043222 0.500000 0.280686
O O14 0.024999 0.665871 0.247387
O O15 0.250000 0.892907 0.841846
O O16 0.446914 0.817846 0.790783
O O17 0.507635 0.870269 0.869686
O O18 0.460143 0.000000 0.809318
O O19 0.750000 0.650459 0.541756
O O20 0.915259 0.500000 0.542467
O O21 0.000000 0.649925 0.500000
O O22 0.250000 0.317755 0.777018
O O23 0.750000 0.895502 0.906519
O O24 0.972758 0.000000 0.931402
#
# Coordination Sequence:
#
# PCOD8208819 Si02
#       8
#     8   8   8   8   8   8   8   8
#     4   9  16  26  39  54  76 108 146 189 236 279
#     4  11  23  37  54  73  95 120 147 177 212 256
#     4  10  21  37  55  73  93 117 147 183 220 257
#     4  10  20  31  43  62  88 118 153 191 228 266
#     4   9  17  30  51  76  97 117 141 171 209 255
#     4   9  15  22  33  50  73 103 143 190 236 279
#     4  10  19  32  51  72  94 117 144 177 216 262
#     4   9  18  33  52  74  98 120 141 169 208 253
#
# _framework density 15.907918
#
# number of rings (size 3 to 8) (size 9 to 14) (size 15 to 20)
#    0.000    2.375    1.250    1.875    0.000    6.500 
#    0.000    0.000    0.000    0.000    0.000    0.000 
#    0.000    0.000    0.000    0.000    0.000    0.625 
#
# Total GULP energy -793547.874464 kJ/mol
# GULP energy per Si atom -12399.185539 kJ/mol
# Density = 1.587171 g / cm^3
# Si number density = 15.907918 Si / 1000 Ang^3
#
#
#
# Elastic Constant Matrix: (Units=GPa)
#
#
# Indices 1 2 3 4 5 6 
#
# 1 77.4972 30.5015 50.6987 0.0000 0.0000 0.0000
# 2 30.5015 56.2907 35.2130 0.0000 0.0000 0.0000
# 3 50.6987 35.2130 107.7190 0.0000 0.0000 0.0000
# 4 0.0000 0.0000 0.0000 3.2610 0.0000 0.0000
# 5 0.0000 0.0000 0.0000 0.0000 32.3313 0.0000
# 6 0.0000 0.0000 0.0000 0.0000 0.0000 17.5032
#
#
#
# Elastic Compliance Matrix: (Units=1/GPa)
#
#
# Indices 1 2 3 4 5 6 
#
# 1 0.020283 -0.006309 -0.007484 0.000000 0.000000 0.000000
# 2 -0.006309 0.024294 -0.004972 0.000000 0.000000 0.000000
# 3 -0.007484 -0.004972 0.014431 0.000000 0.000000 0.000000
# 4 0.000000 0.000000 0.000000 0.306654 0.000000 0.000000
# 5 0.000000 0.000000 0.000000 0.000000 0.030930 0.000000
# 6 0.000000 0.000000 0.000000 0.000000 0.000000 0.057133
#
#
# Mechanical properties :
#
#
# Convention : Reuss Voigt Hill
#
# Bulk Modulus (GPa) = 46.55964 52.70368 49.63166
# Shear Modulus (GPa) = 10.03184 18.95868 14.49526
#
# Velocity S-wave (km/s) = 2.51394 3.45596 3.02188
# Velocity P-wave (km/s) = 6.14478 7.00908 6.59111
#
# Compressibility (1/GPa) = 0.02147783
#
# Stress axis : x y z
#
# Youngs Moduli (GPa) = 49.30326 41.16280 69.29436
#
# Poissons Ratio (x) = 0.25968 0.51859
# Poissons Ratio (y) = 0.31104 0.34455
# Poissons Ratio (z) = 0.36898 0.20467
#
# Static dielectric constant tensor:
#      x y z
#    x 3.143130 0.000000 0.000000 
#    y 0.000000 2.957240 0.000000 
#    z 0.000000 0.000000 2.958190 
# 
# 
# High freq. dielectric constant tensor:
#      x y z
#    x 1.622860 0.000000 0.000000 
#    y 0.000000 1.573990 0.000000 
#    z 0.000000 0.000000 1.600320 
# 
# From -- ./inp_files/37583.got.cif
#   From: 2010.03.12/outbox.cif.g09.slc.cpg/sg51_19_cif.got.tgz:37583.got - 2010.04.16 13:43:02.
