data_PCOD8208733
_publ_section_title
;
Structure prediction by ZEFSAII (Michael W. Deem and Ramdas Pophale) SiO2 
 PCOD8208733
Probable space group: P M M A
;
_chemical_formula_sum "Si O2"
_cell_formula_units_Z 64
_cell_length_a 8.996244
_cell_length_b 26.964431
_cell_length_c 14.760489
_cell_angle_alpha 90.000000
_cell_angle_beta 90.000000
_cell_angle_gamma 90.000000
_cell_volume 3580.578766
_symmetry_space_group_name_H-M "P M M A"
_symmetry_group_IT_number 51
_symmetry_cell_setting 'orthorhombic'
loop_
_space_group_symop_operation_xyz
x,y,z
1/2-x,-y,z
1/2+x,-y,-z
-x,y,-z
-x,-y,-z
1/2+x,y,-z
1/2-x,y,z
x,-y,z
loop_
_atom_site_type_symbol
_atom_site_label
_atom_site_fract_x
_atom_site_fract_y
_atom_site_fract_z
Si Si1 0.576642 0.555890 0.591115
Si Si2 0.076618 0.057396 0.092039
Si Si3 0.075775 0.132121 0.780106
Si Si4 0.576879 0.170353 0.410467
Si Si5 0.073693 0.284632 0.592656
Si Si6 0.426697 0.667414 0.906091
Si Si7 0.926197 0.358780 0.727148
Si Si8 0.077691 0.219303 0.910092
O O1 0.500000 0.575945 0.500000
O O2 0.750000 0.557699 0.571917
O O3 0.523092 0.500000 0.613989
O O4 0.533274 0.590653 0.674933
O O5 0.250000 0.067347 0.081890
O O6 0.014488 0.086794 0.177920
O O7 0.039447 0.000000 0.108855
O O8 0.000000 0.076547 0.000000
O O9 0.250000 0.121191 0.790796
O O10 0.028456 0.137300 0.675360
O O11 0.032650 0.184000 0.827394
O O12 0.500000 0.148512 0.500000
O O13 0.750000 0.166562 0.427001
O O14 0.531541 0.227249 0.393468
O O15 0.250000 0.293669 0.590025
O O16 0.000000 0.304664 0.500000
O O17 0.002391 0.312769 0.676942
O O18 0.250000 0.658897 0.908709
O O19 0.501557 0.635638 0.826258
O O20 0.470461 0.724672 0.887349
O O21 0.500000 0.649520 0.000000
O O22 0.750000 0.350107 0.734036
O O23 0.250000 0.217266 0.930832
O O24 0.000000 0.198922 0.000000
#
# Coordination Sequence:
#
# PCOD8208733 Si02
#       8
#     8   8   8   8   8   8   8   8
#     4   9  19  35  53  74 101 130 160 199 247 297
#     4  10  21  36  53  75 102 129 158 195 241 292
#     4  10  19  32  51  74  99 128 164 202 242 288
#     4   9  19  34  50  70  99 134 169 206 245 287
#     4  10  19  32  49  72 104 137 168 203 245 292
#     4  10  20  35  52  71 100 135 169 206 247 290
#     4  11  21  32  50  75 100 130 169 207 247 296
#     4   9  18  31  47  70 100 131 161 196 238 286
#
# _framework density 17.874205
#
# number of rings (size 3 to 8) (size 9 to 14) (size 15 to 20)
#    0.000    2.250    0.000    3.000    0.000    7.750 
#    0.000    1.250    0.000    0.750    0.000    0.000 
#    0.000    0.000    0.000    0.000    0.000    0.000 
#
# Total GULP energy -793760.963316 kJ/mol
# GULP energy per Si atom -12402.515052 kJ/mol
# Density = 1.783352 g / cm^3
# Si number density = 17.874205 Si / 1000 Ang^3
#
#
#
# Elastic Constant Matrix: (Units=GPa)
#
#
# Indices 1 2 3 4 5 6 
#
# 1 72.0780 39.5323 62.2147 0.0000 0.0000 0.0000
# 2 39.5323 66.6384 61.3993 0.0000 0.0000 0.0000
# 3 62.2147 61.3993 160.5315 0.0000 0.0000 0.0000
# 4 0.0000 0.0000 0.0000 26.2839 0.0000 0.0000
# 5 0.0000 0.0000 0.0000 0.0000 36.6343 0.0000
# 6 0.0000 0.0000 0.0000 0.0000 0.0000 22.9286
#
#
#
# Elastic Compliance Matrix: (Units=1/GPa)
#
#
# Indices 1 2 3 4 5 6 
#
# 1 0.023681 -0.008635 -0.005875 0.000000 0.000000 0.000000
# 2 -0.008635 0.026321 -0.006721 0.000000 0.000000 0.000000
# 3 -0.005875 -0.006721 0.011077 0.000000 0.000000 0.000000
# 4 0.000000 0.000000 0.000000 0.038046 0.000000 0.000000
# 5 0.000000 0.000000 0.000000 0.000000 0.027297 0.000000
# 6 0.000000 0.000000 0.000000 0.000000 0.000000 0.043614
#
#
# Mechanical properties :
#
#
# Convention : Reuss Voigt Hill
#
# Bulk Modulus (GPa) = 53.71358 69.50450 61.60904
# Shear Modulus (GPa) = 22.86204 26.24281 24.55243
#
# Velocity S-wave (km/s) = 3.58026 3.83586 3.71026
# Velocity P-wave (km/s) = 6.87075 7.65429 7.27308
#
# Compressibility (1/GPa) = 0.01861727
#
# Stress axis : x y z
#
# Youngs Moduli (GPa) = 42.22782 37.99188 90.28057
#
# Poissons Ratio (x) = 0.32808 0.53039
# Poissons Ratio (y) = 0.36466 0.60674
# Poissons Ratio (z) = 0.24808 0.25533
#
# Static dielectric constant tensor:
#      x y z
#    x 3.323730 0.000000 0.000000 
#    y 0.000000 3.234730 0.000000 
#    z 0.000000 0.000000 3.629110 
# 
# 
# High freq. dielectric constant tensor:
#      x y z
#    x 1.696700 0.000000 0.000000 
#    y 0.000000 1.668130 0.000000 
#    z 0.000000 0.000000 1.694910 
# 
# From -- ./inp_files/22345.got.cif
#   From: 2010.03.12/outbox.cif.g09.slc.cpg/sg51_12_cif.got.tgz:22345.got - 2010.04.16 13:43:02.
