data_PCOD8208259
_publ_section_title
;
Structure prediction by ZEFSAII (Michael W. Deem and Ramdas Pophale) SiO2 
 PCOD8208259
Probable space group: P M M A
;
_chemical_formula_sum "Si O2"
_cell_formula_units_Z 44
_cell_length_a 9.278505
_cell_length_b 15.245345
_cell_length_c 17.503785
_cell_angle_alpha 90.000000
_cell_angle_beta 90.000000
_cell_angle_gamma 90.000000
_cell_volume 2475.980575
_symmetry_space_group_name_H-M "P M M A"
_symmetry_group_IT_number 51
_symmetry_cell_setting 'orthorhombic'
loop_
_space_group_symop_operation_xyz
x,y,z
1/2-x,-y,z
1/2+x,-y,-z
-x,y,-z
-x,-y,-z
1/2+x,y,-z
1/2-x,y,z
x,-y,z
loop_
_atom_site_type_symbol
_atom_site_label
_atom_site_fract_x
_atom_site_fract_y
_atom_site_fract_z
Si Si1 0.914255 0.245690 0.302806
Si Si2 0.417391 0.400771 0.241082
Si Si3 0.586436 0.185234 0.132558
Si Si4 0.084512 0.000000 0.923368
Si Si5 0.419668 0.900588 0.578274
Si Si6 0.579597 0.658858 0.926065
O O1 0.750000 0.269423 0.322632
O O2 0.931197 0.203169 0.220931
O O3 0.974603 0.173185 0.362029
O O4 0.002533 0.336929 0.301085
O O5 0.250000 0.377880 0.246656
O O6 0.451073 0.500000 0.266463
O O7 0.466251 0.390361 0.152288
O O8 0.750000 0.204751 0.104779
O O9 0.542727 0.084406 0.125630
O O10 0.476404 0.241429 0.081460
O O11 0.250000 0.000000 0.945821
O O12 0.000000 0.000000 0.000000
O O13 0.500000 0.880278 0.500000
O O14 0.250000 0.891441 0.564763
O O15 0.455925 0.000000 0.606998
O O16 0.750000 0.655515 0.939706
O O17 0.500000 0.615669 0.000000
#
# Coordination Sequence:
#
# PCOD8208259 Si02
#       6
#     8   8   8   4   8   8
#     4   9  18  32  52  76 100 128 164 203 243 287
#     4   9  19  35  52  71  97 129 164 204 254 304
#     4   9  18  31  46  65  89 122 162 201 243 289
#     4  10  20  30  42  60  85 120 160 200 239 282
#     4   9  18  32  52  79 110 140 166 196 236 286
#     4  10  19  31  47  66  91 122 159 203 251 299
#
# _framework density 17.770737
#
# number of rings (size 3 to 8) (size 9 to 14) (size 15 to 20)
#    0.000    2.727    0.000    1.091    1.273    4.364 
#    0.000    0.000    0.000    0.545    0.000    0.000 
#    0.000    0.000    0.000    0.000    0.000    0.000 
#
# Total GULP energy -545404.221675 kJ/mol
# GULP energy per Si atom -12395.550493 kJ/mol
# Density = 1.773029 g / cm^3
# Si number density = 17.770737 Si / 1000 Ang^3
#
#
#
# Elastic Constant Matrix: (Units=GPa)
#
#
# Indices 1 2 3 4 5 6 
#
# 1 52.3561 42.0746 31.3679 0.0000 0.0000 0.0000
# 2 42.0746 122.7937 45.5843 0.0000 0.0000 0.0000
# 3 31.3679 45.5843 69.7761 0.0000 0.0000 0.0000
# 4 0.0000 0.0000 0.0000 20.6432 0.0000 0.0000
# 5 0.0000 0.0000 0.0000 0.0000 28.4810 0.0000
# 6 0.0000 0.0000 0.0000 0.0000 0.0000 26.9574
#
#
#
# Elastic Compliance Matrix: (Units=1/GPa)
#
#
# Indices 1 2 3 4 5 6 
#
# 1 0.030078 -0.006979 -0.008962 0.000000 0.000000 0.000000
# 2 -0.006979 0.012370 -0.004944 0.000000 0.000000 0.000000
# 3 -0.008962 -0.004944 0.021590 0.000000 0.000000 0.000000
# 4 0.000000 0.000000 0.000000 0.048442 0.000000 0.000000
# 5 0.000000 0.000000 0.000000 0.000000 0.035111 0.000000
# 6 0.000000 0.000000 0.000000 0.000000 0.000000 0.037096
#
#
# Mechanical properties :
#
#
# Convention : Reuss Voigt Hill
#
# Bulk Modulus (GPa) = 44.90711 53.66439 49.28575
# Shear Modulus (GPa) = 21.37837 23.60959 22.49398
#
# Velocity S-wave (km/s) = 3.47221 3.64890 3.56165
# Velocity P-wave (km/s) = 6.43429 6.92939 6.68642
#
# Compressibility (1/GPa) = 0.02226819
#
# Stress axis : x y z
#
# Youngs Moduli (GPa) = 33.24689 80.83773 46.31672
#
# Poissons Ratio (x) = 0.56417 0.41510
# Poissons Ratio (y) = 0.23203 0.22899
# Poissons Ratio (z) = 0.29797 0.39967
#
# Static dielectric constant tensor:
#      x y z
#    x 3.162580 0.000000 0.000000 
#    y 0.000000 3.438300 0.000000 
#    z 0.000000 0.000000 3.126690 
# 
# 
# High freq. dielectric constant tensor:
#      x y z
#    x 1.682120 0.000000 0.000000 
#    y 0.000000 1.689250 0.000000 
#    z 0.000000 0.000000 1.667050 
# 
# From -- ./inp_files/27338.got.cif
#   From: 2010.03.12/outbox.cif.g09.slc.cpg/sg51_14_cif.got.tgz:27338.got - 2010.04.16 13:43:02.
