data_PCOD8208262
_publ_section_title
;
Structure prediction by ZEFSAII (Michael W. Deem and Ramdas Pophale) SiO2 
 PCOD8208262
Probable space group: P M M A
;
_chemical_formula_sum "Si O2"
_cell_formula_units_Z 64
_cell_length_a 9.249558
_cell_length_b 23.116517
_cell_length_c 17.466789
_cell_angle_alpha 90.000000
_cell_angle_beta 90.000000
_cell_angle_gamma 90.000000
_cell_volume 3734.706288
_symmetry_space_group_name_H-M "P M M A"
_symmetry_group_IT_number 51
_symmetry_cell_setting 'orthorhombic'
loop_
_space_group_symop_operation_xyz
x,y,z
1/2-x,-y,z
1/2+x,-y,-z
-x,y,-z
-x,-y,-z
1/2+x,y,-z
1/2-x,y,z
x,-y,z
loop_
_atom_site_type_symbol
_atom_site_label
_atom_site_fract_x
_atom_site_fract_y
_atom_site_fract_z
Si Si1 0.919263 0.737661 0.422822
Si Si2 0.412186 0.832373 0.705745
Si Si3 0.091587 0.068064 0.068864
Si Si4 0.082816 0.433376 0.202271
Si Si5 0.084111 0.359072 0.921319
Si Si6 0.578574 0.935355 0.761641
Si Si7 0.916337 0.659557 0.681741
Si Si8 0.087511 0.728918 0.799896
O O1 0.750000 0.729414 0.438050
O O2 0.952511 0.788815 0.362810
O O3 0.000000 0.755286 0.500000
O O4 0.984435 0.676864 0.390880
O O5 0.250000 0.855365 0.695666
O O6 0.514002 0.888480 0.703236
O O7 0.430141 0.797982 0.787131
O O8 0.250000 0.096745 0.065468
O O9 0.021343 0.078863 0.152503
O O10 0.105901 0.000000 0.055435
O O11 0.000000 0.096567 0.000000
O O12 0.250000 0.424979 0.177757
O O13 0.039340 0.500000 0.208733
O O14 0.057980 0.405741 0.287183
O O15 0.981755 0.404509 0.138514
O O16 0.250000 0.376365 0.936159
O O17 0.073178 0.293391 0.887256
O O18 0.000000 0.361723 0.000000
O O19 0.750000 0.931492 0.760145
O O20 0.529137 0.000000 0.737122
O O21 0.750000 0.670505 0.659409
O O22 0.959560 0.699377 0.753084
O O23 0.250000 0.711862 0.768647
#
# Coordination Sequence:
#
# PCOD8208262 Si02
#       8
#     8   8   8   8   8   8   8   8
#     4  10  20  34  53  78 104 125 150 189 235 282
#     4   9  18  32  50  72  96 120 150 191 234 280
#     4   8  14  25  40  58  81 110 146 187 226 261
#     4   9  18  32  49  70  97 130 168 205 240 284
#     4  10  19  31  47  66  92 127 166 210 255 295
#     4   9  18  31  46  67  96 128 161 196 234 280
#     4   9  16  28  49  74  97 123 155 191 233 279
#     4   8  16  31  47  64  89 120 155 198 245 287
#
# _framework density 17.136554
#
# number of rings (size 3 to 8) (size 9 to 14) (size 15 to 20)
#    0.000    3.000    0.000    2.625    0.000    4.750 
#    0.000    1.875    0.000    3.750    0.000    0.000 
#    0.000    0.000    0.000    0.000    0.000    0.000 
#
# Total GULP energy -792947.166426 kJ/mol
# GULP energy per Si atom -12389.799475 kJ/mol
# Density = 1.709755 g / cm^3
# Si number density = 17.136554 Si / 1000 Ang^3
#
#
#
# Elastic Constant Matrix: (Units=GPa)
#
#
# Indices 1 2 3 4 5 6 
#
# 1 89.3268 48.3325 48.6062 0.0000 0.0000 0.0000
# 2 48.3325 94.4766 49.0056 0.0000 0.0000 0.0000
# 3 48.6062 49.0056 78.9739 0.0000 0.0000 0.0000
# 4 0.0000 0.0000 0.0000 16.5807 0.0000 0.0000
# 5 0.0000 0.0000 0.0000 0.0000 29.0712 0.0000
# 6 0.0000 0.0000 0.0000 0.0000 0.0000 23.5561
#
#
#
# Elastic Compliance Matrix: (Units=1/GPa)
#
#
# Indices 1 2 3 4 5 6 
#
# 1 0.018431 -0.005227 -0.008100 0.000000 0.000000 0.000000
# 2 -0.005227 0.017091 -0.007388 0.000000 0.000000 0.000000
# 3 -0.008100 -0.007388 0.022232 0.000000 0.000000 0.000000
# 4 0.000000 0.000000 0.000000 0.060311 0.000000 0.000000
# 5 0.000000 0.000000 0.000000 0.000000 0.034398 0.000000
# 6 0.000000 0.000000 0.000000 0.000000 0.000000 0.042452
#
#
# Mechanical properties :
#
#
# Convention : Reuss Voigt Hill
#
# Bulk Modulus (GPa) = 61.26253 61.62952 61.44603
# Shear Modulus (GPa) = 20.67932 21.63048 21.15490
#
# Velocity S-wave (km/s) = 3.47758 3.55666 3.51734
# Velocity P-wave (km/s) = 7.20777 7.27381 7.24087
#
# Compressibility (1/GPa) = 0.01632319
#
# Stress axis : x y z
#
# Youngs Moduli (GPa) = 54.25742 58.50959 44.97971
#
# Poissons Ratio (x) = 0.30585 0.36433
# Poissons Ratio (y) = 0.28362 0.33232
# Poissons Ratio (z) = 0.43947 0.43229
#
# Static dielectric constant tensor:
#      x y z
#    x 3.304020 0.000000 0.000000 
#    y 0.000000 3.109810 0.000000 
#    z 0.000000 0.000000 3.089860 
# 
# 
# High freq. dielectric constant tensor:
#      x y z
#    x 1.669610 0.000000 0.000000 
#    y 0.000000 1.637860 0.000000 
#    z 0.000000 0.000000 1.637690 
# 
# From -- ./inp_files/28329.got.cif
#   From: 2010.03.12/outbox.cif.g09.slc.cpg/sg51_15_cif.got.tgz:28329.got - 2010.04.16 13:43:02.
