data_PCOD8208311
_publ_section_title
;
Structure prediction by ZEFSAII (Michael W. Deem and Ramdas Pophale) SiO2 
 PCOD8208311
Probable space group: P M M A
;
_chemical_formula_sum "Si O2"
_cell_formula_units_Z 64
_cell_length_a 8.820868
_cell_length_b 23.512969
_cell_length_c 19.181373
_cell_angle_alpha 90.000000
_cell_angle_beta 90.000000
_cell_angle_gamma 90.000000
_cell_volume 3978.308751
_symmetry_space_group_name_H-M "P M M A"
_symmetry_group_IT_number 51
_symmetry_cell_setting 'orthorhombic'
loop_
_space_group_symop_operation_xyz
x,y,z
1/2-x,-y,z
1/2+x,-y,-z
-x,y,-z
-x,-y,-z
1/2+x,y,-z
1/2-x,y,z
x,-y,z
loop_
_atom_site_type_symbol
_atom_site_label
_atom_site_fract_x
_atom_site_fract_y
_atom_site_fract_z
Si Si1 0.428859 0.235007 0.926345
Si Si2 0.429103 0.119423 0.570380
Si Si3 0.429600 0.661720 0.156485
Si Si4 0.569129 0.063020 0.288114
Si Si5 0.927609 0.751119 0.430417
Si Si6 0.426547 0.433930 0.926837
Si Si7 0.429291 0.280289 0.719632
Si Si8 0.072368 0.167839 0.794989
O O1 0.250000 0.244599 0.933234
O O2 0.500162 0.292351 0.896203
O O3 0.467247 0.181847 0.875334
O O4 0.500000 0.219132 0.000000
O O5 0.500000 0.093278 0.500000
O O6 0.250000 0.116511 0.564529
O O7 0.487571 0.082861 0.635813
O O8 0.485379 0.184357 0.580224
O O9 0.250000 0.664234 0.151829
O O10 0.489858 0.599975 0.134509
O O11 0.483615 0.671861 0.236016
O O12 0.750000 0.062056 0.286662
O O13 0.503686 0.107259 0.230022
O O14 0.504513 0.000000 0.272114
O O15 0.750000 0.750688 0.440867
O O16 0.972080 0.714269 0.362074
O O17 0.000000 0.723688 0.500000
O O18 0.250000 0.418204 0.929167
O O19 0.453369 0.500000 0.911122
O O20 0.500000 0.415992 0.000000
O O21 0.250000 0.287081 0.732500
O O22 0.487506 0.218822 0.746206
O O23 0.250000 0.164330 0.783160
#
# Coordination Sequence:
#
# PCOD8208311 Si02
#       8
#     8   8   8   8   8   8   8   8
#     4  10  19  31  48  66  88 114 143 181 225 272
#     4   9  16  26  40  59  83 111 143 178 217 260
#     4  11  21  31  46  70  98 123 153 191 227 264
#     4   9  15  24  41  62  81 105 143 185 219 262
#     4   9  16  26  42  61  86 118 150 185 225 273
#     4  10  20  34  51  70  96 132 168 195 220 255
#     4   9  16  29  46  62  86 120 154 188 229 272
#     4   8  14  26  42  59  80 108 140 178 222 268
#
# _framework density 16.087239
#
# number of rings (size 3 to 8) (size 9 to 14) (size 15 to 20)
#    0.000    2.625    1.250    3.000    0.000    1.500 
#    0.000    0.000    0.000    0.375    0.000    0.000 
#    0.000    0.500    0.000    1.625    0.000    2.500 
#
# Total GULP energy -793330.065968 kJ/mol
# GULP energy per Si atom -12395.782281 kJ/mol
# Density = 1.605062 g / cm^3
# Si number density = 16.087239 Si / 1000 Ang^3
#
#
#
# Elastic Constant Matrix: (Units=GPa)
#
#
# Indices 1 2 3 4 5 6 
#
# 1 62.7422 32.1374 47.6582 0.0000 0.0000 0.0000
# 2 32.1374 77.6454 57.7476 0.0000 0.0000 0.0000
# 3 47.6582 57.7476 132.8843 0.0000 0.0000 0.0000
# 4 0.0000 0.0000 0.0000 36.6357 0.0000 0.0000
# 5 0.0000 0.0000 0.0000 0.0000 26.8134 0.0000
# 6 0.0000 0.0000 0.0000 0.0000 0.0000 12.5536
#
#
#
# Elastic Compliance Matrix: (Units=1/GPa)
#
#
# Indices 1 2 3 4 5 6 
#
# 1 0.023167 -0.005037 -0.006120 0.000000 0.000000 0.000000
# 2 -0.005037 0.020125 -0.006939 0.000000 0.000000 0.000000
# 3 -0.006120 -0.006939 0.012736 0.000000 0.000000 0.000000
# 4 0.000000 0.000000 0.000000 0.027296 0.000000 0.000000
# 5 0.000000 0.000000 0.000000 0.000000 0.037295 0.000000
# 6 0.000000 0.000000 0.000000 0.000000 0.000000 0.079659
#
#
# Mechanical properties :
#
#
# Convention : Reuss Voigt Hill
#
# Bulk Modulus (GPa) = 50.41524 60.92870 55.67197
# Shear Modulus (GPa) = 20.56935 24.24910 22.40923
#
# Velocity S-wave (km/s) = 3.57965 3.88667 3.73632
# Velocity P-wave (km/s) = 6.96361 7.62219 7.30033
#
# Compressibility (1/GPa) = 0.01983527
#
# Stress axis : x y z
#
# Youngs Moduli (GPa) = 43.16524 49.68977 78.52021
#
# Poissons Ratio (x) = 0.25031 0.48051
# Poissons Ratio (y) = 0.21744 0.54485
# Poissons Ratio (z) = 0.26415 0.34480
#
# Static dielectric constant tensor:
#      x y z
#    x 2.858110 0.000000 0.000000 
#    y 0.000000 2.991200 0.000000 
#    z 0.000000 0.000000 3.078710 
# 
# 
# High freq. dielectric constant tensor:
#      x y z
#    x 1.601200 0.000000 0.000000 
#    y 0.000000 1.586670 0.000000 
#    z 0.000000 0.000000 1.619410 
# 
# From -- ./inp_files/32674.got.cif
#   From: 2010.03.12/outbox.cif.g09.slc.cpg/sg51_17_cif.got.tgz:32674.got - 2010.04.16 13:43:02.
