data_PCOD8208478
_publ_section_title
;
Structure prediction by ZEFSAII (Michael W. Deem and Ramdas Pophale) SiO2 
 PCOD8208478
Probable space group: P M M A
;
_chemical_formula_sum "Si O2"
_cell_formula_units_Z 64
_cell_length_a 8.884707
_cell_length_b 14.791064
_cell_length_c 25.112108
_cell_angle_alpha 90.000000
_cell_angle_beta 90.000000
_cell_angle_gamma 90.000000
_cell_volume 3300.089337
_symmetry_space_group_name_H-M "P M M A"
_symmetry_group_IT_number 51
_symmetry_cell_setting 'orthorhombic'
loop_
_space_group_symop_operation_xyz
x,y,z
1/2-x,-y,z
1/2+x,-y,-z
-x,y,-z
-x,-y,-z
1/2+x,y,-z
1/2-x,y,z
x,-y,z
loop_
_atom_site_type_symbol
_atom_site_label
_atom_site_fract_x
_atom_site_fract_y
_atom_site_fract_z
Si Si1 0.421075 0.902802 0.596473
Si Si2 0.072644 0.286964 0.554373
Si Si3 0.571572 0.722856 0.846852
Si Si4 0.573995 0.102128 0.189937
Si Si5 0.572430 0.397185 0.945080
Si Si6 0.577859 0.399482 0.240136
Si Si7 0.078099 0.658764 0.339591
Si Si8 0.079626 0.860345 0.299842
O O1 0.250000 0.884452 0.615052
O O2 0.472188 0.819454 0.559511
O O3 0.523483 0.912852 0.648423
O O4 0.434251 0.000000 0.566021
O O5 0.250000 0.302841 0.552597
O O6 0.000000 0.323506 0.500000
O O7 0.003284 0.342764 0.603285
O O8 0.750000 0.726169 0.844134
O O9 0.509810 0.825352 0.847900
O O10 0.513876 0.669334 0.898861
O O11 0.515104 0.670912 0.794840
O O12 0.750000 0.121647 0.186443
O O13 0.523767 0.113337 0.250617
O O14 0.536487 0.000000 0.170403
O O15 0.750000 0.391258 0.950968
O O16 0.521857 0.500000 0.931829
O O17 0.500000 0.363733 0.000000
O O18 0.750000 0.366262 0.243124
O O19 0.567116 0.500000 0.215012
O O20 0.509209 0.407139 0.299502
O O21 0.250000 0.627260 0.347515
O O22 0.067719 0.755124 0.311576
O O23 0.250000 0.889477 0.286808
#
# Coordination Sequence:
#
# PCOD8208478 Si02
#       8
#     8   8   8   8   8   8   8   8
#     4   9  18  31  46  66  95 132 172 218 274 332
#     4  10  20  34  52  72  97 132 176 226 277 337
#     4  11  22  37  58  86 120 157 195 240 286 333
#     4  11  23  36  52  76 110 153 197 241 288 338
#     4   9  19  36  59  88 121 156 194 235 283 339
#     4  11  23  37  57  87 120 153 186 223 276 342
#     4  10  20  35  55  78 106 141 180 224 276 333
#     4  10  19  31  49  74 102 137 181 228 276 329
#
# _framework density 19.393412999999999
#
# number of rings (size 3 to 8) (size 9 to 14) (size 15 to 20)
#    0.000    1.875    1.250    3.000    0.000    7.000 
#    0.000    1.250    0.000    0.750    0.000    0.000 
#    0.000    0.000    0.000    0.000    0.000    0.000 
#
# Total GULP energy -793553.391377 kJ/mol
# GULP energy per Si atom -12399.271740 kJ/mol
# Density = 1.934927 g / cm^3
# Si number density = 19.393413 Si / 1000 Ang^3
#
#
#
# Elastic Constant Matrix: (Units=GPa)
#
#
# Indices 1 2 3 4 5 6 
#
# 1 93.7503 36.0315 47.1479 0.0000 0.0000 0.0000
# 2 36.0315 82.0732 43.8670 0.0000 0.0000 0.0000
# 3 47.1479 43.8670 123.4352 0.0000 0.0000 0.0000
# 4 0.0000 0.0000 0.0000 13.3116 0.0000 0.0000
# 5 0.0000 0.0000 0.0000 0.0000 32.5587 0.0000
# 6 0.0000 0.0000 0.0000 0.0000 0.0000 23.0011
#
#
#
# Elastic Compliance Matrix: (Units=1/GPa)
#
#
# Indices 1 2 3 4 5 6 
#
# 1 0.014255 -0.004133 -0.003976 0.000000 0.000000 0.000000
# 2 -0.004133 0.016240 -0.004193 0.000000 0.000000 0.000000
# 3 -0.003976 -0.004193 0.011110 0.000000 0.000000 0.000000
# 4 0.000000 0.000000 0.000000 0.075123 0.000000 0.000000
# 5 0.000000 0.000000 0.000000 0.000000 0.030714 0.000000
# 6 0.000000 0.000000 0.000000 0.000000 0.000000 0.043476
#
#
# Mechanical properties :
#
#
# Convention : Reuss Voigt Hill
#
# Bulk Modulus (GPa) = 58.81945 61.48349 60.15147
# Shear Modulus (GPa) = 22.60530 25.25510 23.93020
#
# Velocity S-wave (km/s) = 3.41782 3.61259 3.51655
# Velocity P-wave (km/s) = 6.78017 7.01236 6.89724
#
# Compressibility (1/GPa) = 0.01700118
#
# Stress axis : x y z
#
# Youngs Moduli (GPa) = 70.15282 61.57793 90.00801
#
# Poissons Ratio (x) = 0.25449 0.35787
# Poissons Ratio (y) = 0.28993 0.37738
# Poissons Ratio (z) = 0.27893 0.25818
#
# Static dielectric constant tensor:
#      x y z
#    x 3.593170 0.000000 0.000000 
#    y 0.000000 3.590790 0.000000 
#    z 0.000000 0.000000 3.377150 
# 
# 
# High freq. dielectric constant tensor:
#      x y z
#    x 1.764530 0.000000 0.000000 
#    y 0.000000 1.749830 0.000000 
#    z 0.000000 0.000000 1.730350 
# 
# From -- ./inp_files/34946.got.cif
#   From: 2010.03.12/outbox.cif.g09.slc.cpg/sg51_18_cif.got.tgz:34946.got - 2010.04.16 13:43:02.
