data_PCOD8208419
_publ_section_title
;
Structure prediction by ZEFSAII (Michael W. Deem and Ramdas Pophale) SiO2 
 PCOD8208419
Probable space group: P M M A
;
_chemical_formula_sum "Si O2"
_cell_formula_units_Z 48
_cell_length_a 20.679188
_cell_length_b 9.012273
_cell_length_c 13.944847
_cell_angle_alpha 90.000000
_cell_angle_beta 90.000000
_cell_angle_gamma 90.000000
_cell_volume 2598.852157
_symmetry_space_group_name_H-M "P M M A"
_symmetry_group_IT_number 51
_symmetry_cell_setting 'orthorhombic'
loop_
_space_group_symop_operation_xyz
x,y,z
1/2-x,-y,z
1/2+x,-y,-z
-x,y,-z
-x,-y,-z
1/2+x,y,-z
1/2-x,y,z
x,-y,z
loop_
_atom_site_type_symbol
_atom_site_label
_atom_site_fract_x
_atom_site_fract_y
_atom_site_fract_z
Si Si1 0.452134 0.823606 0.587287
Si Si2 0.323625 0.677138 0.521543
Si Si3 0.176056 0.666438 0.309285
Si Si4 0.571916 0.833735 0.042787
Si Si5 0.533411 0.334607 0.217703
Si Si6 0.105462 0.335201 0.132400
O O1 0.500000 0.775298 0.500000
O O2 0.379176 0.758604 0.581495
O O3 0.480665 0.756715 0.685228
O O4 0.448234 0.000000 0.594136
O O5 0.250000 0.716991 0.555974
O O6 0.332511 0.500000 0.526135
O O7 0.333661 0.739802 0.413374
O O8 0.250000 0.663821 0.280536
O O9 0.147508 0.500000 0.315771
O O10 0.138983 0.749318 0.222882
O O11 0.581322 0.751526 0.145283
O O12 0.596432 0.000000 0.059117
O O13 0.500000 0.832785 0.000000
O O14 0.618166 0.755978 0.964550
O O15 0.560007 0.500000 0.242270
O O16 0.469363 0.348520 0.155724
O O17 0.135030 0.500000 0.117198
#
# Coordination Sequence:
#
# PCOD8208419 Si02
#       6
#     8   8   8   8   8   8
#     4  11  23  35  49  74 107 138 168 207 256 305
#     4   9  18  34  55  76  99 132 174 213 250 298
#     4   8  14  26  46  71  96 122 155 196 238 281
#     4   9  17  29  45  66  94 125 153 187 238 298
#     4  10  19  31  49  71  95 125 163 206 247 289
#     4   9  16  27  46  71  96 123 157 195 237 287
#
# _framework density 18.469691999999998
#
# number of rings (size 3 to 8) (size 9 to 14) (size 15 to 20)
#    0.000    2.667    0.000    3.500    0.000    5.667 
#    0.000    0.833    0.000    2.500    0.000    2.333 
#    0.000    0.000    0.000    0.000    0.000    0.000 
#
# Total GULP energy -594714.666707 kJ/mol
# GULP energy per Si atom -12389.888890 kJ/mol
# Density = 1.842765 g / cm^3
# Si number density = 18.469692 Si / 1000 Ang^3
#
#
#
# Elastic Constant Matrix: (Units=GPa)
#
#
# Indices 1 2 3 4 5 6 
#
# 1 33.6923 17.8095 8.7547 0.0000 0.0000 0.0000
# 2 17.8095 90.2761 42.0623 0.0000 0.0000 0.0000
# 3 8.7547 42.0623 98.3295 0.0000 0.0000 0.0000
# 4 0.0000 0.0000 0.0000 28.7760 0.0000 0.0000
# 5 0.0000 0.0000 0.0000 0.0000 27.4140 0.0000
# 6 0.0000 0.0000 0.0000 0.0000 0.0000 17.0922
#
#
#
# Elastic Compliance Matrix: (Units=1/GPa)
#
#
# Indices 1 2 3 4 5 6 
#
# 1 0.033139 -0.006448 -0.000192 0.000000 0.000000 0.000000
# 2 -0.006448 0.015089 -0.005881 0.000000 0.000000 0.000000
# 3 -0.000192 -0.005881 0.012703 0.000000 0.000000 0.000000
# 4 0.000000 0.000000 0.000000 0.034751 0.000000 0.000000
# 5 0.000000 0.000000 0.000000 0.000000 0.036478 0.000000
# 6 0.000000 0.000000 0.000000 0.000000 0.000000 0.058506
#
#
# Mechanical properties :
#
#
# Convention : Reuss Voigt Hill
#
# Bulk Modulus (GPa) = 27.86389 39.95012 33.90701
# Shear Modulus (GPa) = 21.96164 24.90120 23.43142
#
# Velocity S-wave (km/s) = 3.45202 3.67579 3.56566
# Velocity P-wave (km/s) = 5.56845 6.30019 5.94559
#
# Compressibility (1/GPa) = 0.03588874
#
# Stress axis : x y z
#
# Youngs Moduli (GPa) = 30.17623 66.27297 78.72451
#
# Poissons Ratio (x) = 0.42733 0.01513
# Poissons Ratio (y) = 0.19458 0.46294
# Poissons Ratio (z) = 0.00580 0.38972
#
# Static dielectric constant tensor:
#      x y z
#    x 3.106520 0.000000 0.000000 
#    y 0.000000 3.390060 0.000000 
#    z 0.000000 0.000000 3.509910 
# 
# 
# High freq. dielectric constant tensor:
#      x y z
#    x 1.676940 0.000000 0.000000 
#    y 0.000000 1.700010 0.000000 
#    z 0.000000 0.000000 1.721660 
# 
# From -- ./inp_files/18545.got.cif
#   From: 2010.03.12/outbox.cif.g09.slc.cpg/sg51_10_cif.got.tgz:18545.got - 2010.04.16 13:43:02.
