data_PCOD8208071
_publ_section_title
;
Structure prediction by ZEFSAII (Michael W. Deem and Ramdas Pophale) SiO2 
 PCOD8208071
Probable space group: P M M A
;
_chemical_formula_sum "Si O2"
_cell_formula_units_Z 64
_cell_length_a 8.899076
_cell_length_b 23.226635
_cell_length_c 18.865617
_cell_angle_alpha 90.000000
_cell_angle_beta 90.000000
_cell_angle_gamma 90.000000
_cell_volume 3899.439838
_symmetry_space_group_name_H-M "P M M A"
_symmetry_group_IT_number 51
_symmetry_cell_setting 'orthorhombic'
loop_
_space_group_symop_operation_xyz
x,y,z
1/2-x,-y,z
1/2+x,-y,-z
-x,y,-z
-x,-y,-z
1/2+x,y,-z
1/2-x,y,z
x,-y,z
loop_
_atom_site_type_symbol
_atom_site_label
_atom_site_fract_x
_atom_site_fract_y
_atom_site_fract_z
Si Si1 0.923649 0.066580 0.290816
Si Si2 0.574862 0.748414 0.572291
Si Si3 0.425071 0.334425 0.850668
Si Si4 0.924555 0.162114 0.789215
Si Si5 0.925877 0.433845 0.925918
Si Si6 0.924683 0.229601 0.927852
Si Si7 0.574749 0.883077 0.572238
Si Si8 0.925121 0.733069 0.287781
O O1 0.750000 0.083296 0.298140
O O2 0.996516 0.101228 0.225258
O O3 0.005315 0.081449 0.363714
O O4 0.946268 0.000000 0.272908
O O5 0.500000 0.725861 0.500000
O O6 0.750000 0.734215 0.569903
O O7 0.541229 0.815774 0.582874
O O8 0.498626 0.714357 0.637694
O O9 0.250000 0.337887 0.868443
O O10 0.502204 0.396011 0.863316
O O11 0.497953 0.288233 0.903141
O O12 0.453531 0.317615 0.768918
O O13 0.750000 0.158020 0.769502
O O14 0.950297 0.179021 0.870861
O O15 0.996159 0.208914 0.737642
O O16 0.750000 0.421860 0.931233
O O17 0.961422 0.500000 0.907771
O O18 0.000000 0.415599 0.000000
O O19 0.750000 0.242421 0.939588
O O20 0.000000 0.207662 0.000000
O O21 0.500000 0.905520 0.500000
O O22 0.750000 0.896088 0.568216
O O23 0.750000 0.745726 0.297970
#
# Coordination Sequence:
#
# PCOD8208071 Si02
#       8
#     8   8   8   8   8   8   8   8
#     4  11  23  36  51  70  92 120 153 191 234 282
#     4  10  19  30  47  70  96 127 160 193 234 284
#     4  10  20  32  48  72 101 133 166 201 241 280
#     4  10  20  34  51  71  93 120 152 189 234 284
#     4  10  20  33  49  69  97 136 176 211 245 281
#     4  10  20  33  51  74  99 124 154 192 237 285
#     4  10  20  33  50  70  93 123 156 191 231 276
#     4  10  19  31  49  71  97 127 158 196 239 284
#
# _framework density 16.412613
#
# number of rings (size 3 to 8) (size 9 to 14) (size 15 to 20)
#    0.000    1.875    1.250    3.375    0.000    6.000 
#    0.000    0.000    0.000    0.375    0.000    0.000 
#    0.000    0.500    0.000    1.625    0.000    2.375 
#
# Total GULP energy -793853.902896 kJ/mol
# GULP energy per Si atom -12403.967233 kJ/mol
# Density = 1.637526 g / cm^3
# Si number density = 16.412613 Si / 1000 Ang^3
#
#
#
# Elastic Constant Matrix: (Units=GPa)
#
#
# Indices 1 2 3 4 5 6 
#
# 1 123.2687 51.3869 68.1872 0.0000 0.0000 0.0000
# 2 51.3869 73.8908 47.8238 0.0000 0.0000 0.0000
# 3 68.1872 47.8238 122.2425 0.0000 0.0000 0.0000
# 4 0.0000 0.0000 0.0000 23.1695 0.0000 0.0000
# 5 0.0000 0.0000 0.0000 0.0000 33.4827 0.0000
# 6 0.0000 0.0000 0.0000 0.0000 0.0000 25.4463
#
#
#
# Elastic Compliance Matrix: (Units=1/GPa)
#
#
# Indices 1 2 3 4 5 6 
#
# 1 0.013483 -0.006038 -0.005159 0.000000 0.000000 0.000000
# 2 -0.006038 0.020826 -0.004780 0.000000 0.000000 0.000000
# 3 -0.005159 -0.004780 0.012928 0.000000 0.000000 0.000000
# 4 0.000000 0.000000 0.000000 0.043160 0.000000 0.000000
# 5 0.000000 0.000000 0.000000 0.000000 0.029866 0.000000
# 6 0.000000 0.000000 0.000000 0.000000 0.000000 0.039299
#
#
# Mechanical properties :
#
#
# Convention : Reuss Voigt Hill
#
# Bulk Modulus (GPa) = 65.42586 72.68864 69.05725
# Shear Modulus (GPa) = 25.43126 26.55332 25.99229
#
# Velocity S-wave (km/s) = 3.94063 4.02663 3.98386
# Velocity P-wave (km/s) = 7.78810 8.12421 7.95793
#
# Compressibility (1/GPa) = 0.01528448
#
# Stress axis : x y z
#
# Youngs Moduli (GPa) = 74.16809 48.01720 77.35219
#
# Poissons Ratio (x) = 0.28992 0.39904
# Poissons Ratio (y) = 0.44781 0.36971
# Poissons Ratio (z) = 0.38261 0.22950
#
# Static dielectric constant tensor:
#      x y z
#    x 3.284590 0.000000 0.000000 
#    y 0.000000 2.865170 0.000000 
#    z 0.000000 0.000000 3.154670 
# 
# 
# High freq. dielectric constant tensor:
#      x y z
#    x 1.656160 0.000000 0.000000 
#    y 0.000000 1.593910 0.000000 
#    z 0.000000 0.000000 1.631450 
# 
# From -- ./inp_files/28325.got.cif
#   From: 2010.03.12/outbox.cif.g09.slc.cpg/sg51_15_cif.got.tgz:28325.got - 2010.04.16 13:43:02.
