data_PCOD8208962
_publ_section_title
;
Structure prediction by ZEFSAII (Michael W. Deem and Ramdas Pophale) SiO2 
 PCOD8208962
Probable space group: P M M A
;
_chemical_formula_sum "Si O2"
_cell_formula_units_Z 64
_cell_length_a 17.175310
_cell_length_b 9.011004
_cell_length_c 22.919121
_cell_angle_alpha 90.000000
_cell_angle_beta 90.000000
_cell_angle_gamma 90.000000
_cell_volume 3547.118721
_symmetry_space_group_name_H-M "P M M A"
_symmetry_group_IT_number 51
_symmetry_cell_setting 'orthorhombic'
loop_
_space_group_symop_operation_xyz
x,y,z
1/2-x,-y,z
1/2+x,-y,-z
-x,y,-z
-x,-y,-z
1/2+x,y,-z
1/2-x,y,z
x,-y,z
loop_
_atom_site_type_symbol
_atom_site_label
_atom_site_fract_x
_atom_site_fract_y
_atom_site_fract_z
Si Si1 0.557321 0.668143 0.128951
Si Si2 0.894271 0.670735 0.931022
Si Si3 0.969518 0.325591 0.755890
Si Si4 0.659077 0.828158 0.044660
Si Si5 0.661650 0.827604 0.556750
Si Si6 0.661880 0.831929 0.822155
Si Si7 0.924434 0.666033 0.460419
Si Si8 0.516318 0.824949 0.634239
O O1 0.588208 0.500000 0.126479
O O2 0.483724 0.687816 0.086648
O O3 0.534067 0.710740 0.195000
O O4 0.625119 0.777611 0.107254
O O5 0.867738 0.500000 0.928517
O O6 0.840935 0.764026 0.886908
O O7 0.883626 0.732262 0.995636
O O8 0.960623 0.500000 0.746063
O O9 0.886479 0.263968 0.776279
O O10 0.994792 0.247900 0.696817
O O11 0.750000 0.794488 0.043936
O O12 0.641006 0.000000 0.034209
O O13 0.750000 0.793729 0.577816
O O14 0.645751 0.738893 0.496967
O O15 0.600650 0.779778 0.607210
O O16 0.650007 0.000000 0.542238
O O17 0.750000 0.829919 0.799720
O O18 0.629496 0.000000 0.824019
O O19 0.899990 0.500000 0.441105
O O20 0.000000 0.660657 0.500000
O O21 0.944607 0.765067 0.404269
O O22 0.508616 0.000000 0.639969
#
# Coordination Sequence:
#
# PCOD8208962 Si02
#       8
#     8   8   8   8   8   8   8   8
#     4   9  20  37  54  73  98 130 168 208 251 300
#     4  10  20  34  53  76 101 130 166 205 248 303
#     4  10  21  36  53  74 100 131 171 215 254 297
#     4  11  23  35  50  76 104 128 160 204 254 308
#     4   9  18  32  50  75 108 140 168 203 248 296
#     4  10  20  33  49  71 101 135 170 207 248 299
#     4   9  17  30  49  73 101 133 169 207 245 287
#     4  10  19  32  52  76 102 136 175 210 248 297
#
# _framework density 18.042812999999999
#
# number of rings (size 3 to 8) (size 9 to 14) (size 15 to 20)
#    0.000    2.250    0.000    3.750    0.000   10.750 
#    0.000    1.250    0.000    0.750    0.000    3.500 
#    0.000    0.000    0.000    0.000    0.000    0.000 
#
# Total GULP energy -793700.264815 kJ/mol
# GULP energy per Si atom -12401.566638 kJ/mol
# Density = 1.800175 g / cm^3
# Si number density = 18.042813 Si / 1000 Ang^3
#
#
#
# Elastic Constant Matrix: (Units=GPa)
#
#
# Indices 1 2 3 4 5 6 
#
# 1 37.0150 31.2813 35.6113 0.0000 0.0000 0.0000
# 2 31.2813 106.1709 58.8304 0.0000 0.0000 0.0000
# 3 35.6113 58.8304 121.8689 0.0000 0.0000 0.0000
# 4 0.0000 0.0000 0.0000 35.6785 0.0000 0.0000
# 5 0.0000 0.0000 0.0000 0.0000 15.4546 0.0000
# 6 0.0000 0.0000 0.0000 0.0000 0.0000 24.0554
#
#
#
# Elastic Compliance Matrix: (Units=1/GPa)
#
#
# Indices 1 2 3 4 5 6 
#
# 1 0.041569 -0.007531 -0.008511 0.000000 0.000000 0.000000
# 2 -0.007531 0.014223 -0.004665 0.000000 0.000000 0.000000
# 3 -0.008511 -0.004665 0.012945 0.000000 0.000000 0.000000
# 4 0.000000 0.000000 0.000000 0.028028 0.000000 0.000000
# 5 0.000000 0.000000 0.000000 0.000000 0.064706 0.000000
# 6 0.000000 0.000000 0.000000 0.000000 0.000000 0.041571
#
#
# Mechanical properties :
#
#
# Convention : Reuss Voigt Hill
#
# Bulk Modulus (GPa) = 36.60169 57.38898 46.99534
# Shear Modulus (GPa) = 19.71888 24.32648 22.02268
#
# Velocity S-wave (km/s) = 3.30948 3.67586 3.49747
# Velocity P-wave (km/s) = 5.91047 7.06343 6.51251
#
# Compressibility (1/GPa) = 0.02732114
#
# Stress axis : x y z
#
# Youngs Moduli (GPa) = 24.05613 70.30992 77.25220
#
# Poissons Ratio (x) = 0.52954 0.65752
# Poissons Ratio (y) = 0.18118 0.36039
# Poissons Ratio (z) = 0.20475 0.32800
#
# Static dielectric constant tensor:
#      x y z
#    x 3.146260 0.000000 0.000000 
#    y 0.000000 3.499460 0.000000 
#    z 0.000000 0.000000 3.296440 
# 
# 
# High freq. dielectric constant tensor:
#      x y z
#    x 1.676190 0.000000 0.000000 
#    y 0.000000 1.713690 0.000000 
#    z 0.000000 0.000000 1.688870 
# 
# From -- ./inp_files/33791.got.cif
#   From: 2010.03.12/outbox.cif.g09.slc.cpg/sg51_17_cif.got.tgz:33791.got - 2010.04.16 13:43:02.
