data_PCOD8208927
_publ_section_title
;
Structure prediction by ZEFSAII (Michael W. Deem and Ramdas Pophale) SiO2 
 PCOD8208927
Probable space group: P M M A
;
_chemical_formula_sum "Si O2"
_cell_formula_units_Z 48
_cell_length_a 25.303280
_cell_length_b 9.167074
_cell_length_c 11.788065
_cell_angle_alpha 90.000000
_cell_angle_beta 90.000000
_cell_angle_gamma 90.000000
_cell_volume 2734.324667
_symmetry_space_group_name_H-M "P M M A"
_symmetry_group_IT_number 51
_symmetry_cell_setting 'orthorhombic'
loop_
_space_group_symop_operation_xyz
x,y,z
1/2-x,-y,z
1/2+x,-y,-z
-x,y,-z
-x,-y,-z
1/2+x,y,-z
1/2-x,y,z
x,-y,z
loop_
_atom_site_type_symbol
_atom_site_label
_atom_site_fract_x
_atom_site_fract_y
_atom_site_fract_z
Si Si1 0.005211 0.169274 0.132747
Si Si2 0.403203 0.827217 0.734165
Si Si3 0.593812 0.329599 0.732814
Si Si4 0.438522 0.171677 0.491001
Si Si5 0.190344 0.172446 0.887570
Si Si6 0.809653 0.667848 0.884838
O O1 0.053887 0.262500 0.176694
O O2 0.952482 0.230245 0.192435
O O3 0.014961 0.000000 0.163462
O O4 0.000000 0.193788 0.000000
O O5 0.408863 0.774021 0.604722
O O6 0.348519 0.768902 0.788595
O O7 0.404056 0.000000 0.737369
O O8 0.582049 0.500000 0.720172
O O9 0.588968 0.255052 0.611246
O O10 0.652820 0.298495 0.778286
O O11 0.500000 0.213604 0.500000
O O12 0.432060 0.000000 0.470682
O O13 0.250000 0.221037 0.856314
O O14 0.185799 0.000000 0.900171
O O15 0.172176 0.238678 0.007035
O O16 0.750000 0.709140 0.848171
O O17 0.813890 0.500000 0.921548
#
# Coordination Sequence:
#
# PCOD8208927 Si02
#       6
#     8   8   8   8   8   8
#     4  10  19  32  52  75 101 134 169 203 249 314
#     4   9  17  31  50  74 101 131 166 204 250 301
#     4  11  22  34  51  76 104 131 170 219 259 294
#     4  10  19  35  55  71  98 141 179 206 246 309
#     4   9  17  31  54  81 104 127 163 212 257 298
#     4   9  19  36  54  72 101 139 169 199 251 311
#
# _framework density 17.554608999999999
#
# number of rings (size 3 to 8) (size 9 to 14) (size 15 to 20)
#    0.000    2.333    1.667    1.500    0.000    3.333 
#    0.000    2.500    0.000    1.000    0.000    0.000 
#    0.000    0.000    0.000    0.000    0.000    0.000 
#
# Total GULP energy -595215.607615 kJ/mol
# GULP energy per Si atom -12400.325159 kJ/mol
# Density = 1.751465 g / cm^3
# Si number density = 17.554609 Si / 1000 Ang^3
#
#
#
# Elastic Constant Matrix: (Units=GPa)
#
#
# Indices 1 2 3 4 5 6 
#
# 1 117.9258 41.3393 81.0209 0.0000 0.0000 0.0000
# 2 41.3393 44.1952 47.7830 0.0000 0.0000 0.0000
# 3 81.0209 47.7830 144.4648 0.0000 0.0000 0.0000
# 4 0.0000 0.0000 0.0000 11.0036 0.0000 0.0000
# 5 0.0000 0.0000 0.0000 0.0000 32.3092 0.0000
# 6 0.0000 0.0000 0.0000 0.0000 0.0000 21.1100
#
#
#
# Elastic Compliance Matrix: (Units=1/GPa)
#
#
# Indices 1 2 3 4 5 6 
#
# 1 0.015375 -0.007875 -0.006018 0.000000 0.000000 0.000000
# 2 -0.007875 0.039256 -0.008568 0.000000 0.000000 0.000000
# 3 -0.006018 -0.008568 0.013131 0.000000 0.000000 0.000000
# 4 0.000000 0.000000 0.000000 0.090879 0.000000 0.000000
# 5 0.000000 0.000000 0.000000 0.000000 0.030951 0.000000
# 6 0.000000 0.000000 0.000000 0.000000 0.000000 0.047371
#
#
# Mechanical properties :
#
#
# Convention : Reuss Voigt Hill
#
# Bulk Modulus (GPa) = 43.78134 71.87469 57.82801
# Shear Modulus (GPa) = 17.27118 21.98075 19.62596
#
# Velocity S-wave (km/s) = 3.14005 3.54239 3.34727
# Velocity P-wave (km/s) = 6.17582 7.60025 6.92476
#
# Compressibility (1/GPa) = 0.02284078
#
# Stress axis : x y z
#
# Youngs Moduli (GPa) = 65.03902 25.47364 76.15388
#
# Poissons Ratio (x) = 0.20060 0.45832
# Poissons Ratio (y) = 0.51217 0.65248
# Poissons Ratio (z) = 0.39143 0.21825
#
# Static dielectric constant tensor:
#      x y z
#    x 3.487520 0.000000 0.000000 
#    y 0.000000 3.087010 0.000000 
#    z 0.000000 0.000000 3.385730 
# 
# 
# High freq. dielectric constant tensor:
#      x y z
#    x 1.682240 0.000000 0.000000 
#    y 0.000000 1.658460 0.000000 
#    z 0.000000 0.000000 1.681020 
# 
# From -- ./inp_files/18617.got.cif
#   From: 2010.03.12/outbox.cif.g09.slc.cpg/sg51_10_cif.got.tgz:18617.got - 2010.04.16 13:43:02.
