data_PCOD8208922
_publ_section_title
;
Structure prediction by ZEFSAII (Michael W. Deem and Ramdas Pophale) SiO2 
 PCOD8208922
Probable space group: P M M A
;
_chemical_formula_sum "Si O2"
_cell_formula_units_Z 52
_cell_length_a 9.145044
_cell_length_b 23.224653
_cell_length_c 14.302474
_cell_angle_alpha 90.000000
_cell_angle_beta 90.000000
_cell_angle_gamma 90.000000
_cell_volume 3037.709226
_symmetry_space_group_name_H-M "P M M A"
_symmetry_group_IT_number 51
_symmetry_cell_setting 'orthorhombic'
loop_
_space_group_symop_operation_xyz
x,y,z
1/2-x,-y,z
1/2+x,-y,-z
-x,y,-z
-x,-y,-z
1/2+x,y,-z
1/2-x,y,z
x,-y,z
loop_
_atom_site_type_symbol
_atom_site_label
_atom_site_fract_x
_atom_site_fract_y
_atom_site_fract_z
Si Si1 0.918955 0.105806 0.408937
Si Si2 0.418829 0.934032 0.791407
Si Si3 0.578928 0.239766 0.407399
Si Si4 0.579054 0.624321 0.901457
Si Si5 0.921958 0.837690 0.902947
Si Si6 0.417774 0.500000 0.095612
Si Si7 0.921192 0.271142 0.774975
O O1 0.750000 0.094705 0.427289
O O2 0.972400 0.073226 0.315709
O O3 0.956009 0.172598 0.394679
O O4 0.000000 0.080653 0.500000
O O5 0.250000 0.913902 0.799537
O O6 0.517285 0.896897 0.860737
O O7 0.437586 0.000000 0.821721
O O8 0.500000 0.263477 0.500000
O O9 0.750000 0.252420 0.414984
O O10 0.512656 0.273053 0.319735
O O11 0.750000 0.632957 0.920648
O O12 0.545570 0.561072 0.853545
O O13 0.523213 0.673300 0.831703
O O14 0.500000 0.631386 0.000000
O O15 0.750000 0.844271 0.920420
O O16 0.958831 0.786017 0.832845
O O17 0.000000 0.823627 0.000000
O O18 0.250000 0.500000 0.068040
O O19 0.500000 0.500000 0.000000
O O20 0.750000 0.274191 0.751117
#
# Coordination Sequence:
#
# PCOD8208922 Si02
#       7
#     8   8   8   8   8   4   8
#     4   9  18  32  51  75  99 124 153 190 238 291
#     4  10  21  38  56  73  96 126 162 202 244 293
#     4  10  19  32  52  75 101 130 160 198 244 295
#     4   9  17  29  46  71 103 137 172 206 242 286
#     4  11  23  37  54  73  97 127 162 203 247 291
#     4   8  14  26  44  66  97 136 171 204 241 282
#     4  10  20  33  50  75 103 131 164 203 244 290
#
# _framework density 17.118162999999999
#
# number of rings (size 3 to 8) (size 9 to 14) (size 15 to 20)
#    0.000    2.308    1.538    1.385    0.000    3.385 
#    0.000    0.000    0.000    0.000    0.000    0.538 
#    0.000    0.000    0.000    0.000    0.000    0.000 
#
# Total GULP energy -644688.903719 kJ/mol
# GULP energy per Si atom -12397.863533 kJ/mol
# Density = 1.707920 g / cm^3
# Si number density = 17.118163 Si / 1000 Ang^3
#
#
#
# Elastic Constant Matrix: (Units=GPa)
#
#
# Indices 1 2 3 4 5 6 
#
# 1 64.6974 39.1489 52.0752 0.0000 0.0000 0.0000
# 2 39.1489 99.7771 48.1654 0.0000 0.0000 0.0000
# 3 52.0752 48.1654 109.0832 0.0000 0.0000 0.0000
# 4 0.0000 0.0000 0.0000 18.5550 0.0000 0.0000
# 5 0.0000 0.0000 0.0000 0.0000 34.8130 0.0000
# 6 0.0000 0.0000 0.0000 0.0000 0.0000 18.2593
#
#
#
# Elastic Compliance Matrix: (Units=1/GPa)
#
#
# Indices 1 2 3 4 5 6 
#
# 1 0.027388 -0.005636 -0.010586 0.000000 0.000000 0.000000
# 2 -0.005636 0.013897 -0.003446 0.000000 0.000000 0.000000
# 3 -0.010586 -0.003446 0.015742 0.000000 0.000000 0.000000
# 4 0.000000 0.000000 0.000000 0.053894 0.000000 0.000000
# 5 0.000000 0.000000 0.000000 0.000000 0.028725 0.000000
# 6 0.000000 0.000000 0.000000 0.000000 0.000000 0.054767
#
#
# Mechanical properties :
#
#
# Convention : Reuss Voigt Hill
#
# Bulk Modulus (GPa) = 56.52296 61.37072 58.94684
# Shear Modulus (GPa) = 20.86422 23.27001 22.06712
#
# Velocity S-wave (km/s) = 3.49497 3.69097 3.59431
# Velocity P-wave (km/s) = 7.02690 7.35482 7.19273
#
# Compressibility (1/GPa) = 0.01769193
#
# Stress axis : x y z
#
# Youngs Moduli (GPa) = 36.51290 71.95834 63.52240
#
# Poissons Ratio (x) = 0.40553 0.67246
# Poissons Ratio (y) = 0.20577 0.21888
# Poissons Ratio (z) = 0.38653 0.24795
#
# Static dielectric constant tensor:
#      x y z
#    x 3.187550 0.000000 0.000000 
#    y 0.000000 3.419200 0.000000 
#    z 0.000000 0.000000 3.142090 
# 
# 
# High freq. dielectric constant tensor:
#      x y z
#    x 1.663100 0.000000 0.000000 
#    y 0.000000 1.651720 0.000000 
#    z 0.000000 0.000000 1.649180 
# 
# From -- ./inp_files/21572.got.cif
#   From: 2010.03.12/outbox.cif.g09.slc.cpg/sg51_11_cif.got.tgz:21572.got - 2010.04.16 13:43:02.
