data_PCOD8208794
_publ_section_title
;
Structure prediction by ZEFSAII (Michael W. Deem and Ramdas Pophale) SiO2 
 PCOD8208794
Probable space group: P M M A
;
_chemical_formula_sum "Si O2"
_cell_formula_units_Z 64
_cell_length_a 23.846755
_cell_length_b 9.709865
_cell_length_c 14.843029
_cell_angle_alpha 90.000000
_cell_angle_beta 90.000000
_cell_angle_gamma 90.000000
_cell_volume 3436.885134
_symmetry_space_group_name_H-M "P M M A"
_symmetry_group_IT_number 51
_symmetry_cell_setting 'orthorhombic'
loop_
_space_group_symop_operation_xyz
x,y,z
1/2-x,-y,z
1/2+x,-y,-z
-x,y,-z
-x,-y,-z
1/2+x,y,-z
1/2-x,y,z
x,-y,z
loop_
_atom_site_type_symbol
_atom_site_label
_atom_site_fract_x
_atom_site_fract_y
_atom_site_fract_z
Si Si1 0.878620 0.664097 0.700569
Si Si2 0.618319 0.338256 0.350388
Si Si3 0.686063 0.663541 0.523332
Si Si4 0.812259 0.154221 0.225501
Si Si5 0.813805 0.157658 0.839316
Si Si6 0.996778 0.661172 0.272316
Si Si7 0.043372 0.342697 0.919687
Si Si8 0.145876 0.845920 0.965411
O O1 0.873750 0.500000 0.712410
O O2 0.843770 0.715900 0.613990
O O3 0.853578 0.736938 0.787671
O O4 0.943272 0.714863 0.691180
O O5 0.628962 0.500000 0.339972
O O6 0.647676 0.281440 0.440991
O O7 0.645256 0.264938 0.264811
O O8 0.551643 0.304258 0.346259
O O9 0.750000 0.721168 0.517050
O O10 0.687374 0.500000 0.521654
O O11 0.750000 0.186772 0.261275
O O12 0.811472 0.166310 0.117726
O O13 0.830423 0.000000 0.255250
O O14 0.750000 0.185833 0.810425
O O15 0.830631 0.000000 0.816875
O O16 0.819731 0.189113 0.944929
O O17 0.002715 0.500000 0.259329
O O18 0.981736 0.721830 0.173258
O O19 0.061761 0.500000 0.902671
O O20 0.096369 0.259761 0.952258
O O21 0.000000 0.331251 0.000000
O O22 0.120453 0.000000 0.971081
#
# Coordination Sequence:
#
# PCOD8208794 Si02
#       8
#     8   8   8   8   8   8   8   8
#     4  10  20  36  57  79 106 140 179 222 268 318
#     4  10  19  34  55  78 108 141 176 217 264 318
#     4   9  18  32  53  82 109 135 174 224 271 314
#     4  10  20  34  52  76 106 139 175 216 262 312
#     4  10  21  37  55  77 107 141 178 222 271 320
#     4   9  18  32  51  78 108 140 177 217 263 313
#     4  10  19  32  50  73 106 142 177 221 265 306
#     4  10  20  34  52  75 103 138 178 217 262 316
#
# _framework density 18.621511999999999
#
# number of rings (size 3 to 8) (size 9 to 14) (size 15 to 20)
#    0.000    2.250    1.250    1.875    0.000    5.250 
#    0.000    4.375    0.000    4.500    0.000    1.750 
#    0.000    0.000    0.000    0.000    0.000    0.000 
#
# Total GULP energy -793409.926344 kJ/mol
# GULP energy per Si atom -12397.030099 kJ/mol
# Density = 1.857913 g / cm^3
# Si number density = 18.621512 Si / 1000 Ang^3
#
#
#
# Elastic Constant Matrix: (Units=GPa)
#
#
# Indices 1 2 3 4 5 6 
#
# 1 133.1690 41.9417 48.1769 0.0000 0.0000 0.0000
# 2 41.9417 40.5216 26.2833 0.0000 0.0000 0.0000
# 3 48.1769 26.2833 100.5619 0.0000 0.0000 0.0000
# 4 0.0000 0.0000 0.0000 40.3214 0.0000 0.0000
# 5 0.0000 0.0000 0.0000 0.0000 33.8765 0.0000
# 6 0.0000 0.0000 0.0000 0.0000 0.0000 20.4124
#
#
#
# Elastic Compliance Matrix: (Units=1/GPa)
#
#
# Indices 1 2 3 4 5 6 
#
# 1 0.011836 -0.010323 -0.002972 0.000000 0.000000 0.000000
# 2 -0.010323 0.038719 -0.005174 0.000000 0.000000 0.000000
# 3 -0.002972 -0.005174 0.012720 0.000000 0.000000 0.000000
# 4 0.000000 0.000000 0.000000 0.024801 0.000000 0.000000
# 5 0.000000 0.000000 0.000000 0.000000 0.029519 0.000000
# 6 0.000000 0.000000 0.000000 0.000000 0.000000 0.048990
#
#
# Mechanical properties :
#
#
# Convention : Reuss Voigt Hill
#
# Bulk Modulus (GPa) = 37.97019 56.33960 47.15489
# Shear Modulus (GPa) = 23.55143 29.44544 26.49844
#
# Velocity S-wave (km/s) = 3.56018 3.98082 3.77636
# Velocity P-wave (km/s) = 6.11021 7.17287 6.66276
#
# Compressibility (1/GPa) = 0.02633645
#
# Stress axis : x y z
#
# Youngs Moduli (GPa) = 84.49081 25.82734 78.61355
#
# Poissons Ratio (x) = 0.26660 0.23366
# Poissons Ratio (y) = 0.87216 0.40678
# Poissons Ratio (z) = 0.25113 0.13364
#
# Static dielectric constant tensor:
#      x y z
#    x 3.736350 0.000000 0.000000 
#    y 0.000000 3.152340 0.000000 
#    z 0.000000 0.000000 3.522860 
# 
# 
# High freq. dielectric constant tensor:
#      x y z
#    x 1.731860 0.000000 0.000000 
#    y 0.000000 1.689730 0.000000 
#    z 0.000000 0.000000 1.725340 
# 
# From -- ./inp_files/26183.got.cif
#   From: 2010.03.12/outbox.cif.g09.slc.cpg/sg51_14_cif.got.tgz:26183.got - 2010.04.16 13:43:02.
