data_PCOD8208783
_publ_section_title
;
Structure prediction by ZEFSAII (Michael W. Deem and Ramdas Pophale) SiO2 
 PCOD8208783
Probable space group: P M M A
;
_chemical_formula_sum "Si O2"
_cell_formula_units_Z 56
_cell_length_a 23.030168
_cell_length_b 11.623666
_cell_length_c 12.696642
_cell_angle_alpha 90.000000
_cell_angle_beta 90.000000
_cell_angle_gamma 90.000000
_cell_volume 3398.827336
_symmetry_space_group_name_H-M "P M M A"
_symmetry_group_IT_number 51
_symmetry_cell_setting 'orthorhombic'
loop_
_space_group_symop_operation_xyz
x,y,z
1/2-x,-y,z
1/2+x,-y,-z
-x,y,-z
-x,-y,-z
1/2+x,y,-z
1/2-x,y,z
x,-y,z
loop_
_atom_site_type_symbol
_atom_site_label
_atom_site_fract_x
_atom_site_fract_y
_atom_site_fract_z
Si Si1 0.818579 0.000000 0.819910
Si Si2 0.492299 0.634723 0.383660
Si Si3 0.317187 0.243345 0.496082
Si Si4 0.882616 0.365757 0.316561
Si Si5 0.318332 0.245833 0.105686
Si Si6 0.182941 0.632547 0.891982
Si Si7 0.630000 0.636252 0.696655
Si Si8 0.318713 0.000000 0.415670
O O1 0.838686 0.113477 0.882983
O O2 0.845833 0.000000 0.702288
O O3 0.750000 0.000000 0.810480
O O4 0.500000 0.690042 0.500000
O O5 0.482903 0.500000 0.397854
O O6 0.548731 0.661171 0.312643
O O7 0.434794 0.684363 0.327850
O O8 0.250000 0.248482 0.528420
O O9 0.354715 0.296029 0.588796
O O10 0.325255 0.313064 0.388088
O O11 0.338926 0.112573 0.479058
O O12 0.870311 0.500000 0.337822
O O13 0.855445 0.326157 0.206349
O O14 0.250000 0.261208 0.126657
O O15 0.352706 0.324019 0.187598
O O16 0.335259 0.288141 0.989569
O O17 0.250000 0.650145 0.861527
O O18 0.170375 0.500000 0.921073
O O19 0.633418 0.500000 0.691352
O O20 0.250000 0.000000 0.403388
#
# Coordination Sequence:
#
# PCOD8208783 Si02
#       8
#     4   8   8   8   8   8   8   4
#     4   9  16  30  49  68  94 132 166 191 237 304
#     4   9  17  31  47  68  99 134 165 197 240 291
#     4  11  20  30  48  73 100 128 161 199 243 296
#     4  10  19  33  52  72  99 135 168 197 241 298
#     4  10  19  32  50  73 100 128 161 203 249 293
#     4   9  18  32  49  72 103 132 157 195 247 293
#     4  11  20  29  47  75 101 125 159 202 250 295
#     4   9  18  32  45  67 102 134 158 192 245 294
#
# _framework density 16.476271000000001
#
# number of rings (size 3 to 8) (size 9 to 14) (size 15 to 20)
#    0.000    2.143    2.857    1.714    0.000    3.143 
#    0.000    1.429    0.000    8.571    0.000    1.000 
#    0.000    0.000    0.000    0.000    0.000    0.000 
#
# Total GULP energy -694395.074660 kJ/mol
# GULP energy per Si atom -12399.912048 kJ/mol
# Density = 1.643877 g / cm^3
# Si number density = 16.476271 Si / 1000 Ang^3
#
#
#
# Elastic Constant Matrix: (Units=GPa)
#
#
# Indices 1 2 3 4 5 6 
#
# 1 58.0528 21.1976 34.6538 0.0000 0.0000 0.0000
# 2 21.1976 81.8986 38.3430 0.0000 0.0000 0.0000
# 3 34.6538 38.3430 104.0524 0.0000 0.0000 0.0000
# 4 0.0000 0.0000 0.0000 19.0267 0.0000 0.0000
# 5 0.0000 0.0000 0.0000 0.0000 19.6807 0.0000
# 6 0.0000 0.0000 0.0000 0.0000 0.0000 8.7336
#
#
#
# Elastic Compliance Matrix: (Units=1/GPa)
#
#
# Indices 1 2 3 4 5 6 
#
# 1 0.021996 -0.002735 -0.006318 0.000000 0.000000 0.000000
# 2 -0.002735 0.015096 -0.004652 0.000000 0.000000 0.000000
# 3 -0.006318 -0.004652 0.013429 0.000000 0.000000 0.000000
# 4 0.000000 0.000000 0.000000 0.052558 0.000000 0.000000
# 5 0.000000 0.000000 0.000000 0.000000 0.050811 0.000000
# 6 0.000000 0.000000 0.000000 0.000000 0.000000 0.114501
#
#
# Mechanical properties :
#
#
# Convention : Reuss Voigt Hill
#
# Bulk Modulus (GPa) = 43.26945 48.04364 45.65655
# Shear Modulus (GPa) = 16.47429 19.47548 17.97489
#
# Velocity S-wave (km/s) = 3.16552 3.44180 3.30655
# Velocity P-wave (km/s) = 6.29916 6.70949 6.50756
#
# Compressibility (1/GPa) = 0.02311099
#
# Stress axis : x y z
#
# Youngs Moduli (GPa) = 45.46358 66.24226 74.46710
#
# Poissons Ratio (x) = 0.18120 0.47045
# Poissons Ratio (y) = 0.12436 0.34641
# Poissons Ratio (z) = 0.28722 0.30815
#
# Static dielectric constant tensor:
#      x y z
#    x 3.091910 0.000000 0.000000 
#    y 0.000000 3.139740 0.000000 
#    z 0.000000 0.000000 3.097370 
# 
# 
# High freq. dielectric constant tensor:
#      x y z
#    x 1.618630 0.000000 0.000000 
#    y 0.000000 1.620350 0.000000 
#    z 0.000000 0.000000 1.632090 
# 
# From -- ./inp_files/18800.got.cif
#   From: 2010.03.12/outbox.cif.g09.slc.cpg/sg51_10_cif.got.tgz:18800.got - 2010.04.16 13:43:02.
