data_PCOD8208698
_publ_section_title
;
Structure prediction by ZEFSAII (Michael W. Deem and Ramdas Pophale) SiO2 
 PCOD8208698
Probable space group: P M M A
;
_chemical_formula_sum "Si O2"
_cell_formula_units_Z 64
_cell_length_a 9.206865
_cell_length_b 18.917479
_cell_length_c 23.539961
_cell_angle_alpha 90.000000
_cell_angle_beta 90.000000
_cell_angle_gamma 90.000000
_cell_volume 4099.970904
_symmetry_space_group_name_H-M "P M M A"
_symmetry_group_IT_number 51
_symmetry_cell_setting 'orthorhombic'
loop_
_space_group_symop_operation_xyz
x,y,z
1/2-x,-y,z
1/2+x,-y,-z
-x,y,-z
-x,-y,-z
1/2+x,y,-z
1/2-x,y,z
x,-y,z
loop_
_atom_site_type_symbol
_atom_site_label
_atom_site_fract_x
_atom_site_fract_y
_atom_site_fract_z
Si Si1 0.579396 0.081436 0.443931
Si Si2 0.921439 0.279709 0.057825
Si Si3 0.916311 0.721859 0.723597
Si Si4 0.416814 0.578383 0.883997
Si Si5 0.580588 0.798952 0.841406
Si Si6 0.580959 0.918027 0.217243
Si Si7 0.080168 0.840866 0.668056
Si Si8 0.919916 0.577931 0.768320
O O1 0.500000 0.110383 0.500000
O O2 0.750000 0.091204 0.452394
O O3 0.520931 0.125687 0.390237
O O4 0.538870 0.000000 0.432891
O O5 0.750000 0.264546 0.053492
O O6 0.954007 0.362710 0.069119
O O7 0.989265 0.232431 0.107107
O O8 0.000000 0.257833 0.000000
O O9 0.750000 0.731890 0.706050
O O10 0.945170 0.749818 0.786946
O O11 0.963054 0.638870 0.723059
O O12 0.009643 0.764033 0.677448
O O13 0.250000 0.583798 0.865622
O O14 0.453032 0.500000 0.908560
O O15 0.507175 0.594140 0.828020
O O16 0.750000 0.804476 0.857626
O O17 0.517438 0.876712 0.828189
O O18 0.750000 0.902550 0.204978
O O19 0.539484 0.893736 0.280863
O O20 0.543504 0.000000 0.211291
O O21 0.250000 0.828908 0.664086
O O22 0.750000 0.582576 0.780540
O O23 0.964244 0.500000 0.744875
#
# Coordination Sequence:
#
# PCOD8208698 Si02
#       8
#     8   8   8   8   8   8   8   8
#     4   9  17  29  44  63  90 125 162 194 222 256
#     4  11  22  34  49  66  87 115 148 184 222 266
#     4   9  17  28  43  65  91 117 147 185 225 263
#     4   9  18  31  46  65  88 114 146 183 219 259
#     4  10  19  32  48  67  91 115 144 181 222 268
#     4   9  17  30  49  71  93 118 147 180 220 265
#     4   9  17  28  44  66  92 123 156 188 220 258
#     4   9  16  27  44  64  88 119 150 179 217 266
#
# _framework density 15.609866
#
# number of rings (size 3 to 8) (size 9 to 14) (size 15 to 20)
#    0.000    2.625    1.250    1.125    0.000    4.000 
#    0.000    0.000    0.000    2.625    0.000    0.000 
#    0.000    0.500    0.000    1.125    0.000    1.750 
#
# Total GULP energy -793457.243640 kJ/mol
# GULP energy per Si atom -12397.769432 kJ/mol
# Density = 1.557434 g / cm^3
# Si number density = 15.609866 Si / 1000 Ang^3
#
#
#
# Elastic Constant Matrix: (Units=GPa)
#
#
# Indices 1 2 3 4 5 6 
#
# 1 56.4539 43.6734 43.9554 0.0000 0.0000 0.0000
# 2 43.6734 102.3188 53.2887 0.0000 0.0000 0.0000
# 3 43.9554 53.2887 92.7770 0.0000 0.0000 0.0000
# 4 0.0000 0.0000 0.0000 23.4512 0.0000 0.0000
# 5 0.0000 0.0000 0.0000 0.0000 24.8836 0.0000
# 6 0.0000 0.0000 0.0000 0.0000 0.0000 24.0252
#
#
#
# Elastic Compliance Matrix: (Units=1/GPa)
#
#
# Indices 1 2 3 4 5 6 
#
# 1 0.032369 -0.008317 -0.010558 0.000000 0.000000 0.000000
# 2 -0.008317 0.016082 -0.005297 0.000000 0.000000 0.000000
# 3 -0.010558 -0.005297 0.018823 0.000000 0.000000 0.000000
# 4 0.000000 0.000000 0.000000 0.042642 0.000000 0.000000
# 5 0.000000 0.000000 0.000000 0.000000 0.040187 0.000000
# 6 0.000000 0.000000 0.000000 0.000000 0.000000 0.041623
#
#
# Mechanical properties :
#
#
# Convention : Reuss Voigt Hill
#
# Bulk Modulus (GPa) = 52.82771 59.26497 56.04634
# Shear Modulus (GPa) = 20.29394 21.84750 21.07072
#
# Velocity S-wave (km/s) = 3.60956 3.74518 3.67799
# Velocity P-wave (km/s) = 7.16156 7.53330 7.34978
#
# Compressibility (1/GPa) = 0.01892946
#
# Stress axis : x y z
#
# Youngs Moduli (GPa) = 30.89420 62.18140 53.12672
#
# Poissons Ratio (x) = 0.51718 0.56092
# Poissons Ratio (y) = 0.25696 0.28139
# Poissons Ratio (z) = 0.32619 0.32935
#
# Static dielectric constant tensor:
#      x y z
#    x 3.013960 0.000000 0.000000 
#    y 0.000000 3.179500 0.000000 
#    z 0.000000 0.000000 2.776150 
# 
# 
# High freq. dielectric constant tensor:
#      x y z
#    x 1.603490 0.000000 0.000000 
#    y 0.000000 1.599350 0.000000 
#    z 0.000000 0.000000 1.564340 
# 
# From -- ./inp_files/32660.got.cif
#   From: 2010.03.12/outbox.cif.g09.slc.cpg/sg51_17_cif.got.tgz:32660.got - 2010.04.16 13:43:02.
