data_PCOD8208309
_publ_section_title
;
Structure prediction by ZEFSAII (Michael W. Deem and Ramdas Pophale) SiO2 
 PCOD8208309
Probable space group: P M M A
;
_chemical_formula_sum "Si O2"
_cell_formula_units_Z 64
_cell_length_a 24.749939
_cell_length_b 9.203542
_cell_length_c 17.765962
_cell_angle_alpha 90.000000
_cell_angle_beta 90.000000
_cell_angle_gamma 90.000000
_cell_volume 4046.857017
_symmetry_space_group_name_H-M "P M M A"
_symmetry_group_IT_number 51
_symmetry_cell_setting 'orthorhombic'
loop_
_space_group_symop_operation_xyz
x,y,z
1/2-x,-y,z
1/2+x,-y,-z
-x,y,-z
-x,-y,-z
1/2+x,y,-z
1/2-x,y,z
x,-y,z
loop_
_atom_site_type_symbol
_atom_site_label
_atom_site_fract_x
_atom_site_fract_y
_atom_site_fract_z
Si Si1 0.811100 0.829555 0.213890
Si Si2 0.185846 0.663125 0.642347
Si Si3 0.313877 0.667338 0.188239
Si Si4 0.601209 0.168484 0.094168
Si Si5 0.814345 0.163347 0.664847
Si Si6 0.003724 0.335907 0.089261
Si Si7 0.890227 0.170318 0.919248
Si Si8 0.814315 0.336099 0.522975
O O1 0.750000 0.773452 0.198721
O O2 0.836442 0.762604 0.290245
O O3 0.847325 0.782459 0.143108
O O4 0.811526 0.000000 0.225450
O O5 0.250000 0.668080 0.642999
O O6 0.165022 0.500000 0.656117
O O7 0.165841 0.717652 0.559817
O O8 0.250000 0.681381 0.180302
O O9 0.332464 0.500000 0.187108
O O10 0.334658 0.739452 0.265635
O O11 0.338919 0.754087 0.118573
O O12 0.549950 0.261090 0.122273
O O13 0.586836 0.000000 0.106068
O O14 0.615537 0.200089 0.007820
O O15 0.750000 0.162501 0.662461
O O16 0.837983 0.231137 0.587536
O O17 0.836907 0.000000 0.673626
O O18 0.008603 0.500000 0.120550
O O19 0.055577 0.242712 0.114383
O O20 0.000000 0.335539 0.000000
O O21 0.891142 0.000000 0.900703
O O22 0.750000 0.334462 0.526103
O O23 0.834857 0.500000 0.537812
#
# Coordination Sequence:
#
# PCOD8208309 Si02
#       8
#     8   8   8   8   8   8   8   8
#     4   9  17  28  41  59  86 118 148 178 213 253
#     4   8  14  24  37  54  78 109 143 176 210 250
#     4  10  20  32  44  60  87 120 149 178 214 256
#     4   9  18  31  46  64  86 113 145 181 221 261
#     4   9  16  25  38  57  80 107 141 177 211 250
#     4   9  17  30  48  67  85 105 135 178 224 265
#     4  10  19  31  48  66  85 111 144 182 221 261
#     4   8  13  22  36  53  75 105 139 173 210 250
#
# _framework density 15.814742000000001
#
# number of rings (size 3 to 8) (size 9 to 14) (size 15 to 20)
#    0.000    3.000    0.000    2.250    0.000    5.750 
#    0.000    3.750    0.000    1.500    0.000    0.000 
#    0.000    1.000    0.000   10.500    0.000    8.750 
#
# Total GULP energy -793342.097883 kJ/mol
# GULP energy per Si atom -12395.970279 kJ/mol
# Density = 1.577875 g / cm^3
# Si number density = 15.814742 Si / 1000 Ang^3
#
#
#
# Elastic Constant Matrix: (Units=GPa)
#
#
# Indices 1 2 3 4 5 6 
#
# 1 43.1375 35.9517 35.7751 0.0000 0.0000 0.0000
# 2 35.9517 101.3179 55.7679 0.0000 0.0000 0.0000
# 3 35.7751 55.7679 94.1404 0.0000 0.0000 0.0000
# 4 0.0000 0.0000 0.0000 29.8541 0.0000 0.0000
# 5 0.0000 0.0000 0.0000 0.0000 2.0758 0.0000
# 6 0.0000 0.0000 0.0000 0.0000 0.0000 20.7272
#
#
#
# Elastic Compliance Matrix: (Units=1/GPa)
#
#
# Indices 1 2 3 4 5 6 
#
# 1 0.037947 -0.008202 -0.009562 0.000000 0.000000 0.000000
# 2 -0.008202 0.016418 -0.006609 0.000000 0.000000 0.000000
# 3 -0.009562 -0.006609 0.018171 0.000000 0.000000 0.000000
# 4 0.000000 0.000000 0.000000 0.033496 0.000000 0.000000
# 5 0.000000 0.000000 0.000000 0.000000 0.481733 0.000000
# 6 0.000000 0.000000 0.000000 0.000000 0.000000 0.048246
#
#
# Mechanical properties :
#
#
# Convention : Reuss Voigt Hill
#
# Bulk Modulus (GPa) = 42.03310 54.84280 48.43795
# Shear Modulus (GPa) = 7.21826 17.93817 12.57821
#
# Velocity S-wave (km/s) = 2.13873 3.37154 2.82325
# Velocity P-wave (km/s) = 5.72145 7.06470 6.42826
#
# Compressibility (1/GPa) = 0.02379077
#
# Stress axis : x y z
#
# Youngs Moduli (GPa) = 26.35228 60.90825 55.03222
#
# Poissons Ratio (x) = 0.49958 0.52621
# Poissons Ratio (y) = 0.21615 0.36371
# Poissons Ratio (z) = 0.25197 0.40254
#
# Static dielectric constant tensor:
#      x y z
#    x 2.685870 0.000000 0.000000 
#    y 0.000000 3.182240 0.000000 
#    z 0.000000 0.000000 3.153650 
# 
# 
# High freq. dielectric constant tensor:
#      x y z
#    x 1.554880 0.000000 0.000000 
#    y 0.000000 1.617620 0.000000 
#    z 0.000000 0.000000 1.602140 
# 
# From -- ./inp_files/30607.got.cif
#   From: 2010.03.12/outbox.cif.g09.slc.cpg/sg51_16_cif.got.tgz:30607.got - 2010.04.16 13:43:02.
