data_PCOD8208028
_publ_section_title
;
Structure prediction by ZEFSAII (Michael W. Deem and Ramdas Pophale) SiO2 
 PCOD8208028
Probable space group: P M M A
;
_chemical_formula_sum "Si O2"
_cell_formula_units_Z 48
_cell_length_a 8.829971
_cell_length_b 15.186723
_cell_length_c 18.813463
_cell_angle_alpha 90.000000
_cell_angle_beta 90.000000
_cell_angle_gamma 90.000000
_cell_volume 2522.853851
_symmetry_space_group_name_H-M "P M M A"
_symmetry_group_IT_number 51
_symmetry_cell_setting 'orthorhombic'
loop_
_space_group_symop_operation_xyz
x,y,z
1/2-x,-y,z
1/2+x,-y,-z
-x,y,-z
-x,-y,-z
1/2+x,y,-z
1/2-x,y,z
x,-y,z
loop_
_atom_site_type_symbol
_atom_site_label
_atom_site_fract_x
_atom_site_fract_y
_atom_site_fract_z
Si Si1 0.430336 0.738148 0.424061
Si Si2 0.929897 0.903819 0.660711
Si Si3 0.071861 0.239373 0.924983
Si Si4 0.429889 0.402902 0.311910
Si Si5 0.074473 0.102018 0.178738
Si Si6 0.072776 0.398415 0.152009
O O1 0.500000 0.718006 0.500000
O O2 0.250000 0.735555 0.429145
O O3 0.490284 0.832161 0.395302
O O4 0.493883 0.665290 0.369449
O O5 0.750000 0.905452 0.660650
O O6 0.981555 0.880932 0.740642
O O7 0.993019 0.000000 0.638025
O O8 0.250000 0.240974 0.933338
O O9 0.026235 0.163459 0.870319
O O10 0.018121 0.335900 0.900820
O O11 0.000000 0.214836 0.000000
O O12 0.250000 0.403658 0.313544
O O13 0.492192 0.500000 0.331251
O O14 0.481096 0.376645 0.232439
O O15 0.250000 0.128588 0.170072
O O16 0.050139 0.000000 0.157986
O O17 0.250000 0.378969 0.143232
O O18 0.036727 0.500000 0.133401
#
# Coordination Sequence:
#
# PCOD8208028 Si02
#       6
#     8   8   8   8   8   8
#     4  10  19  30  46  70 102 136 169 206 248 300
#     4   8  15  30  53  76  96 126 169 212 255 306
#     4  12  25  38  54  78 112 148 177 210 256 314
#     4   8  15  30  53  76  96 126 169 212 255 306
#     4   9  18  36  62  85 103 130 175 227 271 313
#     4   9  18  36  62  85 103 130 175 227 271 313
#
# _framework density 19.026071999999999
#
# number of rings (size 3 to 8) (size 9 to 14) (size 15 to 20)
#    0.000    2.667    0.000    4.500    0.000    4.667 
#    0.000    3.333    0.000    2.000    0.000    0.000 
#    0.000    0.000    0.000    0.000    0.000    0.000 
#
# Total GULP energy -595098.462659 kJ/mol
# GULP energy per Si atom -12397.884639 kJ/mol
# Density = 1.898277 g / cm^3
# Si number density = 19.026072 Si / 1000 Ang^3
#
#
#
# Elastic Constant Matrix: (Units=GPa)
#
#
# Indices 1 2 3 4 5 6 
#
# 1 56.8189 20.9949 14.7246 0.0000 0.0000 0.0000
# 2 20.9949 75.4624 18.1207 0.0000 0.0000 0.0000
# 3 14.7246 18.1207 55.9552 0.0000 0.0000 0.0000
# 4 0.0000 0.0000 0.0000 17.6762 0.0000 0.0000
# 5 0.0000 0.0000 0.0000 0.0000 28.7432 0.0000
# 6 0.0000 0.0000 0.0000 0.0000 0.0000 22.5116
#
#
#
# Elastic Compliance Matrix: (Units=1/GPa)
#
#
# Indices 1 2 3 4 5 6 
#
# 1 0.020341 -0.004743 -0.003817 0.000000 0.000000 0.000000
# 2 -0.004743 0.015475 -0.003763 0.000000 0.000000 0.000000
# 3 -0.003817 -0.003763 0.020095 0.000000 0.000000 0.000000
# 4 0.000000 0.000000 0.000000 0.056573 0.000000 0.000000
# 5 0.000000 0.000000 0.000000 0.000000 0.034791 0.000000
# 6 0.000000 0.000000 0.000000 0.000000 0.000000 0.044422
#
#
# Mechanical properties :
#
#
# Convention : Reuss Voigt Hill
#
# Bulk Modulus (GPa) = 31.98489 32.87965 32.43227
# Shear Modulus (GPa) = 22.04932 22.74594 22.39763
#
# Velocity S-wave (km/s) = 3.40796 3.46137 3.43477
# Velocity P-wave (km/s) = 5.68622 5.77007 5.72830
#
# Compressibility (1/GPa) = 0.03126476
#
# Stress axis : x y z
#
# Youngs Moduli (GPa) = 49.16082 64.62106 49.76459
#
# Poissons Ratio (x) = 0.30648 0.18995
# Poissons Ratio (y) = 0.23316 0.18728
# Poissons Ratio (z) = 0.18764 0.24319
#
# Static dielectric constant tensor:
#      x y z
#    x 3.014860 0.000000 0.000000 
#    y 0.000000 3.937800 0.000000 
#    z 0.000000 0.000000 3.514550 
# 
# 
# High freq. dielectric constant tensor:
#      x y z
#    x 1.694550 0.000000 0.000000 
#    y 0.000000 1.756350 0.000000 
#    z 0.000000 0.000000 1.739490 
# 
# From -- ./inp_files/27519.got.cif
#   From: 2010.03.12/outbox.cif.g09.slc.cpg/sg51_14_cif.got.tgz:27519.got - 2010.04.16 13:43:02.
