data_PCOD8208144
_publ_section_title
;
Structure prediction by ZEFSAII (Michael W. Deem and Ramdas Pophale) SiO2 
 PCOD8208144
Probable space group: P M M A
;
_chemical_formula_sum "Si O2"
_cell_formula_units_Z 64
_cell_length_a 24.095052
_cell_length_b 9.011887
_cell_length_c 16.760034
_cell_angle_alpha 90.000000
_cell_angle_beta 90.000000
_cell_angle_gamma 90.000000
_cell_volume 3639.305390
_symmetry_space_group_name_H-M "P M M A"
_symmetry_group_IT_number 51
_symmetry_cell_setting 'orthorhombic'
loop_
_space_group_symop_operation_xyz
x,y,z
1/2-x,-y,z
1/2+x,-y,-z
-x,y,-z
-x,-y,-z
1/2+x,y,-z
1/2-x,y,z
x,-y,z
loop_
_atom_site_type_symbol
_atom_site_label
_atom_site_fract_x
_atom_site_fract_y
_atom_site_fract_z
Si Si1 0.910527 0.824462 0.640065
Si Si2 0.687366 0.329241 0.371590
Si Si3 0.597763 0.824978 0.463291
Si Si4 0.880296 0.327394 0.213922
Si Si5 0.813592 0.824878 0.753535
Si Si6 0.970588 0.824857 0.310804
Si Si7 0.185864 0.175592 0.925900
Si Si8 0.184367 0.666114 0.086312
O O1 0.915687 0.757687 0.550632
O O2 0.854167 0.768820 0.682840
O O3 0.964781 0.778008 0.690940
O O4 0.909024 0.000000 0.632914
O O5 0.750000 0.274690 0.367680
O O6 0.681693 0.500000 0.395936
O O7 0.658245 0.232040 0.439004
O O8 0.662040 0.299149 0.285318
O O9 0.553090 0.773010 0.397216
O O10 0.598988 0.000000 0.467835
O O11 0.887431 0.500000 0.193245
O O12 0.939980 0.260079 0.238722
O O13 0.855322 0.242999 0.138820
O O14 0.750000 0.780108 0.732484
O O15 0.835767 0.746942 0.833543
O O16 0.818313 0.000000 0.767037
O O17 0.961667 0.000000 0.298849
O O18 0.250000 0.221330 0.908619
O O19 0.179455 0.000000 0.927359
O O20 0.164874 0.239551 0.010226
O O21 0.250000 0.658691 0.087341
O O22 0.159177 0.500000 0.082205
#
# Coordination Sequence:
#
# PCOD8208144 Si02
#       8
#     8   8   8   8   8   8   8   8
#     4   9  17  30  50  72  93 122 159 199 243 287
#     4   9  18  31  44  61  92 131 161 188 232 286
#     4   9  17  29  47  70  92 119 160 206 243 278
#     4  10  19  31  47  68  96 129 163 198 237 279
#     4   9  17  30  48  70  96 124 155 192 235 285
#     4   9  17  31  49  68  93 125 162 202 242 283
#     4  10  19  30  48  75 102 127 158 193 229 275
#     4   9  17  30  48  70  97 127 156 188 231 280
#
# _framework density 17.585774000000001
#
# number of rings (size 3 to 8) (size 9 to 14) (size 15 to 20)
#    0.000    2.750    0.000    1.875    0.000    5.500 
#    0.000    3.125    0.000    5.250    0.000    5.250 
#    0.000    0.000    0.000    0.000    0.000    0.000 
#
# Total GULP energy -793428.984289 kJ/mol
# GULP energy per Si atom -12397.327880 kJ/mol
# Density = 1.754575 g / cm^3
# Si number density = 17.585774 Si / 1000 Ang^3
#
#
#
# Elastic Constant Matrix: (Units=GPa)
#
#
# Indices 1 2 3 4 5 6 
#
# 1 98.0612 23.0656 45.4042 0.0000 0.0000 0.0000
# 2 23.0656 48.2377 37.0388 0.0000 0.0000 0.0000
# 3 45.4042 37.0388 98.4214 0.0000 0.0000 0.0000
# 4 0.0000 0.0000 0.0000 19.5395 0.0000 0.0000
# 5 0.0000 0.0000 0.0000 0.0000 17.7204 0.0000
# 6 0.0000 0.0000 0.0000 0.0000 0.0000 15.1608
#
#
#
# Elastic Compliance Matrix: (Units=1/GPa)
#
#
# Indices 1 2 3 4 5 6 
#
# 1 0.013145 -0.002291 -0.005202 0.000000 0.000000 0.000000
# 2 -0.002291 0.029555 -0.010065 0.000000 0.000000 0.000000
# 3 -0.005202 -0.010065 0.016348 0.000000 0.000000 0.000000
# 4 0.000000 0.000000 0.000000 0.051178 0.000000 0.000000
# 5 0.000000 0.000000 0.000000 0.000000 0.056432 0.000000
# 6 0.000000 0.000000 0.000000 0.000000 0.000000 0.065959
#
#
# Mechanical properties :
#
#
# Convention : Reuss Voigt Hill
#
# Bulk Modulus (GPa) = 41.78679 50.63749 46.21214
# Shear Modulus (GPa) = 18.13485 19.76492 18.94988
#
# Velocity S-wave (km/s) = 3.21475 3.35612 3.28620
# Velocity P-wave (km/s) = 6.13129 6.62383 6.38232
#
# Compressibility (1/GPa) = 0.02393101
#
# Stress axis : x y z
#
# Youngs Moduli (GPa) = 76.07300 33.83540 61.16942
#
# Poissons Ratio (x) = 0.07753 0.31820
# Poissons Ratio (y) = 0.17431 0.61569
# Poissons Ratio (z) = 0.39573 0.34056
#
# Static dielectric constant tensor:
#      x y z
#    x 3.296820 0.000000 0.000000 
#    y 0.000000 3.198990 0.000000 
#    z 0.000000 0.000000 3.378150 
# 
# 
# High freq. dielectric constant tensor:
#      x y z
#    x 1.662660 0.000000 0.000000 
#    y 0.000000 1.668260 0.000000 
#    z 0.000000 0.000000 1.676090 
# 
# From -- ./inp_files/26184.got.cif
#   From: 2010.03.12/outbox.cif.g09.slc.cpg/sg51_14_cif.got.tgz:26184.got - 2010.04.16 13:43:02.
