data_PCOD8208612
_publ_section_title
;
Structure prediction by ZEFSAII (Michael W. Deem and Ramdas Pophale) SiO2 
 PCOD8208612
Probable space group: P M M A
;
_chemical_formula_sum "Si O2"
_cell_formula_units_Z 52
_cell_length_a 9.075252
_cell_length_b 15.963208
_cell_length_c 19.201309
_cell_angle_alpha 90.000000
_cell_angle_beta 90.000000
_cell_angle_gamma 90.000000
_cell_volume 2781.696233
_symmetry_space_group_name_H-M "P M M A"
_symmetry_group_IT_number 51
_symmetry_cell_setting 'orthorhombic'
loop_
_space_group_symop_operation_xyz
x,y,z
1/2-x,-y,z
1/2+x,-y,-z
-x,y,-z
-x,-y,-z
1/2+x,y,-z
1/2-x,y,z
x,-y,z
loop_
_atom_site_type_symbol
_atom_site_label
_atom_site_fract_x
_atom_site_fract_y
_atom_site_fract_z
Si Si1 0.083880 0.161358 0.810403
Si Si2 0.083533 0.000000 0.190822
Si Si3 0.576779 0.672771 0.814448
Si Si4 0.077263 0.333191 0.346013
Si Si5 0.417001 0.000000 0.357063
Si Si6 0.912487 0.403259 0.064734
Si Si7 0.416360 0.165328 0.644817
Si Si8 0.075899 0.500000 0.426153
O O1 0.250000 0.164596 0.839432
O O2 0.084362 0.160112 0.727443
O O3 0.991202 0.239221 0.838451
O O4 0.002269 0.079698 0.839318
O O5 0.250000 0.000000 0.162583
O O6 0.082946 0.000000 0.274048
O O7 0.750000 0.674054 0.826446
O O8 0.536517 0.652618 0.734683
O O9 0.503166 0.603726 0.863497
O O10 0.250000 0.316471 0.354943
O O11 0.024579 0.416826 0.385311
O O12 0.995007 0.252051 0.378010
O O13 0.498470 0.916157 0.385276
O O14 0.250000 0.000000 0.385587
O O15 0.750000 0.361558 0.071640
O O16 0.892017 0.500000 0.048100
O O17 0.000000 0.360751 0.000000
O O18 0.250000 0.165054 0.615244
O O19 0.250000 0.500000 0.435654
O O20 0.000000 0.500000 0.500000
#
# Coordination Sequence:
#
# PCOD8208612 Si02
#       8
#     8   4   8   8   4   8   8   4
#     4   9  16  26  40  62  95 130 164 204 251 299
#     4   9  15  23  37  59  90 127 168 205 246 297
#     4  10  19  31  51  75 101 132 168 209 255 303
#     4   9  19  34  52  74 103 136 173 215 262 311
#     4   9  15  23  39  63  96 135 168 199 248 307
#     4  10  21  36  52  72  99 131 167 207 251 303
#     4   9  16  26  42  67  99 131 167 209 254 301
#     4  10  22  40  58  78 103 136 177 218 259 308
#
# _framework density 18.693629000000001
#
# number of rings (size 3 to 8) (size 9 to 14) (size 15 to 20)
#    0.000    2.615    0.000    2.308    1.077    7.692 
#    0.000    0.000    0.000    0.000    0.000    1.077 
#    0.000    0.000    0.000    0.000    0.000    0.000 
#
# Total GULP energy -644699.643153 kJ/mol
# GULP energy per Si atom -12398.070061 kJ/mol
# Density = 1.865108 g / cm^3
# Si number density = 18.693629 Si / 1000 Ang^3
#
#
#
# Elastic Constant Matrix: (Units=GPa)
#
#
# Indices 1 2 3 4 5 6 
#
# 1 137.9281 63.8210 40.2320 0.0000 0.0000 0.0000
# 2 63.8210 128.3707 38.8486 0.0000 0.0000 0.0000
# 3 40.2320 38.8486 55.2577 0.0000 0.0000 0.0000
# 4 0.0000 0.0000 0.0000 2.9251 0.0000 0.0000
# 5 0.0000 0.0000 0.0000 0.0000 20.3676 0.0000
# 6 0.0000 0.0000 0.0000 0.0000 0.0000 35.1070
#
#
#
# Elastic Compliance Matrix: (Units=1/GPa)
#
#
# Indices 1 2 3 4 5 6 
#
# 1 0.010401 -0.003658 -0.005002 0.000000 0.000000 0.000000
# 2 -0.003658 0.011181 -0.005198 0.000000 0.000000 0.000000
# 3 -0.005002 -0.005198 0.025393 0.000000 0.000000 0.000000
# 4 0.000000 0.000000 0.000000 0.341868 0.000000 0.000000
# 5 0.000000 0.000000 0.000000 0.000000 0.049098 0.000000
# 6 0.000000 0.000000 0.000000 0.000000 0.000000 0.028484
#
#
# Mechanical properties :
#
#
# Convention : Reuss Voigt Hill
#
# Bulk Modulus (GPa) = 51.91722 67.48440 59.70081
# Shear Modulus (GPa) = 9.98880 23.59028 16.78954
#
# Velocity S-wave (km/s) = 2.31409 3.55624 3.00015
# Velocity P-wave (km/s) = 5.91380 7.28293 6.63378
#
# Compressibility (1/GPa) = 0.01926143
#
# Stress axis : x y z
#
# Youngs Moduli (GPa) = 96.14015 89.43417 39.38087
#
# Poissons Ratio (x) = 0.32711 0.19697
# Poissons Ratio (y) = 0.35164 0.20470
# Poissons Ratio (z) = 0.48086 0.46488
#
# Static dielectric constant tensor:
#      x y z
#    x 3.686470 0.000000 0.000000 
#    y 0.000000 3.551000 0.000000 
#    z 0.000000 0.000000 2.892150 
# 
# 
# High freq. dielectric constant tensor:
#      x y z
#    x 1.741460 0.000000 0.000000 
#    y 0.000000 1.729700 0.000000 
#    z 0.000000 0.000000 1.666870 
# 
# From -- ./inp_files/31857.got.cif
#   From: 2010.03.12/outbox.cif.g09.slc.cpg/sg51_16_cif.got.tgz:31857.got - 2010.04.16 13:43:02.
