data_PCOD8208105
_publ_section_title
;
Structure prediction by ZEFSAII (Michael W. Deem and Ramdas Pophale) SiO2 
 PCOD8208105
Probable space group: P M M A
;
_chemical_formula_sum "Si O2"
_cell_formula_units_Z 56
_cell_length_a 8.992364
_cell_length_b 18.856116
_cell_length_c 18.426019
_cell_angle_alpha 90.000000
_cell_angle_beta 90.000000
_cell_angle_gamma 90.000000
_cell_volume 3124.335289
_symmetry_space_group_name_H-M "P M M A"
_symmetry_group_IT_number 51
_symmetry_cell_setting 'orthorhombic'
loop_
_space_group_symop_operation_xyz
x,y,z
1/2-x,-y,z
1/2+x,-y,-z
-x,y,-z
-x,-y,-z
1/2+x,y,-z
1/2-x,y,z
x,-y,z
loop_
_atom_site_type_symbol
_atom_site_label
_atom_site_fract_x
_atom_site_fract_y
_atom_site_fract_z
Si Si1 0.922533 0.791502 0.785201
Si Si2 0.575691 0.710939 0.343221
Si Si3 0.577069 0.295039 0.927368
Si Si4 0.078087 0.580622 0.848706
Si Si5 0.922934 0.420540 0.694774
Si Si6 0.577852 0.151774 0.426411
Si Si7 0.075444 0.081359 0.721129
O O1 0.750000 0.789976 0.763072
O O2 0.947614 0.764988 0.866769
O O3 0.013220 0.740017 0.732522
O O4 0.985598 0.871454 0.779050
O O5 0.750000 0.698812 0.334585
O O6 0.495685 0.635926 0.361050
O O7 0.540249 0.766325 0.407483
O O8 0.750000 0.309543 0.941179
O O9 0.501216 0.369365 0.906674
O O10 0.500000 0.265742 0.000000
O O11 0.250000 0.602032 0.840318
O O12 0.060916 0.500000 0.876292
O O13 0.000127 0.590190 0.771659
O O14 0.750000 0.403915 0.704610
O O15 0.949217 0.500000 0.664492
O O16 0.500000 0.127878 0.500000
O O17 0.750000 0.140601 0.439812
O O18 0.523866 0.102007 0.360306
O O19 0.250000 0.097469 0.729805
O O20 0.036483 0.000000 0.736386
#
# Coordination Sequence:
#
# PCOD8208105 Si02
#       7
#     8   8   8   8   8   8   8
#     4  10  20  34  53  78 104 131 170 216 258 303
#     4  10  19  32  52  74 100 136 176 215 257 307
#     4  11  23  36  52  74 102 137 176 219 266 314
#     4  10  20  33  50  72 100 136 175 215 263 316
#     4  10  19  30  47  73 102 131 169 219 268 310
#     4   9  19  33  50  77 109 141 173 206 247 299
#     4   9  19  36  57  81 109 140 171 204 248 303
#
# _framework density 17.923812999999999
#
# number of rings (size 3 to 8) (size 9 to 14) (size 15 to 20)
#    0.000    2.143    1.429    3.000    0.000    7.143 
#    0.000    0.000    0.000    0.857    0.000    0.000 
#    0.000    0.000    0.000    0.000    0.000    0.000 
#
# Total GULP energy -694437.242753 kJ/mol
# GULP energy per Si atom -12400.665049 kJ/mol
# Density = 1.788302 g / cm^3
# Si number density = 17.923813 Si / 1000 Ang^3
#
#
#
# Elastic Constant Matrix: (Units=GPa)
#
#
# Indices 1 2 3 4 5 6 
#
# 1 99.3079 50.2166 31.0553 0.0000 0.0000 0.0000
# 2 50.2166 110.7997 26.9786 0.0000 0.0000 0.0000
# 3 31.0553 26.9786 52.4621 0.0000 0.0000 0.0000
# 4 0.0000 0.0000 0.0000 16.8568 0.0000 0.0000
# 5 0.0000 0.0000 0.0000 0.0000 28.9040 0.0000
# 6 0.0000 0.0000 0.0000 0.0000 0.0000 27.5145
#
#
#
# Elastic Compliance Matrix: (Units=1/GPa)
#
#
# Indices 1 2 3 4 5 6 
#
# 1 0.014530 -0.005134 -0.005961 0.000000 0.000000 0.000000
# 2 -0.005134 0.012131 -0.003199 0.000000 0.000000 0.000000
# 3 -0.005961 -0.003199 0.024235 0.000000 0.000000 0.000000
# 4 0.000000 0.000000 0.000000 0.059323 0.000000 0.000000
# 5 0.000000 0.000000 0.000000 0.000000 0.034597 0.000000
# 6 0.000000 0.000000 0.000000 0.000000 0.000000 0.036345
#
#
# Mechanical properties :
#
#
# Convention : Reuss Voigt Hill
#
# Bulk Modulus (GPa) = 44.82726 53.23006 49.02866
# Shear Modulus (GPa) = 23.02182 24.94300 23.98241
#
# Velocity S-wave (km/s) = 3.58778 3.73448 3.66186
# Velocity P-wave (km/s) = 6.49823 6.95396 6.72995
#
# Compressibility (1/GPa) = 0.02230785
#
# Stress axis : x y z
#
# Youngs Moduli (GPa) = 68.82429 82.43322 41.26206
#
# Poissons Ratio (x) = 0.42319 0.24596
# Poissons Ratio (y) = 0.35333 0.13201
# Poissons Ratio (z) = 0.41026 0.26374
#
# Static dielectric constant tensor:
#      x y z
#    x 3.448080 0.000000 0.000000 
#    y 0.000000 3.524870 0.000000 
#    z 0.000000 0.000000 3.058130 
# 
# 
# High freq. dielectric constant tensor:
#      x y z
#    x 1.707300 0.000000 0.000000 
#    y 0.000000 1.695100 0.000000 
#    z 0.000000 0.000000 1.660150 
# 
# From -- ./inp_files/28234.got.cif
#   From: 2010.03.12/outbox.cif.g09.slc.cpg/sg51_15_cif.got.tgz:28234.got - 2010.04.16 13:43:02.
