data_PCOD8208817
_publ_section_title
;
Structure prediction by ZEFSAII (Michael W. Deem and Ramdas Pophale) SiO2 
 PCOD8208817
Probable space group: P M M A
;
_chemical_formula_sum "Si O2"
_cell_formula_units_Z 64
_cell_length_a 18.699211
_cell_length_b 9.473973
_cell_length_c 21.659836
_cell_angle_alpha 90.000000
_cell_angle_beta 90.000000
_cell_angle_gamma 90.000000
_cell_volume 3837.166011
_symmetry_space_group_name_H-M "P M M A"
_symmetry_group_IT_number 51
_symmetry_cell_setting 'orthorhombic'
loop_
_space_group_symop_operation_xyz
x,y,z
1/2-x,-y,z
1/2+x,-y,-z
-x,y,-z
-x,-y,-z
1/2+x,y,-z
1/2-x,y,z
x,-y,z
loop_
_atom_site_type_symbol
_atom_site_label
_atom_site_fract_x
_atom_site_fract_y
_atom_site_fract_z
Si Si1 0.167903 0.161230 0.494155
Si Si2 0.329167 0.163205 0.126459
Si Si3 0.547223 0.665336 0.560210
Si Si4 0.962930 0.341744 0.094878
Si Si5 0.388272 0.341848 0.024288
Si Si6 0.529473 0.835063 0.805394
Si Si7 0.173032 0.834021 0.633073
Si Si8 0.021387 0.834015 0.671318
O O1 0.250000 0.169127 0.473322
O O2 0.124193 0.262988 0.448896
O O3 0.158233 0.220650 0.563676
O O4 0.139664 0.000000 0.488552
O O5 0.250000 0.192537 0.154650
O O6 0.333996 0.240720 0.060357
O O7 0.390178 0.213581 0.174894
O O8 0.340253 0.000000 0.111769
O O9 0.500000 0.694220 0.500000
O O10 0.556662 0.500000 0.573643
O O11 0.511461 0.738903 0.618456
O O12 0.946405 0.500000 0.118208
O O13 0.037013 0.338697 0.059139
O O14 0.968195 0.239552 0.153697
O O15 0.900936 0.291984 0.046825
O O16 0.356682 0.500000 0.024638
O O17 0.517724 0.792473 0.734619
O O18 0.518435 0.000000 0.815317
O O19 0.250000 0.772294 0.657495
O O20 0.106157 0.794749 0.676856
O O21 0.181558 0.000000 0.627894
O O22 0.011604 0.000000 0.655856
#
# Coordination Sequence:
#
# PCOD8208817 Si02
#       8
#     8   8   8   8   8   8   8   8
#     4   9  17  31  52  74  93 119 156 195 241 296
#     4   9  17  29  44  64  94 127 158 198 243 279
#     4  11  22  33  47  71 101 129 157 197 252 301
#     4   8  14  26  44  65  90 117 143 183 234 275
#     4   8  14  25  43  67  89 112 149 188 225 273
#     4   9  18  30  45  68  92 122 165 203 239 284
#     4   8  14  26  47  72  91 110 144 192 242 289
#     4  10  19  32  51  71  94 126 166 207 242 288
#
# _framework density 16.678975999999999
#
# number of rings (size 3 to 8) (size 9 to 14) (size 15 to 20)
#    0.000    3.000    1.250    1.875    0.000    2.000 
#    0.000    3.125    0.000    3.375    0.000    1.750 
#    0.000    0.000    0.000    0.000    0.000    0.000 
#
# Total GULP energy -793071.087119 kJ/mol
# GULP energy per Si atom -12391.735736 kJ/mol
# Density = 1.664101 g / cm^3
# Si number density = 16.678976 Si / 1000 Ang^3
#
#
#
# Elastic Constant Matrix: (Units=GPa)
#
#
# Indices 1 2 3 4 5 6 
#
# 1 95.1611 38.2725 53.7855 0.0000 0.0000 0.0000
# 2 38.2725 61.8524 52.8061 0.0000 0.0000 0.0000
# 3 53.7855 52.8061 105.9230 0.0000 0.0000 0.0000
# 4 0.0000 0.0000 0.0000 21.8420 0.0000 0.0000
# 5 0.0000 0.0000 0.0000 0.0000 20.3221 0.0000
# 6 0.0000 0.0000 0.0000 0.0000 0.0000 13.8974
#
#
#
# Elastic Compliance Matrix: (Units=1/GPa)
#
#
# Indices 1 2 3 4 5 6 
#
# 1 0.015587 -0.005028 -0.005409 0.000000 0.000000 0.000000
# 2 -0.005028 0.029769 -0.012288 0.000000 0.000000 0.000000
# 3 -0.005409 -0.012288 0.018313 0.000000 0.000000 0.000000
# 4 0.000000 0.000000 0.000000 0.045783 0.000000 0.000000
# 5 0.000000 0.000000 0.000000 0.000000 0.049208 0.000000
# 6 0.000000 0.000000 0.000000 0.000000 0.000000 0.071956
#
#
# Mechanical properties :
#
#
# Convention : Reuss Voigt Hill
#
# Bulk Modulus (GPa) = 54.88013 61.40718 58.14366
# Shear Modulus (GPa) = 17.72177 19.08380 18.40278
#
# Velocity S-wave (km/s) = 3.26317 3.38625 3.32528
# Velocity P-wave (km/s) = 6.86825 7.22398 7.04836
#
# Compressibility (1/GPa) = 0.01822153
#
# Stress axis : x y z
#
# Youngs Moduli (GPa) = 64.15411 33.59168 54.60535
#
# Poissons Ratio (x) = 0.16888 0.29534
# Poissons Ratio (y) = 0.32253 0.67100
# Poissons Ratio (z) = 0.34699 0.41278
#
# Static dielectric constant tensor:
#      x y z
#    x 3.295860 0.000000 0.000000 
#    y 0.000000 3.072700 0.000000 
#    z 0.000000 0.000000 3.123670 
# 
# 
# High freq. dielectric constant tensor:
#      x y z
#    x 1.634020 0.000000 0.000000 
#    y 0.000000 1.628140 0.000000 
#    z 0.000000 0.000000 1.619500 
# 
# From -- ./inp_files/34108.got.cif
#   From: 2010.03.12/outbox.cif.g09.slc.cpg/sg51_18_cif.got.tgz:34108.got - 2010.04.16 13:43:02.
