data_PCOD8208644
_publ_section_title
;
Structure prediction by ZEFSAII (Michael W. Deem and Ramdas Pophale) SiO2 
 PCOD8208644
Probable space group: P M M A
;
_chemical_formula_sum "Si O2"
_cell_formula_units_Z 64
_cell_length_a 33.600108
_cell_length_b 8.742734
_cell_length_c 11.344843
_cell_angle_alpha 90.000000
_cell_angle_beta 90.000000
_cell_angle_gamma 90.000000
_cell_volume 3332.624851
_symmetry_space_group_name_H-M "P M M A"
_symmetry_group_IT_number 51
_symmetry_cell_setting 'orthorhombic'
loop_
_space_group_symop_operation_xyz
x,y,z
1/2-x,-y,z
1/2+x,-y,-z
-x,y,-z
-x,-y,-z
1/2+x,y,-z
1/2-x,y,z
x,-y,z
loop_
_atom_site_type_symbol
_atom_site_label
_atom_site_fract_x
_atom_site_fract_y
_atom_site_fract_z
Si Si1 0.016024 0.679233 0.719344
Si Si2 0.066989 0.322812 0.947846
Si Si3 0.917380 0.823211 0.424561
Si Si4 0.795084 0.674870 0.289653
Si Si5 0.376569 0.680667 0.352934
Si Si6 0.867367 0.174877 0.191725
Si Si7 0.938390 0.179702 0.804738
Si Si8 0.706595 0.318277 0.555365
O O1 0.016389 0.500000 0.693137
O O2 0.035998 0.717538 0.845007
O O3 0.039207 0.764108 0.614279
O O4 0.971229 0.741453 0.721234
O O5 0.065714 0.500000 0.982491
O O6 0.111212 0.277461 0.906787
O O7 0.054394 0.225476 0.060601
O O8 0.901944 0.723526 0.532551
O O9 0.887047 0.796786 0.318145
O O10 0.920154 0.000000 0.462227
O O11 0.750000 0.687899 0.244492
O O12 0.809982 0.500000 0.286371
O O13 0.821609 0.774458 0.200719
O O14 0.798886 0.742028 0.421971
O O15 0.378097 0.500000 0.334270
O O16 0.395106 0.762909 0.238673
O O17 0.330606 0.738854 0.365868
O O18 0.870526 0.000000 0.151316
O O19 0.941937 0.000000 0.790668
O O20 0.750000 0.261359 0.604470
O O21 0.706839 0.500000 0.549939
#
# Coordination Sequence:
#
# PCOD8208644 Si02
#       8
#     8   8   8   8   8   8   8   8
#     4  10  21  38  60  83 106 136 180 227 270 320
#     4  10  21  38  60  81 103 135 181 229 269 317
#     4  10  20  34  52  79 113 145 177 216 272 326
#     4   9  16  28  49  78 110 142 178 218 263 319
#     4  11  21  35  57  80 110 147 185 224 265 319
#     4  10  19  31  51  79 112 143 173 216 272 327
#     4  12  25  39  55  78 110 143 180 224 273 322
#     4   8  15  29  52  81 109 139 178 222 263 306
#
# _framework density 19.204082
#
# number of rings (size 3 to 8) (size 9 to 14) (size 15 to 20)
#    0.000    2.000    1.250    4.125    0.000    4.750 
#    0.000    2.500    0.000    2.250    0.000    1.750 
#    0.000    0.000    0.000    0.000    0.000    0.000 
#
# Total GULP energy -793689.054828 kJ/mol
# GULP energy per Si atom -12401.391482 kJ/mol
# Density = 1.916037 g / cm^3
# Si number density = 19.204082 Si / 1000 Ang^3
#
#
#
# Elastic Constant Matrix: (Units=GPa)
#
#
# Indices 1 2 3 4 5 6 
#
# 1 113.0165 22.3000 15.5050 0.0000 0.0000 0.0000
# 2 22.3000 54.1766 15.0520 0.0000 0.0000 0.0000
# 3 15.5050 15.0520 31.6386 0.0000 0.0000 0.0000
# 4 0.0000 0.0000 0.0000 25.8275 0.0000 0.0000
# 5 0.0000 0.0000 0.0000 0.0000 22.3317 0.0000
# 6 0.0000 0.0000 0.0000 0.0000 0.0000 22.7921
#
#
#
# Elastic Compliance Matrix: (Units=1/GPa)
#
#
# Indices 1 2 3 4 5 6 
#
# 1 0.009932 -0.003153 -0.003368 0.000000 0.000000 0.000000
# 2 -0.003153 0.022270 -0.009050 0.000000 0.000000 0.000000
# 3 -0.003368 -0.009050 0.037563 0.000000 0.000000 0.000000
# 4 0.000000 0.000000 0.000000 0.038718 0.000000 0.000000
# 5 0.000000 0.000000 0.000000 0.000000 0.044779 0.000000
# 6 0.000000 0.000000 0.000000 0.000000 0.000000 0.043875
#
#
# Mechanical properties :
#
#
# Convention : Reuss Voigt Hill
#
# Bulk Modulus (GPa) = 25.89010 33.83842 29.86426
# Shear Modulus (GPa) = 20.73367 23.92190 22.32778
#
# Velocity S-wave (km/s) = 3.28937 3.53323 3.41348
# Velocity P-wave (km/s) = 5.28558 5.85693 5.57858
#
# Compressibility (1/GPa) = 0.03862481
#
# Stress axis : x y z
#
# Youngs Moduli (GPa) = 100.68100 44.90301 26.62204
#
# Poissons Ratio (x) = 0.14157 0.08965
# Poissons Ratio (y) = 0.31742 0.24093
# Poissons Ratio (z) = 0.33906 0.40637
#
# Static dielectric constant tensor:
#      x y z
#    x 3.803930 0.000000 0.000000 
#    y 0.000000 3.378200 0.000000 
#    z 0.000000 0.000000 3.265300 
# 
# 
# High freq. dielectric constant tensor:
#      x y z
#    x 1.754300 0.000000 0.000000 
#    y 0.000000 1.742250 0.000000 
#    z 0.000000 0.000000 1.716110 
# 
# From -- ./inp_files/19594.got.cif
#   From: 2010.03.12/outbox.cif.g09.slc.cpg/sg51_10_cif.got.tgz:19594.got - 2010.04.16 13:43:02.
