data_PCOD8208727
_publ_section_title
;
Structure prediction by ZEFSAII (Michael W. Deem and Ramdas Pophale) SiO2 
 PCOD8208727
Probable space group: P M M A
;
_chemical_formula_sum "Si O2"
_cell_formula_units_Z 52
_cell_length_a 8.872312
_cell_length_b 22.795703
_cell_length_c 14.973585
_cell_angle_alpha 90.000000
_cell_angle_beta 90.000000
_cell_angle_gamma 90.000000
_cell_volume 3028.416390
_symmetry_space_group_name_H-M "P M M A"
_symmetry_group_IT_number 51
_symmetry_cell_setting 'orthorhombic'
loop_
_space_group_symop_operation_xyz
x,y,z
1/2-x,-y,z
1/2+x,-y,-z
-x,y,-z
-x,-y,-z
1/2+x,y,-z
1/2-x,y,z
x,-y,z
loop_
_atom_site_type_symbol
_atom_site_label
_atom_site_fract_x
_atom_site_fract_y
_atom_site_fract_z
Si Si1 0.917963 0.094585 0.087165
Si Si2 0.072598 0.767636 0.270477
Si Si3 0.925933 0.902878 0.733237
Si Si4 0.420379 0.765917 0.911604
Si Si5 0.572691 0.000000 0.596203
Si Si6 0.926364 0.563664 0.596424
Si Si7 0.570924 0.321816 0.402137
O O1 0.750000 0.069517 0.087246
O O2 0.919426 0.164437 0.083070
O O3 0.997176 0.072739 0.177244
O O4 0.000000 0.068563 0.000000
O O5 0.250000 0.755899 0.278321
O O6 0.031080 0.835640 0.285981
O O7 0.015928 0.745480 0.174070
O O8 0.982576 0.733569 0.346075
O O9 0.750000 0.909899 0.749889
O O10 0.980145 0.942022 0.649795
O O11 0.250000 0.741449 0.904891
O O12 0.500000 0.739770 0.000000
O O13 0.500000 0.000000 0.500000
O O14 0.750000 0.000000 0.583054
O O15 0.750000 0.578175 0.587349
O O16 0.949751 0.500000 0.644967
O O17 0.000000 0.559113 0.500000
O O18 0.009733 0.618034 0.645614
O O19 0.500000 0.316267 0.500000
O O20 0.750000 0.322810 0.408022
#
# Coordination Sequence:
#
# PCOD8208727 Si02
#       7
#     8   8   8   8   4   8   8
#     4   9  16  27  47  73  99 123 148 179 221 277
#     4  10  19  32  49  70  96 125 156 194 240 286
#     4   9  19  35  53  71  93 120 152 193 239 285
#     4   9  16  27  44  68  95 124 155 188 229 278
#     4  10  22  40  57  72  89 114 153 200 244 286
#     4   9  16  27  44  65  90 122 159 196 233 275
#     4  11  21  32  46  66  95 129 163 199 237 280
#
# _framework density 17.170691000000001
#
# number of rings (size 3 to 8) (size 9 to 14) (size 15 to 20)
#    0.000    2.462    0.000    4.154    0.000    6.462 
#    0.000    1.923    0.000    0.000    0.000    0.000 
#    0.000    0.615    0.000    2.308    0.000    3.846 
#
# Total GULP energy -644579.634743 kJ/mol
# GULP energy per Si atom -12395.762207 kJ/mol
# Density = 1.713161 g / cm^3
# Si number density = 17.170691 Si / 1000 Ang^3
#
#
#
# Elastic Constant Matrix: (Units=GPa)
#
#
# Indices 1 2 3 4 5 6 
#
# 1 121.0031 49.6296 59.0405 0.0000 0.0000 0.0000
# 2 49.6296 81.5153 54.7101 0.0000 0.0000 0.0000
# 3 59.0405 54.7101 122.9209 0.0000 0.0000 0.0000
# 4 0.0000 0.0000 0.0000 -0.5740 0.0000 0.0000
# 5 0.0000 0.0000 0.0000 0.0000 33.7496 0.0000
# 6 0.0000 0.0000 0.0000 0.0000 0.0000 17.1277
#
#
#
# Elastic Compliance Matrix: (Units=1/GPa)
#
#
# Indices 1 2 3 4 5 6 
#
# 1 0.012033 -0.004915 -0.003592 0.000000 0.000000 0.000000
# 2 -0.004915 0.019501 -0.006319 0.000000 0.000000 0.000000
# 3 -0.003592 -0.006319 0.012673 0.000000 0.000000 0.000000
# 4 0.000000 0.000000 0.000000 -1.742218 0.000000 0.000000
# 5 0.000000 0.000000 0.000000 0.000000 0.029630 0.000000
# 6 0.000000 0.000000 0.000000 0.000000 0.000000 0.058385
#
#
# Mechanical properties :
#
#
# Convention : Reuss Voigt Hill
#
# Bulk Modulus (GPa) = 68.70443 72.46665 70.58554
# Shear Modulus (GPa) = -3.17361 20.86459 8.84549
#
# Velocity S-wave (km/s) = -1.36099 3.48965 2.27215
# Velocity P-wave (km/s) = 6.13431 7.65063 6.93405
#
# Compressibility (1/GPa) = 0.01455510
#
# Stress axis : x y z
#
# Youngs Moduli (GPa) = 83.10605 51.27884 78.90875
#
# Poissons Ratio (x) = 0.25205 0.28342
# Poissons Ratio (y) = 0.40850 0.49861
# Poissons Ratio (z) = 0.29850 0.32402
#
# Static dielectric constant tensor:
#      x y z
#    x 3.649110 0.000000 0.000000 
#    y 0.000000 3.487550 0.000000 
#    z 0.000000 0.000000 3.117480 
# 
# 
# High freq. dielectric constant tensor:
#      x y z
#    x 1.679120 0.000000 0.000000 
#    y 0.000000 1.640870 0.000000 
#    z 0.000000 0.000000 1.640320 
# 
# From -- ./inp_files/22035.got.cif
#   From: 2010.03.12/outbox.cif.g09.slc.cpg/sg51_12_cif.got.tgz:22035.got - 2010.04.16 13:43:02.
