data_PCOD8208361
_publ_section_title
;
Structure prediction by ZEFSAII (Michael W. Deem and Ramdas Pophale) SiO2 
 PCOD8208361
Probable space group: P M M A
;
_chemical_formula_sum "Si O2"
_cell_formula_units_Z 64
_cell_length_a 9.044240
_cell_length_b 17.690361
_cell_length_c 22.760603
_cell_angle_alpha 90.000000
_cell_angle_beta 90.000000
_cell_angle_gamma 90.000000
_cell_volume 3641.602492
_symmetry_space_group_name_H-M "P M M A"
_symmetry_group_IT_number 51
_symmetry_cell_setting 'orthorhombic'
loop_
_space_group_symop_operation_xyz
x,y,z
1/2-x,-y,z
1/2+x,-y,-z
-x,y,-z
-x,-y,-z
1/2+x,y,-z
1/2-x,y,z
x,-y,z
loop_
_atom_site_type_symbol
_atom_site_label
_atom_site_fract_x
_atom_site_fract_y
_atom_site_fract_z
Si Si1 0.924727 0.255262 0.936857
Si Si2 0.079279 0.413822 0.658599
Si Si3 0.079094 0.579554 0.061095
Si Si4 0.076045 0.792117 0.826745
Si Si5 0.421489 0.086496 0.730708
Si Si6 0.915795 0.813984 0.644089
Si Si7 0.415895 0.313157 0.257564
Si Si8 0.076452 0.708189 0.561289
O O1 0.750000 0.240241 0.942456
O O2 0.962454 0.339650 0.910221
O O3 0.996420 0.197865 0.889843
O O4 0.000000 0.242473 0.000000
O O5 0.250000 0.403081 0.675381
O O6 0.040578 0.500000 0.642797
O O7 0.039170 0.363403 0.602230
O O8 0.985193 0.389417 0.715601
O O9 0.250000 0.582438 0.046157
O O10 0.042651 0.500000 0.096722
O O11 0.000000 0.574307 0.000000
O O12 0.250000 0.784167 0.836103
O O13 0.033925 0.865425 0.788145
O O14 0.015740 0.716413 0.795677
O O15 0.250000 0.098851 0.716215
O O16 0.510641 0.112061 0.672897
O O17 0.460143 0.000000 0.744659
O O18 0.750000 0.834057 0.623276
O O19 0.913949 0.748795 0.691978
O O20 0.010388 0.785426 0.588537
O O21 0.250000 0.329863 0.234480
O O22 0.250000 0.719632 0.552373
O O23 0.000000 0.690469 0.500000
#
# Coordination Sequence:
#
# PCOD8208361 Si02
#       8
#     8   8   8   8   8   8   8   8
#     4  10  19  31  48  70  97 129 165 203 242 289
#     4   9  18  32  48  67  95 131 169 211 258 301
#     4   8  14  25  41  60  82 110 145 185 226 264
#     4  10  19  32  51  73  98 127 158 195 239 290
#     4   9  18  33  54  79 103 126 154 192 241 294
#     4   9  17  30  49  73  99 126 159 198 239 286
#     4   9  17  30  48  69  92 121 159 202 246 290
#     4  10  19  31  48  70  98 134 174 212 249 291
#
# _framework density 17.574680000000001
#
# number of rings (size 3 to 8) (size 9 to 14) (size 15 to 20)
#    0.000    2.750    0.000    1.875    0.000    5.250 
#    0.000    0.625    0.000    3.000    0.000    0.000 
#    0.000    0.000    0.000    0.000    0.000    0.000 
#
# Total GULP energy -793124.867957 kJ/mol
# GULP energy per Si atom -12392.576062 kJ/mol
# Density = 1.753468 g / cm^3
# Si number density = 17.574680 Si / 1000 Ang^3
#
#
#
# Elastic Constant Matrix: (Units=GPa)
#
#
# Indices 1 2 3 4 5 6 
#
# 1 98.3445 45.9356 51.4187 0.0000 0.0000 0.0000
# 2 45.9356 91.9718 49.0135 0.0000 0.0000 0.0000
# 3 51.4187 49.0135 84.4005 0.0000 0.0000 0.0000
# 4 0.0000 0.0000 0.0000 18.7041 0.0000 0.0000
# 5 0.0000 0.0000 0.0000 0.0000 32.3110 0.0000
# 6 0.0000 0.0000 0.0000 0.0000 0.0000 20.3414
#
#
#
# Elastic Compliance Matrix: (Units=1/GPa)
#
#
# Indices 1 2 3 4 5 6 
#
# 1 0.015886 -0.004021 -0.007343 0.000000 0.000000 0.000000
# 2 -0.004021 0.016764 -0.007285 0.000000 0.000000 0.000000
# 3 -0.007343 -0.007285 0.020553 0.000000 0.000000 0.000000
# 4 0.000000 0.000000 0.000000 0.053464 0.000000 0.000000
# 5 0.000000 0.000000 0.000000 0.000000 0.030949 0.000000
# 6 0.000000 0.000000 0.000000 0.000000 0.000000 0.049161
#
#
# Mechanical properties :
#
#
# Convention : Reuss Voigt Hill
#
# Bulk Modulus (GPa) = 62.87961 63.05026 62.96494
# Shear Modulus (GPa) = 21.79830 22.82790 22.31310
#
# Velocity S-wave (km/s) = 3.52564 3.60795 3.56703
# Velocity P-wave (km/s) = 7.24084 7.30136 7.27116
#
# Compressibility (1/GPa) = 0.01590341
#
# Stress axis : x y z
#
# Youngs Moduli (GPa) = 62.94993 59.65256 48.65588
#
# Poissons Ratio (x) = 0.23986 0.35727
# Poissons Ratio (y) = 0.25312 0.35448
# Poissons Ratio (z) = 0.46223 0.43459
#
# Static dielectric constant tensor:
#      x y z
#    x 3.382310 0.000000 0.000000 
#    y 0.000000 3.319160 0.000000 
#    z 0.000000 0.000000 3.080110 
# 
# 
# High freq. dielectric constant tensor:
#      x y z
#    x 1.691270 0.000000 0.000000 
#    y 0.000000 1.659120 0.000000 
#    z 0.000000 0.000000 1.658870 
# 
# From -- ./inp_files/32385.got.cif
#   From: 2010.03.12/outbox.cif.g09.slc.cpg/sg51_17_cif.got.tgz:32385.got - 2010.04.16 13:43:02.
