data_PCOD8208708
_publ_section_title
;
Structure prediction by ZEFSAII (Michael W. Deem and Ramdas Pophale) SiO2 
 PCOD8208708
Probable space group: P M M A
;
_chemical_formula_sum "Si O2"
_cell_formula_units_Z 36
_cell_length_a 9.016760
_cell_length_b 12.364502
_cell_length_c 20.495596
_cell_angle_alpha 90.000000
_cell_angle_beta 90.000000
_cell_angle_gamma 90.000000
_cell_volume 2285.007823
_symmetry_space_group_name_H-M "P M M A"
_symmetry_group_IT_number 51
_symmetry_cell_setting 'orthorhombic'
loop_
_space_group_symop_operation_xyz
x,y,z
1/2-x,-y,z
1/2+x,-y,-z
-x,y,-z
-x,-y,-z
1/2+x,y,-z
1/2-x,y,z
x,-y,z
loop_
_atom_site_type_symbol
_atom_site_label
_atom_site_fract_x
_atom_site_fract_y
_atom_site_fract_z
Si Si1 0.419550 0.500000 0.067193
Si Si2 0.082431 0.128972 0.564229
Si Si3 0.924761 0.734345 0.929525
Si Si4 0.919924 0.128136 0.178052
Si Si5 0.417381 0.871257 0.307734
O O1 0.250000 0.500000 0.047638
O O2 0.456450 0.385614 0.102765
O O3 0.500000 0.500000 0.000000
O O4 0.250000 0.173252 0.564561
O O5 0.000000 0.173260 0.500000
O O6 0.998081 0.174209 0.627817
O O7 0.082011 0.000000 0.564510
O O8 0.750000 0.756728 0.936627
O O9 0.994747 0.823378 0.883142
O O10 0.000000 0.744585 0.000000
O O11 0.750000 0.166384 0.177840
O O12 0.994944 0.170776 0.244492
O O13 0.932851 0.000000 0.172662
O O14 0.250000 0.826078 0.305586
O O15 0.416827 0.000000 0.309467
#
# Coordination Sequence:
#
# PCOD8208708 Si02
#       5
#     4   8   8   8   8
#     4   8  16  30  48  68  86 104 129 166 211 256
#     4   9  15  22  33  50  72  99 133 172 209 244
#     4  10  19  32  49  67  86 108 137 173 213 255
#     4  10  20  32  44  60  84 114 146 177 210 250
#     4   9  16  26  39  54  74 103 138 173 209 249
#
# _framework density 15.754868999999999
#
# number of rings (size 3 to 8) (size 9 to 14) (size 15 to 20)
#    0.000    2.667    0.000    2.667    0.000    8.000 
#    0.000    0.000    0.000    0.000    0.000    0.000 
#    0.000    0.000    0.000    1.000    0.000   13.111 
#
# Total GULP energy -446155.234443 kJ/mol
# GULP energy per Si atom -12393.200957 kJ/mol
# Density = 1.571901 g / cm^3
# Si number density = 15.754869 Si / 1000 Ang^3
#
#
#
# Elastic Constant Matrix: (Units=GPa)
#
#
# Indices 1 2 3 4 5 6 
#
# 1 139.9123 25.1160 69.7506 0.0000 0.0000 0.0000
# 2 25.1160 20.4277 25.2740 0.0000 0.0000 0.0000
# 3 69.7506 25.2740 125.0472 0.0000 0.0000 0.0000
# 4 0.0000 0.0000 0.0000 0.3509 0.0000 0.0000
# 5 0.0000 0.0000 0.0000 0.0000 34.8031 0.0000
# 6 0.0000 0.0000 0.0000 0.0000 0.0000 11.1919
#
#
#
# Elastic Compliance Matrix: (Units=1/GPa)
#
#
# Indices 1 2 3 4 5 6 
#
# 1 0.010743 -0.007727 -0.004431 0.000000 0.000000 0.000000
# 2 -0.007727 0.070834 -0.010007 0.000000 0.000000 0.000000
# 3 -0.004431 -0.010007 0.012491 0.000000 0.000000 0.000000
# 4 0.000000 0.000000 0.000000 2.849690 0.000000 0.000000
# 5 0.000000 0.000000 0.000000 0.000000 0.028733 0.000000
# 6 0.000000 0.000000 0.000000 0.000000 0.000000 0.089350
#
#
# Mechanical properties :
#
#
# Convention : Reuss Voigt Hill
#
# Bulk Modulus (GPa) = 20.10467 58.40759 39.25613
# Shear Modulus (GPa) = 1.60115 20.28563 10.94339
#
# Velocity S-wave (km/s) = 1.00921 3.59218 2.63839
# Velocity P-wave (km/s) = 3.76120 7.37280 5.85256
#
# Compressibility (1/GPa) = 0.04973968
#
# Stress axis : x y z
#
# Youngs Moduli (GPa) = 93.08112 14.11744 80.05781
#
# Poissons Ratio (x) = 0.10909 0.35472
# Poissons Ratio (y) = 0.71924 0.80111
# Poissons Ratio (z) = 0.41242 0.14127
#
# Static dielectric constant tensor:
#      x y z
#    x 3.280060 0.000000 0.000000 
#    y 0.000000 2.815450 0.000000 
#    z 0.000000 0.000000 3.011830 
# 
# 
# High freq. dielectric constant tensor:
#      x y z
#    x 1.629770 0.000000 0.000000 
#    y 0.000000 1.541530 0.000000 
#    z 0.000000 0.000000 1.602160 
# 
# From -- ./inp_files/27006.got.cif
#   From: 2010.03.12/outbox.cif.g09.slc.cpg/sg51_14_cif.got.tgz:27006.got - 2010.04.16 13:43:02.
