data_PCOD8208489
_publ_section_title
;
Structure prediction by ZEFSAII (Michael W. Deem and Ramdas Pophale) SiO2 
 PCOD8208489
Probable space group: P M M A
;
_chemical_formula_sum "Si O2"
_cell_formula_units_Z 44
_cell_length_a 8.724877
_cell_length_b 28.704351
_cell_length_c 9.318281
_cell_angle_alpha 90.000000
_cell_angle_beta 90.000000
_cell_angle_gamma 90.000000
_cell_volume 2333.688295
_symmetry_space_group_name_H-M "P M M A"
_symmetry_group_IT_number 51
_symmetry_cell_setting 'orthorhombic'
loop_
_space_group_symop_operation_xyz
x,y,z
1/2-x,-y,z
1/2+x,-y,-z
-x,y,-z
-x,-y,-z
1/2+x,y,-z
1/2-x,y,z
x,-y,z
loop_
_atom_site_type_symbol
_atom_site_label
_atom_site_fract_x
_atom_site_fract_y
_atom_site_fract_z
Si Si1 0.928702 0.670286 0.155306
Si Si2 0.067531 0.416402 0.658415
Si Si3 0.570063 0.772578 0.156614
Si Si4 0.569219 0.948193 0.652198
Si Si5 0.433077 0.500000 0.159280
Si Si6 0.431295 0.863953 0.157136
O O1 0.750000 0.666228 0.127422
O O2 0.982416 0.632949 0.273028
O O3 0.969273 0.721522 0.221565
O O4 0.000000 0.660415 0.000000
O O5 0.250000 0.423089 0.652948
O O6 0.000000 0.420016 0.500000
O O7 0.992595 0.455122 0.757683
O O8 0.750000 0.781681 0.150448
O O9 0.491136 0.816574 0.237661
O O10 0.500000 0.771929 0.000000
O O11 0.500000 0.935615 0.500000
O O12 0.750000 0.945489 0.638520
O O13 0.506927 0.909709 0.762197
O O14 0.517381 0.000000 0.702797
O O15 0.250000 0.500000 0.152932
O O16 0.500000 0.500000 0.000000
O O17 0.250000 0.862783 0.150728
O O18 0.500000 0.866560 0.000000
#
# Coordination Sequence:
#
# PCOD8208489 Si02
#       6
#     8   8   8   8   4   8
#     4   9  19  34  55  80 106 137 177 219 259 307
#     4  11  23  40  59  83 114 148 183 222 269 317
#     4   9  16  29  49  74 103 135 170 211 257 305
#     4   9  19  35  52  70  95 128 167 209 253 304
#     4  12  25  42  63  88 114 144 182 224 267 316
#     4  10  19  31  49  75 103 131 166 209 256 306
#
# _framework density 18.854275999999999
#
# number of rings (size 3 to 8) (size 9 to 14) (size 15 to 20)
#    0.000    2.182    0.000    4.364    0.000    5.455 
#    0.000    0.909    0.000    4.364    0.000    0.000 
#    0.000    0.000    0.000    0.000    0.000    0.000 
#
# Total GULP energy -545310.831335 kJ/mol
# GULP energy per Si atom -12393.427985 kJ/mol
# Density = 1.881136 g / cm^3
# Si number density = 18.854276 Si / 1000 Ang^3
#
#
#
# Elastic Constant Matrix: (Units=GPa)
#
#
# Indices 1 2 3 4 5 6 
#
# 1 78.6945 62.1251 40.2863 0.0000 0.0000 0.0000
# 2 62.1251 201.4958 87.5001 0.0000 0.0000 0.0000
# 3 40.2863 87.5001 105.9078 0.0000 0.0000 0.0000
# 4 0.0000 0.0000 0.0000 -35.5926 0.0000 0.0000
# 5 0.0000 0.0000 0.0000 0.0000 27.7672 0.0000
# 6 0.0000 0.0000 0.0000 0.0000 0.0000 19.6887
#
#
#
# Elastic Compliance Matrix: (Units=1/GPa)
#
#
# Indices 1 2 3 4 5 6 
#
# 1 0.017565 -0.003921 -0.003442 0.000000 0.000000 0.000000
# 2 -0.003921 0.008615 -0.005626 0.000000 0.000000 0.000000
# 3 -0.003442 -0.005626 0.015400 0.000000 0.000000 0.000000
# 4 0.000000 0.000000 0.000000 -0.028096 0.000000 0.000000
# 5 0.000000 0.000000 0.000000 0.000000 0.036014 0.000000
# 6 0.000000 0.000000 0.000000 0.000000 0.000000 0.050790
#
#
# Mechanical properties :
#
#
# Convention : Reuss Voigt Hill
#
# Bulk Modulus (GPa) = 64.09706 85.10233 74.59969
# Shear Modulus (GPa) = 38.03252 15.45178 26.74215
#
# Velocity S-wave (km/s) = 4.49618 2.86586 3.77020
# Velocity P-wave (km/s) = 7.81179 7.49572 7.65538
#
# Compressibility (1/GPa) = 0.01560134
#
# Stress axis : x y z
#
# Youngs Moduli (GPa) = 56.93220 116.07787 64.93595
#
# Poissons Ratio (x) = 0.45512 0.22352
# Poissons Ratio (y) = 0.22322 0.36534
# Poissons Ratio (z) = 0.19597 0.65307
#
# Static dielectric constant tensor:
#      x y z
#    x 3.558190 0.000000 0.000000 
#    y 0.000000 4.829290 0.000000 
#    z 0.000000 0.000000 3.234240 
# 
# 
# High freq. dielectric constant tensor:
#      x y z
#    x 1.739850 0.000000 0.000000 
#    y 0.000000 1.763130 0.000000 
#    z 0.000000 0.000000 1.700600 
# 
# From -- ./inp_files/5747.got.cif
#   From: 2010.03.12/outbox.cif.g09.slc.cpg/sg51_3_cif.got.tgz:5747.got - 2010.04.16 13:43:02.
