data_PCOD8208809
_publ_section_title
;
Structure prediction by ZEFSAII (Michael W. Deem and Ramdas Pophale) SiO2 
 PCOD8208809
Probable space group: P M M A
;
_chemical_formula_sum "Si O2"
_cell_formula_units_Z 64
_cell_length_a 9.362077
_cell_length_b 18.879923
_cell_length_c 19.665487
_cell_angle_alpha 90.000000
_cell_angle_beta 90.000000
_cell_angle_gamma 90.000000
_cell_volume 3475.978914
_symmetry_space_group_name_H-M "P M M A"
_symmetry_group_IT_number 51
_symmetry_cell_setting 'orthorhombic'
loop_
_space_group_symop_operation_xyz
x,y,z
1/2-x,-y,z
1/2+x,-y,-z
-x,y,-z
-x,-y,-z
1/2+x,y,-z
1/2-x,y,z
x,-y,z
loop_
_atom_site_type_symbol
_atom_site_label
_atom_site_fract_x
_atom_site_fract_y
_atom_site_fract_z
Si Si1 0.087626 0.421292 0.124844
Si Si2 0.407006 0.262942 0.559001
Si Si3 0.087968 0.194344 0.202075
Si Si4 0.588145 0.304548 0.680804
Si Si5 0.915904 0.918798 0.287506
Si Si6 0.583700 0.728185 0.934005
Si Si7 0.594035 0.101247 0.439964
Si Si8 0.089700 0.420344 0.740532
O O1 0.250000 0.412125 0.153099
O O2 0.072704 0.500000 0.090038
O O3 0.052594 0.356111 0.074905
O O4 0.975146 0.416163 0.184864
O O5 0.500000 0.301693 0.500000
O O6 0.250000 0.299426 0.566691
O O7 0.496926 0.260473 0.627570
O O8 0.383759 0.182111 0.539141
O O9 0.250000 0.166187 0.196739
O O10 0.082113 0.263796 0.248438
O O11 0.031659 0.222867 0.129205
O O12 0.994631 0.130718 0.232619
O O13 0.750000 0.314873 0.655032
O O14 0.511638 0.379907 0.687994
O O15 0.750000 0.896858 0.286509
O O16 0.975994 0.908491 0.364663
O O17 0.938868 0.000000 0.264749
O O18 0.750000 0.740809 0.946185
O O19 0.500000 0.755069 0.000000
O O20 0.500000 0.065174 0.500000
O O21 0.750000 0.064064 0.438825
O O22 0.250000 0.387943 0.742322
O O23 0.094992 0.500000 0.713615
#
# Coordination Sequence:
#
# PCOD8208809 Si02
#       8
#     8   8   8   8   8   8   8   8
#     4   9  17  32  52  74 108 149 182 215 259 312
#     4  10  19  32  50  76 108 142 179 223 270 319
#     4  10  21  37  56  80 109 137 178 224 266 318
#     4  11  20  33  55  79 104 141 182 227 273 318
#     4  10  21  37  56  80 110 143 180 222 271 321
#     4  10  21  37  54  80 110 143 180 221 268 320
#     4   9  18  31  48  74 109 146 179 214 255 306
#     4  10  20  32  49  77 109 140 179 225 270 318
#
# _framework density 18.412078000000001
#
# number of rings (size 3 to 8) (size 9 to 14) (size 15 to 20)
#    0.000    2.125    2.500    1.125    0.000    4.000 
#    0.000    0.000    0.000    0.750    0.000    0.000 
#    0.000    0.000    0.000    0.000    0.000    0.000 
#
# Total GULP energy -793184.370512 kJ/mol
# GULP energy per Si atom -12393.505789 kJ/mol
# Density = 1.837017 g / cm^3
# Si number density = 18.412078 Si / 1000 Ang^3
#
#
#
# Elastic Constant Matrix: (Units=GPa)
#
#
# Indices 1 2 3 4 5 6 
#
# 1 114.7189 41.2795 52.7483 0.0000 0.0000 0.0000
# 2 41.2795 73.7237 41.5491 0.0000 0.0000 0.0000
# 3 52.7483 41.5491 110.5087 0.0000 0.0000 0.0000
# 4 0.0000 0.0000 0.0000 -6.1691 0.0000 0.0000
# 5 0.0000 0.0000 0.0000 0.0000 31.7889 0.0000
# 6 0.0000 0.0000 0.0000 0.0000 0.0000 -36.3364
#
#
#
# Elastic Compliance Matrix: (Units=1/GPa)
#
#
# Indices 1 2 3 4 5 6 
#
# 1 0.012251 -0.004522 -0.004148 0.000000 0.000000 0.000000
# 2 -0.004522 0.018880 -0.004940 0.000000 0.000000 0.000000
# 3 -0.004148 -0.004940 0.012886 0.000000 0.000000 0.000000
# 4 0.000000 0.000000 0.000000 -0.162098 0.000000 0.000000
# 5 0.000000 0.000000 0.000000 0.000000 0.031458 0.000000
# 6 0.000000 0.000000 0.000000 0.000000 0.000000 -0.027521
#
#
# Mechanical properties :
#
#
# Convention : Reuss Voigt Hill
#
# Bulk Modulus (GPa) = 59.53072 63.34501 61.43787
# Shear Modulus (GPa) = -61.48239 8.74830 -26.36704
#
# Velocity S-wave (km/s) = -5.78489 2.18213 -3.78835
# Velocity P-wave (km/s) = 3.49532 6.38965 3.78222
#
# Compressibility (1/GPa) = 0.01679805
#
# Stress axis : x y z
#
# Youngs Moduli (GPa) = 81.62415 52.96498 77.60282
#
# Poissons Ratio (x) = 0.23952 0.32186
# Poissons Ratio (y) = 0.36913 0.38336
# Poissons Ratio (z) = 0.33854 0.26165
#
# Static dielectric constant tensor:
#      x y z
#    x 3.669150 0.000000 0.000000 
#    y 0.000000 3.274870 0.000000 
#    z 0.000000 0.000000 3.184260 
# 
# 
# High freq. dielectric constant tensor:
#      x y z
#    x 1.721910 0.000000 0.000000 
#    y 0.000000 1.697060 0.000000 
#    z 0.000000 0.000000 1.691780 
# 
# From -- ./inp_files/32297.got.cif
#   From: 2010.03.12/outbox.cif.g09.slc.cpg/sg51_17_cif.got.tgz:32297.got - 2010.04.16 13:43:02.
