data_PCOD8208181
_publ_section_title
;
Structure prediction by ZEFSAII (Michael W. Deem and Ramdas Pophale) SiO2 
 PCOD8208181
Probable space group: P M M A
;
_chemical_formula_sum "Si O2"
_cell_formula_units_Z 64
_cell_length_a 8.986645
_cell_length_b 14.374364
_cell_length_c 25.931083
_cell_angle_alpha 90.000000
_cell_angle_beta 90.000000
_cell_angle_gamma 90.000000
_cell_volume 3349.707453
_symmetry_space_group_name_H-M "P M M A"
_symmetry_group_IT_number 51
_symmetry_cell_setting 'orthorhombic'
loop_
_space_group_symop_operation_xyz
x,y,z
1/2-x,-y,z
1/2+x,-y,-z
-x,y,-z
-x,-y,-z
1/2+x,y,-z
1/2-x,y,z
x,-y,z
loop_
_atom_site_type_symbol
_atom_site_label
_atom_site_fract_x
_atom_site_fract_y
_atom_site_fract_z
Si Si1 0.425746 0.604960 0.687050
Si Si2 0.574144 0.224328 0.051659
Si Si3 0.086265 0.390127 0.801435
Si Si4 0.920656 0.889989 0.860535
Si Si5 0.926553 0.222222 0.649974
Si Si6 0.423460 0.607647 0.097773
Si Si7 0.073422 0.103415 0.254562
Si Si8 0.574918 0.893671 0.552058
O O1 0.250000 0.610125 0.679517
O O2 0.482449 0.500000 0.676483
O O3 0.469990 0.639298 0.744763
O O4 0.506737 0.673978 0.647411
O O5 0.750000 0.223863 0.045565
O O6 0.527779 0.161545 0.099868
O O7 0.516393 0.330320 0.057939
O O8 0.500000 0.182463 0.000000
O O9 0.250000 0.347232 0.814023
O O10 0.103225 0.500000 0.800795
O O11 0.967417 0.359279 0.844429
O O12 0.750000 0.860113 0.870936
O O13 0.970903 0.860353 0.802614
O O14 0.938543 0.000000 0.867362
O O15 0.750000 0.227958 0.651192
O O16 0.989768 0.170433 0.700947
O O17 0.983076 0.167401 0.599761
O O18 0.250000 0.626244 0.089967
O O19 0.465072 0.500000 0.088224
O O20 0.250000 0.097538 0.258195
O O21 0.007587 0.000000 0.263522
O O22 0.500000 0.855601 0.500000
O O23 0.750000 0.884655 0.545476
O O24 0.527302 0.000000 0.562648
#
# Coordination Sequence:
#
# PCOD8208181 Si02
#       8
#     8   8   8   8   8   8   8   8
#     4   9  19  34  49  70 107 150 186 222 269 322
#     4  12  26  42  60  81 107 140 180 227 273 326
#     4   8  15  30  50  72 101 138 177 214 258 314
#     4   9  19  38  62  85 111 142 176 218 269 326
#     4  10  19  30  51  83 111 142 184 229 271 316
#     4  10  21  37  58  83 110 140 176 220 270 326
#     4   8  15  30  53  81 112 142 170 206 260 323
#     4   9  18  33  53  78 111 148 186 228 274 325
#
# _framework density 19.106145000000001
#
# number of rings (size 3 to 8) (size 9 to 14) (size 15 to 20)
#    0.000    2.625    0.000    3.375    1.750    4.250 
#    0.000    1.250    0.000    2.250    0.000    0.000 
#    0.000    0.000    0.000    0.000    0.000    0.000 
#
# Total GULP energy -793491.716682 kJ/mol
# GULP energy per Si atom -12398.308073 kJ/mol
# Density = 1.906266 g / cm^3
# Si number density = 19.106145 Si / 1000 Ang^3
#
#
#
# Elastic Constant Matrix: (Units=GPa)
#
#
# Indices 1 2 3 4 5 6 
#
# 1 69.8735 31.2737 46.3429 0.0000 0.0000 0.0000
# 2 31.2737 79.9979 63.9911 0.0000 0.0000 0.0000
# 3 46.3429 63.9911 134.3127 0.0000 0.0000 0.0000
# 4 0.0000 0.0000 0.0000 29.0856 0.0000 0.0000
# 5 0.0000 0.0000 0.0000 0.0000 28.2403 0.0000
# 6 0.0000 0.0000 0.0000 0.0000 0.0000 26.4889
#
#
#
# Elastic Compliance Matrix: (Units=1/GPa)
#
#
# Indices 1 2 3 4 5 6 
#
# 1 0.019166 -0.003559 -0.004917 0.000000 0.000000 0.000000
# 2 -0.003559 0.020859 -0.008710 0.000000 0.000000 0.000000
# 3 -0.004917 -0.008710 0.013292 0.000000 0.000000 0.000000
# 4 0.000000 0.000000 0.000000 0.034381 0.000000 0.000000
# 5 0.000000 0.000000 0.000000 0.000000 0.035410 0.000000
# 6 0.000000 0.000000 0.000000 0.000000 0.000000 0.037752
#
#
# Mechanical properties :
#
#
# Convention : Reuss Voigt Hill
#
# Bulk Modulus (GPa) = 52.78766 63.04441 57.91604
# Shear Modulus (GPa) = 24.80816 26.26805 25.53811
#
# Velocity S-wave (km/s) = 3.60730 3.71192 3.65998
# Velocity P-wave (km/s) = 6.71109 7.17214 6.94544
#
# Compressibility (1/GPa) = 0.01894382
#
# Stress axis : x y z
#
# Youngs Moduli (GPa) = 52.17598 47.94151 75.23577
#
# Poissons Ratio (x) = 0.17064 0.36995
# Poissons Ratio (y) = 0.18571 0.65528
# Poissons Ratio (z) = 0.25656 0.41756
#
# Static dielectric constant tensor:
#      x y z
#    x 3.247160 0.000000 0.000000 
#    y 0.000000 3.492440 0.000000 
#    z 0.000000 0.000000 3.608480 
# 
# 
# High freq. dielectric constant tensor:
#      x y z
#    x 1.722670 0.000000 0.000000 
#    y 0.000000 1.739870 0.000000 
#    z 0.000000 0.000000 1.733340 
# 
# From -- ./inp_files/34828.got.cif
#   From: 2010.03.12/outbox.cif.g09.slc.cpg/sg51_18_cif.got.tgz:34828.got - 2010.04.16 13:43:02.
