data_PCOD8208613
_publ_section_title
;
Structure prediction by ZEFSAII (Michael W. Deem and Ramdas Pophale) SiO2 
 PCOD8208613
Probable space group: P M M A
;
_chemical_formula_sum "Si O2"
_cell_formula_units_Z 64
_cell_length_a 23.842021
_cell_length_b 9.453015
_cell_length_c 16.774016
_cell_angle_alpha 90.000000
_cell_angle_beta 90.000000
_cell_angle_gamma 90.000000
_cell_volume 3780.510653
_symmetry_space_group_name_H-M "P M M A"
_symmetry_group_IT_number 51
_symmetry_cell_setting 'orthorhombic'
loop_
_space_group_symop_operation_xyz
x,y,z
1/2-x,-y,z
1/2+x,-y,-z
-x,y,-z
-x,-y,-z
1/2+x,y,-z
1/2-x,y,z
x,-y,z
loop_
_atom_site_type_symbol
_atom_site_label
_atom_site_fract_x
_atom_site_fract_y
_atom_site_fract_z
Si Si1 0.604381 0.163486 0.034810
Si Si2 0.315383 0.660412 0.870103
Si Si3 0.026337 0.835458 0.825015
Si Si4 0.185456 0.835517 0.566446
Si Si5 0.685692 0.332922 0.757960
Si Si6 0.632797 0.165501 0.268913
Si Si7 0.683414 0.656341 0.580773
Si Si8 0.594407 0.836521 0.850024
O O1 0.658302 0.259249 0.054101
O O2 0.554921 0.219455 0.093244
O O3 0.618700 0.000000 0.054477
O O4 0.586749 0.183378 0.944258
O O5 0.250000 0.659304 0.885279
O O6 0.338549 0.500000 0.863838
O O7 0.328367 0.743197 0.788717
O O8 0.067093 0.802536 0.749862
O O9 0.963603 0.773354 0.812161
O O10 0.015943 0.000000 0.836377
O O11 0.250000 0.792665 0.584090
O O12 0.146959 0.790053 0.640914
O O13 0.160683 0.758465 0.488429
O O14 0.180591 0.000000 0.548588
O O15 0.750000 0.286676 0.772884
O O16 0.679409 0.500000 0.769726
O O17 0.665793 0.289430 0.668618
O O18 0.646963 0.252968 0.820600
O O19 0.646432 0.000000 0.254843
O O20 0.750000 0.650305 0.578475
O O21 0.658721 0.500000 0.565245
O O22 0.605365 0.000000 0.827648
#
# Coordination Sequence:
#
# PCOD8208613 Si02
#       8
#     8   8   8   8   8   8   8   8
#     4   9  18  32  49  67  89 120 155 192 233 275
#     4  10  20  31  43  63  93 126 157 190 228 269
#     4   8  15  30  50  69  91 120 153 189 228 269
#     4   9  16  25  42  71  99 119 146 186 226 264
#     4   9  19  35  51  68  94 125 152 182 228 282
#     4   9  17  30  48  68  93 126 157 185 224 274
#     4   8  15  29  47  65  88 121 155 183 219 270
#     4  10  19  31  51  75  92 112 151 197 234 271
#
# _framework density 16.928930999999999
#
# number of rings (size 3 to 8) (size 9 to 14) (size 15 to 20)
#    0.000    3.000    0.000    2.625    0.000    5.250 
#    0.000    7.500    0.000    4.500    0.000    5.250 
#    0.000    0.000    0.000    0.000    0.000    0.000 
#
# Total GULP energy -793241.718526 kJ/mol
# GULP energy per Si atom -12394.401852 kJ/mol
# Density = 1.689040 g / cm^3
# Si number density = 16.928931 Si / 1000 Ang^3
#
#
#
# Elastic Constant Matrix: (Units=GPa)
#
#
# Indices 1 2 3 4 5 6 
#
# 1 91.6732 35.7481 40.1855 0.0000 0.0000 0.0000
# 2 35.7481 52.8419 27.7790 0.0000 0.0000 0.0000
# 3 40.1855 27.7790 78.7069 0.0000 0.0000 0.0000
# 4 0.0000 0.0000 0.0000 21.7993 0.0000 0.0000
# 5 0.0000 0.0000 0.0000 0.0000 18.4197 0.0000
# 6 0.0000 0.0000 0.0000 0.0000 0.0000 14.5379
#
#
#
# Elastic Compliance Matrix: (Units=1/GPa)
#
#
# Indices 1 2 3 4 5 6 
#
# 1 0.016570 -0.008303 -0.005530 0.000000 0.000000 0.000000
# 2 -0.008303 0.027396 -0.005430 0.000000 0.000000 0.000000
# 3 -0.005530 -0.005430 0.017445 0.000000 0.000000 0.000000
# 4 0.000000 0.000000 0.000000 0.045873 0.000000 0.000000
# 5 0.000000 0.000000 0.000000 0.000000 0.054290 0.000000
# 6 0.000000 0.000000 0.000000 0.000000 0.000000 0.068786
#
#
# Mechanical properties :
#
#
# Convention : Reuss Voigt Hill
#
# Bulk Modulus (GPa) = 43.69493 47.84968 45.77230
# Shear Modulus (GPa) = 18.08231 18.91867 18.50049
#
# Velocity S-wave (km/s) = 3.27177 3.34658 3.30939
# Velocity P-wave (km/s) = 6.33557 6.57717 6.45750
#
# Compressibility (1/GPa) = 0.02288595
#
# Stress axis : x y z
#
# Youngs Moduli (GPa) = 60.35003 36.50188 57.32245
#
# Poissons Ratio (x) = 0.30307 0.31698
# Poissons Ratio (y) = 0.50107 0.31126
# Poissons Ratio (z) = 0.33372 0.19820
#
# Static dielectric constant tensor:
#      x y z
#    x 3.115620 0.000000 0.000000 
#    y 0.000000 3.158690 0.000000 
#    z 0.000000 0.000000 3.219670 
# 
# 
# High freq. dielectric constant tensor:
#      x y z
#    x 1.634050 0.000000 0.000000 
#    y 0.000000 1.639290 0.000000 
#    z 0.000000 0.000000 1.648260 
# 
# From -- ./inp_files/30885.got.cif
#   From: 2010.03.12/outbox.cif.g09.slc.cpg/sg51_16_cif.got.tgz:30885.got - 2010.04.16 13:43:02.
