data_PCOD8208404
_publ_section_title
;
Structure prediction by ZEFSAII (Michael W. Deem and Ramdas Pophale) SiO2 
 PCOD8208404
Probable space group: P M M A
;
_chemical_formula_sum "Si O2"
_cell_formula_units_Z 64
_cell_length_a 17.363336
_cell_length_b 9.437729
_cell_length_c 21.302969
_cell_angle_alpha 90.000000
_cell_angle_beta 90.000000
_cell_angle_gamma 90.000000
_cell_volume 3490.927323
_symmetry_space_group_name_H-M "P M M A"
_symmetry_group_IT_number 51
_symmetry_cell_setting 'orthorhombic'
loop_
_space_group_symop_operation_xyz
x,y,z
1/2-x,-y,z
1/2+x,-y,-z
-x,y,-z
-x,-y,-z
1/2+x,y,-z
1/2-x,y,z
x,-y,z
loop_
_atom_site_type_symbol
_atom_site_label
_atom_site_fract_x
_atom_site_fract_y
_atom_site_fract_z
Si Si1 0.163662 0.159855 0.150530
Si Si2 0.433707 0.664982 0.910880
Si Si3 0.397973 0.334162 0.049546
Si Si4 0.665462 0.160397 0.634640
Si Si5 0.490803 0.165278 0.429616
Si Si6 0.162170 0.330916 0.792961
Si Si7 0.894428 0.339741 0.742062
Si Si8 0.941255 0.339819 0.320394
O O1 0.250000 0.159737 0.177762
O O2 0.165376 0.236136 0.082781
O O3 0.107869 0.252438 0.193976
O O4 0.131960 0.000000 0.145506
O O5 0.440341 0.500000 0.897587
O O6 0.520232 0.720960 0.922119
O O7 0.387806 0.733017 0.851489
O O8 0.387981 0.693652 0.975448
O O9 0.385673 0.500000 0.064198
O O10 0.750000 0.176456 0.602632
O O11 0.598471 0.197565 0.585640
O O12 0.662364 0.266900 0.692595
O O13 0.653728 0.000000 0.659902
O O14 0.500000 0.223493 0.500000
O O15 0.549669 0.243974 0.382552
O O16 0.511051 0.000000 0.425251
O O17 0.250000 0.274245 0.797023
O O18 0.160821 0.500000 0.796327
O O19 0.125805 0.282239 0.725978
O O20 0.866217 0.500000 0.753354
O O21 0.981414 0.335263 0.719564
O O22 0.923427 0.500000 0.342603
#
# Coordination Sequence:
#
# PCOD8208404 Si02
#       8
#     8   8   8   8   8   8   8   8
#     4  11  23  34  43  62  96 131 159 192 237 287
#     4   8  15  29  49  73  97 120 154 204 252 289
#     4   9  17  31  51  71  92 121 160 205 248 291
#     4   9  17  30  48  70  97 126 156 194 239 282
#     4   9  18  33  52  73  98 130 165 194 225 276
#     4   9  16  27  46  72 100 128 159 197 243 294
#     4  10  19  31  49  70  92 121 158 199 240 285
#     4   9  18  32  51  75  99 123 155 196 238 278
#
# _framework density 18.333238000000001
#
# number of rings (size 3 to 8) (size 9 to 14) (size 15 to 20)
#    0.000    2.750    0.000    2.625    0.000    6.000 
#    0.000    3.125    0.000    1.875    0.000    0.000 
#    0.000    0.000    0.000    0.000    0.000    0.000 
#
# Total GULP energy -793216.516901 kJ/mol
# GULP energy per Si atom -12394.008077 kJ/mol
# Density = 1.829151 g / cm^3
# Si number density = 18.333238 Si / 1000 Ang^3
#
#
#
# Elastic Constant Matrix: (Units=GPa)
#
#
# Indices 1 2 3 4 5 6 
#
# 1 71.8583 19.2032 44.1706 0.0000 0.0000 0.0000
# 2 19.2032 79.0815 50.6203 0.0000 0.0000 0.0000
# 3 44.1706 50.6203 129.4413 0.0000 0.0000 0.0000
# 4 0.0000 0.0000 0.0000 19.4468 0.0000 0.0000
# 5 0.0000 0.0000 0.0000 0.0000 21.7090 0.0000
# 6 0.0000 0.0000 0.0000 0.0000 0.0000 16.0009
#
#
#
# Elastic Compliance Matrix: (Units=1/GPa)
#
#
# Indices 1 2 3 4 5 6 
#
# 1 0.017630 -0.000574 -0.005792 0.000000 0.000000 0.000000
# 2 -0.000574 0.016886 -0.006408 0.000000 0.000000 0.000000
# 3 -0.005792 -0.006408 0.012208 0.000000 0.000000 0.000000
# 4 0.000000 0.000000 0.000000 0.051422 0.000000 0.000000
# 5 0.000000 0.000000 0.000000 0.000000 0.046064 0.000000
# 6 0.000000 0.000000 0.000000 0.000000 0.000000 0.062496
#
#
# Mechanical properties :
#
#
# Convention : Reuss Voigt Hill
#
# Bulk Modulus (GPa) = 47.22062 56.48546 51.85304
# Shear Modulus (GPa) = 20.89328 22.52382 21.70855
#
# Velocity S-wave (km/s) = 3.37952 3.50891 3.44482
# Velocity P-wave (km/s) = 6.40632 6.87706 6.64586
#
# Compressibility (1/GPa) = 0.02117719
#
# Stress axis : x y z
#
# Youngs Moduli (GPa) = 56.72269 59.22005 81.91542
#
# Poissons Ratio (x) = 0.03398 0.47442
# Poissons Ratio (y) = 0.03255 0.52490
# Poissons Ratio (z) = 0.32851 0.37947
#
# Static dielectric constant tensor:
#      x y z
#    x 3.383340 0.000000 0.000000 
#    y 0.000000 3.210410 0.000000 
#    z 0.000000 0.000000 3.418640 
# 
# 
# High freq. dielectric constant tensor:
#      x y z
#    x 1.701760 0.000000 0.000000 
#    y 0.000000 1.681030 0.000000 
#    z 0.000000 0.000000 1.706390 
# 
# From -- ./inp_files/33793.got.cif
#   From: 2010.03.12/outbox.cif.g09.slc.cpg/sg51_17_cif.got.tgz:33793.got - 2010.04.16 13:43:02.
