data_PCOD8208053
_publ_section_title
;
Structure prediction by ZEFSAII (Michael W. Deem and Ramdas Pophale) SiO2 
 PCOD8208053
Probable space group: P M M A
;
_chemical_formula_sum "Si O2"
_cell_formula_units_Z 64
_cell_length_a 27.373959
_cell_length_b 9.663232
_cell_length_c 14.673571
_cell_angle_alpha 90.000000
_cell_angle_beta 90.000000
_cell_angle_gamma 90.000000
_cell_volume 3881.466450
_symmetry_space_group_name_H-M "P M M A"
_symmetry_group_IT_number 51
_symmetry_cell_setting 'orthorhombic'
loop_
_space_group_symop_operation_xyz
x,y,z
1/2-x,-y,z
1/2+x,-y,-z
-x,y,-z
-x,-y,-z
1/2+x,y,-z
1/2-x,y,z
x,-y,z
loop_
_atom_site_type_symbol
_atom_site_label
_atom_site_fract_x
_atom_site_fract_y
_atom_site_fract_z
Si Si1 0.888288 0.163845 0.526155
Si Si2 0.881532 0.659970 0.968209
Si Si3 0.967043 0.659098 0.833652
Si Si4 0.581781 0.160651 0.332445
Si Si5 0.531581 0.840680 0.665102
Si Si6 0.806968 0.840364 0.859534
Si Si7 0.078941 0.659884 0.838069
Si Si8 0.304024 0.835145 0.345619
O O1 0.889009 0.215617 0.421498
O O2 0.938311 0.207275 0.576426
O O3 0.842056 0.226997 0.580915
O O4 0.884299 0.000000 0.524593
O O5 0.867577 0.500000 0.954932
O O6 0.932636 0.693758 0.918810
O O7 0.837483 0.750700 0.930523
O O8 0.888562 0.696260 0.074321
O O9 0.962447 0.500000 0.803856
O O10 0.949329 0.752024 0.749864
O O11 0.022616 0.695512 0.860846
O O12 0.525030 0.185395 0.354647
O O13 0.598857 0.248631 0.245579
O O14 0.592446 0.000000 0.312003
O O15 0.542417 0.000000 0.688876
O O16 0.750000 0.819281 0.881000
O O17 0.818705 0.789032 0.756659
O O18 0.821872 0.000000 0.871579
O O19 0.084354 0.500000 0.810603
O O20 0.250000 0.778905 0.370286
O O21 0.303756 0.000000 0.347941
#
# Coordination Sequence:
#
# PCOD8208053 Si02
#       8
#     8   8   8   8   8   8   8   8
#     4   9  15  24  41  62  85 114 144 176 215 257
#     4  10  19  30  47  68  88 116 153 186 218 261
#     4   9  17  29  44  64  91 119 148 183 220 260
#     4   9  17  28  42  62  86 113 148 186 218 250
#     4   9  16  26  41  62  88 116 145 177 216 262
#     4   9  18  32  49  70  95 118 140 174 222 269
#     4   9  18  32  46  61  87 122 153 182 220 262
#     4   8  14  25  42  65  90 113 137 166 207 262
#
# _framework density 16.488613000000001
#
# number of rings (size 3 to 8) (size 9 to 14) (size 15 to 20)
#    0.000    3.000    0.000    2.250    0.000    5.250 
#    0.000    0.625    0.000    8.250    0.000    1.750 
#    0.000    0.000    0.000    0.000    0.000    0.000 
#
# Total GULP energy -793420.706854 kJ/mol
# GULP energy per Si atom -12397.198545 kJ/mol
# Density = 1.645108 g / cm^3
# Si number density = 16.488613 Si / 1000 Ang^3
#
#
#
# Elastic Constant Matrix: (Units=GPa)
#
#
# Indices 1 2 3 4 5 6 
#
# 1 71.6860 33.7473 64.1007 0.0000 0.0000 0.0000
# 2 33.7473 48.6579 56.3080 0.0000 0.0000 0.0000
# 3 64.1007 56.3080 146.2299 0.0000 0.0000 0.0000
# 4 0.0000 0.0000 0.0000 18.7729 0.0000 0.0000
# 5 0.0000 0.0000 0.0000 0.0000 26.9253 0.0000
# 6 0.0000 0.0000 0.0000 0.0000 0.0000 19.6806
#
#
#
# Elastic Compliance Matrix: (Units=1/GPa)
#
#
# Indices 1 2 3 4 5 6 
#
# 1 0.024666 -0.008288 -0.007621 0.000000 0.000000 0.000000
# 2 -0.008288 0.039855 -0.011714 0.000000 0.000000 0.000000
# 3 -0.007621 -0.011714 0.014690 0.000000 0.000000 0.000000
# 4 0.000000 0.000000 0.000000 0.053268 0.000000 0.000000
# 5 0.000000 0.000000 0.000000 0.000000 0.037140 0.000000
# 6 0.000000 0.000000 0.000000 0.000000 0.000000 0.050811
#
#
# Mechanical properties :
#
#
# Convention : Reuss Voigt Hill
#
# Bulk Modulus (GPa) = 41.72692 63.87621 52.80156
# Shear Modulus (GPa) = 17.62640 20.57031 19.09836
#
# Velocity S-wave (km/s) = 3.27311 3.53589 3.40704
# Velocity P-wave (km/s) = 6.29649 7.44941 6.89708
#
# Compressibility (1/GPa) = 0.02396535
#
# Stress axis : x y z
#
# Youngs Moduli (GPa) = 40.54131 25.09065 68.07446
#
# Poissons Ratio (x) = 0.20796 0.51880
# Poissons Ratio (y) = 0.33602 0.79740
# Poissons Ratio (z) = 0.30897 0.29390
#
# Static dielectric constant tensor:
#      x y z
#    x 3.083650 0.000000 0.000000 
#    y 0.000000 2.903470 0.000000 
#    z 0.000000 0.000000 3.249110 
# 
# 
# High freq. dielectric constant tensor:
#      x y z
#    x 1.619000 0.000000 0.000000 
#    y 0.000000 1.606260 0.000000 
#    z 0.000000 0.000000 1.634790 
# 
# From -- ./inp_files/26618.got.cif
#   From: 2010.03.12/outbox.cif.g09.slc.cpg/sg51_14_cif.got.tgz:26618.got - 2010.04.16 13:43:02.
