data_PCOD8208593
_publ_section_title
;
Structure prediction by ZEFSAII (Michael W. Deem and Ramdas Pophale) SiO2 
 PCOD8208593
Probable space group: P M M A
;
_chemical_formula_sum "Si O2"
_cell_formula_units_Z 56
_cell_length_a 19.536287
_cell_length_b 9.072902
_cell_length_c 17.434152
_cell_angle_alpha 90.000000
_cell_angle_beta 90.000000
_cell_angle_gamma 90.000000
_cell_volume 3090.217693
_symmetry_space_group_name_H-M "P M M A"
_symmetry_group_IT_number 51
_symmetry_cell_setting 'orthorhombic'
loop_
_space_group_symop_operation_xyz
x,y,z
1/2-x,-y,z
1/2+x,-y,-z
-x,y,-z
-x,-y,-z
1/2+x,y,-z
1/2-x,y,z
x,-y,z
loop_
_atom_site_type_symbol
_atom_site_label
_atom_site_fract_x
_atom_site_fract_y
_atom_site_fract_z
Si Si1 0.325520 0.673797 0.813321
Si Si2 0.170447 0.671128 0.386660
Si Si3 0.949032 0.674607 0.886062
Si Si4 0.328492 0.170861 0.543378
Si Si5 0.931385 0.173374 0.727136
Si Si6 0.084831 0.171653 0.689156
Si Si7 0.408730 0.327672 0.952668
O O1 0.250000 0.735695 0.795168
O O2 0.328620 0.500000 0.800993
O O3 0.381172 0.744290 0.759004
O O4 0.342629 0.714488 0.902017
O O5 0.250000 0.697867 0.368438
O O6 0.151150 0.500000 0.384657
O O7 0.151768 0.732989 0.470154
O O8 0.127666 0.756795 0.323644
O O9 0.945954 0.500000 0.868870
O O10 0.923885 0.760511 0.811696
O O11 0.024389 0.733554 0.908714
O O12 0.901059 0.723309 0.958738
O O13 0.250000 0.199544 0.569300
O O14 0.379593 0.222997 0.610376
O O15 0.339807 0.000000 0.522651
O O16 0.004602 0.211073 0.688374
O O17 0.919835 0.000000 0.731850
O O18 0.097736 0.000000 0.702410
O O19 0.421687 0.500000 0.956395
#
# Coordination Sequence:
#
# PCOD8208593 Si02
#       7
#     8   8   8   8   8   8   8
#     4  10  19  31  50  77 108 141 179 225 272 315
#     4  10  22  40  60  80 102 133 175 221 271 325
#     4   9  16  31  54  74 100 139 180 222 265 312
#     4   9  18  35  57  77 103 142 181 216 257 309
#     4  11  22  35  54  82 112 141 175 220 269 317
#     4  10  21  35  52  78 111 146 181 213 257 318
#     4   8  15  29  50  74 100 137 181 222 265 313
#
# _framework density 18.121701000000002
#
# number of rings (size 3 to 8) (size 9 to 14) (size 15 to 20)
#    0.000    2.429    1.429    2.143    0.000    3.429 
#    0.000    7.143    0.000    2.571    0.000    0.000 
#    0.000    0.000    0.000    0.000    0.000    0.000 
#
# Total GULP energy -694221.584962 kJ/mol
# GULP energy per Si atom -12396.814017 kJ/mol
# Density = 1.808045 g / cm^3
# Si number density = 18.121701 Si / 1000 Ang^3
#
#
#
# Elastic Constant Matrix: (Units=GPa)
#
#
# Indices 1 2 3 4 5 6 
#
# 1 79.1134 42.3787 67.2952 0.0000 0.0000 0.0000
# 2 42.3787 65.5382 59.4623 0.0000 0.0000 0.0000
# 3 67.2952 59.4623 150.5369 0.0000 0.0000 0.0000
# 4 0.0000 0.0000 0.0000 43.8173 0.0000 0.0000
# 5 0.0000 0.0000 0.0000 0.0000 28.0250 0.0000
# 6 0.0000 0.0000 0.0000 0.0000 0.0000 22.7956
#
#
#
# Elastic Compliance Matrix: (Units=1/GPa)
#
#
# Indices 1 2 3 4 5 6 
#
# 1 0.023204 -0.008717 -0.006930 0.000000 0.000000 0.000000
# 2 -0.008717 0.027056 -0.006790 0.000000 0.000000 0.000000
# 3 -0.006930 -0.006790 0.012423 0.000000 0.000000 0.000000
# 4 0.000000 0.000000 0.000000 0.022822 0.000000 0.000000
# 5 0.000000 0.000000 0.000000 0.000000 0.035682 0.000000
# 6 0.000000 0.000000 0.000000 0.000000 0.000000 0.043868
#
#
# Mechanical properties :
#
#
# Convention : Reuss Voigt Hill
#
# Bulk Modulus (GPa) = 56.15271 70.38455 63.26863
# Shear Modulus (GPa) = 23.16255 27.33106 25.24681
#
# Velocity S-wave (km/s) = 3.57902 3.88776 3.73658
# Velocity P-wave (km/s) = 6.93779 7.68617 7.32155
#
# Compressibility (1/GPa) = 0.01780858
#
# Stress axis : x y z
#
# Youngs Moduli (GPa) = 43.09572 36.96083 80.49649
#
# Poissons Ratio (x) = 0.32219 0.55783
# Poissons Ratio (y) = 0.37567 0.54659
# Poissons Ratio (z) = 0.29865 0.25097
#
# Static dielectric constant tensor:
#      x y z
#    x 3.464160 0.000000 0.000000 
#    y 0.000000 3.191290 0.000000 
#    z 0.000000 0.000000 3.539650 
# 
# 
# High freq. dielectric constant tensor:
#      x y z
#    x 1.692140 0.000000 0.000000 
#    y 0.000000 1.686030 0.000000 
#    z 0.000000 0.000000 1.712220 
# 
# From -- ./inp_files/25614.got.cif
#   From: 2010.03.12/outbox.cif.g09.slc.cpg/sg51_13_cif.got.tgz:25614.got - 2010.04.16 13:43:02.
