data_PCOD8208498
_publ_section_title
;
Structure prediction by ZEFSAII (Michael W. Deem and Ramdas Pophale) SiO2 
 PCOD8208498
Probable space group: P M M A
;
_chemical_formula_sum "Si O2"
_cell_formula_units_Z 64
_cell_length_a 28.892376
_cell_length_b 9.100291
_cell_length_c 12.513153
_cell_angle_alpha 90.000000
_cell_angle_beta 90.000000
_cell_angle_gamma 90.000000
_cell_volume 3290.071172
_symmetry_space_group_name_H-M "P M M A"
_symmetry_group_IT_number 51
_symmetry_cell_setting 'orthorhombic'
loop_
_space_group_symop_operation_xyz
x,y,z
1/2-x,-y,z
1/2+x,-y,-z
-x,y,-z
-x,-y,-z
1/2+x,y,-z
1/2-x,y,z
x,-y,z
loop_
_atom_site_type_symbol
_atom_site_label
_atom_site_fract_x
_atom_site_fract_y
_atom_site_fract_z
Si Si1 0.139322 0.326905 0.819200
Si Si2 0.300683 0.662471 0.631480
Si Si3 0.931414 0.834295 0.498209
Si Si4 0.546508 0.668697 0.283906
Si Si5 0.144313 0.824614 0.212765
Si Si6 0.056087 0.329864 0.283926
Si Si7 0.304149 0.326986 0.022370
Si Si8 0.828065 0.162055 0.555533
O O1 0.148340 0.500000 0.820477
O O2 0.165472 0.258083 0.716126
O O3 0.084803 0.286927 0.806564
O O4 0.163219 0.265532 0.926619
O O5 0.250000 0.657363 0.684705
O O6 0.319849 0.500000 0.607509
O O7 0.295016 0.740688 0.517232
O O8 0.950184 0.768460 0.388475
O O9 0.947678 0.735652 0.597265
O O10 0.876463 0.837948 0.493671
O O11 0.950840 0.000000 0.512518
O O12 0.555231 0.500000 0.318844
O O13 0.495350 0.686679 0.232646
O O14 0.092606 0.755728 0.208332
O O15 0.178641 0.761749 0.124812
O O16 0.166628 0.774832 0.325301
O O17 0.139611 0.000000 0.204100
O O18 0.071015 0.500000 0.290613
O O19 0.250000 0.291811 0.000418
O O20 0.311365 0.500000 0.041900
O O21 0.806630 0.000000 0.562493
#
# Coordination Sequence:
#
# PCOD8208498 Si02
#       8
#     8   8   8   8   8   8   8   8
#     4   9  18  35  57  82 113 144 181 231 282 330
#     4  10  19  31  52  80 108 140 177 221 276 335
#     4  10  19  31  49  76 113 154 191 226 271 329
#     4  10  19  32  53  81 112 151 191 229 278 334
#     4  10  22  40  59  80 111 148 188 234 288 338
#     4  10  20  33  53  82 113 147 192 235 277 333
#     4  10  21  39  64  88 108 139 187 237 283 334
#     4   9  19  34  50  73 106 144 179 216 268 328
#
# _framework density 19.452466000000001
#
# number of rings (size 3 to 8) (size 9 to 14) (size 15 to 20)
#    0.000    2.250    1.250    2.625    0.000    7.500 
#    0.000    4.375    0.000    5.250    0.000    0.000 
#    0.000    0.000    0.000    0.000    0.000    0.000 
#
# Total GULP energy -793213.005248 kJ/mol
# GULP energy per Si atom -12393.953207 kJ/mol
# Density = 1.940819 g / cm^3
# Si number density = 19.452466 Si / 1000 Ang^3
#
#
#
# Elastic Constant Matrix: (Units=GPa)
#
#
# Indices 1 2 3 4 5 6 
#
# 1 96.5658 33.2041 40.3186 0.0000 0.0000 0.0000
# 2 33.2041 75.0586 32.5498 0.0000 0.0000 0.0000
# 3 40.3186 32.5498 87.2481 0.0000 0.0000 0.0000
# 4 0.0000 0.0000 0.0000 14.5632 0.0000 0.0000
# 5 0.0000 0.0000 0.0000 0.0000 24.4182 0.0000
# 6 0.0000 0.0000 0.0000 0.0000 0.0000 10.4946
#
#
#
# Elastic Compliance Matrix: (Units=1/GPa)
#
#
# Indices 1 2 3 4 5 6 
#
# 1 0.013757 -0.003971 -0.004876 0.000000 0.000000 0.000000
# 2 -0.003971 0.017041 -0.004522 0.000000 0.000000 0.000000
# 3 -0.004876 -0.004522 0.015402 0.000000 0.000000 0.000000
# 4 0.000000 0.000000 0.000000 0.068666 0.000000 0.000000
# 5 0.000000 0.000000 0.000000 0.000000 0.040953 0.000000
# 6 0.000000 0.000000 0.000000 0.000000 0.000000 0.095287
#
#
# Mechanical properties :
#
#
# Convention : Reuss Voigt Hill
#
# Bulk Modulus (GPa) = 51.38471 52.33530 51.86000
# Shear Modulus (GPa) = 17.58509 20.08184 18.83346
#
# Velocity S-wave (km/s) = 3.00993 3.21651 3.11493
# Velocity P-wave (km/s) = 6.20906 6.38414 6.29721
#
# Compressibility (1/GPa) = 0.01946104
#
# Stress axis : x y z
#
# Youngs Moduli (GPa) = 72.69084 58.68244 64.92742
#
# Poissons Ratio (x) = 0.23305 0.31656
# Poissons Ratio (y) = 0.28868 0.29362
# Poissons Ratio (z) = 0.35442 0.26538
#
# Static dielectric constant tensor:
#      x y z
#    x 3.704020 0.000000 0.000000 
#    y 0.000000 3.467760 0.000000 
#    z 0.000000 0.000000 3.354250 
# 
# 
# High freq. dielectric constant tensor:
#      x y z
#    x 1.770430 0.000000 0.000000 
#    y 0.000000 1.741830 0.000000 
#    z 0.000000 0.000000 1.732150 
# 
# From -- ./inp_files/19483.got.cif
#   From: 2010.03.12/outbox.cif.g09.slc.cpg/sg51_10_cif.got.tgz:19483.got - 2010.04.16 13:43:02.
