data_PCOD8208013
_publ_section_title
;
Structure prediction by ZEFSAII (Michael W. Deem and Ramdas Pophale) SiO2 
 PCOD8208013
Probable space group: P M M A
;
_chemical_formula_sum "Si O2"
_cell_formula_units_Z 48
_cell_length_a 18.149056
_cell_length_b 9.206576
_cell_length_c 16.360175
_cell_angle_alpha 90.000000
_cell_angle_beta 90.000000
_cell_angle_gamma 90.000000
_cell_volume 2733.632494
_symmetry_space_group_name_H-M "P M M A"
_symmetry_group_IT_number 51
_symmetry_cell_setting 'orthorhombic'
loop_
_space_group_symop_operation_xyz
x,y,z
1/2-x,-y,z
1/2+x,-y,-z
-x,y,-z
-x,-y,-z
1/2+x,y,-z
1/2-x,y,z
x,-y,z
loop_
_atom_site_type_symbol
_atom_site_label
_atom_site_fract_x
_atom_site_fract_y
_atom_site_fract_z
Si Si1 0.957371 0.165925 0.264669
Si Si2 0.834396 0.832212 0.140978
Si Si3 0.108080 0.831991 0.175770
Si Si4 0.521347 0.670623 0.588679
Si Si5 0.164157 0.331182 0.022558
Si Si6 0.831883 0.667211 0.675480
O O1 0.882818 0.213498 0.219033
O O2 0.023984 0.190309 0.201944
O O3 0.966161 0.262295 0.345174
O O4 0.953957 0.000000 0.293810
O O5 0.750000 0.804220 0.165447
O O6 0.848557 0.000000 0.117445
O O7 0.858105 0.734110 0.064752
O O8 0.116996 0.750579 0.090468
O O9 0.161664 0.763594 0.243554
O O10 0.129265 0.000000 0.165168
O O11 0.500000 0.733999 0.500000
O O12 0.508813 0.500000 0.590746
O O13 0.606446 0.712463 0.608788
O O14 0.250000 0.304739 0.040566
O O15 0.143663 0.500000 0.023181
O O16 0.750000 0.691061 0.637959
O O17 0.843556 0.500000 0.701532
#
# Coordination Sequence:
#
# PCOD8208013 Si02
#       6
#     8   8   8   8   8   8
#     4   9  19  34  51  72  95 121 155 194 237 282
#     4   9  18  34  53  69  90 124 163 199 234 274
#     4  10  19  30  46  69  97 126 156 193 236 281
#     4   9  18  33  52  73  97 125 156 190 232 284
#     4  10  20  32  46  67  96 128 162 198 234 273
#     4   9  17  30  48  69  95 126 158 193 232 275
#
# _framework density 17.559055000000001
#
# number of rings (size 3 to 8) (size 9 to 14) (size 15 to 20)
#    0.000    2.667    0.000    1.500    0.000    5.667 
#    0.000    4.167    0.000    1.000    0.000    0.000 
#    0.000    0.000    0.000    0.000    0.000    0.000 
#
# Total GULP energy -595268.758913 kJ/mol
# GULP energy per Si atom -12401.432477 kJ/mol
# Density = 1.751909 g / cm^3
# Si number density = 17.559055 Si / 1000 Ang^3
#
#
#
# Elastic Constant Matrix: (Units=GPa)
#
#
# Indices 1 2 3 4 5 6 
#
# 1 88.6479 38.2794 71.2441 0.0000 0.0000 0.0000
# 2 38.2794 75.5515 61.6460 0.0000 0.0000 0.0000
# 3 71.2441 61.6460 140.6507 0.0000 0.0000 0.0000
# 4 0.0000 0.0000 0.0000 26.8429 0.0000 0.0000
# 5 0.0000 0.0000 0.0000 0.0000 21.7489 0.0000
# 6 0.0000 0.0000 0.0000 0.0000 0.0000 21.9644
#
#
#
# Elastic Compliance Matrix: (Units=1/GPa)
#
#
# Indices 1 2 3 4 5 6 
#
# 1 0.019404 -0.002820 -0.008593 0.000000 0.000000 0.000000
# 2 -0.002820 0.021015 -0.007782 0.000000 0.000000 0.000000
# 3 -0.008593 -0.007782 0.014873 0.000000 0.000000 0.000000
# 4 0.000000 0.000000 0.000000 0.037254 0.000000 0.000000
# 5 0.000000 0.000000 0.000000 0.000000 0.045979 0.000000
# 6 0.000000 0.000000 0.000000 0.000000 0.000000 0.045528
#
#
# Mechanical properties :
#
#
# Convention : Reuss Voigt Hill
#
# Bulk Modulus (GPa) = 59.16475 71.90988 65.53731
# Shear Modulus (GPa) = 21.92241 23.02329 22.47285
#
# Velocity S-wave (km/s) = 3.53724 3.62497 3.58137
# Velocity P-wave (km/s) = 7.10286 7.65262 7.38286
#
# Compressibility (1/GPa) = 0.01690196
#
# Stress axis : x y z
#
# Youngs Moduli (GPa) = 51.53523 47.58595 67.23543
#
# Poissons Ratio (x) = 0.13420 0.57774
# Poissons Ratio (y) = 0.14534 0.52323
# Poissons Ratio (z) = 0.44283 0.37031
#
# Static dielectric constant tensor:
#      x y z
#    x 3.319920 0.000000 0.000000 
#    y 0.000000 3.314240 0.000000 
#    z 0.000000 0.000000 3.169520 
# 
# 
# High freq. dielectric constant tensor:
#      x y z
#    x 1.676200 0.000000 0.000000 
#    y 0.000000 1.681360 0.000000 
#    z 0.000000 0.000000 1.664220 
# 
# From -- ./inp_files/24730.got.cif
#   From: 2010.03.12/outbox.cif.g09.slc.cpg/sg51_13_cif.got.tgz:24730.got - 2010.04.16 13:43:02.
