data_PCOD8208415
_publ_section_title
;
Structure prediction by ZEFSAII (Michael W. Deem and Ramdas Pophale) SiO2 
 PCOD8208415
Probable space group: P M M A
;
_chemical_formula_sum "Si O2"
_cell_formula_units_Z 48
_cell_length_a 8.733282
_cell_length_b 13.638539
_cell_length_c 24.135239
_cell_angle_alpha 90.000000
_cell_angle_beta 90.000000
_cell_angle_gamma 90.000000
_cell_volume 2874.729182
_symmetry_space_group_name_H-M "P M M A"
_symmetry_group_IT_number 51
_symmetry_cell_setting 'orthorhombic'
loop_
_space_group_symop_operation_xyz
x,y,z
1/2-x,-y,z
1/2+x,-y,-z
-x,y,-z
-x,-y,-z
1/2+x,y,-z
1/2-x,y,z
x,-y,z
loop_
_atom_site_type_symbol
_atom_site_label
_atom_site_fract_x
_atom_site_fract_y
_atom_site_fract_z
Si Si1 0.930583 0.110672 0.832697
Si Si2 0.077464 0.883314 0.944793
Si Si3 0.428900 0.611937 0.661386
Si Si4 0.431754 0.286709 0.442068
Si Si5 0.068145 0.214580 0.278464
Si Si6 0.070602 0.887848 0.618826
O O1 0.750000 0.108942 0.837637
O O2 0.984388 0.178483 0.781977
O O3 0.995843 0.156474 0.889447
O O4 0.992709 0.000000 0.823120
O O5 0.250000 0.845795 0.943866
O O6 0.065261 0.000000 0.946017
O O7 0.000000 0.839176 0.000000
O O8 0.250000 0.632757 0.652621
O O9 0.461152 0.500000 0.677760
O O10 0.516382 0.636872 0.604718
O O11 0.493291 0.679241 0.710937
O O12 0.500000 0.323798 0.500000
O O13 0.250000 0.283001 0.444998
O O14 0.496791 0.178535 0.429070
O O15 0.250000 0.222413 0.283915
O O16 0.008110 0.135915 0.322714
O O17 0.250000 0.864887 0.623434
O O18 0.038525 0.000000 0.603133
#
# Coordination Sequence:
#
# PCOD8208415 Si02
#       6
#     8   8   8   8   8   8
#     4   9  17  28  42  63  93 127 160 192 226 265
#     4   9  16  25  38  57  84 121 162 199 232 265
#     4  10  21  37  55  73  94 119 147 184 231 280
#     4  11  22  36  54  73  95 120 149 187 226 271
#     4  10  19  31  49  71  95 122 154 193 232 274
#     4  10  20  33  49  69  95 126 157 189 225 267
#
# _framework density 16.697226000000001
#
# number of rings (size 3 to 8) (size 9 to 14) (size 15 to 20)
#    0.000    2.167    0.000    6.000    0.000    7.333 
#    0.000    1.667    0.000    0.000    0.000    0.000 
#    0.000    0.667    0.000    2.167    0.000    3.167 
#
# Total GULP energy -595227.867753 kJ/mol
# GULP energy per Si atom -12400.580578 kJ/mol
# Density = 1.665922 g / cm^3
# Si number density = 16.697226 Si / 1000 Ang^3
#
#
#
# Elastic Constant Matrix: (Units=GPa)
#
#
# Indices 1 2 3 4 5 6 
#
# 1 69.1733 36.7075 36.0977 0.0000 0.0000 0.0000
# 2 36.7075 81.4601 37.9480 0.0000 0.0000 0.0000
# 3 36.0977 37.9480 130.5585 0.0000 0.0000 0.0000
# 4 0.0000 0.0000 0.0000 16.8269 0.0000 0.0000
# 5 0.0000 0.0000 0.0000 0.0000 31.8261 0.0000
# 6 0.0000 0.0000 0.0000 0.0000 0.0000 22.2508
#
#
#
# Elastic Compliance Matrix: (Units=1/GPa)
#
#
# Indices 1 2 3 4 5 6 
#
# 1 0.020229 -0.007529 -0.003404 0.000000 0.000000 0.000000
# 2 -0.007529 0.017001 -0.002860 0.000000 0.000000 0.000000
# 3 -0.003404 -0.002860 0.009432 0.000000 0.000000 0.000000
# 4 0.000000 0.000000 0.000000 0.059429 0.000000 0.000000
# 5 0.000000 0.000000 0.000000 0.000000 0.031421 0.000000
# 6 0.000000 0.000000 0.000000 0.000000 0.000000 0.044942
#
#
# Mechanical properties :
#
#
# Convention : Reuss Voigt Hill
#
# Bulk Modulus (GPa) = 52.42646 55.85538 54.14092
# Shear Modulus (GPa) = 23.10552 25.54334 24.32443
#
# Velocity S-wave (km/s) = 3.72397 3.91550 3.82094
# Velocity P-wave (km/s) = 7.06803 7.34616 7.20844
#
# Compressibility (1/GPa) = 0.01907434
#
# Stress axis : x y z
#
# Youngs Moduli (GPa) = 49.43496 58.81987 106.02328
#
# Poissons Ratio (x) = 0.44288 0.36095
# Poissons Ratio (y) = 0.37222 0.30320
# Poissons Ratio (z) = 0.16830 0.16821
#
# Static dielectric constant tensor:
#      x y z
#    x 3.256690 0.000000 0.000000 
#    y 0.000000 2.929380 0.000000 
#    z 0.000000 0.000000 3.224750 
# 
# 
# High freq. dielectric constant tensor:
#      x y z
#    x 1.661040 0.000000 0.000000 
#    y 0.000000 1.606470 0.000000 
#    z 0.000000 0.000000 1.641370 
# 
# From -- ./inp_files/34558.got.cif
#   From: 2010.03.12/outbox.cif.g09.slc.cpg/sg51_18_cif.got.tgz:34558.got - 2010.04.16 13:43:02.
