data_PCOD8208162
_publ_section_title
;
Structure prediction by ZEFSAII (Michael W. Deem and Ramdas Pophale) SiO2 
 PCOD8208162
Probable space group: P M M A
;
_chemical_formula_sum "Si O2"
_cell_formula_units_Z 64
_cell_length_a 33.410441
_cell_length_b 8.981898
_cell_length_c 11.592586
_cell_angle_alpha 90.000000
_cell_angle_beta 90.000000
_cell_angle_gamma 90.000000
_cell_volume 3478.809548
_symmetry_space_group_name_H-M "P M M A"
_symmetry_group_IT_number 51
_symmetry_cell_setting 'orthorhombic'
loop_
_space_group_symop_operation_xyz
x,y,z
1/2-x,-y,z
1/2+x,-y,-z
-x,y,-z
-x,-y,-z
1/2+x,y,-z
1/2-x,y,z
x,-y,z
loop_
_atom_site_type_symbol
_atom_site_label
_atom_site_fract_x
_atom_site_fract_y
_atom_site_fract_z
Si Si1 0.378641 0.329114 0.380541
Si Si2 0.561702 0.671761 0.813430
Si Si3 0.704530 0.169969 0.290425
Si Si4 0.633941 0.675359 0.199825
Si Si5 0.587874 0.173276 0.403597
Si Si6 0.987058 0.170198 0.259742
Si Si7 0.071713 0.826847 0.948664
Si Si8 0.794427 0.328634 0.530410
O O1 0.386195 0.500000 0.417059
O O2 0.396372 0.300158 0.253108
O O3 0.403479 0.224543 0.466953
O O4 0.330725 0.293697 0.380166
O O5 0.556928 0.500000 0.847791
O O6 0.525000 0.720866 0.731009
O O7 0.558756 0.772287 0.926307
O O8 0.750000 0.186196 0.250743
O O9 0.679529 0.267113 0.198882
O O10 0.698269 0.227066 0.420052
O O11 0.689946 0.000000 0.287395
O O12 0.632151 0.500000 0.193615
O O13 0.615567 0.731895 0.319418
O O14 0.611563 0.740240 0.088777
O O15 0.541461 0.200446 0.369950
O O16 0.598469 0.000000 0.387858
O O17 0.963455 0.206393 0.141705
O O18 0.002035 0.000000 0.259526
O O19 0.081871 0.000000 0.952603
O O20 0.750000 0.295283 0.584492
O O21 0.796500 0.500000 0.490330
#
# Coordination Sequence:
#
# PCOD8208162 Si02
#       8
#     8   8   8   8   8   8   8   8
#     4  10  21  35  51  76 111 143 174 218 264 315
#     4  11  23  36  52  77 106 139 180 222 268 317
#     4  10  19  30  48  78 112 140 171 213 259 313
#     4  11  20  32  53  79 108 138 171 215 267 321
#     4  10  20  34  53  77 105 140 178 214 264 319
#     4   9  20  37  55  76 102 133 174 224 271 322
#     4  10  21  38  58  77 100 134 178 225 272 318
#     4   9  17  31  52  76 103 139 178 214 256 305
#
# _framework density 18.397099999999998
#
# number of rings (size 3 to 8) (size 9 to 14) (size 15 to 20)
#    0.000    2.000    1.250    3.750    0.000    6.750 
#    0.000    2.500    0.000    0.750    0.000    1.750 
#    0.000    0.000    0.000    0.000    0.000    0.000 
#
# Total GULP energy -793574.138338 kJ/mol
# GULP energy per Si atom -12399.595912 kJ/mol
# Density = 1.835523 g / cm^3
# Si number density = 18.397100 Si / 1000 Ang^3
#
#
#
# Elastic Constant Matrix: (Units=GPa)
#
#
# Indices 1 2 3 4 5 6 
#
# 1 113.7227 49.6479 26.4452 0.0000 0.0000 0.0000
# 2 49.6479 105.1901 22.0115 0.0000 0.0000 0.0000
# 3 26.4452 22.0115 39.6391 0.0000 0.0000 0.0000
# 4 0.0000 0.0000 0.0000 23.6648 0.0000 0.0000
# 5 0.0000 0.0000 0.0000 0.0000 23.4167 0.0000
# 6 0.0000 0.0000 0.0000 0.0000 0.0000 29.3078
#
#
#
# Elastic Compliance Matrix: (Units=1/GPa)
#
#
# Indices 1 2 3 4 5 6 
#
# 1 0.012058 -0.004535 -0.005526 0.000000 0.000000 0.000000
# 2 -0.004535 0.012462 -0.003895 0.000000 0.000000 0.000000
# 3 -0.005526 -0.003895 0.031077 0.000000 0.000000 0.000000
# 4 0.000000 0.000000 0.000000 0.042257 0.000000 0.000000
# 5 0.000000 0.000000 0.000000 0.000000 0.042705 0.000000
# 6 0.000000 0.000000 0.000000 0.000000 0.000000 0.034121
#
#
# Mechanical properties :
#
#
# Convention : Reuss Voigt Hill
#
# Bulk Modulus (GPa) = 36.11995 50.52902 43.32448
# Shear Modulus (GPa) = 23.60496 25.97435 24.78965
#
# Velocity S-wave (km/s) = 3.58590 3.76156 3.67478
# Velocity P-wave (km/s) = 6.06803 6.81111 6.45028
#
# Compressibility (1/GPa) = 0.02768553
#
# Stress axis : x y z
#
# Youngs Moduli (GPa) = 82.93101 80.24436 32.17785
#
# Poissons Ratio (x) = 0.36390 0.17783
# Poissons Ratio (y) = 0.37608 0.12532
# Poissons Ratio (z) = 0.45831 0.31252
#
# Static dielectric constant tensor:
#      x y z
#    x 3.689210 0.000000 0.000000 
#    y 0.000000 3.434440 0.000000 
#    z 0.000000 0.000000 3.079870 
# 
# 
# High freq. dielectric constant tensor:
#      x y z
#    x 1.722270 0.000000 0.000000 
#    y 0.000000 1.723570 0.000000 
#    z 0.000000 0.000000 1.674920 
# 
# From -- ./inp_files/19586.got.cif
#   From: 2010.03.12/outbox.cif.g09.slc.cpg/sg51_10_cif.got.tgz:19586.got - 2010.04.16 13:43:02.
