data_PCOD8208056
_publ_section_title
;
Structure prediction by ZEFSAII (Michael W. Deem and Ramdas Pophale) SiO2 
 PCOD8208056
Probable space group: P M M A
;
_chemical_formula_sum "Si O2"
_cell_formula_units_Z 56
_cell_length_a 13.848298
_cell_length_b 9.249036
_cell_length_c 23.842945
_cell_angle_alpha 90.000000
_cell_angle_beta 90.000000
_cell_angle_gamma 90.000000
_cell_volume 3053.885622
_symmetry_space_group_name_H-M "P M M A"
_symmetry_group_IT_number 51
_symmetry_cell_setting 'orthorhombic'
loop_
_space_group_symop_operation_xyz
x,y,z
1/2-x,-y,z
1/2+x,-y,-z
-x,y,-z
-x,-y,-z
1/2+x,y,-z
1/2-x,y,z
x,-y,z
loop_
_atom_site_type_symbol
_atom_site_label
_atom_site_fract_x
_atom_site_fract_y
_atom_site_fract_z
Si Si1 0.137705 0.832024 0.642149
Si Si2 0.047041 0.328031 0.084412
Si Si3 0.864815 0.339288 0.466401
Si Si4 0.523079 0.328467 0.694187
Si Si5 0.356621 0.329147 0.411334
Si Si6 0.859279 0.327801 0.802254
Si Si7 0.856424 0.327967 0.028849
O O1 0.250000 0.800846 0.652211
O O2 0.103457 0.771182 0.581728
O O3 0.081148 0.749156 0.691869
O O4 0.113118 0.000000 0.643810
O O5 0.049481 0.500000 0.086754
O O6 0.088466 0.263975 0.142350
O O7 0.936198 0.275223 0.074244
O O8 0.113484 0.273152 0.033095
O O9 0.750000 0.344704 0.473190
O O10 0.903207 0.500000 0.449981
O O11 0.905402 0.291646 0.527953
O O12 0.508441 0.500000 0.695076
O O13 0.579111 0.270179 0.639389
O O14 0.580845 0.274106 0.748580
O O15 0.250000 0.258923 0.406082
O O16 0.346766 0.500000 0.405594
O O17 0.750000 0.267727 0.798839
O O18 0.856935 0.500000 0.804031
O O19 0.750000 0.265998 0.044081
O O20 0.854003 0.500000 0.028223
#
# Coordination Sequence:
#
# PCOD8208056 Si02
#       7
#     8   8   8   8   8   8   8
#     4  10  21  36  50  63  84 115 148 184 227 273
#     4   8  13  20  31  50  76 110 153 191 224 264
#     4   8  14  27  48  69  87 110 142 180 221 268
#     4  10  19  30  47  69  90 115 149 186 222 263
#     4   8  14  26  45  69  94 117 142 175 219 271
#     4   9  16  26  41  61  85 113 147 187 226 265
#     4   8  12  18  29  46  73 111 151 189 226 264
#
# _framework density 18.337295000000001
#
# number of rings (size 3 to 8) (size 9 to 14) (size 15 to 20)
#    0.000    3.286    0.000    3.000    0.000    4.857 
#    0.000    4.286    0.000    5.143    0.000    0.000 
#    0.000    0.000    0.000    2.571    0.000   12.571 
#
# Total GULP energy -694008.862134 kJ/mol
# GULP energy per Si atom -12393.015395 kJ/mol
# Density = 1.829556 g / cm^3
# Si number density = 18.337295 Si / 1000 Ang^3
#
#
#
# Elastic Constant Matrix: (Units=GPa)
#
#
# Indices 1 2 3 4 5 6 
#
# 1 120.7691 29.0344 80.8119 0.0000 0.0000 0.0000
# 2 29.0344 30.1618 27.6103 0.0000 0.0000 0.0000
# 3 80.8119 27.6103 139.6476 0.0000 0.0000 0.0000
# 4 0.0000 0.0000 0.0000 1.0797 0.0000 0.0000
# 5 0.0000 0.0000 0.0000 0.0000 31.7091 0.0000
# 6 0.0000 0.0000 0.0000 0.0000 0.0000 11.3853
#
#
#
# Elastic Compliance Matrix: (Units=1/GPa)
#
#
# Indices 1 2 3 4 5 6 
#
# 1 0.014902 -0.007877 -0.007066 0.000000 0.000000 0.000000
# 2 -0.007877 0.044644 -0.004269 0.000000 0.000000 0.000000
# 3 -0.007066 -0.004269 0.012094 0.000000 0.000000 0.000000
# 4 0.000000 0.000000 0.000000 0.926167 0.000000 0.000000
# 5 0.000000 0.000000 0.000000 0.000000 0.031537 0.000000
# 6 0.000000 0.000000 0.000000 0.000000 0.000000 0.087832
#
#
# Mechanical properties :
#
#
# Convention : Reuss Voigt Hill
#
# Bulk Modulus (GPa) = 30.10493 62.83241 46.46867
# Shear Modulus (GPa) = 4.28569 19.04295 11.66432
#
# Velocity S-wave (km/s) = 1.53043 3.22604 2.52484
# Velocity P-wave (km/s) = 4.42447 6.94375 5.82201
#
# Compressibility (1/GPa) = 0.03321715
#
# Stress axis : x y z
#
# Youngs Moduli (GPa) = 67.10326 22.39929 82.68480
#
# Poissons Ratio (x) = 0.17643 0.58429
# Poissons Ratio (y) = 0.52855 0.35296
# Poissons Ratio (z) = 0.47418 0.09562
#
# Static dielectric constant tensor:
#      x y z
#    x 3.717410 0.000000 0.000000 
#    y 0.000000 2.675310 0.000000 
#    z 0.000000 0.000000 3.527880 
# 
# 
# High freq. dielectric constant tensor:
#      x y z
#    x 1.726500 0.000000 0.000000 
#    y 0.000000 1.630700 0.000000 
#    z 0.000000 0.000000 1.702620 
# 
# From -- ./inp_files/33446.got.cif
#   From: 2010.03.12/outbox.cif.g09.slc.cpg/sg51_17_cif.got.tgz:33446.got - 2010.04.16 13:43:02.
