data_PCOD8208280
_publ_section_title
;
Structure prediction by ZEFSAII (Michael W. Deem and Ramdas Pophale) SiO2 
 PCOD8208280
Probable space group: P M M A
;
_chemical_formula_sum "Si O2"
_cell_formula_units_Z 48
_cell_length_a 9.514341
_cell_length_b 15.018947
_cell_length_c 15.863451
_cell_angle_alpha 90.000000
_cell_angle_beta 90.000000
_cell_angle_gamma 90.000000
_cell_volume 2266.813910
_symmetry_space_group_name_H-M "P M M A"
_symmetry_group_IT_number 51
_symmetry_cell_setting 'orthorhombic'
loop_
_space_group_symop_operation_xyz
x,y,z
1/2-x,-y,z
1/2+x,-y,-z
-x,y,-z
-x,-y,-z
1/2+x,y,-z
1/2-x,y,z
x,-y,z
loop_
_atom_site_type_symbol
_atom_site_label
_atom_site_fract_x
_atom_site_fract_y
_atom_site_fract_z
Si Si1 0.594957 0.368092 0.574226
Si Si2 0.094155 0.902738 0.128209
Si Si3 0.089191 0.708478 0.077474
Si Si4 0.404911 0.836772 0.427733
Si Si5 0.092223 0.100100 0.713921
Si Si6 0.085570 0.600975 0.238789
O O1 0.500000 0.412050 0.500000
O O2 0.750000 0.413546 0.573235
O O3 0.614940 0.265686 0.551148
O O4 0.523175 0.380931 0.667142
O O5 0.250000 0.897118 0.171487
O O6 0.077332 0.816060 0.069986
O O7 0.966213 0.898470 0.192441
O O8 0.083722 0.000000 0.080843
O O9 0.250000 0.677123 0.066409
O O10 0.028403 0.669040 0.166453
O O11 0.000000 0.668244 0.000000
O O12 0.500000 0.883427 0.500000
O O13 0.250000 0.882447 0.423598
O O14 0.485761 0.841540 0.339924
O O15 0.250000 0.140291 0.712349
O O16 0.093879 0.000000 0.678071
O O17 0.250000 0.618550 0.246876
O O18 0.050256 0.500000 0.210855
#
# Coordination Sequence:
#
# PCOD8208280 Si02
#       6
#     8   8   8   8   8   8
#     4   9  18  33  54  80 107 137 176 220 267 321
#     4   9  18  34  55  77 103 137 175 215 263 322
#     4  10  21  37  57  82 110 143 185 228 272 323
#     4  10  19  31  47  67  95 133 176 221 268 320
#     4  10  20  32  47  70  99 131 171 220 271 322
#     4   9  18  34  56  80 109 147 185 220 265 325
#
# _framework density 21.175094999999999
#
# number of rings (size 3 to 8) (size 9 to 14) (size 15 to 20)
#    0.000    2.500    0.000    2.000    0.000    6.333 
#    0.000    0.833    0.000    1.000    0.000    0.000 
#    0.000    0.000    0.000    0.000    0.000    0.000 
#
# Total GULP energy -594628.976058 kJ/mol
# GULP energy per Si atom -12388.103668 kJ/mol
# Density = 2.112690 g / cm^3
# Si number density = 21.175095 Si / 1000 Ang^3
#
#
#
# Elastic Constant Matrix: (Units=GPa)
#
#
# Indices 1 2 3 4 5 6 
#
# 1 125.1525 14.7375 52.5013 0.0000 0.0000 0.0000
# 2 14.7375 60.0784 27.8259 0.0000 0.0000 0.0000
# 3 52.5013 27.8259 138.9697 0.0000 0.0000 0.0000
# 4 0.0000 0.0000 0.0000 4.9289 0.0000 0.0000
# 5 0.0000 0.0000 0.0000 0.0000 36.1189 0.0000
# 6 0.0000 0.0000 0.0000 0.0000 0.0000 -6.4197
#
#
#
# Elastic Compliance Matrix: (Units=1/GPa)
#
#
# Indices 1 2 3 4 5 6 
#
# 1 0.009525 -0.000738 -0.003450 0.000000 0.000000 0.000000
# 2 -0.000738 0.018404 -0.003406 0.000000 0.000000 0.000000
# 3 -0.003450 -0.003406 0.009181 0.000000 0.000000 0.000000
# 4 0.000000 0.000000 0.000000 0.202886 0.000000 0.000000
# 5 0.000000 0.000000 0.000000 0.000000 0.027686 0.000000
# 6 0.000000 0.000000 0.000000 0.000000 0.000000 -0.155770
#
#
# Mechanical properties :
#
#
# Convention : Reuss Voigt Hill
#
# Bulk Modulus (GPa) = 45.62057 57.14778 51.38418
# Shear Modulus (GPa) = 37.20005 22.20134 29.70069
#
# Velocity S-wave (km/s) = 4.19595 3.24151 3.74923
# Velocity P-wave (km/s) = 6.71311 6.40755 6.56211
#
# Compressibility (1/GPa) = 0.02191993
#
# Stress axis : x y z
#
# Youngs Moduli (GPa) = 104.99053 54.33737 108.91642
#
# Poissons Ratio (x) = 0.04012 0.37581
# Poissons Ratio (y) = 0.07752 0.37097
# Poissons Ratio (z) = 0.36227 0.18507
#
# Static dielectric constant tensor:
#      x y z
#    x 3.964930 0.000000 0.000000 
#    y 0.000000 3.747850 0.000000 
#    z 0.000000 0.000000 3.610000 
# 
# 
# High freq. dielectric constant tensor:
#      x y z
#    x 1.812770 0.000000 0.000000 
#    y 0.000000 1.820540 0.000000 
#    z 0.000000 0.000000 1.813050 
# 
# From -- ./inp_files/21092.got.cif
#   From: 2010.03.12/outbox.cif.g09.slc.cpg/sg51_11_cif.got.tgz:21092.got - 2010.04.16 13:43:02.
