data_PCOD8208560
_publ_section_title
;
Structure prediction by ZEFSAII (Michael W. Deem and Ramdas Pophale) SiO2 
 PCOD8208560
Probable space group: P M M A
;
_chemical_formula_sum "Si O2"
_cell_formula_units_Z 40
_cell_length_a 20.615889
_cell_length_b 9.600832
_cell_length_c 11.740892
_cell_angle_alpha 90.000000
_cell_angle_beta 90.000000
_cell_angle_gamma 90.000000
_cell_volume 2323.871077
_symmetry_space_group_name_H-M "P M M A"
_symmetry_group_IT_number 51
_symmetry_cell_setting 'orthorhombic'
loop_
_space_group_symop_operation_xyz
x,y,z
1/2-x,-y,z
1/2+x,-y,-z
-x,y,-z
-x,-y,-z
1/2+x,y,-z
1/2-x,y,z
x,-y,z
loop_
_atom_site_type_symbol
_atom_site_label
_atom_site_fract_x
_atom_site_fract_y
_atom_site_fract_z
Si Si1 0.033377 0.164149 0.327108
Si Si2 0.674668 0.663959 0.041204
Si Si3 0.437116 0.165306 0.074921
Si Si4 0.596123 0.163819 0.446006
Si Si5 0.825658 0.349016 0.295963
O O1 0.050240 0.222184 0.202807
O O2 0.087830 0.204745 0.420934
O O3 0.964498 0.220382 0.371819
O O4 0.027304 0.000000 0.320625
O O5 0.750000 0.702965 0.016351
O O6 0.663735 0.500000 0.018400
O O7 0.654194 0.703225 0.170249
O O8 0.627725 0.755950 0.963193
O O9 0.424149 0.000000 0.070494
O O10 0.500000 0.204931 0.000000
O O11 0.658107 0.239948 0.394749
O O12 0.605576 0.000000 0.432493
O O13 0.750000 0.369396 0.295216
O O14 0.858021 0.500000 0.321242
#
# Coordination Sequence:
#
# PCOD8208560 Si02
#       5
#     8   8   8   8   8
#     4   8  16  30  47  70  98 122 146 187 239 276
#     4   9  19  35  51  68  95 130 163 196 238 285
#     4  10  19  31  50  76 101 124 157 200 240 281
#     4   9  16  30  51  69  90 122 155 186 225 278
#     4   9  18  32  48  67  93 121 150 192 239 272
#
# _framework density 17.212658000000001
#
# number of rings (size 3 to 8) (size 9 to 14) (size 15 to 20)
#    0.000    3.000    0.000    3.600    0.000    3.600 
#    0.000    7.000    0.000    6.000    0.000    0.000 
#    0.000    0.000    0.000    0.000    0.000    0.000 
#
# Total GULP energy -495699.580139 kJ/mol
# GULP energy per Si atom -12392.489503 kJ/mol
# Density = 1.717348 g / cm^3
# Si number density = 17.212658 Si / 1000 Ang^3
#
#
#
# Elastic Constant Matrix: (Units=GPa)
#
#
# Indices 1 2 3 4 5 6 
#
# 1 52.2219 30.9892 48.3279 0.0000 0.0000 0.0000
# 2 30.9892 47.4383 45.3468 0.0000 0.0000 0.0000
# 3 48.3279 45.3468 148.3098 0.0000 0.0000 0.0000
# 4 0.0000 0.0000 0.0000 -5.7733 0.0000 0.0000
# 5 0.0000 0.0000 0.0000 0.0000 31.8628 0.0000
# 6 0.0000 0.0000 0.0000 0.0000 0.0000 23.5444
#
#
#
# Elastic Compliance Matrix: (Units=1/GPa)
#
#
# Indices 1 2 3 4 5 6 
#
# 1 0.034910 -0.016858 -0.006221 0.000000 0.000000 0.000000
# 2 -0.016858 0.037927 -0.006103 0.000000 0.000000 0.000000
# 3 -0.006221 -0.006103 0.010636 0.000000 0.000000 0.000000
# 4 0.000000 0.000000 0.000000 -0.173212 0.000000 0.000000
# 5 0.000000 0.000000 0.000000 0.000000 0.031385 0.000000
# 6 0.000000 0.000000 0.000000 0.000000 0.000000 0.042473
#
#
# Mechanical properties :
#
#
# Convention : Reuss Voigt Hill
#
# Bulk Modulus (GPa) = 39.82815 55.25530 47.54172
# Shear Modulus (GPa) = 98.32303 18.14719 58.23511
#
# Velocity S-wave (km/s) = 7.56614 3.25051 5.82290
# Velocity P-wave (km/s) = 9.97586 6.80140 8.53747
#
# Compressibility (1/GPa) = 0.02510787
#
# Stress axis : x y z
#
# Youngs Moduli (GPa) = 28.64473 26.36667 94.02118
#
# Poissons Ratio (x) = 0.44450 0.58493
# Poissons Ratio (y) = 0.48290 0.57380
# Poissons Ratio (z) = 0.17821 0.16091
#
# Static dielectric constant tensor:
#      x y z
#    x 3.044000 0.000000 0.000000 
#    y 0.000000 2.958530 0.000000 
#    z 0.000000 0.000000 3.649730 
# 
# 
# High freq. dielectric constant tensor:
#      x y z
#    x 1.652120 0.000000 0.000000 
#    y 0.000000 1.644250 0.000000 
#    z 0.000000 0.000000 1.669200 
# 
# From -- ./inp_files/16201.got.cif
#   From: 2010.03.12/outbox.cif.g09.slc.cpg/sg51_9_cif.got.tgz:16201.got - 2010.04.16 13:43:02.
