data_PCOD8208208
_publ_section_title
;
Structure prediction by ZEFSAII (Michael W. Deem and Ramdas Pophale) SiO2 
 PCOD8208208
Probable space group: P M M A
;
_chemical_formula_sum "Si O2"
_cell_formula_units_Z 52
_cell_length_a 8.959909
_cell_length_b 26.620186
_cell_length_c 13.540035
_cell_angle_alpha 90.000000
_cell_angle_beta 90.000000
_cell_angle_gamma 90.000000
_cell_volume 3229.493921
_symmetry_space_group_name_H-M "P M M A"
_symmetry_group_IT_number 51
_symmetry_cell_setting 'orthorhombic'
loop_
_space_group_symop_operation_xyz
x,y,z
1/2-x,-y,z
1/2+x,-y,-z
-x,y,-z
-x,-y,-z
1/2+x,y,-z
1/2-x,y,z
x,-y,z
loop_
_atom_site_type_symbol
_atom_site_label
_atom_site_fract_x
_atom_site_fract_y
_atom_site_fract_z
Si Si1 0.425513 0.762849 0.900013
Si Si2 0.076035 0.057738 0.896396
Si Si3 0.576011 0.290974 0.297855
Si Si4 0.075949 0.500000 0.604165
Si Si5 0.574960 0.854436 0.797572
Si Si6 0.576378 0.798730 0.599220
Si Si7 0.925153 0.608055 0.394248
O O1 0.250000 0.770093 0.914895
O O2 0.462893 0.722110 0.815335
O O3 0.497192 0.816248 0.873124
O O4 0.500000 0.742293 0.000000
O O5 0.250000 0.070779 0.903963
O O6 0.997488 0.090894 0.812081
O O7 0.049576 0.000000 0.867087
O O8 0.000000 0.070774 0.000000
O O9 0.750000 0.282226 0.318660
O O10 0.487122 0.255640 0.372709
O O11 0.525661 0.348330 0.318316
O O12 0.250000 0.500000 0.585243
O O13 0.031011 0.553409 0.655333
O O14 0.000000 0.500000 0.500000
O O15 0.750000 0.855542 0.820642
O O16 0.541938 0.838620 0.685240
O O17 0.500000 0.819221 0.500000
O O18 0.750000 0.792522 0.579773
O O19 0.750000 0.611049 0.413293
O O20 0.000000 0.616321 0.500000
#
# Coordination Sequence:
#
# PCOD8208208 Si02
#       7
#     8   8   8   4   8   8   8
#     4  10  19  31  46  64  88 116 145 180 219 261
#     4  10  20  33  50  72  96 121 148 180 219 261
#     4   9  18  30  44  63  87 115 147 181 218 260
#     4   8  14  24  38  56  81 110 140 174 211 254
#     4  10  20  33  49  69  92 119 149 180 216 259
#     4  10  20  32  47  67  91 119 150 182 217 257
#     4   9  16  26  40  60  85 113 143 175 213 256
#
# _framework density 16.101593999999999
#
# number of rings (size 3 to 8) (size 9 to 14) (size 15 to 20)
#    0.000    2.462    0.000    2.769    0.000    5.231 
#    0.000    0.000    0.000    0.462    0.000    0.538 
#    0.000    0.000    0.000    0.000    0.000    0.000 
#
# Total GULP energy -644620.029787 kJ/mol
# GULP energy per Si atom -12396.539034 kJ/mol
# Density = 1.606495 g / cm^3
# Si number density = 16.101594 Si / 1000 Ang^3
#
#
#
# Elastic Constant Matrix: (Units=GPa)
#
#
# Indices 1 2 3 4 5 6 
#
# 1 75.6250 50.5382 46.4290 0.0000 0.0000 0.0000
# 2 50.5382 131.1116 58.6002 0.0000 0.0000 0.0000
# 3 46.4290 58.6002 94.9973 0.0000 0.0000 0.0000
# 4 0.0000 0.0000 0.0000 20.6606 0.0000 0.0000
# 5 0.0000 0.0000 0.0000 0.0000 27.1028 0.0000
# 6 0.0000 0.0000 0.0000 0.0000 0.0000 20.2172
#
#
#
# Elastic Compliance Matrix: (Units=1/GPa)
#
#
# Indices 1 2 3 4 5 6 
#
# 1 0.020884 -0.004816 -0.007236 0.000000 0.000000 0.000000
# 2 -0.004816 0.011641 -0.004827 0.000000 0.000000 0.000000
# 3 -0.007236 -0.004827 0.017041 0.000000 0.000000 0.000000
# 4 0.000000 0.000000 0.000000 0.048401 0.000000 0.000000
# 5 0.000000 0.000000 0.000000 0.000000 0.036897 0.000000
# 6 0.000000 0.000000 0.000000 0.000000 0.000000 0.049463
#
#
# Mechanical properties :
#
#
# Convention : Reuss Voigt Hill
#
# Bulk Modulus (GPa) = 63.26080 68.09653 65.67867
# Shear Modulus (GPa) = 22.38601 23.34054 22.86327
#
# Velocity S-wave (km/s) = 3.73271 3.81146 3.77230
# Velocity P-wave (km/s) = 7.61258 7.85833 7.73643
#
# Compressibility (1/GPa) = 0.01580758
#
# Stress axis : x y z
#
# Youngs Moduli (GPa) = 47.88373 85.90441 58.68225
#
# Poissons Ratio (x) = 0.41369 0.42464
# Poissons Ratio (y) = 0.23059 0.28327
# Poissons Ratio (z) = 0.34650 0.41467
#
# Static dielectric constant tensor:
#      x y z
#    x 2.787640 0.000000 0.000000 
#    y 0.000000 3.348940 0.000000 
#    z 0.000000 0.000000 2.921120 
# 
# 
# High freq. dielectric constant tensor:
#      x y z
#    x 1.632460 0.000000 0.000000 
#    y 0.000000 1.617480 0.000000 
#    z 0.000000 0.000000 1.593820 
# 
# From -- ./inp_files/14602.got.cif
#   From: 2010.03.12/outbox.cif.g09.slc.cpg/sg51_8_cif.got.tgz:14602.got - 2010.04.16 13:43:02.
