data_PCOD8208741
_publ_section_title
;
Structure prediction by ZEFSAII (Michael W. Deem and Ramdas Pophale) SiO2 
 PCOD8208741
Probable space group: P M M A
;
_chemical_formula_sum "Si O2"
_cell_formula_units_Z 64
_cell_length_a 9.158617
_cell_length_b 31.173692
_cell_length_c 14.277675
_cell_angle_alpha 90.000000
_cell_angle_beta 90.000000
_cell_angle_gamma 90.000000
_cell_volume 4076.389085
_symmetry_space_group_name_H-M "P M M A"
_symmetry_group_IT_number 51
_symmetry_cell_setting 'orthorhombic'
loop_
_space_group_symop_operation_xyz
x,y,z
1/2-x,-y,z
1/2+x,-y,-z
-x,y,-z
-x,-y,-z
1/2+x,y,-z
1/2-x,y,z
x,-y,z
loop_
_atom_site_type_symbol
_atom_site_label
_atom_site_fract_x
_atom_site_fract_y
_atom_site_fract_z
Si Si1 0.578840 0.861908 0.901318
Si Si2 0.919122 0.547955 0.092932
Si Si3 0.078396 0.757973 0.593245
Si Si4 0.420496 0.216053 0.225662
Si Si5 0.080949 0.658653 0.591121
Si Si6 0.580710 0.045284 0.902860
Si Si7 0.079453 0.371013 0.791613
Si Si8 0.078363 0.702536 0.097555
O O1 0.750000 0.856229 0.920365
O O2 0.524885 0.825819 0.829834
O O3 0.541679 0.908957 0.854320
O O4 0.500000 0.855672 0.000000
O O5 0.750000 0.548379 0.067624
O O6 0.970635 0.500000 0.122116
O O7 0.953012 0.580149 0.178075
O O8 0.000000 0.564060 0.000000
O O9 0.250000 0.766173 0.585102
O O10 0.039955 0.708104 0.607906
O O11 0.000000 0.775278 0.500000
O O12 0.014265 0.783902 0.680215
O O13 0.250000 0.213768 0.251357
O O14 0.456041 0.257782 0.164773
O O15 0.250000 0.652626 0.570886
O O16 0.030947 0.632855 0.683405
O O17 0.000000 0.639917 0.500000
O O18 0.750000 0.045860 0.926791
O O19 0.542852 0.000000 0.847462
O O20 0.500000 0.044080 0.000000
O O21 0.250000 0.358662 0.802874
O O22 0.984827 0.340271 0.856609
O O23 0.250000 0.696540 0.080194
O O24 0.000000 0.711849 0.000000
#
# Coordination Sequence:
#
# PCOD8208741 Si02
#       8
#     8   8   8   8   8   8   8   8
#     4   9  17  28  41  59  86 120 155 188 222 263
#     4   9  18  32  50  70  92 118 147 181 220 262
#     4  10  19  32  50  68  88 114 147 186 225 265
#     4  10  20  32  44  62  89 121 153 184 219 262
#     4   9  18  31  48  69  90 114 143 180 220 261
#     4   8  13  22  37  56  78 107 145 187 226 261
#     4  10  19  33  50  69  92 116 149 185 221 263
#     4  11  22  32  44  63  90 122 154 184 216 254
#
# _framework density 15.700170999999999
#
# number of rings (size 3 to 8) (size 9 to 14) (size 15 to 20)
#    0.000    2.500    1.250    1.500    0.000    3.500 
#    0.000    0.000    0.000    0.375    0.000    0.000 
#    0.000    0.500    0.000    0.875    0.000    1.500 
#
# Total GULP energy -793217.123338 kJ/mol
# GULP energy per Si atom -12394.017552 kJ/mol
# Density = 1.566444 g / cm^3
# Si number density = 15.700171 Si / 1000 Ang^3
#
#
#
# Elastic Constant Matrix: (Units=GPa)
#
#
# Indices 1 2 3 4 5 6 
#
# 1 49.5375 33.8293 44.9453 0.0000 0.0000 0.0000
# 2 33.8293 104.1528 55.2389 0.0000 0.0000 0.0000
# 3 44.9453 55.2389 113.6957 0.0000 0.0000 0.0000
# 4 0.0000 0.0000 0.0000 1.7175 0.0000 0.0000
# 5 0.0000 0.0000 0.0000 0.0000 28.2535 0.0000
# 6 0.0000 0.0000 0.0000 0.0000 0.0000 15.7465
#
#
#
# Elastic Compliance Matrix: (Units=1/GPa)
#
#
# Indices 1 2 3 4 5 6 
#
# 1 0.033434 -0.005186 -0.010697 0.000000 0.000000 0.000000
# 2 -0.005186 0.013739 -0.004625 0.000000 0.000000 0.000000
# 3 -0.010697 -0.004625 0.015271 0.000000 0.000000 0.000000
# 4 0.000000 0.000000 0.000000 0.582249 0.000000 0.000000
# 5 0.000000 0.000000 0.000000 0.000000 0.035394 0.000000
# 6 0.000000 0.000000 0.000000 0.000000 0.000000 0.063506
#
#
# Mechanical properties :
#
#
# Convention : Reuss Voigt Hill
#
# Bulk Modulus (GPa) = 46.66906 59.49034 53.07970
# Shear Modulus (GPa) = 6.31512 18.03500 12.17506
#
# Velocity S-wave (km/s) = 2.00775 3.39294 2.78775
# Velocity P-wave (km/s) = 5.92996 7.30227 6.65160
#
# Compressibility (1/GPa) = 0.02142747
#
# Stress axis : x y z
#
# Youngs Moduli (GPa) = 29.90985 72.78796 65.48343
#
# Poissons Ratio (x) = 0.37748 0.70049
# Poissons Ratio (y) = 0.15511 0.30284
# Poissons Ratio (z) = 0.31995 0.33662
#
# Static dielectric constant tensor:
#      x y z
#    x 3.006600 0.000000 0.000000 
#    y 0.000000 3.358610 0.000000 
#    z 0.000000 0.000000 2.892940 
# 
# 
# High freq. dielectric constant tensor:
#      x y z
#    x 1.607600 0.000000 0.000000 
#    y 0.000000 1.598610 0.000000 
#    z 0.000000 0.000000 1.579150 
# 
# From -- ./inp_files/22607.got.cif
#   From: 2010.03.12/outbox.cif.g09.slc.cpg/sg51_12_cif.got.tgz:22607.got - 2010.04.16 13:43:02.
