data_PCOD8208880
_publ_section_title
;
Structure prediction by ZEFSAII (Michael W. Deem and Ramdas Pophale) SiO2 
 PCOD8208880
Probable space group: P M M A
;
_chemical_formula_sum "Si O2"
_cell_formula_units_Z 44
_cell_length_a 8.744922
_cell_length_b 28.632609
_cell_length_c 9.501709
_cell_angle_alpha 90.000000
_cell_angle_beta 90.000000
_cell_angle_gamma 90.000000
_cell_volume 2379.132274
_symmetry_space_group_name_H-M "P M M A"
_symmetry_group_IT_number 51
_symmetry_cell_setting 'orthorhombic'
loop_
_space_group_symop_operation_xyz
x,y,z
1/2-x,-y,z
1/2+x,-y,-z
-x,y,-z
-x,-y,-z
1/2+x,y,-z
1/2-x,y,z
x,-y,z
loop_
_atom_site_type_symbol
_atom_site_label
_atom_site_fract_x
_atom_site_fract_y
_atom_site_fract_z
Si Si1 0.928941 0.279724 0.846417
Si Si2 0.069435 0.000000 0.654520
Si Si3 0.571105 0.178558 0.846912
Si Si4 0.569143 0.085848 0.155287
Si Si5 0.927125 0.554153 0.648222
Si Si6 0.569461 0.371381 0.154471
O O1 0.750000 0.290386 0.858509
O O2 0.957096 0.229102 0.770522
O O3 0.010216 0.323545 0.768037
O O4 0.000000 0.276532 0.000000
O O5 0.012668 0.045067 0.741314
O O6 0.000000 0.000000 0.500000
O O7 0.250000 0.000000 0.638872
O O8 0.750000 0.167950 0.858844
O O9 0.489064 0.134484 0.772530
O O10 0.500000 0.181864 0.000000
O O11 0.750000 0.086430 0.140770
O O12 0.500000 0.078279 0.000000
O O13 0.750000 0.567805 0.645207
O O14 0.951727 0.500000 0.684239
O O15 0.000000 0.567369 0.500000
O O16 0.014055 0.582965 0.765926
O O17 0.750000 0.371135 0.147375
O O18 0.500000 0.373505 0.000000
#
# Coordination Sequence:
#
# PCOD8208880 Si02
#       6
#     8   4   8   8   8   8
#     4   9  16  27  44  69 102 134 166 204 248 300
#     4  10  23  38  52  72  98 132 169 204 248 300
#     4   9  16  26  44  71 100 131 164 202 248 294
#     4  10  19  32  51  76 102 128 164 207 248 294
#     4  10  21  38  58  78 102 134 172 213 258 309
#     4  11  21  33  52  78 108 140 174 213 257 303
#
# _framework density 18.494139000000001
#
# number of rings (size 3 to 8) (size 9 to 14) (size 15 to 20)
#    0.000    2.182    0.000    6.273    0.000    5.091 
#    0.000    0.000    0.000    1.091    0.000    2.545 
#    0.000    0.000    0.000    0.000    0.000    0.000 
#
# Total GULP energy -545234.051383 kJ/mol
# GULP energy per Si atom -12391.682986 kJ/mol
# Density = 1.845205 g / cm^3
# Si number density = 18.494139 Si / 1000 Ang^3
#
#
#
# Elastic Constant Matrix: (Units=GPa)
#
#
# Indices 1 2 3 4 5 6 
#
# 1 134.9029 71.3385 39.6734 0.0000 0.0000 0.0000
# 2 71.3385 153.7164 59.5953 0.0000 0.0000 0.0000
# 3 39.6734 59.5953 61.7151 0.0000 0.0000 0.0000
# 4 0.0000 0.0000 0.0000 2.9348 0.0000 0.0000
# 5 0.0000 0.0000 0.0000 0.0000 24.4516 0.0000
# 6 0.0000 0.0000 0.0000 0.0000 0.0000 34.1728
#
#
#
# Elastic Compliance Matrix: (Units=1/GPa)
#
#
# Indices 1 2 3 4 5 6 
#
# 1 0.010198 -0.003502 -0.003174 0.000000 0.000000 0.000000
# 2 -0.003502 0.011601 -0.008951 0.000000 0.000000 0.000000
# 3 -0.003174 -0.008951 0.026888 0.000000 0.000000 0.000000
# 4 0.000000 0.000000 0.000000 0.340737 0.000000 0.000000
# 5 0.000000 0.000000 0.000000 0.000000 0.040897 0.000000
# 6 0.000000 0.000000 0.000000 0.000000 0.000000 0.029263
#
#
# Mechanical properties :
#
#
# Convention : Reuss Voigt Hill
#
# Bulk Modulus (GPa) = 57.36542 76.83875 67.10208
# Shear Modulus (GPa) = 10.06745 24.29366 17.18055
#
# Velocity S-wave (km/s) = 2.33568 3.62828 3.05121
# Velocity P-wave (km/s) = 6.19349 7.69353 6.98390
#
# Compressibility (1/GPa) = 0.01743211
#
# Stress axis : x y z
#
# Youngs Moduli (GPa) = 98.05598 86.19705 37.19193
#
# Poissons Ratio (x) = 0.30190 0.11804
# Poissons Ratio (y) = 0.34344 0.33292
# Poissons Ratio (z) = 0.31121 0.77157
#
# Static dielectric constant tensor:
#      x y z
#    x 3.620170 0.000000 0.000000 
#    y 0.000000 4.524940 0.000000 
#    z 0.000000 0.000000 2.916330 
# 
# 
# High freq. dielectric constant tensor:
#      x y z
#    x 1.736110 0.000000 0.000000 
#    y 0.000000 1.749630 0.000000 
#    z 0.000000 0.000000 1.653730 
# 
# From -- ./inp_files/5828.got.cif
#   From: 2010.03.12/outbox.cif.g09.slc.cpg/sg51_3_cif.got.tgz:5828.got - 2010.04.16 13:43:02.
