data_PCOD8208664
_publ_section_title
;
Structure prediction by ZEFSAII (Michael W. Deem and Ramdas Pophale) SiO2 
 PCOD8208664
Probable space group: P M M A
;
_chemical_formula_sum "Si O2"
_cell_formula_units_Z 44
_cell_length_a 9.410125
_cell_length_b 8.044504
_cell_length_c 29.765559
_cell_angle_alpha 90.000000
_cell_angle_beta 90.000000
_cell_angle_gamma 90.000000
_cell_volume 2253.246512
_symmetry_space_group_name_H-M "P M M A"
_symmetry_group_IT_number 51
_symmetry_cell_setting 'orthorhombic'
loop_
_space_group_symop_operation_xyz
x,y,z
1/2-x,-y,z
1/2+x,-y,-z
-x,y,-z
-x,-y,-z
1/2+x,y,-z
1/2-x,y,z
x,-y,z
loop_
_atom_site_type_symbol
_atom_site_label
_atom_site_fract_x
_atom_site_fract_y
_atom_site_fract_z
Si Si1 0.417761 0.500000 0.453779
Si Si2 0.410738 0.197800 0.876863
Si Si3 0.586132 0.813833 0.605615
Si Si4 0.914234 0.688236 0.314748
Si Si5 0.592023 0.305847 0.959498
Si Si6 0.418492 0.183549 0.778731
O O1 0.250000 0.500000 0.462950
O O2 0.500000 0.500000 0.500000
O O3 0.465558 0.668504 0.428000
O O4 0.250000 0.260596 0.886646
O O5 0.517183 0.275931 0.912246
O O6 0.464196 0.257697 0.827288
O O7 0.415457 0.000000 0.879050
O O8 0.750000 0.783781 0.617259
O O9 0.500980 0.806180 0.652133
O O10 0.562482 0.000000 0.584971
O O11 0.750000 0.741195 0.317773
O O12 0.937891 0.500000 0.330281
O O13 0.969691 0.705780 0.263379
O O14 0.750000 0.225380 0.959339
O O15 0.606198 0.500000 0.968074
O O16 0.500000 0.224620 0.000000
O O17 0.250000 0.171667 0.779830
O O18 0.483714 0.000000 0.772013
#
# Coordination Sequence:
#
# PCOD8208664 Si02
#       6
#     4   8   8   8   8   8
#     4  10  22  40  60  84 116 148 186 236 281 332
#     4   9  18  33  53  76 102 133 169 210 259 314
#     4  10  21  38  59  82 112 152 190 227 280 336
#     4  10  19  31  52  83 114 144 184 230 272 318
#     4  10  21  36  53  73  97 127 166 211 260 315
#     4   8  15  29  48  72 104 139 174 214 260 310
#
# _framework density 19.527380000000001
#
# number of rings (size 3 to 8) (size 9 to 14) (size 15 to 20)
#    0.000    2.545    0.909    2.182    0.000    4.727 
#    0.000    2.727    0.000    1.091    0.000    0.000 
#    0.000    0.000    0.000    0.000    0.000    0.000 
#
# Total GULP energy -545374.754700 kJ/mol
# GULP energy per Si atom -12394.880789 kJ/mol
# Density = 1.948293 g / cm^3
# Si number density = 19.527380 Si / 1000 Ang^3
#
#
#
# Elastic Constant Matrix: (Units=GPa)
#
#
# Indices 1 2 3 4 5 6 
#
# 1 80.8445 28.3062 60.3277 0.0000 0.0000 0.0000
# 2 28.3062 75.6844 45.4364 0.0000 0.0000 0.0000
# 3 60.3277 45.4364 150.8361 0.0000 0.0000 0.0000
# 4 0.0000 0.0000 0.0000 26.7067 0.0000 0.0000
# 5 0.0000 0.0000 0.0000 0.0000 29.9370 0.0000
# 6 0.0000 0.0000 0.0000 0.0000 0.0000 19.7948
#
#
#
# Elastic Compliance Matrix: (Units=1/GPa)
#
#
# Indices 1 2 3 4 5 6 
#
# 1 0.018162 -0.002969 -0.006370 0.000000 0.000000 0.000000
# 2 -0.002969 0.016615 -0.003818 0.000000 0.000000 0.000000
# 3 -0.006370 -0.003818 0.010327 0.000000 0.000000 0.000000
# 4 0.000000 0.000000 0.000000 0.037444 0.000000 0.000000
# 5 0.000000 0.000000 0.000000 0.000000 0.033403 0.000000
# 6 0.000000 0.000000 0.000000 0.000000 0.000000 0.050518
#
#
# Mechanical properties :
#
#
# Convention : Reuss Voigt Hill
#
# Bulk Modulus (GPa) = 53.21333 63.94506 58.57920
# Shear Modulus (GPa) = 25.11981 26.84067 25.98024
#
# Velocity S-wave (km/s) = 3.59052 3.71147 3.65149
# Velocity P-wave (km/s) = 6.67075 7.15431 6.91675
#
# Compressibility (1/GPa) = 0.01879228
#
# Stress axis : x y z
#
# Youngs Moduli (GPa) = 55.05973 60.18694 96.83065
#
# Poissons Ratio (x) = 0.17867 0.61679
# Poissons Ratio (y) = 0.16345 0.36966
# Poissons Ratio (z) = 0.35072 0.22977
#
# Static dielectric constant tensor:
#      x y z
#    x 3.531810 0.000000 0.000000 
#    y 0.000000 3.547380 0.000000 
#    z 0.000000 0.000000 3.752190 
# 
# 
# High freq. dielectric constant tensor:
#      x y z
#    x 1.732690 0.000000 0.000000 
#    y 0.000000 1.754600 0.000000 
#    z 0.000000 0.000000 1.765360 
# 
# From -- ./inp_files/36783.got.cif
#   From: 2010.03.12/outbox.cif.g09.slc.cpg/sg51_19_cif.got.tgz:36783.got - 2010.04.16 13:43:02.
