data_PCOD8208204
_publ_section_title
;
Structure prediction by ZEFSAII (Michael W. Deem and Ramdas Pophale) SiO2 
 PCOD8208204
Probable space group: P M M A
;
_chemical_formula_sum "Si O2"
_cell_formula_units_Z 64
_cell_length_a 9.520228
_cell_length_b 14.971747
_cell_length_c 26.046005
_cell_angle_alpha 90.000000
_cell_angle_beta 90.000000
_cell_angle_gamma 90.000000
_cell_volume 3712.452867
_symmetry_space_group_name_H-M "P M M A"
_symmetry_group_IT_number 51
_symmetry_cell_setting 'orthorhombic'
loop_
_space_group_symop_operation_xyz
x,y,z
1/2-x,-y,z
1/2+x,-y,-z
-x,y,-z
-x,-y,-z
1/2+x,y,-z
1/2-x,y,z
x,-y,z
loop_
_atom_site_type_symbol
_atom_site_label
_atom_site_fract_x
_atom_site_fract_y
_atom_site_fract_z
Si Si1 0.594774 0.337838 0.544185
Si Si2 0.404866 0.867639 0.454986
Si Si3 0.411932 0.792469 0.242494
Si Si4 0.584320 0.102363 0.159444
Si Si5 0.408055 0.600513 0.631524
Si Si6 0.914743 0.899130 0.658701
Si Si7 0.907360 0.597772 0.729001
Si Si8 0.095169 0.894095 0.955024
O O1 0.500000 0.384607 0.500000
O O2 0.750000 0.383418 0.547081
O O3 0.614976 0.235163 0.531080
O O4 0.513254 0.341960 0.597590
O O5 0.500000 0.911880 0.500000
O O6 0.250000 0.913201 0.455726
O O7 0.476885 0.880694 0.398511
O O8 0.250000 0.821735 0.235914
O O9 0.502323 0.834336 0.197648
O O10 0.469495 0.829217 0.297866
O O11 0.428645 0.685108 0.235720
O O12 0.750000 0.116614 0.166053
O O13 0.537046 0.129097 0.101667
O O14 0.543962 0.000000 0.171079
O O15 0.250000 0.640674 0.631229
O O16 0.405287 0.500000 0.610004
O O17 0.469097 0.602334 0.688185
O O18 0.750000 0.884803 0.653564
O O19 0.953737 0.000000 0.676117
O O20 0.750000 0.604213 0.704232
O O21 0.920011 0.500000 0.757523
O O22 0.250000 0.853016 0.961949
O O23 0.103023 0.000000 0.960745
O O24 0.000000 0.851794 0.000000
#
# Coordination Sequence:
#
# PCOD8208204 Si02
#       8
#     8   8   8   8   8   8   8   8
#     4  10  19  31  46  62  82 107 135 169 210 260
#     4   9  18  32  48  64  81 104 137 176 217 261
#     4  10  19  31  49  71  93 122 162 199 233 281
#     4   9  18  31  45  66 101 139 168 198 240 282
#     4  10  20  32  46  65  86 107 135 172 217 274
#     4   9  17  29  45  65  89 115 143 179 222 267
#     4   9  18  33  51  69  90 117 150 191 237 281
#     4   8  14  25  41  62  91 129 170 206 237 270
#
# _framework density 17.239274999999999
#
# number of rings (size 3 to 8) (size 9 to 14) (size 15 to 20)
#    0.000    2.750    0.000    2.625    0.000    5.500 
#    0.000    1.875    0.000    0.750    0.000    0.000 
#    0.000    0.500    0.000    1.125    0.000    1.750 
#
# Total GULP energy -792928.946995 kJ/mol
# GULP energy per Si atom -12389.514797 kJ/mol
# Density = 1.720004 g / cm^3
# Si number density = 17.239275 Si / 1000 Ang^3
#
#
#
# Elastic Constant Matrix: (Units=GPa)
#
#
# Indices 1 2 3 4 5 6 
#
# 1 92.7363 30.7329 50.4095 0.0000 0.0000 0.0000
# 2 30.7329 75.4636 43.3811 0.0000 0.0000 0.0000
# 3 50.4095 43.3811 117.7446 0.0000 0.0000 0.0000
# 4 0.0000 0.0000 0.0000 8.0013 0.0000 0.0000
# 5 0.0000 0.0000 0.0000 0.0000 30.9120 0.0000
# 6 0.0000 0.0000 0.0000 0.0000 0.0000 9.5886
#
#
#
# Elastic Compliance Matrix: (Units=1/GPa)
#
#
# Indices 1 2 3 4 5 6 
#
# 1 0.014563 -0.002977 -0.005138 0.000000 0.000000 0.000000
# 2 -0.002977 0.017421 -0.005144 0.000000 0.000000 0.000000
# 3 -0.005138 -0.005144 0.012588 0.000000 0.000000 0.000000
# 4 0.000000 0.000000 0.000000 0.124980 0.000000 0.000000
# 5 0.000000 0.000000 0.000000 0.000000 0.032350 0.000000
# 6 0.000000 0.000000 0.000000 0.000000 0.000000 0.104291
#
#
# Mechanical properties :
#
#
# Convention : Reuss Voigt Hill
#
# Bulk Modulus (GPa) = 55.39028 59.44349 57.41689
# Shear Modulus (GPa) = 14.76113 20.46177 17.61145
#
# Velocity S-wave (km/s) = 2.92935 3.44892 3.19970
# Velocity P-wave (km/s) = 6.60617 7.10045 6.85776
#
# Compressibility (1/GPa) = 0.01805371
#
# Stress axis : x y z
#
# Youngs Moduli (GPa) = 68.66860 57.40237 79.44255
#
# Poissons Ratio (x) = 0.17090 0.40816
# Poissons Ratio (y) = 0.20444 0.40864
# Poissons Ratio (z) = 0.35280 0.29527
#
# Static dielectric constant tensor:
#      x y z
#    x 3.406060 0.000000 0.000000 
#    y 0.000000 3.148280 0.000000 
#    z 0.000000 0.000000 3.093350 
# 
# 
# High freq. dielectric constant tensor:
#      x y z
#    x 1.660470 0.000000 0.000000 
#    y 0.000000 1.645650 0.000000 
#    z 0.000000 0.000000 1.636950 
# 
# From -- ./inp_files/36476.got.cif
#   From: 2010.03.12/outbox.cif.g09.slc.cpg/sg51_19_cif.got.tgz:36476.got - 2010.04.16 13:43:02.
