data_PCOD8208452
_publ_section_title
;
Structure prediction by ZEFSAII (Michael W. Deem and Ramdas Pophale) SiO2 
 PCOD8208452
Probable space group: P M M A
;
_chemical_formula_sum "Si O2"
_cell_formula_units_Z 52
_cell_length_a 9.120206
_cell_length_b 10.400111
_cell_length_c 29.689108
_cell_angle_alpha 90.000000
_cell_angle_beta 90.000000
_cell_angle_gamma 90.000000
_cell_volume 2816.046177
_symmetry_space_group_name_H-M "P M M A"
_symmetry_group_IT_number 51
_symmetry_cell_setting 'orthorhombic'
loop_
_space_group_symop_operation_xyz
x,y,z
1/2-x,-y,z
1/2+x,-y,-z
-x,y,-z
-x,-y,-z
1/2+x,y,-z
1/2-x,y,z
x,-y,z
loop_
_atom_site_type_symbol
_atom_site_label
_atom_site_fract_x
_atom_site_fract_y
_atom_site_fract_z
Si Si1 0.921961 0.351865 0.379461
Si Si2 0.922702 0.732746 0.887698
Si Si3 0.420383 0.500000 0.047394
Si Si4 0.085261 0.652227 0.289168
Si Si5 0.410581 0.853859 0.959115
Si Si6 0.921498 0.145670 0.453589
Si Si7 0.418468 0.347433 0.798683
O O1 0.750000 0.339027 0.369639
O O2 0.960813 0.500000 0.392769
O O3 0.973919 0.253060 0.418000
O O4 0.006909 0.306005 0.335108
O O5 0.750000 0.751082 0.881753
O O6 0.966515 0.619561 0.921815
O O7 0.998671 0.853359 0.912201
O O8 0.991838 0.714924 0.839020
O O9 0.250000 0.500000 0.037160
O O10 0.500000 0.500000 0.000000
O O11 0.250000 0.709488 0.287696
O O12 0.091268 0.500000 0.286193
O O13 0.991124 0.705243 0.247262
O O14 0.250000 0.787010 0.954313
O O15 0.385208 0.000000 0.972968
O O16 0.500000 0.784739 0.000000
O O17 0.750000 0.158398 0.462227
O O18 0.000000 0.178596 0.500000
O O19 0.960977 0.000000 0.437254
O O20 0.250000 0.302567 0.800141
O O21 0.431467 0.500000 0.802045
#
# Coordination Sequence:
#
# PCOD8208452 Si02
#       7
#     8   8   4   8   8   8   8
#     4   9  17  30  48  71  99 130 167 211 257 304
#     4  11  21  34  51  73 101 131 163 200 244 293
#     4  10  22  34  46  68 100 132 158 192 237 288
#     4   9  17  29  47  71  99 129 161 203 250 295
#     4  10  21  37  55  74  95 122 161 204 245 292
#     4   9  18  32  49  70  99 136 174 210 251 301
#     4  10  19  31  49  73 101 134 167 200 243 299
#
# _framework density 18.465606999999999
#
# number of rings (size 3 to 8) (size 9 to 14) (size 15 to 20)
#    0.000    2.308    0.769    2.308    0.000    6.769 
#    0.000    0.000    0.000    0.923    0.000    2.154 
#    0.000    0.000    0.000    0.000    0.000    0.000 
#
# Total GULP energy -644636.442925 kJ/mol
# GULP energy per Si atom -12396.854672 kJ/mol
# Density = 1.842358 g / cm^3
# Si number density = 18.465607 Si / 1000 Ang^3
#
#
#
# Elastic Constant Matrix: (Units=GPa)
#
#
# Indices 1 2 3 4 5 6 
#
# 1 128.4793 31.6091 84.7613 0.0000 0.0000 0.0000
# 2 31.6091 47.0094 50.4646 0.0000 0.0000 0.0000
# 3 84.7613 50.4646 172.4034 0.0000 0.0000 0.0000
# 4 0.0000 0.0000 0.0000 19.4785 0.0000 0.0000
# 5 0.0000 0.0000 0.0000 0.0000 41.5989 0.0000
# 6 0.0000 0.0000 0.0000 0.0000 0.0000 15.5664
#
#
#
# Elastic Compliance Matrix: (Units=1/GPa)
#
#
# Indices 1 2 3 4 5 6 
#
# 1 0.011713 -0.002470 -0.005036 0.000000 0.000000 0.000000
# 2 -0.002470 0.031540 -0.008018 0.000000 0.000000 0.000000
# 3 -0.005036 -0.008018 0.010623 0.000000 0.000000 0.000000
# 4 0.000000 0.000000 0.000000 0.051339 0.000000 0.000000
# 5 0.000000 0.000000 0.000000 0.000000 0.024039 0.000000
# 6 0.000000 0.000000 0.000000 0.000000 0.000000 0.064241
#
#
# Mechanical properties :
#
#
# Convention : Reuss Voigt Hill
#
# Bulk Modulus (GPa) = 43.80326 75.72911 59.76619
# Shear Modulus (GPa) = 21.53752 27.39922 24.46837
#
# Velocity S-wave (km/s) = 3.41890 3.85619 3.64411
# Velocity P-wave (km/s) = 6.27361 7.80557 7.08114
#
# Compressibility (1/GPa) = 0.02282935
#
# Stress axis : x y z
#
# Youngs Moduli (GPa) = 85.37322 31.70531 94.13484
#
# Poissons Ratio (x) = 0.07832 0.47404
# Poissons Ratio (y) = 0.21088 0.75476
# Poissons Ratio (z) = 0.42992 0.25421
#
# Static dielectric constant tensor:
#      x y z
#    x 3.621840 0.000000 0.000000 
#    y 0.000000 3.230740 0.000000 
#    z 0.000000 0.000000 3.425580 
# 
# 
# High freq. dielectric constant tensor:
#      x y z
#    x 1.729600 0.000000 0.000000 
#    y 0.000000 1.680500 0.000000 
#    z 0.000000 0.000000 1.718400 
# 
# From -- ./inp_files/37348.got.cif
#   From: 2010.03.12/outbox.cif.g09.slc.cpg/sg51_19_cif.got.tgz:37348.got - 2010.04.16 13:43:02.
