data_PCOD8208485
_publ_section_title
;
Structure prediction by ZEFSAII (Michael W. Deem and Ramdas Pophale) SiO2 
 PCOD8208485
Probable space group: P M M A
;
_chemical_formula_sum "Si O2"
_cell_formula_units_Z 52
_cell_length_a 8.888906
_cell_length_b 23.449998
_cell_length_c 14.348334
_cell_angle_alpha 90.000000
_cell_angle_beta 90.000000
_cell_angle_gamma 90.000000
_cell_volume 2990.836012
_symmetry_space_group_name_H-M "P M M A"
_symmetry_group_IT_number 51
_symmetry_cell_setting 'orthorhombic'
loop_
_space_group_symop_operation_xyz
x,y,z
1/2-x,-y,z
1/2+x,-y,-z
-x,y,-z
-x,-y,-z
1/2+x,y,-z
1/2-x,y,z
x,-y,z
loop_
_atom_site_type_symbol
_atom_site_label
_atom_site_fract_x
_atom_site_fract_y
_atom_site_fract_z
Si Si1 0.426562 0.876571 0.100915
Si Si2 0.924222 0.000000 0.902091
Si Si3 0.571511 0.609495 0.595189
Si Si4 0.923460 0.222320 0.210176
Si Si5 0.074341 0.731160 0.592537
Si Si6 0.927052 0.665875 0.100017
Si Si7 0.922992 0.435955 0.228718
O O1 0.250000 0.869282 0.086851
O O2 0.481659 0.830713 0.174704
O O3 0.467829 0.939371 0.145776
O O4 0.500000 0.866795 0.000000
O O5 0.750000 0.000000 0.922316
O O6 0.000000 0.000000 0.000000
O O7 0.500000 0.585105 0.500000
O O8 0.750000 0.611332 0.585983
O O9 0.507658 0.672184 0.615824
O O10 0.523489 0.568479 0.678997
O O11 0.750000 0.211516 0.186095
O O12 0.949240 0.226364 0.321091
O O13 0.979776 0.280294 0.161345
O O14 0.250000 0.718751 0.575210
O O15 0.000000 0.758946 0.500000
O O16 0.750000 0.665387 0.086832
O O17 0.982005 0.608070 0.150668
O O18 0.000000 0.670356 0.000000
O O19 0.750000 0.421719 0.254465
O O20 0.939237 0.500000 0.188802
#
# Coordination Sequence:
#
# PCOD8208485 Si02
#       7
#     8   4   8   8   8   8   8
#     4  10  19  31  49  74 106 141 180 213 252 297
#     4   8  16  30  46  68 101 140 175 216 251 290
#     4  11  21  34  55  79 104 130 161 202 252 308
#     4  10  20  34  52  75 106 136 167 208 254 300
#     4  10  19  34  54  77 105 134 166 204 250 304
#     4  10  21  37  53  73 100 131 166 207 254 299
#     4  10  21  39  58  73  96 132 170 209 256 305
#
# _framework density 17.386443
#
# number of rings (size 3 to 8) (size 9 to 14) (size 15 to 20)
#    0.000    2.000    1.538    3.692    0.000    5.231 
#    0.000    0.000    0.000    0.000    0.000    0.538 
#    0.000    0.000    0.000    0.000    0.000    0.000 
#
# Total GULP energy -644638.798482 kJ/mol
# GULP energy per Si atom -12396.899971 kJ/mol
# Density = 1.734687 g / cm^3
# Si number density = 17.386443 Si / 1000 Ang^3
#
#
#
# Elastic Constant Matrix: (Units=GPa)
#
#
# Indices 1 2 3 4 5 6 
#
# 1 80.9550 45.0054 40.8634 0.0000 0.0000 0.0000
# 2 45.0054 124.5363 54.4948 0.0000 0.0000 0.0000
# 3 40.8634 54.4948 103.9715 0.0000 0.0000 0.0000
# 4 0.0000 0.0000 0.0000 -537.1771 0.0000 0.0000
# 5 0.0000 0.0000 0.0000 0.0000 29.4286 0.0000
# 6 0.0000 0.0000 0.0000 0.0000 0.0000 22.6754
#
#
#
# Elastic Compliance Matrix: (Units=1/GPa)
#
#
# Indices 1 2 3 4 5 6 
#
# 1 0.016921 -0.004159 -0.004471 0.000000 0.000000 0.000000
# 2 -0.004159 0.011442 -0.004362 0.000000 0.000000 0.000000
# 3 -0.004471 -0.004362 0.013662 0.000000 0.000000 0.000000
# 4 0.000000 0.000000 0.000000 -0.001862 0.000000 0.000000
# 5 0.000000 0.000000 0.000000 0.000000 0.033981 0.000000
# 6 0.000000 0.000000 0.000000 0.000000 0.000000 0.044101
#
#
# Mechanical properties :
#
#
# Convention : Reuss Voigt Hill
#
# Bulk Modulus (GPa) = 62.34165 65.57667 63.95916
# Shear Modulus (GPa) = 33.42813 -85.74133 -26.15660
#
# Velocity S-wave (km/s) = 4.38957 -7.03009 -3.88290
# Velocity P-wave (km/s) = 7.85018 5.30067 4.09440
#
# Compressibility (1/GPa) = 0.01604064
#
# Stress axis : x y z
#
# Youngs Moduli (GPa) = 59.09748 87.40028 73.19780
#
# Poissons Ratio (x) = 0.36348 0.32725
# Poissons Ratio (y) = 0.24577 0.31932
# Poissons Ratio (z) = 0.26421 0.38128
#
# Static dielectric constant tensor:
#      x y z
#    x 3.278570 0.000000 0.000000 
#    y 0.000000 3.568410 0.000000 
#    z 0.000000 0.000000 3.218480 
# 
# 
# High freq. dielectric constant tensor:
#      x y z
#    x 1.677350 0.000000 0.000000 
#    y 0.000000 1.662990 0.000000 
#    z 0.000000 0.000000 1.658440 
# 
# From -- ./inp_files/21571.got.cif
#   From: 2010.03.12/outbox.cif.g09.slc.cpg/sg51_11_cif.got.tgz:21571.got - 2010.04.16 13:43:02.
