data_PCOD8208035
_publ_section_title
;
Structure prediction by ZEFSAII (Michael W. Deem and Ramdas Pophale) SiO2 
 PCOD8208035
Probable space group: P M M A
;
_chemical_formula_sum "Si O2"
_cell_formula_units_Z 44
_cell_length_a 8.945759
_cell_length_b 28.350609
_cell_length_c 9.983487
_cell_angle_alpha 90.000000
_cell_angle_beta 90.000000
_cell_angle_gamma 90.000000
_cell_volume 2531.989167
_symmetry_space_group_name_H-M "P M M A"
_symmetry_group_IT_number 51
_symmetry_cell_setting 'orthorhombic'
loop_
_space_group_symop_operation_xyz
x,y,z
1/2-x,-y,z
1/2+x,-y,-z
-x,y,-z
-x,-y,-z
1/2+x,y,-z
1/2-x,y,z
x,-y,z
loop_
_atom_site_type_symbol
_atom_site_label
_atom_site_fract_x
_atom_site_fract_y
_atom_site_fract_z
Si Si1 0.573627 0.825349 0.862781
Si Si2 0.926031 0.102001 0.644029
Si Si3 0.572571 0.357031 0.645390
Si Si4 0.925091 0.281795 0.863367
Si Si5 0.577169 0.000000 0.640073
Si Si6 0.074828 0.448834 0.643992
O O1 0.750000 0.830512 0.878097
O O2 0.511143 0.858401 0.744301
O O3 0.525789 0.771692 0.830156
O O4 0.500000 0.842723 0.000000
O O5 0.750000 0.108184 0.624309
O O6 0.964873 0.050085 0.710118
O O7 0.000000 0.109100 0.500000
O O8 0.500000 0.348880 0.500000
O O9 0.750000 0.360829 0.630899
O O10 0.523107 0.313876 0.739433
O O11 0.507720 0.404917 0.716131
O O12 0.750000 0.285644 0.886038
O O13 0.000000 0.299862 0.000000
O O14 0.500000 0.000000 0.500000
O O15 0.750000 0.000000 0.608609
O O16 0.250000 0.437697 0.629440
O O17 0.050957 0.500000 0.716814
O O18 0.000000 0.452024 0.500000
#
# Coordination Sequence:
#
# PCOD8208035 Si02
#       6
#     8   8   8   8   4   8
#     4   9  18  33  49  66  90 120 153 189 228 272
#     4   9  17  29  47  69  93 120 152 189 227 269
#     4  10  19  30  46  70  96 120 149 187 227 268
#     4   9  19  34  50  67  89 120 156 189 226 273
#     4   8  14  26  43  64  90 120 150 182 223 268
#     4   9  16  26  42  65  92 121 151 183 221 265
#
# _framework density 17.37764
#
# number of rings (size 3 to 8) (size 9 to 14) (size 15 to 20)
#    0.000    2.909    0.000    2.182    0.000    4.000 
#    0.000    0.455    0.000    0.545    0.000    0.000 
#    0.000    0.000    0.000    0.000    0.000    0.000 
#
# Total GULP energy -545102.078776 kJ/mol
# GULP energy per Si atom -12388.683609 kJ/mol
# Density = 1.733809 g / cm^3
# Si number density = 17.377640 Si / 1000 Ang^3
#
#
#
# Elastic Constant Matrix: (Units=GPa)
#
#
# Indices 1 2 3 4 5 6 
#
# 1 49.1319 43.3614 33.3388 0.0000 0.0000 0.0000
# 2 43.3614 150.3889 83.1201 0.0000 0.0000 0.0000
# 3 33.3388 83.1201 93.9758 0.0000 0.0000 0.0000
# 4 0.0000 0.0000 0.0000 8.5447 0.0000 0.0000
# 5 0.0000 0.0000 0.0000 0.0000 24.5808 0.0000
# 6 0.0000 0.0000 0.0000 0.0000 0.0000 21.4471
#
#
#
# Elastic Compliance Matrix: (Units=1/GPa)
#
#
# Indices 1 2 3 4 5 6 
#
# 1 0.028735 -0.005186 -0.005607 0.000000 0.000000 0.000000
# 2 -0.005186 0.013945 -0.010494 0.000000 0.000000 0.000000
# 3 -0.005607 -0.010494 0.021912 0.000000 0.000000 0.000000
# 4 0.000000 0.000000 0.000000 0.117032 0.000000 0.000000
# 5 0.000000 0.000000 0.000000 0.000000 0.040682 0.000000
# 6 0.000000 0.000000 0.000000 0.000000 0.000000 0.046626
#
#
# Mechanical properties :
#
#
# Convention : Reuss Voigt Hill
#
# Bulk Modulus (GPa) = 45.41856 68.12635 56.77245
# Shear Modulus (GPa) = 15.68154 19.82628 17.75391
#
# Velocity S-wave (km/s) = 3.00725 3.38140 3.19980
# Velocity P-wave (km/s) = 6.18474 7.38469 6.81119
#
# Compressibility (1/GPa) = 0.02201743
#
# Stress axis : x y z
#
# Youngs Moduli (GPa) = 34.80072 71.71076 45.63687
#
# Poissons Ratio (x) = 0.37190 0.25588
# Poissons Ratio (y) = 0.18048 0.47892
# Poissons Ratio (z) = 0.19513 0.75255
#
# Static dielectric constant tensor:
#      x y z
#    x 3.223240 0.000000 0.000000 
#    y 0.000000 4.206980 0.000000 
#    z 0.000000 0.000000 2.949660 
# 
# 
# High freq. dielectric constant tensor:
#      x y z
#    x 1.673350 0.000000 0.000000 
#    y 0.000000 1.693810 0.000000 
#    z 0.000000 0.000000 1.627380 
# 
# From -- ./inp_files/5879.got.cif
#   From: 2010.03.12/outbox.cif.g09.slc.cpg/sg51_3_cif.got.tgz:5879.got - 2010.04.16 13:43:02.
