data_PCOD8208605
_publ_section_title
;
Structure prediction by ZEFSAII (Michael W. Deem and Ramdas Pophale) SiO2 
 PCOD8208605
Probable space group: P M M A
;
_chemical_formula_sum "Si O2"
_cell_formula_units_Z 64
_cell_length_a 19.542469
_cell_length_b 8.994927
_cell_length_c 19.074725
_cell_angle_alpha 90.000000
_cell_angle_beta 90.000000
_cell_angle_gamma 90.000000
_cell_volume 3353.013950
_symmetry_space_group_name_H-M "P M M A"
_symmetry_group_IT_number 51
_symmetry_cell_setting 'orthorhombic'
loop_
_space_group_symop_operation_xyz
x,y,z
1/2-x,-y,z
1/2+x,-y,-z
-x,y,-z
-x,-y,-z
1/2+x,y,-z
1/2-x,y,z
x,-y,z
loop_
_atom_site_type_symbol
_atom_site_label
_atom_site_fract_x
_atom_site_fract_y
_atom_site_fract_z
Si Si1 0.449791 0.324738 0.437080
Si Si2 0.577437 0.827802 0.219775
Si Si3 0.439630 0.826405 0.293085
Si Si4 0.670845 0.828404 0.495091
Si Si5 0.825276 0.176836 0.338532
Si Si6 0.670916 0.676643 0.798209
Si Si7 0.913546 0.675824 0.930096
Si Si8 0.068228 0.324596 0.917509
O O1 0.500000 0.272305 0.500000
O O2 0.453747 0.500000 0.425896
O O3 0.469045 0.244775 0.364441
O O4 0.372522 0.275417 0.453758
O O5 0.497264 0.799824 0.233923
O O6 0.620430 0.757363 0.283838
O O7 0.604137 0.750842 0.148866
O O8 0.594597 0.000000 0.212880
O O9 0.369788 0.749819 0.266488
O O10 0.425890 0.000000 0.305979
O O11 0.750000 0.809665 0.515166
O O12 0.656500 0.768754 0.416599
O O13 0.648390 0.000000 0.503725
O O14 0.750000 0.234201 0.317031
O O15 0.826278 0.000000 0.340001
O O16 0.750000 0.725908 0.794345
O O17 0.663308 0.500000 0.792242
O O18 0.639812 0.737201 0.872258
O O19 0.914223 0.500000 0.925627
O O20 0.990105 0.734305 0.916832
O O21 0.893679 0.723339 0.009996
O O22 0.070820 0.500000 0.908189
#
# Coordination Sequence:
#
# PCOD8208605 Si02
#       8
#     8   8   8   8   8   8   8   8
#     4  11  24  39  56  81 111 142 177 223 276 326
#     4  10  19  31  50  79 107 134 172 216 259 305
#     4  11  23  37  55  79 108 141 178 222 270 322
#     4   9  18  35  59  81 101 135 181 222 265 321
#     4   8  15  30  52  75 101 134 169 205 251 313
#     4  10  20  36  58  80 106 143 186 231 274 320
#     4   8  15  30  51  75 100 133 176 214 258 312
#     4   9  16  29  52  75 101 136 172 213 258 310
#
# _framework density 19.087306000000002
#
# number of rings (size 3 to 8) (size 9 to 14) (size 15 to 20)
#    0.000    2.500    1.250    3.000    0.000    3.500 
#    0.000    3.125    0.000    1.875    0.000    0.000 
#    0.000    0.000    0.000    0.000    0.000    0.000 
#
# Total GULP energy -793342.879981 kJ/mol
# GULP energy per Si atom -12395.982500 kJ/mol
# Density = 1.904386 g / cm^3
# Si number density = 19.087306 Si / 1000 Ang^3
#
#
#
# Elastic Constant Matrix: (Units=GPa)
#
#
# Indices 1 2 3 4 5 6 
#
# 1 63.0027 22.8919 25.4064 0.0000 0.0000 0.0000
# 2 22.8919 46.6633 34.2704 0.0000 0.0000 0.0000
# 3 25.4064 34.2704 110.5444 0.0000 0.0000 0.0000
# 4 0.0000 0.0000 0.0000 31.5654 0.0000 0.0000
# 5 0.0000 0.0000 0.0000 0.0000 33.8649 0.0000
# 6 0.0000 0.0000 0.0000 0.0000 0.0000 20.4786
#
#
#
# Elastic Compliance Matrix: (Units=1/GPa)
#
#
# Indices 1 2 3 4 5 6 
#
# 1 0.019644 -0.008184 -0.001977 0.000000 0.000000 0.000000
# 2 -0.008184 0.031158 -0.007778 0.000000 0.000000 0.000000
# 3 -0.001977 -0.007778 0.011912 0.000000 0.000000 0.000000
# 4 0.000000 0.000000 0.000000 0.031680 0.000000 0.000000
# 5 0.000000 0.000000 0.000000 0.000000 0.029529 0.000000
# 6 0.000000 0.000000 0.000000 0.000000 0.000000 0.048832
#
#
# Mechanical properties :
#
#
# Convention : Reuss Voigt Hill
#
# Bulk Modulus (GPa) = 37.26752 42.81640 40.04196
# Shear Modulus (GPa) = 22.98018 26.35788 24.66903
#
# Velocity S-wave (km/s) = 3.47356 3.72009 3.59894
# Velocity P-wave (km/s) = 5.97115 6.39787 6.18819
#
# Compressibility (1/GPa) = 0.02683302
#
# Stress axis : x y z
#
# Youngs Moduli (GPa) = 50.90741 32.09474 83.94895
#
# Poissons Ratio (x) = 0.26268 0.16600
# Poissons Ratio (y) = 0.41665 0.65298
# Poissons Ratio (z) = 0.10066 0.24964
#
# Static dielectric constant tensor:
#      x y z
#    x 3.463910 0.000000 0.000000 
#    y 0.000000 3.105330 0.000000 
#    z 0.000000 0.000000 3.741060 
# 
# 
# High freq. dielectric constant tensor:
#      x y z
#    x 1.726920 0.000000 0.000000 
#    y 0.000000 1.708960 0.000000 
#    z 0.000000 0.000000 1.755070 
# 
# From -- ./inp_files/30613.got.cif
#   From: 2010.03.12/outbox.cif.g09.slc.cpg/sg51_16_cif.got.tgz:30613.got - 2010.04.16 13:43:02.
