data_PCOD8208153
_publ_section_title
;
Structure prediction by ZEFSAII (Michael W. Deem and Ramdas Pophale) SiO2 
 PCOD8208153
Probable space group: P M M A
;
_chemical_formula_sum "Si O2"
_cell_formula_units_Z 40
_cell_length_a 24.301852
_cell_length_b 9.025690
_cell_length_c 10.265906
_cell_angle_alpha 90.000000
_cell_angle_beta 90.000000
_cell_angle_gamma 90.000000
_cell_volume 2251.733909
_symmetry_space_group_name_H-M "P M M A"
_symmetry_group_IT_number 51
_symmetry_cell_setting 'orthorhombic'
loop_
_space_group_symop_operation_xyz
x,y,z
1/2-x,-y,z
1/2+x,-y,-z
-x,y,-z
-x,-y,-z
1/2+x,y,-z
1/2-x,y,z
x,-y,z
loop_
_atom_site_type_symbol
_atom_site_label
_atom_site_fract_x
_atom_site_fract_y
_atom_site_fract_z
Si Si1 0.461664 0.671401 0.121406
Si Si2 0.250000 0.666525 0.021624
Si Si3 0.750000 0.667639 0.287864
Si Si4 0.467840 0.672987 0.630569
Si Si5 0.139514 0.174728 0.717963
Si Si6 0.641311 0.173627 0.980835
O O1 0.444090 0.500000 0.125202
O O2 0.493225 0.720515 0.250793
O O3 0.500000 0.706678 0.000000
O O4 0.407664 0.770750 0.110278
O O5 0.250000 0.500000 0.076330
O O6 0.250000 0.669131 0.866809
O O7 0.196290 0.750200 0.073649
O O8 0.750000 0.500000 0.342212
O O9 0.695383 0.751784 0.337420
O O10 0.500000 0.714250 0.500000
O O11 0.452885 0.500000 0.638362
O O12 0.411357 0.764228 0.634527
O O13 0.130097 0.218244 0.869053
O O14 0.144485 0.000000 0.699432
O O15 0.648570 0.000000 0.965773
#
# Coordination Sequence:
#
# PCOD8208153 Si02
#       6
#     8   4   4   8   8   8
#     4  10  19  32  52  75 100 133 172 210 249 299
#     4   9  17  29  47  72 103 136 169 208 256 306
#     4   9  17  29  49  74 101 134 171 210 254 302
#     4  10  21  36  53  74 103 138 175 214 256 303
#     4  10  19  31  49  75 106 135 168 211 257 305
#     4  10  19  30  48  75 106 135 168 211 258 305
#
# _framework density 17.764088000000001
#
# number of rings (size 3 to 8) (size 9 to 14) (size 15 to 20)
#    0.000    2.200    2.000    1.800    0.000    5.600 
#    0.000    0.000    0.000    1.200    0.000    8.400 
#    0.000    0.000    0.000    0.000    0.000    0.000 
#
# Total GULP energy -496122.518097 kJ/mol
# GULP energy per Si atom -12403.062952 kJ/mol
# Density = 1.772366 g / cm^3
# Si number density = 17.764088 Si / 1000 Ang^3
#
#
#
# Elastic Constant Matrix: (Units=GPa)
#
#
# Indices 1 2 3 4 5 6 
#
# 1 161.9787 80.1930 46.6511 0.0000 0.0000 0.0000
# 2 80.1930 96.4901 30.0498 0.0000 0.0000 0.0000
# 3 46.6511 30.0498 74.6569 0.0000 0.0000 0.0000
# 4 0.0000 0.0000 0.0000 6.8156 0.0000 0.0000
# 5 0.0000 0.0000 0.0000 0.0000 16.9807 0.0000
# 6 0.0000 0.0000 0.0000 0.0000 0.0000 26.0927
#
#
#
# Elastic Compliance Matrix: (Units=1/GPa)
#
#
# Indices 1 2 3 4 5 6 
#
# 1 0.011346 -0.008257 -0.003767 0.000000 0.000000 0.000000
# 2 -0.008257 0.017858 -0.002028 0.000000 0.000000 0.000000
# 3 -0.003767 -0.002028 0.016565 0.000000 0.000000 0.000000
# 4 0.000000 0.000000 0.000000 0.146723 0.000000 0.000000
# 5 0.000000 0.000000 0.000000 0.000000 0.058890 0.000000
# 6 0.000000 0.000000 0.000000 0.000000 0.000000 0.038325
#
#
# Mechanical properties :
#
#
# Convention : Reuss Voigt Hill
#
# Bulk Modulus (GPa) = 56.60869 71.87926 64.24397
# Shear Modulus (GPa) = 15.44646 21.72659 18.58652
#
# Velocity S-wave (km/s) = 2.95198 3.50103 3.23816
# Velocity P-wave (km/s) = 6.59962 7.54281 7.08693
#
# Compressibility (1/GPa) = 0.01766513
#
# Stress axis : x y z
#
# Youngs Moduli (GPa) = 88.13443 55.99813 60.36960
#
# Poissons Ratio (x) = 0.46237 0.22739
# Poissons Ratio (y) = 0.72772 0.12245
# Poissons Ratio (z) = 0.33196 0.11358
#
# Static dielectric constant tensor:
#      x y z
#    x 3.298170 0.000000 0.000000 
#    y 0.000000 3.289950 0.000000 
#    z 0.000000 0.000000 2.949770 
# 
# 
# High freq. dielectric constant tensor:
#      x y z
#    x 1.702790 0.000000 0.000000 
#    y 0.000000 1.694120 0.000000 
#    z 0.000000 0.000000 1.636220 
# 
# From -- ./inp_files/12164.got.cif
#   From: 2010.03.12/outbox.cif.g09.slc.cpg/sg51_7_cif.got.tgz:12164.got - 2010.04.16 13:43:02.
