data_PCOD8208166
_publ_section_title
;
Structure prediction by ZEFSAII (Michael W. Deem and Ramdas Pophale) SiO2 
 PCOD8208166
Probable space group: P M M A
;
_chemical_formula_sum "Si O2"
_cell_formula_units_Z 56
_cell_length_a 8.960412
_cell_length_b 14.416673
_cell_length_c 23.252497
_cell_angle_alpha 90.000000
_cell_angle_beta 90.000000
_cell_angle_gamma 90.000000
_cell_volume 3003.741977
_symmetry_space_group_name_H-M "P M M A"
_symmetry_group_IT_number 51
_symmetry_cell_setting 'orthorhombic'
loop_
_space_group_symop_operation_xyz
x,y,z
1/2-x,-y,z
1/2+x,-y,-z
-x,y,-z
-x,-y,-z
1/2+x,y,-z
1/2-x,y,z
x,-y,z
loop_
_atom_site_type_symbol
_atom_site_label
_atom_site_fract_x
_atom_site_fract_y
_atom_site_fract_z
Si Si1 0.079414 0.108096 0.153894
Si Si2 0.075414 0.393825 0.107381
Si Si3 0.073675 0.724126 0.666294
Si Si4 0.579478 0.606934 0.224800
Si Si5 0.074356 0.895593 0.284944
Si Si6 0.573986 0.775679 0.057373
Si Si7 0.426232 0.605869 0.558912
O O1 0.250000 0.140369 0.144070
O O2 0.028959 0.128184 0.219284
O O3 0.970942 0.164349 0.112480
O O4 0.063435 0.000000 0.139861
O O5 0.250000 0.374489 0.100686
O O6 0.033935 0.500000 0.093233
O O7 0.027514 0.368159 0.172032
O O8 0.984629 0.329631 0.063578
O O9 0.250000 0.732154 0.663904
O O10 0.021734 0.665501 0.721363
O O11 0.013513 0.672242 0.609554
O O12 0.005252 0.826721 0.670532
O O13 0.750000 0.631619 0.207878
O O14 0.566491 0.500000 0.242573
O O15 0.250000 0.886285 0.292198
O O16 0.022707 0.000000 0.300013
O O17 0.750000 0.776211 0.050321
O O18 0.500000 0.818920 0.000000
O O19 0.500000 0.640519 0.500000
O O20 0.250000 0.613704 0.552534
O O21 0.473590 0.500000 0.572813
#
# Coordination Sequence:
#
# PCOD8208166 Si02
#       7
#     8   8   8   8   8   8   8
#     4   9  19  38  61  82 107 137 167 205 256 310
#     4  10  21  37  55  75 102 135 170 211 258 307
#     4  10  19  30  49  77 106 137 172 212 256 300
#     4   9  17  30  49  75 106 136 165 200 249 309
#     4   9  19  35  54  77 105 136 168 206 255 306
#     4  12  25  39  56  77 102 133 171 214 257 306
#     4   9  18  33  51  73 105 143 180 216 254 298
#
# _framework density 18.643412999999999
#
# number of rings (size 3 to 8) (size 9 to 14) (size 15 to 20)
#    0.000    2.286    0.000    3.857    0.000    7.714 
#    0.000    1.429    0.000    4.714    0.000    0.000 
#    0.000    0.000    0.000    0.000    0.000    0.000 
#
# Total GULP energy -694538.815677 kJ/mol
# GULP energy per Si atom -12402.478851 kJ/mol
# Density = 1.860098 g / cm^3
# Si number density = 18.643413 Si / 1000 Ang^3
#
#
#
# Elastic Constant Matrix: (Units=GPa)
#
#
# Indices 1 2 3 4 5 6 
#
# 1 72.2185 34.2820 38.1959 0.0000 0.0000 0.0000
# 2 34.2820 92.2810 58.2278 0.0000 0.0000 0.0000
# 3 38.1959 58.2278 91.8740 0.0000 0.0000 0.0000
# 4 0.0000 0.0000 0.0000 25.8708 0.0000 0.0000
# 5 0.0000 0.0000 0.0000 0.0000 30.4291 0.0000
# 6 0.0000 0.0000 0.0000 0.0000 0.0000 31.3872
#
#
#
# Elastic Compliance Matrix: (Units=1/GPa)
#
#
# Indices 1 2 3 4 5 6 
#
# 1 0.018347 -0.003338 -0.005512 0.000000 0.000000 0.000000
# 2 -0.003338 0.018665 -0.010442 0.000000 0.000000 0.000000
# 3 -0.005512 -0.010442 0.019794 0.000000 0.000000 0.000000
# 4 0.000000 0.000000 0.000000 0.038654 0.000000 0.000000
# 5 0.000000 0.000000 0.000000 0.000000 0.032863 0.000000
# 6 0.000000 0.000000 0.000000 0.000000 0.000000 0.031860
#
#
# Mechanical properties :
#
#
# Convention : Reuss Voigt Hill
#
# Bulk Modulus (GPa) = 54.87798 57.53166 56.20482
# Shear Modulus (GPa) = 24.40929 25.91528 25.16229
#
# Velocity S-wave (km/s) = 3.62231 3.73238 3.67776
# Velocity P-wave (km/s) = 6.85524 7.03564 6.94603
#
# Compressibility (1/GPa) = 0.01822224
#
# Stress axis : x y z
#
# Youngs Moduli (GPa) = 54.50613 53.57603 50.52044
#
# Poissons Ratio (x) = 0.17882 0.27848
# Poissons Ratio (y) = 0.18192 0.52753
# Poissons Ratio (z) = 0.30045 0.55944
#
# Static dielectric constant tensor:
#      x y z
#    x 3.265900 0.000000 0.000000 
#    y 0.000000 3.512770 0.000000 
#    z 0.000000 0.000000 3.388470 
# 
# 
# High freq. dielectric constant tensor:
#      x y z
#    x 1.716790 0.000000 0.000000 
#    y 0.000000 1.726190 0.000000 
#    z 0.000000 0.000000 1.710720 
# 
# From -- ./inp_files/31910.got.cif
#   From: 2010.03.12/outbox.cif.g09.slc.cpg/sg51_16_cif.got.tgz:31910.got - 2010.04.16 13:43:02.
