data_PCOD8208418
_publ_section_title
;
Structure prediction by ZEFSAII (Michael W. Deem and Ramdas Pophale) SiO2 
 PCOD8208418
Probable space group: P M M A
;
_chemical_formula_sum "Si O2"
_cell_formula_units_Z 64
_cell_length_a 9.223168
_cell_length_b 20.398315
_cell_length_c 19.580133
_cell_angle_alpha 90.000000
_cell_angle_beta 90.000000
_cell_angle_gamma 90.000000
_cell_volume 3683.749169
_symmetry_space_group_name_H-M "P M M A"
_symmetry_group_IT_number 51
_symmetry_cell_setting 'orthorhombic'
loop_
_space_group_symop_operation_xyz
x,y,z
1/2-x,-y,z
1/2+x,-y,-z
-x,y,-z
-x,-y,-z
1/2+x,y,-z
1/2-x,y,z
x,-y,z
loop_
_atom_site_type_symbol
_atom_site_label
_atom_site_fract_x
_atom_site_fract_y
_atom_site_fract_z
Si Si1 0.588324 0.306125 0.824731
Si Si2 0.086313 0.696293 0.337922
Si Si3 0.912641 0.428021 0.176910
Si Si4 0.420785 0.174141 0.665332
Si Si5 0.418768 0.076676 0.430799
Si Si6 0.917501 0.820030 0.176188
Si Si7 0.586847 0.572612 0.339352
Si Si8 0.080477 0.074387 0.932817
O O1 0.750000 0.303322 0.853924
O O2 0.586681 0.307552 0.743295
O O3 0.514629 0.371890 0.854503
O O4 0.504378 0.242538 0.851455
O O5 0.250000 0.704330 0.366027
O O6 0.988448 0.757589 0.361729
O O7 0.018333 0.629211 0.368870
O O8 0.750000 0.416590 0.149800
O O9 0.969020 0.500000 0.153865
O O10 0.912964 0.423843 0.258160
O O11 0.250000 0.173220 0.648520
O O12 0.502787 0.114129 0.630351
O O13 0.451795 0.164620 0.745297
O O14 0.500000 0.096766 0.500000
O O15 0.250000 0.096697 0.436081
O O16 0.436220 0.000000 0.415699
O O17 0.750000 0.803002 0.166245
O O18 0.966010 0.882672 0.132252
O O19 0.750000 0.585137 0.366284
O O20 0.533239 0.500000 0.362888
O O21 0.250000 0.079618 0.947214
O O22 0.033194 0.000000 0.916449
O O23 0.000000 0.100858 0.000000
#
# Coordination Sequence:
#
# PCOD8208418 Si02
#       8
#     8   8   8   8   8   8   8   8
#     4   9  16  24  36  56  83 114 148 188 230 270
#     4   9  16  25  37  56  85 118 151 189 232 276
#     4   8  13  21  33  49  73 109 149 184 221 269
#     4  10  19  31  49  71  95 125 159 194 233 277
#     4  10  21  37  55  74  97 124 154 190 232 278
#     4   9  18  31  47  67  93 125 157 190 230 279
#     4   8  13  21  33  50  75 110 151 190 227 271
#     4   9  18  33  51  70  92 119 152 190 232 277
#
# _framework density 17.373604
#
# number of rings (size 3 to 8) (size 9 to 14) (size 15 to 20)
#    0.000    3.000    0.000    2.250    0.000    5.750 
#    0.000    3.750    0.000    1.500    0.000    0.000 
#    0.000    1.000    0.000    3.500    0.000    7.625 
#
# Total GULP energy -793382.001552 kJ/mol
# GULP energy per Si atom -12396.593774 kJ/mol
# Density = 1.733406 g / cm^3
# Si number density = 17.373604 Si / 1000 Ang^3
#
#
#
# Elastic Constant Matrix: (Units=GPa)
#
#
# Indices 1 2 3 4 5 6 
#
# 1 117.9033 76.8401 37.5219 0.0000 0.0000 0.0000
# 2 76.8401 129.9772 45.8260 0.0000 0.0000 0.0000
# 3 37.5219 45.8260 39.8878 0.0000 0.0000 0.0000
# 4 0.0000 0.0000 0.0000 1.9351 0.0000 0.0000
# 5 0.0000 0.0000 0.0000 0.0000 17.8889 0.0000
# 6 0.0000 0.0000 0.0000 0.0000 0.0000 32.8710
#
#
#
# Elastic Compliance Matrix: (Units=1/GPa)
#
#
# Indices 1 2 3 4 5 6 
#
# 1 0.014729 -0.006425 -0.006474 0.000000 0.000000 0.000000
# 2 -0.006425 0.015735 -0.012033 0.000000 0.000000 0.000000
# 3 -0.006474 -0.012033 0.044985 0.000000 0.000000 0.000000
# 4 0.000000 0.000000 0.000000 0.516778 0.000000 0.000000
# 5 0.000000 0.000000 0.000000 0.000000 0.055901 0.000000
# 6 0.000000 0.000000 0.000000 0.000000 0.000000 0.030422
#
#
# Mechanical properties :
#
#
# Convention : Reuss Voigt Hill
#
# Bulk Modulus (GPa) = 39.08643 67.57159 53.32901
# Shear Modulus (GPa) = 6.78480 19.04435 12.91458
#
# Velocity S-wave (km/s) = 1.97831 3.31443 2.72939
# Velocity P-wave (km/s) = 5.26922 7.32291 6.37925
#
# Compressibility (1/GPa) = 0.02558433
#
# Stress axis : x y z
#
# Youngs Moduli (GPa) = 67.89243 63.55445 22.22987
#
# Poissons Ratio (x) = 0.40835 0.14391
# Poissons Ratio (y) = 0.43622 0.26749
# Poissons Ratio (z) = 0.43953 0.76475
#
# Static dielectric constant tensor:
#      x y z
#    x 3.407600 0.000000 0.000000 
#    y 0.000000 3.498790 0.000000 
#    z 0.000000 0.000000 2.706600 
# 
# 
# High freq. dielectric constant tensor:
#      x y z
#    x 1.679100 0.000000 0.000000 
#    y 0.000000 1.685270 0.000000 
#    z 0.000000 0.000000 1.603880 
# 
# From -- ./inp_files/32412.got.cif
#   From: 2010.03.12/outbox.cif.g09.slc.cpg/sg51_17_cif.got.tgz:32412.got - 2010.04.16 13:43:02.
