data_PCOD8208920
_publ_section_title
;
Structure prediction by ZEFSAII (Michael W. Deem and Ramdas Pophale) SiO2 
 PCOD8208920
Probable space group: P M M A
;
_chemical_formula_sum "Si O2"
_cell_formula_units_Z 64
_cell_length_a 17.203985
_cell_length_b 9.230806
_cell_length_c 22.726015
_cell_angle_alpha 90.000000
_cell_angle_beta 90.000000
_cell_angle_gamma 90.000000
_cell_volume 3609.042264
_symmetry_space_group_name_H-M "P M M A"
_symmetry_group_IT_number 51
_symmetry_cell_setting 'orthorhombic'
loop_
_space_group_symop_operation_xyz
x,y,z
1/2-x,-y,z
1/2+x,-y,-z
-x,y,-z
-x,-y,-z
1/2+x,y,-z
1/2-x,y,z
x,-y,z
loop_
_atom_site_type_symbol
_atom_site_label
_atom_site_fract_x
_atom_site_fract_y
_atom_site_fract_z
Si Si1 0.161746 0.833279 0.451748
Si Si2 0.935080 0.662262 0.873440
Si Si3 0.990925 0.670247 0.249740
Si Si4 0.900194 0.335370 0.069988
Si Si5 0.072556 0.336872 0.543095
Si Si6 0.664104 0.328091 0.191652
Si Si7 0.839767 0.168733 0.959901
Si Si8 0.977273 0.170558 0.633562
O O1 0.250000 0.803113 0.431110
O O2 0.144388 0.737935 0.509597
O O3 0.104259 0.792338 0.398353
O O4 0.149236 0.000000 0.469743
O O5 0.901321 0.500000 0.874160
O O6 0.957537 0.705805 0.807235
O O7 0.869427 0.769369 0.897621
O O8 0.009122 0.671154 0.915818
O O9 0.993201 0.500000 0.265383
O O10 0.027870 0.763343 0.301723
O O11 0.901951 0.723757 0.237550
O O12 0.874388 0.500000 0.056100
O O13 0.852376 0.270679 0.125681
O O14 0.885624 0.238155 0.013717
O O15 0.096025 0.500000 0.561789
O O16 0.000000 0.338504 0.500000
O O17 0.050029 0.244777 0.600513
O O18 0.750000 0.276566 0.212472
O O19 0.657665 0.500000 0.187865
O O20 0.750000 0.206791 0.966560
O O21 0.856460 0.000000 0.960391
O O22 0.992440 0.000000 0.636307
#
# Coordination Sequence:
#
# PCOD8208920 Si02
#       8
#     8   8   8   8   8   8   8   8
#     4   9  18  33  52  75 103 132 164 205 249 292
#     4   9  19  35  53  72  94 124 164 206 249 299
#     4   9  18  33  52  73  97 126 165 210 245 281
#     4   9  17  31  53  76  94 118 156 199 246 305
#     4   9  17  30  50  75 101 128 159 197 238 280
#     4   8  14  27  49  74  96 120 153 195 244 294
#     4  11  23  34  45  68 100 129 159 199 248 300
#     4  10  19  32  52  75 100 135 172 200 239 295
#
# _framework density 17.733236000000002
#
# number of rings (size 3 to 8) (size 9 to 14) (size 15 to 20)
#    0.000    2.750    0.000    3.375    0.000    6.250 
#    0.000    3.125    0.000    5.625    0.000    0.000 
#    0.000    0.000    0.000    0.000    0.000    0.000 
#
# Total GULP energy -793500.299775 kJ/mol
# GULP energy per Si atom -12398.442184 kJ/mol
# Density = 1.769287 g / cm^3
# Si number density = 17.733236 Si / 1000 Ang^3
#
#
#
# Elastic Constant Matrix: (Units=GPa)
#
#
# Indices 1 2 3 4 5 6 
#
# 1 58.6504 42.1790 46.7315 0.0000 0.0000 0.0000
# 2 42.1790 84.7873 59.8172 0.0000 0.0000 0.0000
# 3 46.7315 59.8172 114.2930 0.0000 0.0000 0.0000
# 4 0.0000 0.0000 0.0000 22.6180 0.0000 0.0000
# 5 0.0000 0.0000 0.0000 0.0000 18.2112 0.0000
# 6 0.0000 0.0000 0.0000 0.0000 0.0000 22.5701
#
#
#
# Elastic Compliance Matrix: (Units=1/GPa)
#
#
# Indices 1 2 3 4 5 6 
#
# 1 0.029699 -0.009841 -0.006993 0.000000 0.000000 0.000000
# 2 -0.009841 0.021959 -0.007469 0.000000 0.000000 0.000000
# 3 -0.006993 -0.007469 0.015518 0.000000 0.000000 0.000000
# 4 0.000000 0.000000 0.000000 0.044213 0.000000 0.000000
# 5 0.000000 0.000000 0.000000 0.000000 0.054911 0.000000
# 6 0.000000 0.000000 0.000000 0.000000 0.000000 0.044306
#
#
# Mechanical properties :
#
#
# Convention : Reuss Voigt Hill
#
# Bulk Modulus (GPa) = 53.84903 61.68732 57.76818
# Shear Modulus (GPa) = 18.83938 19.94673 19.39305
#
# Velocity S-wave (km/s) = 3.26295 3.35747 3.31055
# Velocity P-wave (km/s) = 6.68041 7.06343 6.87458
#
# Compressibility (1/GPa) = 0.01857044
#
# Stress axis : x y z
#
# Youngs Moduli (GPa) = 33.67109 45.53923 64.44294
#
# Poissons Ratio (x) = 0.44815 0.45063
# Poissons Ratio (y) = 0.33136 0.48132
# Poissons Ratio (z) = 0.23545 0.34013
#
# Static dielectric constant tensor:
#      x y z
#    x 3.273990 0.000000 0.000000 
#    y 0.000000 3.198170 0.000000 
#    z 0.000000 0.000000 3.184410 
# 
# 
# High freq. dielectric constant tensor:
#      x y z
#    x 1.676060 0.000000 0.000000 
#    y 0.000000 1.674180 0.000000 
#    z 0.000000 0.000000 1.677030 
# 
# From -- ./inp_files/33876.got.cif
#   From: 2010.03.12/outbox.cif.g09.slc.cpg/sg51_17_cif.got.tgz:33876.got - 2010.04.16 13:43:02.
