data_PCOD8208989
_publ_section_title
;
Structure prediction by ZEFSAII (Michael W. Deem and Ramdas Pophale) SiO2 
 PCOD8208989
Probable space group: P M M A
;
_chemical_formula_sum "Si O2"
_cell_formula_units_Z 48
_cell_length_a 9.401078
_cell_length_b 9.089559
_cell_length_c 28.875968
_cell_angle_alpha 90.000000
_cell_angle_beta 90.000000
_cell_angle_gamma 90.000000
_cell_volume 2467.499202
_symmetry_space_group_name_H-M "P M M A"
_symmetry_group_IT_number 51
_symmetry_cell_setting 'orthorhombic'
loop_
_space_group_symop_operation_xyz
x,y,z
1/2-x,-y,z
1/2+x,-y,-z
-x,y,-z
-x,-y,-z
1/2+x,y,-z
1/2-x,y,z
x,-y,z
loop_
_atom_site_type_symbol
_atom_site_label
_atom_site_fract_x
_atom_site_fract_y
_atom_site_fract_z
Si Si1 0.965207 0.173318 0.390052
Si Si2 0.916251 0.669465 0.952651
Si Si3 0.750000 0.174122 0.465616
Si Si4 0.415372 0.326275 0.209565
Si Si5 0.750000 0.174845 0.568469
Si Si6 0.915516 0.825455 0.127935
Si Si7 0.407901 0.666563 0.703341
O O1 0.884136 0.227591 0.435948
O O2 0.908418 0.239279 0.342893
O O3 0.122208 0.229599 0.399865
O O4 0.949628 0.000000 0.384580
O O5 0.750000 0.715278 0.957831
O O6 0.926598 0.500000 0.936655
O O7 0.995251 0.770627 0.915831
O O8 0.000000 0.694751 0.000000
O O9 0.750000 0.245807 0.516898
O O10 0.750000 0.000000 0.471610
O O11 0.250000 0.279927 0.205553
O O12 0.434185 0.500000 0.201586
O O13 0.510669 0.241480 0.172849
O O14 0.474907 0.278495 0.259819
O O15 0.750000 0.000000 0.562721
O O16 0.750000 0.775128 0.124668
O O17 0.925955 0.000000 0.130401
O O18 0.250000 0.679995 0.725589
O O19 0.442044 0.500000 0.689234
#
# Coordination Sequence:
#
# PCOD8208989 Si02
#       7
#     8   8   4   8   4   8   8
#     4  10  19  32  52  78 104 135 176 219 265 320
#     4  10  21  38  62  91 122 160 206 250 291 339
#     4   9  16  30  51  75 103 137 175 217 262 315
#     4  10  22  40  62  86 110 143 189 236 285 343
#     4   9  18  30  49  77 107 135 171 219 268 315
#     4  11  24  40  59  87 122 158 195 238 291 345
#     4  10  21  37  56  78 107 142 178 220 273 331
#
# _framework density 19.452895000000002
#
# number of rings (size 3 to 8) (size 9 to 14) (size 15 to 20)
#    0.000    2.000    0.833    2.500    1.167    8.333 
#    0.000    0.000    0.000    3.000    0.000    0.000 
#    0.000    0.000    0.000    0.000    0.000    0.000 
#
# Total GULP energy -595016.809125 kJ/mol
# GULP energy per Si atom -12396.183523 kJ/mol
# Density = 1.940862 g / cm^3
# Si number density = 19.452895 Si / 1000 Ang^3
#
#
#
# Elastic Constant Matrix: (Units=GPa)
#
#
# Indices 1 2 3 4 5 6 
#
# 1 161.0042 36.8048 53.0759 0.0000 0.0000 0.0000
# 2 36.8048 45.8115 37.3245 0.0000 0.0000 0.0000
# 3 53.0759 37.3245 106.4470 0.0000 0.0000 0.0000
# 4 0.0000 0.0000 0.0000 27.6506 0.0000 0.0000
# 5 0.0000 0.0000 0.0000 0.0000 46.0197 0.0000
# 6 0.0000 0.0000 0.0000 0.0000 0.0000 22.0453
#
#
#
# Elastic Compliance Matrix: (Units=1/GPa)
#
#
# Indices 1 2 3 4 5 6 
#
# 1 0.008037 -0.004469 -0.002441 0.000000 0.000000 0.000000
# 2 -0.004469 0.033043 -0.009358 0.000000 0.000000 0.000000
# 3 -0.002441 -0.009358 0.013893 0.000000 0.000000 0.000000
# 4 0.000000 0.000000 0.000000 0.036166 0.000000 0.000000
# 5 0.000000 0.000000 0.000000 0.000000 0.021730 0.000000
# 6 0.000000 0.000000 0.000000 0.000000 0.000000 0.045361
#
#
# Mechanical properties :
#
#
# Convention : Reuss Voigt Hill
#
# Bulk Modulus (GPa) = 44.56675 63.07479 53.82077
# Shear Modulus (GPa) = 25.22159 31.54696 28.38427
#
# Velocity S-wave (km/s) = 3.60467 4.03141 3.82400
# Velocity P-wave (km/s) = 6.34702 7.35965 6.87201
#
# Compressibility (1/GPa) = 0.02243825
#
# Stress axis : x y z
#
# Youngs Moduli (GPa) = 124.42407 30.26361 71.98105
#
# Poissons Ratio (x) = 0.13523 0.17567
# Poissons Ratio (y) = 0.55599 0.67361
# Poissons Ratio (z) = 0.30366 0.28321
#
# Static dielectric constant tensor:
#      x y z
#    x 3.921610 0.000000 0.000000 
#    y 0.000000 3.264440 0.000000 
#    z 0.000000 0.000000 3.617580 
# 
# 
# High freq. dielectric constant tensor:
#      x y z
#    x 1.780480 0.000000 0.000000 
#    y 0.000000 1.725710 0.000000 
#    z 0.000000 0.000000 1.767330 
# 
# From -- ./inp_files/37121.got.cif
#   From: 2010.03.12/outbox.cif.g09.slc.cpg/sg51_19_cif.got.tgz:37121.got - 2010.04.16 13:43:02.
