data_PCOD8208800
_publ_section_title
;
Structure prediction by ZEFSAII (Michael W. Deem and Ramdas Pophale) SiO2 
 PCOD8208800
Probable space group: P M M A
;
_chemical_formula_sum "Si O2"
_cell_formula_units_Z 48
_cell_length_a 8.937626
_cell_length_b 15.572917
_cell_length_c 18.681465
_cell_angle_alpha 90.000000
_cell_angle_beta 90.000000
_cell_angle_gamma 90.000000
_cell_volume 2600.177985
_symmetry_space_group_name_H-M "P M M A"
_symmetry_group_IT_number 51
_symmetry_cell_setting 'orthorhombic'
loop_
_space_group_symop_operation_xyz
x,y,z
1/2-x,-y,z
1/2+x,-y,-z
-x,y,-z
-x,-y,-z
1/2+x,y,-z
1/2-x,y,z
x,-y,z
loop_
_atom_site_type_symbol
_atom_site_label
_atom_site_fract_x
_atom_site_fract_y
_atom_site_fract_z
Si Si1 0.074528 0.000000 0.422348
Si Si2 0.420120 0.845523 0.653021
Si Si3 0.425288 0.744571 0.789982
Si Si4 0.921316 0.597285 0.706529
Si Si5 0.074807 0.312074 0.077183
Si Si6 0.922971 0.334173 0.424276
Si Si7 0.921296 0.500000 0.925852
O O1 0.000000 0.000000 0.500000
O O2 0.030776 0.082936 0.376494
O O3 0.250000 0.000000 0.435073
O O4 0.250000 0.879770 0.649513
O O5 0.463603 0.822310 0.735307
O O6 0.438652 0.762219 0.604299
O O7 0.250000 0.739323 0.803472
O O8 0.477290 0.655048 0.756836
O O9 0.507218 0.756683 0.866508
O O10 0.750000 0.630572 0.707296
O O11 0.928198 0.500000 0.735316
O O12 0.987636 0.600729 0.626614
O O13 0.250000 0.294887 0.068894
O O14 0.041039 0.408100 0.111276
O O15 0.000000 0.299420 0.000000
O O16 0.750000 0.361909 0.428706
O O17 0.000000 0.340365 0.500000
O O18 0.750000 0.500000 0.945611
O O19 0.000000 0.500000 0.000000
#
# Coordination Sequence:
#
# PCOD8208800 Si02
#       7
#     4   8   8   8   8   8   4
#     4  12  24  36  58  88 115 142 173 208 256 314
#     4   9  20  38  56  77 107 138 171 209 255 312
#     4  10  21  36  54  76 103 139 177 217 266 315
#     4  10  21  35  50  69  95 131 175 219 263 310
#     4  10  19  32  50  74 105 140 181 225 269 318
#     4  10  20  34  53  74  98 131 169 212 260 307
#     4   8  16  28  42  64  96 132 171 216 265 308
#
# _framework density 18.460273999999998
#
# number of rings (size 3 to 8) (size 9 to 14) (size 15 to 20)
#    0.000    2.167    0.000    4.250    1.167    7.667 
#    0.000    0.000    0.000    0.000    0.000    0.583 
#    0.000    0.000    0.000    0.000    0.000    0.000 
#
# Total GULP energy -594953.967717 kJ/mol
# GULP energy per Si atom -12394.874327 kJ/mol
# Density = 1.841826 g / cm^3
# Si number density = 18.460274 Si / 1000 Ang^3
#
#
#
# Elastic Constant Matrix: (Units=GPa)
#
#
# Indices 1 2 3 4 5 6 
#
# 1 102.3785 35.5145 46.7586 0.0000 0.0000 0.0000
# 2 35.5145 56.9186 27.2874 0.0000 0.0000 0.0000
# 3 46.7586 27.2874 112.9859 0.0000 0.0000 0.0000
# 4 0.0000 0.0000 0.0000 22.0589 0.0000 0.0000
# 5 0.0000 0.0000 0.0000 0.0000 37.3768 0.0000
# 6 0.0000 0.0000 0.0000 0.0000 0.0000 26.0806
#
#
#
# Elastic Compliance Matrix: (Units=1/GPa)
#
#
# Indices 1 2 3 4 5 6 
#
# 1 0.014011 -0.006743 -0.004170 0.000000 0.000000 0.000000
# 2 -0.006743 0.023115 -0.002792 0.000000 0.000000 0.000000
# 3 -0.004170 -0.002792 0.011251 0.000000 0.000000 0.000000
# 4 0.000000 0.000000 0.000000 0.045333 0.000000 0.000000
# 5 0.000000 0.000000 0.000000 0.000000 0.026755 0.000000
# 6 0.000000 0.000000 0.000000 0.000000 0.000000 0.038343
#
#
# Mechanical properties :
#
#
# Convention : Reuss Voigt Hill
#
# Bulk Modulus (GPa) = 47.69464 54.60044 51.14754
# Shear Modulus (GPa) = 25.87905 27.95143 26.91524
#
# Velocity S-wave (km/s) = 3.74823 3.89542 3.82253
# Velocity P-wave (km/s) = 6.68017 7.06214 6.87381
#
# Compressibility (1/GPa) = 0.02096672
#
# Stress axis : x y z
#
# Youngs Moduli (GPa) = 71.37038 43.26217 88.88389
#
# Poissons Ratio (x) = 0.29173 0.37064
# Poissons Ratio (y) = 0.48127 0.24815
# Poissons Ratio (z) = 0.29761 0.12078
#
# Static dielectric constant tensor:
#      x y z
#    x 3.473110 0.000000 0.000000 
#    y 0.000000 3.171610 0.000000 
#    z 0.000000 0.000000 0.307560 
# 
# 
# High freq. dielectric constant tensor:
#      x y z
#    x 1.729730 0.000000 0.000000 
#    y 0.000000 1.678480 0.000000 
#    z 0.000000 0.000000 1.722570 
# 
# From -- ./inp_files/27692.got.cif
#   From: 2010.03.12/outbox.cif.g09.slc.cpg/sg51_14_cif.got.tgz:27692.got - 2010.04.16 13:43:02.
