data_PCOD8208818
_publ_section_title
;
Structure prediction by ZEFSAII (Michael W. Deem and Ramdas Pophale) SiO2 
 PCOD8208818
Probable space group: P M M A
;
_chemical_formula_sum "Si O2"
_cell_formula_units_Z 64
_cell_length_a 9.061277
_cell_length_b 14.112526
_cell_length_c 31.080088
_cell_angle_alpha 90.000000
_cell_angle_beta 90.000000
_cell_angle_gamma 90.000000
_cell_volume 3974.444179
_symmetry_space_group_name_H-M "P M M A"
_symmetry_group_IT_number 51
_symmetry_cell_setting 'orthorhombic'
loop_
_space_group_symop_operation_xyz
x,y,z
1/2-x,-y,z
1/2+x,-y,-z
-x,y,-z
-x,-y,-z
1/2+x,y,-z
1/2-x,y,z
x,-y,z
loop_
_atom_site_type_symbol
_atom_site_label
_atom_site_fract_x
_atom_site_fract_y
_atom_site_fract_z
Si Si1 0.578199 0.889090 0.789927
Si Si2 0.077822 0.109031 0.626480
Si Si3 0.581954 0.605210 0.170643
Si Si4 0.922713 0.108419 0.042826
Si Si5 0.421333 0.798213 0.869720
Si Si6 0.916438 0.887093 0.541716
Si Si7 0.078150 0.607561 0.258675
Si Si8 0.575258 0.217185 0.288168
O O1 0.750000 0.863296 0.786994
O O2 0.516571 0.855694 0.835530
O O3 0.492719 0.836781 0.752117
O O4 0.549908 0.000000 0.784863
O O5 0.250000 0.121146 0.617374
O O6 0.025621 0.166554 0.668067
O O7 0.993520 0.150437 0.585055
O O8 0.036162 0.000000 0.634822
O O9 0.750000 0.612730 0.187925
O O10 0.552709 0.500000 0.151158
O O11 0.553079 0.684888 0.134570
O O12 0.473013 0.625535 0.209939
O O13 0.750000 0.117325 0.035443
O O14 0.975430 0.171759 0.082999
O O15 0.970051 0.000000 0.051754
O O16 0.000000 0.148000 0.000000
O O17 0.250000 0.825304 0.862914
O O18 0.750000 0.849113 0.540704
O O19 0.000000 0.845846 0.500000
O O20 0.922435 0.000000 0.540909
O O21 0.250000 0.631866 0.261488
O O22 0.045175 0.500000 0.272896
O O23 0.987283 0.676039 0.290283
O O24 0.750000 0.218022 0.282854
#
# Coordination Sequence:
#
# PCOD8208818 Si02
#       8
#     8   8   8   8   8   8   8   8
#     4  11  23  34  45  66  96 128 160 194 232 277
#     4   9  18  31  45  63  90 125 163 199 236 279
#     4   9  17  30  49  72  94 118 152 191 232 280
#     4   9  18  32  49  69  92 119 153 191 233 281
#     4  10  19  32  51  72  93 121 155 193 235 279
#     4   9  16  26  42  63  87 118 157 200 242 281
#     4  10  20  33  49  69  94 123 156 198 243 282
#     4  11  21  33  49  68  93 128 164 198 236 282
#
# _framework density 16.102881
#
# number of rings (size 3 to 8) (size 9 to 14) (size 15 to 20)
#    0.000    2.250    1.250    2.250    0.000    5.750 
#    0.000    2.500    0.000    0.375    0.000    0.000 
#    0.000    0.500    0.000    1.625    0.000    2.375 
#
# Total GULP energy -793639.331913 kJ/mol
# GULP energy per Si atom -12400.614561 kJ/mol
# Density = 1.606623 g / cm^3
# Si number density = 16.102881 Si / 1000 Ang^3
#
#
#
# Elastic Constant Matrix: (Units=GPa)
#
#
# Indices 1 2 3 4 5 6 
#
# 1 75.6666 40.3074 56.8060 0.0000 0.0000 0.0000
# 2 40.3074 82.9932 55.6831 0.0000 0.0000 0.0000
# 3 56.8060 55.6831 132.4151 0.0000 0.0000 0.0000
# 4 0.0000 0.0000 0.0000 8.5314 0.0000 0.0000
# 5 0.0000 0.0000 0.0000 0.0000 27.9026 0.0000
# 6 0.0000 0.0000 0.0000 0.0000 0.0000 21.6556
#
#
#
# Elastic Compliance Matrix: (Units=1/GPa)
#
#
# Indices 1 2 3 4 5 6 
#
# 1 0.021380 -0.005892 -0.006694 0.000000 0.000000 0.000000
# 2 -0.005892 0.018409 -0.005213 0.000000 0.000000 0.000000
# 3 -0.006694 -0.005213 0.012616 0.000000 0.000000 0.000000
# 4 0.000000 0.000000 0.000000 0.117214 0.000000 0.000000
# 5 0.000000 0.000000 0.000000 0.000000 0.035839 0.000000
# 6 0.000000 0.000000 0.000000 0.000000 0.000000 0.046177
#
#
# Mechanical properties :
#
#
# Convention : Reuss Voigt Hill
#
# Bulk Modulus (GPa) = 59.50551 66.29644 62.90097
# Shear Modulus (GPa) = 17.07427 20.83647 18.95537
#
# Velocity S-wave (km/s) = 3.25979 3.60107 3.43467
# Velocity P-wave (km/s) = 7.15555 7.65181 7.40784
#
# Compressibility (1/GPa) = 0.01680517
#
# Stress axis : x y z
#
# Youngs Moduli (GPa) = 46.77172 54.32176 79.26307
#
# Poissons Ratio (x) = 0.32009 0.53061
# Poissons Ratio (y) = 0.27560 0.41323
# Poissons Ratio (z) = 0.31310 0.28320
#
# Static dielectric constant tensor:
#      x y z
#    x 3.141140 0.000000 0.000000 
#    y 0.000000 3.115000 0.000000 
#    z 0.000000 0.000000 3.039650 
# 
# 
# High freq. dielectric constant tensor:
#      x y z
#    x 1.628290 0.000000 0.000000 
#    y 0.000000 1.601480 0.000000 
#    z 0.000000 0.000000 1.604790 
# 
# From -- ./inp_files/37566.got.cif
#   From: 2010.03.12/outbox.cif.g09.slc.cpg/sg51_19_cif.got.tgz:37566.got - 2010.04.16 13:43:02.
