data_PCOD8208402
_publ_section_title
;
Structure prediction by ZEFSAII (Michael W. Deem and Ramdas Pophale) SiO2 
 PCOD8208402
Probable space group: P M M A
;
_chemical_formula_sum "Si O2"
_cell_formula_units_Z 64
_cell_length_a 9.282067
_cell_length_b 14.331599
_cell_length_c 31.091003
_cell_angle_alpha 90.000000
_cell_angle_beta 90.000000
_cell_angle_gamma 90.000000
_cell_volume 4135.938570
_symmetry_space_group_name_H-M "P M M A"
_symmetry_group_IT_number 51
_symmetry_cell_setting 'orthorhombic'
loop_
_space_group_symop_operation_xyz
x,y,z
1/2-x,-y,z
1/2+x,-y,-z
-x,y,-z
-x,-y,-z
1/2+x,y,-z
1/2-x,y,z
x,-y,z
loop_
_atom_site_type_symbol
_atom_site_label
_atom_site_fract_x
_atom_site_fract_y
_atom_site_fract_z
Si Si1 0.417718 0.204866 0.705747
Si Si2 0.913086 0.889004 0.876254
Si Si3 0.413695 0.111228 0.958517
Si Si4 0.583738 0.602939 0.329934
Si Si5 0.582373 0.209608 0.541876
Si Si6 0.417176 0.891365 0.792658
Si Si7 0.083272 0.396625 0.416139
Si Si8 0.918376 0.891599 0.628255
O O1 0.250000 0.181991 0.699622
O O2 0.448302 0.316515 0.705058
O O3 0.471385 0.166293 0.751436
O O4 0.500565 0.154180 0.667827
O O5 0.750000 0.850024 0.878124
O O6 0.003975 0.849900 0.916537
O O7 0.989532 0.854771 0.832699
O O8 0.911972 0.000000 0.877936
O O9 0.250000 0.149702 0.959283
O O10 0.411264 0.000000 0.958181
O O11 0.500000 0.148379 0.000000
O O12 0.750000 0.603347 0.342913
O O13 0.538887 0.500000 0.312030
O O14 0.499336 0.628374 0.372858
O O15 0.500000 0.172445 0.500000
O O16 0.750000 0.191729 0.534060
O O17 0.546244 0.319568 0.548042
O O18 0.528042 0.153339 0.583565
O O19 0.250000 0.872826 0.803133
O O20 0.445235 0.000000 0.783348
O O21 0.250000 0.391091 0.403796
O O22 0.041218 0.500000 0.433417
O O23 0.750000 0.872565 0.634717
O O24 0.955971 0.000000 0.626824
#
# Coordination Sequence:
#
# PCOD8208402 Si02
#       8
#     8   8   8   8   8   8   8   8
#     4  10  19  31  49  70  90 112 141 174 209 252
#     4   9  16  25  36  51  73 102 138 179 220 259
#     4   9  15  22  33  49  70  99 137 181 225 264
#     4   9  17  29  47  71  94 113 135 166 204 246
#     4  10  21  35  49  67  89 112 138 167 202 246
#     4   9  17  28  40  56  80 109 140 174 211 249
#     4   9  17  31  50  69  89 112 136 163 199 245
#     4  10  21  36  51  67  88 112 139 174 212 246
#
# _framework density 15.474118000000001
#
# number of rings (size 3 to 8) (size 9 to 14) (size 15 to 20)
#    0.000    2.625    1.250    1.125    0.000    5.750 
#    0.000    1.250    0.000    0.000    0.000    0.000 
#    0.000    0.000    0.000    0.000    0.000    0.625 
#
# Total GULP energy -793445.391203 kJ/mol
# GULP energy per Si atom -12397.584238 kJ/mol
# Density = 1.543890 g / cm^3
# Si number density = 15.474118 Si / 1000 Ang^3
#
#
#
# Elastic Constant Matrix: (Units=GPa)
#
#
# Indices 1 2 3 4 5 6 
#
# 1 73.1430 28.3649 63.0024 0.0000 0.0000 0.0000
# 2 28.3649 55.2272 44.7607 0.0000 0.0000 0.0000
# 3 63.0024 44.7607 140.5226 0.0000 0.0000 0.0000
# 4 0.0000 0.0000 0.0000 6.7146 0.0000 0.0000
# 5 0.0000 0.0000 0.0000 0.0000 30.0397 0.0000
# 6 0.0000 0.0000 0.0000 0.0000 0.0000 13.8611
#
#
#
# Elastic Compliance Matrix: (Units=1/GPa)
#
#
# Indices 1 2 3 4 5 6 
#
# 1 0.023139 -0.004686 -0.008882 0.000000 0.000000 0.000000
# 2 -0.004686 0.025357 -0.005976 0.000000 0.000000 0.000000
# 3 -0.008882 -0.005976 0.013002 0.000000 0.000000 0.000000
# 4 0.000000 0.000000 0.000000 0.148930 0.000000 0.000000
# 5 0.000000 0.000000 0.000000 0.000000 0.033289 0.000000
# 6 0.000000 0.000000 0.000000 0.000000 0.000000 0.072144
#
#
# Mechanical properties :
#
#
# Convention : Reuss Voigt Hill
#
# Bulk Modulus (GPa) = 44.62109 60.12765 52.37437
# Shear Modulus (GPa) = 13.79614 18.97406 16.38510
#
# Velocity S-wave (km/s) = 2.98914 3.50548 3.25756
# Velocity P-wave (km/s) = 6.38842 7.43813 6.93317
#
# Compressibility (1/GPa) = 0.02241093
#
# Stress axis : x y z
#
# Youngs Moduli (GPa) = 43.21616 39.43627 76.91130
#
# Poissons Ratio (x) = 0.18480 0.68311
# Poissons Ratio (y) = 0.20251 0.45964
# Poissons Ratio (z) = 0.38384 0.23568
#
# Static dielectric constant tensor:
#      x y z
#    x 3.405210 0.000000 0.000000 
#    y 0.000000 2.929940 0.000000 
#    z 0.000000 0.000000 2.943230 
# 
# 
# High freq. dielectric constant tensor:
#      x y z
#    x 1.599850 0.000000 0.000000 
#    y 0.000000 1.557830 0.000000 
#    z 0.000000 0.000000 1.583990 
# 
# From -- ./inp_files/37553.got.cif
#   From: 2010.03.12/outbox.cif.g09.slc.cpg/sg51_19_cif.got.tgz:37553.got - 2010.04.16 13:43:02.
