data_PCOD8208047
_publ_section_title
;
Structure prediction by ZEFSAII (Michael W. Deem and Ramdas Pophale) SiO2 
 PCOD8208047
Probable space group: P M M A
;
_chemical_formula_sum "Si O2"
_cell_formula_units_Z 48
_cell_length_a 8.861460
_cell_length_b 10.332983
_cell_length_c 28.288760
_cell_angle_alpha 90.000000
_cell_angle_beta 90.000000
_cell_angle_gamma 90.000000
_cell_volume 2590.269235
_symmetry_space_group_name_H-M "P M M A"
_symmetry_group_IT_number 51
_symmetry_cell_setting 'orthorhombic'
loop_
_space_group_symop_operation_xyz
x,y,z
1/2-x,-y,z
1/2+x,-y,-z
-x,y,-z
-x,-y,-z
1/2+x,y,-z
1/2-x,y,z
x,-y,z
loop_
_atom_site_type_symbol
_atom_site_label
_atom_site_fract_x
_atom_site_fract_y
_atom_site_fract_z
Si Si1 0.928737 0.000000 0.714353
Si Si2 0.928404 0.500000 0.704074
Si Si3 0.424988 0.500000 0.602681
Si Si4 0.927659 0.649207 0.142437
Si Si5 0.070560 0.742215 0.235492
Si Si6 0.930078 0.000000 0.606673
Si Si7 0.419975 0.345942 0.046725
Si Si8 0.571591 0.764372 0.448847
O O1 0.990195 0.126412 0.740999
O O2 0.750000 0.000000 0.714901
O O3 0.985539 0.000000 0.660686
O O4 0.750000 0.500000 0.702385
O O5 0.988822 0.625694 0.731622
O O6 0.984600 0.500000 0.650949
O O7 0.250000 0.500000 0.615623
O O8 0.470034 0.624933 0.572298
O O9 0.750000 0.666862 0.142246
O O10 0.974942 0.500000 0.149979
O O11 0.999623 0.733816 0.183776
O O12 0.991254 0.702615 0.092914
O O13 0.250000 0.738979 0.230624
O O14 0.997340 0.872184 0.583692
O O15 0.750000 0.000000 0.601553
O O16 0.250000 0.292621 0.048751
O O17 0.421906 0.500000 0.044686
O O18 0.500000 0.288985 0.000000
O O19 0.500000 0.776060 0.500000
O O20 0.750000 0.786878 0.452075
#
# Coordination Sequence:
#
# PCOD8208047 Si02
#       8
#     4   4   4   8   8   4   8   8
#     4   9  20  36  56  79 106 137 176 220 265 312
#     4  10  20  33  55  80 106 141 182 220 263 320
#     4  10  23  39  57  82 114 145 177 220 269 320
#     4  10  19  30  46  71 103 138 177 220 266 315
#     4  10  19  34  53  76 103 137 178 221 263 312
#     4  11  22  40  63  85 110 143 181 224 271 322
#     4   9  16  26  42  66  99 137 175 217 266 317
#     4  11  23  40  60  85 113 144 180 220 267 320
#
# _framework density 18.530892000000001
#
# number of rings (size 3 to 8) (size 9 to 14) (size 15 to 20)
#    0.000    2.000    0.833    3.250    0.000    6.000 
#    0.000    2.083    0.000    0.000    0.000    0.583 
#    0.000    0.000    0.000    0.000    0.000    0.000 
#
# Total GULP energy -595343.996764 kJ/mol
# GULP energy per Si atom -12402.999933 kJ/mol
# Density = 1.848872 g / cm^3
# Si number density = 18.530892 Si / 1000 Ang^3
#
#
#
# Elastic Constant Matrix: (Units=GPa)
#
#
# Indices 1 2 3 4 5 6 
#
# 1 72.9589 41.5465 56.1358 0.0000 0.0000 0.0000
# 2 41.5465 128.9146 75.1736 0.0000 0.0000 0.0000
# 3 56.1358 75.1736 188.4729 0.0000 0.0000 0.0000
# 4 0.0000 0.0000 0.0000 -0.9706 0.0000 0.0000
# 5 0.0000 0.0000 0.0000 0.0000 38.7316 0.0000
# 6 0.0000 0.0000 0.0000 0.0000 0.0000 21.2542
#
#
#
# Elastic Compliance Matrix: (Units=1/GPa)
#
#
# Indices 1 2 3 4 5 6 
#
# 1 0.019037 -0.003686 -0.004200 0.000000 0.000000 0.000000
# 2 -0.003686 0.010822 -0.003218 0.000000 0.000000 0.000000
# 3 -0.004200 -0.003218 0.007840 0.000000 0.000000 0.000000
# 4 0.000000 0.000000 0.000000 -1.030329 0.000000 0.000000
# 5 0.000000 0.000000 0.000000 0.000000 0.025819 0.000000
# 6 0.000000 0.000000 0.000000 0.000000 0.000000 0.047049
#
#
# Mechanical properties :
#
#
# Convention : Reuss Voigt Hill
#
# Bulk Modulus (GPa) = 64.55679 81.78426 73.17052
# Shear Modulus (GPa) = -5.60293 26.30242 10.34975
#
# Velocity S-wave (km/s) = -1.74073 3.77156 2.36585
# Velocity P-wave (km/s) = 5.55633 7.94959 6.85816
#
# Compressibility (1/GPa) = 0.01549024
#
# Stress axis : x y z
#
# Youngs Moduli (GPa) = 52.52977 92.40598 127.54477
#
# Poissons Ratio (x) = 0.34062 0.53566
# Poissons Ratio (y) = 0.19363 0.41049
# Poissons Ratio (z) = 0.22061 0.29740
#
# Static dielectric constant tensor:
#      x y z
#    x 3.366820 0.000000 0.000000 
#    y 0.000000 3.371940 0.000000 
#    z 0.000000 0.000000 3.568480 
# 
# 
# High freq. dielectric constant tensor:
#      x y z
#    x 1.717250 0.000000 0.000000 
#    y 0.000000 1.694300 0.000000 
#    z 0.000000 0.000000 1.737940 
# 
# From -- ./inp_files/37249.got.cif
#   From: 2010.03.12/outbox.cif.g09.slc.cpg/sg51_19_cif.got.tgz:37249.got - 2010.04.16 13:43:02.
