data_PCOD8208941
_publ_section_title
;
Structure prediction by ZEFSAII (Michael W. Deem and Ramdas Pophale) SiO2 
 PCOD8208941
Probable space group: P M M A
;
_chemical_formula_sum "Si O2"
_cell_formula_units_Z 40
_cell_length_a 16.678417
_cell_length_b 13.879379
_cell_length_c 9.673535
_cell_angle_alpha 90.000000
_cell_angle_beta 90.000000
_cell_angle_gamma 90.000000
_cell_volume 2239.288607
_symmetry_space_group_name_H-M "P M M A"
_symmetry_group_IT_number 51
_symmetry_cell_setting 'orthorhombic'
loop_
_space_group_symop_operation_xyz
x,y,z
1/2-x,-y,z
1/2+x,-y,-z
-x,y,-z
-x,-y,-z
1/2+x,y,-z
1/2-x,y,z
x,-y,z
loop_
_atom_site_type_symbol
_atom_site_label
_atom_site_fract_x
_atom_site_fract_y
_atom_site_fract_z
Si Si1 0.407356 0.889574 0.256054
Si Si2 0.468688 0.393787 0.154006
Si Si3 0.343104 0.109866 0.554511
Si Si4 0.840257 0.744208 0.936055
Si Si5 0.432770 0.780157 0.783755
O O1 0.395519 0.870973 0.418637
O O2 0.340031 0.832994 0.170202
O O3 0.495867 0.857342 0.210183
O O4 0.395678 0.000000 0.218653
O O5 0.463324 0.500000 0.223468
O O6 0.380817 0.346199 0.142480
O O7 0.528537 0.325912 0.244175
O O8 0.500000 0.404045 0.000000
O O9 0.250000 0.126452 0.520841
O O10 0.370065 0.188529 0.666880
O O11 0.357378 0.000000 0.607633
O O12 0.750000 0.715697 0.976274
O O13 0.888245 0.778018 0.070544
#
# Coordination Sequence:
#
# PCOD8208941 Si02
#       5
#     8   8   8   8   8
#     4  10  20  34  50  69  98 138 175 202 241 303
#     4   8  16  32  52  73  97 126 160 199 246 299
#     4  10  20  33  50  73 101 134 171 210 252 298
#     4  10  20  32  49  75 102 129 164 208 255 297
#     4  10  19  32  52  75  99 128 167 212 253 295
#
# _framework density 17.862815999999999
#
# number of rings (size 3 to 8) (size 9 to 14) (size 15 to 20)
#    0.000    2.400    0.000    4.200    0.000    5.600 
#    0.000    0.000    0.000   11.400    0.000    0.000 
#    0.000    0.000    0.000    0.000    0.000    0.000 
#
# Total GULP energy -495866.349077 kJ/mol
# GULP energy per Si atom -12396.658727 kJ/mol
# Density = 1.782216 g / cm^3
# Si number density = 17.862816 Si / 1000 Ang^3
#
#
#
# Elastic Constant Matrix: (Units=GPa)
#
#
# Indices 1 2 3 4 5 6 
#
# 1 97.8323 41.7164 28.0285 0.0000 0.0000 0.0000
# 2 41.7164 139.3641 52.0497 0.0000 0.0000 0.0000
# 3 28.0285 52.0497 59.4344 0.0000 0.0000 0.0000
# 4 0.0000 0.0000 0.0000 8.8830 0.0000 0.0000
# 5 0.0000 0.0000 0.0000 0.0000 28.4589 0.0000
# 6 0.0000 0.0000 0.0000 0.0000 0.0000 -29.9407
#
#
#
# Elastic Compliance Matrix: (Units=1/GPa)
#
#
# Indices 1 2 3 4 5 6 
#
# 1 0.012274 -0.002247 -0.003820 0.000000 0.000000 0.000000
# 2 -0.002247 0.011075 -0.008639 0.000000 0.000000 0.000000
# 3 -0.003820 -0.008639 0.026192 0.000000 0.000000 0.000000
# 4 0.000000 0.000000 0.000000 0.112574 0.000000 0.000000
# 5 0.000000 0.000000 0.000000 0.000000 0.035138 0.000000
# 6 0.000000 0.000000 0.000000 0.000000 0.000000 -0.033399
#
#
# Mechanical properties :
#
#
# Convention : Reuss Voigt Hill
#
# Bulk Modulus (GPa) = 49.68103 60.02442 54.85273
# Shear Modulus (GPa) = 25.00295 13.13601 19.06948
#
# Velocity S-wave (km/s) = 3.74534 2.71474 3.27089
# Velocity P-wave (km/s) = 6.82469 6.59563 6.71114
#
# Compressibility (1/GPa) = 0.02012841
#
# Stress axis : x y z
#
# Youngs Moduli (GPa) = 81.47072 90.29726 38.17919
#
# Poissons Ratio (x) = 0.20293 0.14586
# Poissons Ratio (y) = 0.18309 0.32982
# Poissons Ratio (z) = 0.31125 0.78005
#
# Static dielectric constant tensor:
#      x y z
#    x 3.329880 0.000000 0.000000 
#    y 0.000000 3.598740 0.000000 
#    z 0.000000 0.000000 3.169430 
# 
# 
# High freq. dielectric constant tensor:
#      x y z
#    x 1.696800 0.000000 0.000000 
#    y 0.000000 1.685300 0.000000 
#    z 0.000000 0.000000 1.672160 
# 
# From -- ./inp_files/7897.got.cif
#   From: 2010.03.12/outbox.cif.g09.slc.cpg/sg51_4_cif.got.tgz:7897.got - 2010.04.16 13:43:02.
