data_PCOD8208117
_publ_section_title
;
Structure prediction by ZEFSAII (Michael W. Deem and Ramdas Pophale) SiO2 
 PCOD8208117
Probable space group: P M M A
;
_chemical_formula_sum "Si O2"
_cell_formula_units_Z 64
_cell_length_a 14.414051
_cell_length_b 9.285384
_cell_length_c 28.439511
_cell_angle_alpha 90.000000
_cell_angle_beta 90.000000
_cell_angle_gamma 90.000000
_cell_volume 3806.344110
_symmetry_space_group_name_H-M "P M M A"
_symmetry_group_IT_number 51
_symmetry_cell_setting 'orthorhombic'
loop_
_space_group_symop_operation_xyz
x,y,z
1/2-x,-y,z
1/2+x,-y,-z
-x,y,-z
-x,-y,-z
1/2+x,y,-z
1/2-x,y,z
x,-y,z
loop_
_atom_site_type_symbol
_atom_site_label
_atom_site_fract_x
_atom_site_fract_y
_atom_site_fract_z
Si Si1 0.037045 0.829347 0.571376
Si Si2 0.856671 0.669222 0.349467
Si Si3 0.853726 0.666033 0.892176
Si Si4 0.148612 0.660206 0.926748
Si Si5 0.354396 0.829553 0.479356
Si Si6 0.968900 0.669112 0.158218
Si Si7 0.105948 0.162672 0.013876
Si Si8 0.853215 0.671192 0.243886
O O1 0.070320 0.752489 0.618412
O O2 0.106141 0.778843 0.529746
O O3 0.930203 0.781836 0.560009
O O4 0.042404 0.000000 0.578182
O O5 0.750000 0.707518 0.362355
O O6 0.873537 0.500000 0.355293
O O7 0.878736 0.722045 0.296419
O O8 0.750000 0.696650 0.874120
O O9 0.866799 0.500000 0.907396
O O10 0.877072 0.762824 0.936576
O O11 0.921869 0.703318 0.848313
O O12 0.250000 0.649582 0.903415
O O13 0.112247 0.500000 0.940520
O O14 0.081923 0.733485 0.888000
O O15 0.160116 0.754482 0.973343
O O16 0.250000 0.765015 0.470508
O O17 0.347975 0.000000 0.479211
O O18 0.947882 0.500000 0.159336
O O19 0.927680 0.736187 0.206452
O O20 0.143177 0.000000 0.017238
O O21 0.000000 0.168411 0.000000
O O22 0.750000 0.725978 0.230331
O O23 0.854301 0.500000 0.243533
#
# Coordination Sequence:
#
# PCOD8208117 Si02
#       8
#     8   8   8   8   8   8   8   8
#     4   9  16  26  44  67  88 117 157 194 228 266
#     4   9  17  28  43  65  93 122 150 182 223 271
#     4  10  20  33  50  70  89 112 144 181 219 254
#     4  10  19  30  48  71  89 109 139 175 215 254
#     4   8  14  25  41  63  91 121 154 192 230 268
#     4   9  16  28  47  68  89 110 138 179 215 250
#     4  11  22  34  47  64  89 121 150 171 203 255
#     4   8  14  26  45  68  91 115 143 175 218 271
#
# _framework density 16.814033999999999
#
# number of rings (size 3 to 8) (size 9 to 14) (size 15 to 20)
#    0.000    2.750    1.250    3.000    0.000    4.750 
#    0.000    1.250    0.000    3.375    0.000    3.500 
#    0.000    0.000    0.000    0.000    0.000    0.000 
#
# Total GULP energy -793066.638791 kJ/mol
# GULP energy per Si atom -12391.666231 kJ/mol
# Density = 1.677576 g / cm^3
# Si number density = 16.814034 Si / 1000 Ang^3
#
#
#
# Elastic Constant Matrix: (Units=GPa)
#
#
# Indices 1 2 3 4 5 6 
#
# 1 139.8526 28.8060 73.0373 0.0000 0.0000 0.0000
# 2 28.8060 41.2188 31.7744 0.0000 0.0000 0.0000
# 3 73.0373 31.7744 120.0533 0.0000 0.0000 0.0000
# 4 0.0000 0.0000 0.0000 -5.7521 0.0000 0.0000
# 5 0.0000 0.0000 0.0000 0.0000 29.0953 0.0000
# 6 0.0000 0.0000 0.0000 0.0000 0.0000 7.4666
#
#
#
# Elastic Compliance Matrix: (Units=1/GPa)
#
#
# Indices 1 2 3 4 5 6 
#
# 1 0.010790 -0.003116 -0.005739 0.000000 0.000000 0.000000
# 2 -0.003116 0.031379 -0.006409 0.000000 0.000000 0.000000
# 3 -0.005739 -0.006409 0.013518 0.000000 0.000000 0.000000
# 4 0.000000 0.000000 0.000000 -0.173850 0.000000 0.000000
# 5 0.000000 0.000000 0.000000 0.000000 0.034370 0.000000
# 6 0.000000 0.000000 0.000000 0.000000 0.000000 0.133929
#
#
# Mechanical properties :
#
#
# Convention : Reuss Voigt Hill
#
# Bulk Modulus (GPa) = 39.75054 63.15112 51.45083
# Shear Modulus (GPa) = 56.14770 17.32911 36.73840
#
# Velocity S-wave (km/s) = 5.78497 3.21383 4.67945
# Velocity P-wave (km/s) = 8.26521 7.17020 7.73710
#
# Compressibility (1/GPa) = 0.02515689
#
# Stress axis : x y z
#
# Youngs Moduli (GPa) = 92.68222 31.86817 73.97717
#
# Poissons Ratio (x) = 0.09930 0.42458
# Poissons Ratio (y) = 0.28880 0.47415
# Poissons Ratio (z) = 0.53194 0.20426
#
# Static dielectric constant tensor:
#      x y z
#    x 3.185490 0.000000 0.000000 
#    y 0.000000 2.821840 0.000000 
#    z 0.000000 0.000000 3.174470 
# 
# 
# High freq. dielectric constant tensor:
#      x y z
#    x 1.656410 0.000000 0.000000 
#    y 0.000000 1.606570 0.000000 
#    z 0.000000 0.000000 1.629910 
# 
# From -- ./inp_files/37801.got.cif
#   From: 2010.03.12/outbox.cif.g09.slc.cpg/sg51_19_cif.got.tgz:37801.got - 2010.04.16 13:43:02.
