data_PCOD8208226
_publ_section_title
;
Structure prediction by ZEFSAII (Michael W. Deem and Ramdas Pophale) SiO2 
 PCOD8208226
Probable space group: P M M A
;
_chemical_formula_sum "Si O2"
_cell_formula_units_Z 52
_cell_length_a 9.337093
_cell_length_b 22.606214
_cell_length_c 14.246972
_cell_angle_alpha 90.000000
_cell_angle_beta 90.000000
_cell_angle_gamma 90.000000
_cell_volume 3007.198456
_symmetry_space_group_name_H-M "P M M A"
_symmetry_group_IT_number 51
_symmetry_cell_setting 'orthorhombic'
loop_
_space_group_symop_operation_xyz
x,y,z
1/2-x,-y,z
1/2+x,-y,-z
-x,y,-z
-x,-y,-z
1/2+x,y,-z
1/2-x,y,z
x,-y,z
loop_
_atom_site_type_symbol
_atom_site_label
_atom_site_fract_x
_atom_site_fract_y
_atom_site_fract_z
Si Si1 0.919631 0.383541 0.708233
Si Si2 0.915684 0.069079 0.406985
Si Si3 0.583638 0.728686 0.595027
Si Si4 0.917879 0.654910 0.908329
Si Si5 0.084626 0.791343 0.089014
Si Si6 0.420214 0.500000 0.401173
Si Si7 0.414779 0.844682 0.284651
O O1 0.750000 0.378415 0.710310
O O2 0.980110 0.328360 0.648837
O O3 0.972853 0.380862 0.816406
O O4 0.971020 0.443564 0.658835
O O5 0.750000 0.086274 0.420257
O O6 0.000000 0.088935 0.500000
O O7 0.981977 0.103196 0.318869
O O8 0.935346 0.000000 0.387205
O O9 0.500000 0.738289 0.500000
O O10 0.750000 0.719808 0.571773
O O11 0.556290 0.785407 0.658240
O O12 0.750000 0.645578 0.925511
O O13 0.956177 0.723415 0.889781
O O14 0.000000 0.630615 0.000000
O O15 0.250000 0.796018 0.064411
O O16 0.044781 0.831962 0.177200
O O17 0.000000 0.816457 0.000000
O O18 0.250000 0.500000 0.418732
O O19 0.500000 0.500000 0.500000
O O20 0.250000 0.864851 0.294944
#
# Coordination Sequence:
#
# PCOD8208226 Si02
#       7
#     8   8   8   8   8   4   8
#     4   9  17  32  51  69  95 131 166 200 245 300
#     4  10  21  36  53  74 102 136 171 206 244 289
#     4  10  19  31  46  68  98 128 158 200 249 294
#     4   9  16  30  50  71  97 128 161 200 246 298
#     4   9  17  30  49  73 100 131 163 201 249 300
#     4  10  20  34  53  72  92 130 175 208 243 294
#     4  10  19  32  51  74 101 131 164 203 252 300
#
# _framework density 17.291841999999999
#
# number of rings (size 3 to 8) (size 9 to 14) (size 15 to 20)
#    0.000    2.462    1.538    1.385    0.000    3.385 
#    0.000    1.923    0.000    0.462    0.000    0.000 
#    0.000    0.000    0.000    0.000    0.000    0.000 
#
# Total GULP energy -644831.521658 kJ/mol
# GULP energy per Si atom -12400.606186 kJ/mol
# Density = 1.725249 g / cm^3
# Si number density = 17.291842 Si / 1000 Ang^3
#
#
#
# Elastic Constant Matrix: (Units=GPa)
#
#
# Indices 1 2 3 4 5 6 
#
# 1 64.2807 43.5085 67.7100 0.0000 0.0000 0.0000
# 2 43.5085 74.1507 56.2609 0.0000 0.0000 0.0000
# 3 67.7100 56.2609 151.4985 0.0000 0.0000 0.0000
# 4 0.0000 0.0000 0.0000 25.2228 0.0000 0.0000
# 5 0.0000 0.0000 0.0000 0.0000 32.7088 0.0000
# 6 0.0000 0.0000 0.0000 0.0000 0.0000 16.7920
#
#
#
# Elastic Compliance Matrix: (Units=1/GPa)
#
#
# Indices 1 2 3 4 5 6 
#
# 1 0.036118 -0.012454 -0.011518 0.000000 0.000000 0.000000
# 2 -0.012454 0.023071 -0.003002 0.000000 0.000000 0.000000
# 3 -0.011518 -0.003002 0.012863 0.000000 0.000000 0.000000
# 4 0.000000 0.000000 0.000000 0.039647 0.000000 0.000000
# 5 0.000000 0.000000 0.000000 0.000000 0.030573 0.000000
# 6 0.000000 0.000000 0.000000 0.000000 0.000000 0.059552
#
#
# Mechanical properties :
#
#
# Convention : Reuss Voigt Hill
#
# Bulk Modulus (GPa) = 55.23022 69.43209 62.33115
# Shear Modulus (GPa) = 19.09818 23.10808 21.10313
#
# Velocity S-wave (km/s) = 3.32695 3.65959 3.49723
# Velocity P-wave (km/s) = 6.83868 7.62214 7.24101
#
# Compressibility (1/GPa) = 0.01810603
#
# Stress axis : x y z
#
# Youngs Moduli (GPa) = 27.68690 43.34470 77.74219
#
# Poissons Ratio (x) = 0.53981 0.89540
# Poissons Ratio (y) = 0.34481 0.23335
# Poissons Ratio (z) = 0.31889 0.13010
#
# Static dielectric constant tensor:
#      x y z
#    x 3.317310 0.000000 0.000000 
#    y 0.000000 3.163620 0.000000 
#    z 0.000000 0.000000 3.427570 
# 
# 
# High freq. dielectric constant tensor:
#      x y z
#    x 1.650150 0.000000 0.000000 
#    y 0.000000 1.652910 0.000000 
#    z 0.000000 0.000000 1.676750 
# 
# From -- ./inp_files/21566.got.cif
#   From: 2010.03.12/outbox.cif.g09.slc.cpg/sg51_11_cif.got.tgz:21566.got - 2010.04.16 13:43:02.
