data_PCOD8208737
_publ_section_title
;
Structure prediction by ZEFSAII (Michael W. Deem and Ramdas Pophale) SiO2 
 PCOD8208737
Probable space group: P M M A
;
_chemical_formula_sum "Si O2"
_cell_formula_units_Z 48
_cell_length_a 8.879376
_cell_length_b 15.836692
_cell_length_c 18.544028
_cell_angle_alpha 90.000000
_cell_angle_beta 90.000000
_cell_angle_gamma 90.000000
_cell_volume 2607.660158
_symmetry_space_group_name_H-M "P M M A"
_symmetry_group_IT_number 51
_symmetry_cell_setting 'orthorhombic'
loop_
_space_group_symop_operation_xyz
x,y,z
1/2-x,-y,z
1/2+x,-y,-z
-x,y,-z
-x,-y,-z
1/2+x,y,-z
1/2-x,y,z
x,-y,z
loop_
_atom_site_type_symbol
_atom_site_label
_atom_site_fract_x
_atom_site_fract_y
_atom_site_fract_z
Si Si1 0.428260 0.815847 0.421295
Si Si2 0.070676 0.500000 0.920549
Si Si3 0.076328 0.347720 0.163503
Si Si4 0.079363 0.823064 0.075475
Si Si5 0.924627 0.093197 0.199654
Si Si6 0.428395 0.254801 0.711556
Si Si7 0.576166 0.000000 0.575562
O O1 0.500000 0.804718 0.500000
O O2 0.250000 0.800271 0.426040
O O3 0.503162 0.746107 0.368978
O O4 0.466205 0.910023 0.387484
O O5 0.250000 0.500000 0.928548
O O6 0.018460 0.419119 0.876027
O O7 0.000000 0.500000 0.000000
O O8 0.250000 0.375504 0.172998
O O9 0.060900 0.265584 0.115044
O O10 0.004010 0.329825 0.242160
O O11 0.250000 0.847429 0.061371
O O12 0.008591 0.896829 0.123683
O O13 0.000000 0.815966 0.000000
O O14 0.750000 0.103542 0.182869
O O15 0.976958 0.164633 0.255138
O O16 0.962047 0.000000 0.231463
O O17 0.250000 0.268726 0.709021
O O18 0.500000 0.000000 0.500000
O O19 0.750000 0.000000 0.558555
#
# Coordination Sequence:
#
# PCOD8208737 Si02
#       7
#     8   4   8   8   8   8   4
#     4  10  19  32  49  73 103 139 182 228 276 325
#     4  12  24  38  60  90 119 146 177 214 262 320
#     4  10  21  38  57  80 109 140 175 213 261 318
#     4  10  20  33  51  72  96 129 167 211 259 306
#     4   9  19  34  49  67  93 129 173 217 261 310
#     4  10  20  34  53  76 105 140 177 220 270 322
#     4   8  16  28  42  64  96 132 173 222 273 320
#
# _framework density 18.407306999999999
#
# number of rings (size 3 to 8) (size 9 to 14) (size 15 to 20)
#    0.000    2.167    0.000    3.250    1.167    5.333 
#    0.000    0.000    0.000    0.000    0.000    0.583 
#    0.000    0.000    0.000    0.000    0.000    0.000 
#
# Total GULP energy -594968.500942 kJ/mol
# GULP energy per Si atom -12395.177103 kJ/mol
# Density = 1.836541 g / cm^3
# Si number density = 18.407307 Si / 1000 Ang^3
#
#
#
# Elastic Constant Matrix: (Units=GPa)
#
#
# Indices 1 2 3 4 5 6 
#
# 1 92.4446 38.7858 51.5164 0.0000 0.0000 0.0000
# 2 38.7858 62.6829 32.1875 0.0000 0.0000 0.0000
# 3 51.5164 32.1875 110.4341 0.0000 0.0000 0.0000
# 4 0.0000 0.0000 0.0000 23.2366 0.0000 0.0000
# 5 0.0000 0.0000 0.0000 0.0000 32.7637 0.0000
# 6 0.0000 0.0000 0.0000 0.0000 0.0000 25.3950
#
#
#
# Elastic Compliance Matrix: (Units=1/GPa)
#
#
# Indices 1 2 3 4 5 6 
#
# 1 0.017298 -0.007714 -0.005821 0.000000 0.000000 0.000000
# 2 -0.007714 0.022201 -0.002872 0.000000 0.000000 0.000000
# 3 -0.005821 -0.002872 0.012608 0.000000 0.000000 0.000000
# 4 0.000000 0.000000 0.000000 0.043036 0.000000 0.000000
# 5 0.000000 0.000000 0.000000 0.000000 0.030522 0.000000
# 6 0.000000 0.000000 0.000000 0.000000 0.000000 0.039378
#
#
# Mechanical properties :
#
#
# Convention : Reuss Voigt Hill
#
# Bulk Modulus (GPa) = 51.83432 56.72680 54.28056
# Shear Modulus (GPa) = 24.47540 25.81719 25.14629
#
# Velocity S-wave (km/s) = 3.65040 3.74913 3.70009
# Velocity P-wave (km/s) = 6.78145 7.04455 6.91425
#
# Compressibility (1/GPa) = 0.01929224
#
# Stress axis : x y z
#
# Youngs Moduli (GPa) = 57.81180 45.04206 79.31679
#
# Poissons Ratio (x) = 0.34746 0.46168
# Poissons Ratio (y) = 0.44597 0.22783
# Poissons Ratio (z) = 0.33651 0.12938
#
# Static dielectric constant tensor:
#      x y z
#    x 3.489390 0.000000 0.000000 
#    y 0.000000 3.211290 0.000000 
#    z 0.000000 0.000000 3.269090 
# 
# 
# High freq. dielectric constant tensor:
#      x y z
#    x 1.728910 0.000000 0.000000 
#    y 0.000000 1.686120 0.000000 
#    z 0.000000 0.000000 1.709950 
# 
# From -- ./inp_files/27636.got.cif
#   From: 2010.03.12/outbox.cif.g09.slc.cpg/sg51_14_cif.got.tgz:27636.got - 2010.04.16 13:43:02.
