data_PCOD8208679
_publ_section_title
;
Structure prediction by ZEFSAII (Michael W. Deem and Ramdas Pophale) SiO2 
 PCOD8208679
Probable space group: P M M A
;
_chemical_formula_sum "Si O2"
_cell_formula_units_Z 56
_cell_length_a 18.805335
_cell_length_b 9.204865
_cell_length_c 16.481518
_cell_angle_alpha 90.000000
_cell_angle_beta 90.000000
_cell_angle_gamma 90.000000
_cell_volume 2852.960160
_symmetry_space_group_name_H-M "P M M A"
_symmetry_group_IT_number 51
_symmetry_cell_setting 'orthorhombic'
loop_
_space_group_symop_operation_xyz
x,y,z
1/2-x,-y,z
1/2+x,-y,-z
-x,y,-z
-x,-y,-z
1/2+x,y,-z
1/2-x,y,z
x,-y,z
loop_
_atom_site_type_symbol
_atom_site_label
_atom_site_fract_x
_atom_site_fract_y
_atom_site_fract_z
Si Si1 0.166398 0.332787 0.022339
Si Si2 0.444951 0.170816 0.929084
Si Si3 0.578717 0.670166 0.502543
Si Si4 0.551185 0.665484 0.232159
Si Si5 0.833969 0.837504 0.820545
Si Si6 0.094328 0.663383 0.315725
Si Si7 0.669923 0.672742 0.354117
O O1 0.250000 0.313610 0.010935
O O2 0.143319 0.500000 0.022383
O O3 0.138891 0.262933 0.106246
O O4 0.129781 0.248801 0.948266
O O5 0.470873 0.231607 0.842625
O O6 0.433142 0.000000 0.922661
O O7 0.500000 0.212124 0.000000
O O8 0.500000 0.741663 0.500000
O O9 0.570745 0.500000 0.484669
O O10 0.611693 0.699340 0.591048
O O11 0.631475 0.737404 0.434684
O O12 0.558454 0.500000 0.200657
O O13 0.489935 0.677368 0.299992
O O14 0.624530 0.717730 0.274484
O O15 0.750000 0.838539 0.816847
O O16 0.861940 0.777672 0.736146
O O17 0.863748 0.000000 0.835248
O O18 0.119785 0.500000 0.294186
O O19 0.750000 0.736744 0.347068
O O20 0.673114 0.500000 0.360393
#
# Coordination Sequence:
#
# PCOD8208679 Si02
#       7
#     8   8   8   8   8   8   8
#     4  10  21  38  60  83 107 139 182 231 281 335
#     4  11  24  39  56  81 113 148 187 230 277 335
#     4   9  15  28  50  77 111 145 179 224 278 329
#     4  10  20  34  53  79 110 145 184 232 282 327
#     4  10  21  36  53  76 110 147 179 220 275 332
#     4  10  19  31  54  82 109 143 183 229 278 327
#     4   9  17  30  50  78 111 146 185 230 279 329
#
# _framework density 19.628737000000001
#
# number of rings (size 3 to 8) (size 9 to 14) (size 15 to 20)
#    0.000    2.143    1.429    2.143    0.000    6.857 
#    0.000    2.857    0.000    1.286    0.000    0.000 
#    0.000    0.000    0.000    0.000    0.000    0.000 
#
# Total GULP energy -694451.500579 kJ/mol
# GULP energy per Si atom -12400.919653 kJ/mol
# Density = 1.958406 g / cm^3
# Si number density = 19.628737 Si / 1000 Ang^3
#
#
#
# Elastic Constant Matrix: (Units=GPa)
#
#
# Indices 1 2 3 4 5 6 
#
# 1 40.3283 33.8917 40.9984 0.0000 0.0000 0.0000
# 2 33.8917 83.4806 40.8908 0.0000 0.0000 0.0000
# 3 40.9984 40.8908 106.7399 0.0000 0.0000 0.0000
# 4 0.0000 0.0000 0.0000 7.9612 0.0000 0.0000
# 5 0.0000 0.0000 0.0000 0.0000 34.4557 0.0000
# 6 0.0000 0.0000 0.0000 0.0000 0.0000 20.5635
#
#
#
# Elastic Compliance Matrix: (Units=1/GPa)
#
#
# Indices 1 2 3 4 5 6 
#
# 1 0.050751 -0.013609 -0.014280 0.000000 0.000000 0.000000
# 2 -0.013609 0.018395 -0.001820 0.000000 0.000000 0.000000
# 3 -0.014280 -0.001820 0.015550 0.000000 0.000000 0.000000
# 4 0.000000 0.000000 0.000000 0.125610 0.000000 0.000000
# 5 0.000000 0.000000 0.000000 0.000000 0.029023 0.000000
# 6 0.000000 0.000000 0.000000 0.000000 0.000000 0.048630
#
#
# Mechanical properties :
#
#
# Convention : Reuss Voigt Hill
#
# Bulk Modulus (GPa) = 39.55846 51.34564 45.45205
# Shear Modulus (GPa) = 14.05274 20.24725 17.14999
#
# Velocity S-wave (km/s) = 2.67858 3.21520 2.95908
# Velocity P-wave (km/s) = 5.45559 6.32444 5.90601
#
# Compressibility (1/GPa) = 0.02527904
#
# Stress axis : x y z
#
# Youngs Moduli (GPa) = 19.70417 54.36139 64.30710
#
# Poissons Ratio (x) = 0.73983 0.91827
# Poissons Ratio (y) = 0.26816 0.11702
# Poissons Ratio (z) = 0.28137 0.09892
#
# Static dielectric constant tensor:
#      x y z
#    x 3.655410 0.000000 0.000000 
#    y 0.000000 3.313440 0.000000 
#    z 0.000000 0.000000 3.586830 
# 
# 
# High freq. dielectric constant tensor:
#      x y z
#    x 1.766600 0.000000 0.000000 
#    y 0.000000 1.727270 0.000000 
#    z 0.000000 0.000000 1.770160 
# 
# From -- ./inp_files/25699.got.cif
#   From: 2010.03.12/outbox.cif.g09.slc.cpg/sg51_13_cif.got.tgz:25699.got - 2010.04.16 13:43:02.
