data_PCOD8208999
_publ_section_title
;
Structure prediction by ZEFSAII (Michael W. Deem and Ramdas Pophale) SiO2 
 PCOD8208999
Probable space group: P M M A
;
_chemical_formula_sum "Si O2"
_cell_formula_units_Z 56
_cell_length_a 14.869012
_cell_length_b 19.301737
_cell_length_c 9.854135
_cell_angle_alpha 90.000000
_cell_angle_beta 90.000000
_cell_angle_gamma 90.000000
_cell_volume 2828.114663
_symmetry_space_group_name_H-M "P M M A"
_symmetry_group_IT_number 51
_symmetry_cell_setting 'orthorhombic'
loop_
_space_group_symop_operation_xyz
x,y,z
1/2-x,-y,z
1/2+x,-y,-z
-x,y,-z
-x,-y,-z
1/2+x,y,-z
1/2-x,y,z
x,-y,z
loop_
_atom_site_type_symbol
_atom_site_label
_atom_site_fract_x
_atom_site_fract_y
_atom_site_fract_z
Si Si1 0.511133 0.852569 0.336683
Si Si2 0.851630 0.575966 0.306240
Si Si3 0.146464 0.845346 0.135393
Si Si4 0.153560 0.309767 0.191827
Si Si5 0.146941 0.080583 0.858940
Si Si6 0.481714 0.700355 0.648539
Si Si7 0.897852 0.576846 0.999136
O O1 0.500000 0.864616 0.500000
O O2 0.415383 0.868879 0.263042
O O3 0.587196 0.902051 0.273534
O O4 0.544202 0.775016 0.288267
O O5 0.750000 0.587446 0.355654
O O6 0.886054 0.500000 0.359754
O O7 0.908119 0.640600 0.358326
O O8 0.854850 0.574735 0.145626
O O9 0.250000 0.866824 0.167134
O O10 0.136708 0.762723 0.116119
O O11 0.113514 0.879555 0.994509
O O12 0.250000 0.306520 0.270070
O O13 0.073215 0.330808 0.290972
O O14 0.162921 0.370430 0.082927
O O15 0.250000 0.100757 0.825635
O O16 0.137311 0.000000 0.891244
O O17 0.500000 0.725936 0.500000
O O18 0.895870 0.500000 0.932841
O O19 0.000000 0.605226 0.000000
#
# Coordination Sequence:
#
# PCOD8208999 Si02
#       7
#     8   8   8   8   8   8   8
#     4  10  22  38  59  87 118 157 195 232 283 341
#     4  10  21  36  54  77 106 142 185 232 282 335
#     4   9  20  37  58  85 117 151 190 237 286 337
#     4  10  20  34  55  80 107 140 181 227 278 334
#     4  10  22  40  62  90 120 150 189 235 282 336
#     4  10  22  38  55  78 110 146 186 230 274 326
#     4  10  19  32  52  78 107 138 174 226 286 336
#
# _framework density 19.801176999999999
#
# number of rings (size 3 to 8) (size 9 to 14) (size 15 to 20)
#    0.000    2.143    1.429    0.857    2.000    4.286 
#    0.000    2.857    0.000    1.714    0.000    0.000 
#    0.000    0.000    0.000    0.000    0.000    0.000 
#
# Total GULP energy -693888.860894 kJ/mol
# GULP energy per Si atom -12390.872516 kJ/mol
# Density = 1.975611 g / cm^3
# Si number density = 19.801177 Si / 1000 Ang^3
#
#
#
# Elastic Constant Matrix: (Units=GPa)
#
#
# Indices 1 2 3 4 5 6 
#
# 1 97.5057 44.8832 37.6557 0.0000 0.0000 0.0000
# 2 44.8832 81.9316 30.7812 0.0000 0.0000 0.0000
# 3 37.6557 30.7812 89.6178 0.0000 0.0000 0.0000
# 4 0.0000 0.0000 0.0000 17.9068 0.0000 0.0000
# 5 0.0000 0.0000 0.0000 0.0000 9.2755 0.0000
# 6 0.0000 0.0000 0.0000 0.0000 0.0000 31.8208
#
#
#
# Elastic Compliance Matrix: (Units=1/GPa)
#
#
# Indices 1 2 3 4 5 6 
#
# 1 0.014841 -0.006645 -0.003954 0.000000 0.000000 0.000000
# 2 -0.006645 0.016989 -0.003043 0.000000 0.000000 0.000000
# 3 -0.003954 -0.003043 0.013865 0.000000 0.000000 0.000000
# 4 0.000000 0.000000 0.000000 0.055845 0.000000 0.000000
# 5 0.000000 0.000000 0.000000 0.000000 0.107811 0.000000
# 6 0.000000 0.000000 0.000000 0.000000 0.000000 0.031426
#
#
# Mechanical properties :
#
#
# Convention : Reuss Voigt Hill
#
# Bulk Modulus (GPa) = 54.31337 55.07725 54.69531
# Shear Modulus (GPa) = 18.23506 22.18297 20.20902
#
# Velocity S-wave (km/s) = 3.03794 3.35070 3.19814
# Velocity P-wave (km/s) = 6.30828 6.54562 6.42804
#
# Compressibility (1/GPa) = 0.01841167
#
# Stress axis : x y z
#
# Youngs Moduli (GPa) = 67.37876 58.86238 72.12411
#
# Poissons Ratio (x) = 0.39114 0.28516
# Poissons Ratio (y) = 0.44773 0.21948
# Poissons Ratio (z) = 0.26640 0.17912
#
# Static dielectric constant tensor:
#      x y z
#    x 3.652140 0.000000 0.000000 
#    y 0.000000 3.732560 0.000000 
#    z 0.000000 0.000000 3.474160 
# 
# 
# High freq. dielectric constant tensor:
#      x y z
#    x 1.779260 0.000000 0.000000 
#    y 0.000000 1.778180 0.000000 
#    z 0.000000 0.000000 1.745570 
# 
# From -- ./inp_files/8515.got.cif
#   From: 2010.03.12/outbox.cif.g09.slc.cpg/sg51_5_cif.got.tgz:8515.got - 2010.04.16 13:43:02.
