data_PCOD8208048
_publ_section_title
;
Structure prediction by ZEFSAII (Michael W. Deem and Ramdas Pophale) SiO2 
 PCOD8208048
Probable space group: P M M A
;
_chemical_formula_sum "Si O2"
_cell_formula_units_Z 64
_cell_length_a 15.724227
_cell_length_b 13.032020
_cell_length_c 18.058194
_cell_angle_alpha 90.000000
_cell_angle_beta 90.000000
_cell_angle_gamma 90.000000
_cell_volume 3700.456957
_symmetry_space_group_name_H-M "P M M A"
_symmetry_group_IT_number 51
_symmetry_cell_setting 'orthorhombic'
loop_
_space_group_symop_operation_xyz
x,y,z
1/2-x,-y,z
1/2+x,-y,-z
-x,y,-z
-x,-y,-z
1/2+x,y,-z
1/2-x,y,z
x,-y,z
loop_
_atom_site_type_symbol
_atom_site_label
_atom_site_fract_x
_atom_site_fract_y
_atom_site_fract_z
Si Si1 0.844786 0.121606 0.076530
Si Si2 0.401682 0.880881 0.501922
Si Si3 0.002813 0.619642 0.587184
Si Si4 0.155912 0.253618 0.369908
Si Si5 0.092978 0.883482 0.768272
Si Si6 0.100991 0.117817 0.238218
Si Si7 0.345613 0.759389 0.636899
Si Si8 0.648961 0.114351 0.918330
O O1 0.750000 0.162953 0.093230
O O2 0.903651 0.153241 0.145779
O O3 0.842028 0.000000 0.065699
O O4 0.879115 0.166774 0.997105
O O5 0.500000 0.847678 0.500000
O O6 0.351149 0.822157 0.438916
O O7 0.362883 0.853260 0.581251
O O8 0.390211 0.000000 0.486671
O O9 0.008316 0.500000 0.603319
O O10 0.917274 0.660439 0.626632
O O11 0.000000 0.644048 0.500000
O O12 0.087093 0.668977 0.622745
O O13 0.250000 0.305151 0.372753
O O14 0.151575 0.187557 0.295308
O O15 0.147843 0.805865 0.719179
O O16 0.997265 0.879291 0.738988
O O17 0.128987 0.000000 0.762219
O O18 0.113873 0.168136 0.156243
O O19 0.135128 0.000000 0.241149
O O20 0.250000 0.715817 0.626292
O O21 0.750000 0.112521 0.916184
O O22 0.610314 0.000000 0.915409
#
# Coordination Sequence:
#
# PCOD8208048 Si02
#       8
#     8   8   8   8   8   8   8   8
#     4   8  14  25  40  61  94 137 181 217 248 287
#     4  11  21  35  53  75 109 144 173 206 244 294
#     4  11  24  44  62  78 101 126 165 221 272 315
#     4  12  22  36  56  78 104 135 173 210 256 310
#     4  10  19  30  46  71 106 144 179 214 251 296
#     4  10  19  30  46  71 106 144 179 214 251 296
#     4  12  22  36  56  78 104 135 173 210 256 310
#     4   8  14  25  40  61  94 137 181 217 248 287
#
# _framework density 17.295161
#
# number of rings (size 3 to 8) (size 9 to 14) (size 15 to 20)
#    0.000    1.750    3.750    2.625    0.000    6.500 
#    0.000    3.750    0.000    0.000    0.000    0.000 
#    0.000    2.000    0.000    5.250    0.000    0.250 
#
# Total GULP energy -793298.175948 kJ/mol
# GULP energy per Si atom -12395.283999 kJ/mol
# Density = 1.725580 g / cm^3
# Si number density = 17.295161 Si / 1000 Ang^3
#
#
#
# Elastic Constant Matrix: (Units=GPa)
#
#
# Indices 1 2 3 4 5 6 
#
# 1 105.4429 32.8145 26.3727 0.0000 0.0000 0.0000
# 2 32.8145 64.0032 29.0258 0.0000 0.0000 0.0000
# 3 26.3727 29.0258 116.8461 0.0000 0.0000 0.0000
# 4 0.0000 0.0000 0.0000 6.3419 0.0000 0.0000
# 5 0.0000 0.0000 0.0000 0.0000 28.0673 0.0000
# 6 0.0000 0.0000 0.0000 0.0000 0.0000 10.2253
#
#
#
# Elastic Compliance Matrix: (Units=1/GPa)
#
#
# Indices 1 2 3 4 5 6 
#
# 1 0.011449 -0.005294 -0.001269 0.000000 0.000000 0.000000
# 2 -0.005294 0.020056 -0.003787 0.000000 0.000000 0.000000
# 3 -0.001269 -0.003787 0.009785 0.000000 0.000000 0.000000
# 4 0.000000 0.000000 0.000000 0.157681 0.000000 0.000000
# 5 0.000000 0.000000 0.000000 0.000000 0.035629 0.000000
# 6 0.000000 0.000000 0.000000 0.000000 0.000000 0.097797
#
#
# Mechanical properties :
#
#
# Convention : Reuss Voigt Hill
#
# Bulk Modulus (GPa) = 48.56838 51.41313 49.99076
# Shear Modulus (GPa) = 13.89040 22.13219 18.01130
#
# Velocity S-wave (km/s) = 2.83704 3.58114 3.23058
# Velocity P-wave (km/s) = 6.23496 6.84769 6.54850
#
# Compressibility (1/GPa) = 0.02058953
#
# Stress axis : x y z
#
# Youngs Moduli (GPa) = 87.34534 49.86004 102.19275
#
# Poissons Ratio (x) = 0.26398 0.12967
# Poissons Ratio (y) = 0.46244 0.38702
# Poissons Ratio (z) = 0.11083 0.18883
#
# Static dielectric constant tensor:
#      x y z
#    x 3.262200 0.000000 0.000000 
#    y 0.000000 2.715110 0.000000 
#    z 0.000000 0.000000 3.498320 
# 
# 
# High freq. dielectric constant tensor:
#      x y z
#    x 1.676110 0.000000 0.000000 
#    y 0.000000 1.595720 0.000000 
#    z 0.000000 0.000000 1.684190 
# 
# From -- ./inp_files/29939.got.cif
#   From: 2010.03.12/outbox.cif.g09.slc.cpg/sg51_15_cif.got.tgz:29939.got - 2010.04.16 13:43:02.
