data_PCOD8208502
_publ_section_title
;
Structure prediction by ZEFSAII (Michael W. Deem and Ramdas Pophale) SiO2 
 PCOD8208502
Probable space group: P M M A
;
_chemical_formula_sum "Si O2"
_cell_formula_units_Z 64
_cell_length_a 29.142987
_cell_length_b 9.105307
_cell_length_c 12.657042
_cell_angle_alpha 90.000000
_cell_angle_beta 90.000000
_cell_angle_gamma 90.000000
_cell_volume 3358.620057
_symmetry_space_group_name_H-M "P M M A"
_symmetry_group_IT_number 51
_symmetry_cell_setting 'orthorhombic'
loop_
_space_group_symop_operation_xyz
x,y,z
1/2-x,-y,z
1/2+x,-y,-z
-x,y,-z
-x,-y,-z
1/2+x,y,-z
1/2-x,y,z
x,-y,z
loop_
_atom_site_type_symbol
_atom_site_label
_atom_site_fract_x
_atom_site_fract_y
_atom_site_fract_z
Si Si1 0.388306 0.325271 0.377573
Si Si2 0.421645 0.664940 0.603141
Si Si3 0.801148 0.830272 0.552483
Si Si4 0.680855 0.332946 0.340932
Si Si5 0.300260 0.167850 0.867932
Si Si6 0.105848 0.826927 0.964929
Si Si7 0.066467 0.169920 0.183783
Si Si8 0.961446 0.168285 0.213943
O O1 0.382709 0.500000 0.376712
O O2 0.414726 0.273739 0.484253
O O3 0.337401 0.255577 0.374184
O O4 0.417303 0.270239 0.279508
O O5 0.440625 0.500000 0.597267
O O6 0.373866 0.674069 0.665143
O O7 0.458098 0.756963 0.670802
O O8 0.750000 0.814202 0.601618
O O9 0.799945 0.764305 0.435508
O O10 0.815863 0.000000 0.546069
O O11 0.697633 0.500000 0.356958
O O12 0.701005 0.270842 0.233347
O O13 0.250000 0.181543 0.923609
O O14 0.309446 0.000000 0.831967
O O15 0.340835 0.216891 0.947337
O O16 0.090449 0.765661 0.078604
O O17 0.097846 0.000000 0.967458
O O18 0.073898 0.761306 0.871289
O O19 0.012231 0.188119 0.168489
O O20 0.079586 0.000000 0.205453
O O21 0.948725 0.000000 0.232729
#
# Coordination Sequence:
#
# PCOD8208502 Si02
#       8
#     8   8   8   8   8   8   8   8
#     4  10  22  39  56  78 112 151 185 222 275 332
#     4   9  19  34  52  77 110 144 175 216 272 330
#     4  10  20  34  55  82 109 141 184 230 273 320
#     4  10  19  31  49  77 114 150 178 213 267 327
#     4  10  19  31  51  79 108 141 181 222 269 325
#     4   9  18  35  56  79 110 143 179 230 282 326
#     4  10  21  37  57  80 106 142 190 236 279 332
#     4  10  19  33  58  85 106 138 182 230 284 333
#
# _framework density 19.055444000000001
#
# number of rings (size 3 to 8) (size 9 to 14) (size 15 to 20)
#    0.000    2.250    1.250    2.625    0.000    7.750 
#    0.000    4.375    0.000    3.750    0.000    0.000 
#    0.000    0.000    0.000    0.000    0.000    0.000 
#
# Total GULP energy -793516.536343 kJ/mol
# GULP energy per Si atom -12398.695880 kJ/mol
# Density = 1.901207 g / cm^3
# Si number density = 19.055444 Si / 1000 Ang^3
#
#
#
# Elastic Constant Matrix: (Units=GPa)
#
#
# Indices 1 2 3 4 5 6 
#
# 1 101.9930 33.1015 54.5900 0.0000 0.0000 0.0000
# 2 33.1015 71.2331 34.1690 0.0000 0.0000 0.0000
# 3 54.5900 34.1690 109.4412 0.0000 0.0000 0.0000
# 4 0.0000 0.0000 0.0000 15.5936 0.0000 0.0000
# 5 0.0000 0.0000 0.0000 0.0000 17.1566 0.0000
# 6 0.0000 0.0000 0.0000 0.0000 0.0000 18.4180
#
#
#
# Elastic Compliance Matrix: (Units=1/GPa)
#
#
# Indices 1 2 3 4 5 6 
#
# 1 0.014183 -0.003760 -0.005901 0.000000 0.000000 0.000000
# 2 -0.003760 0.017508 -0.003591 0.000000 0.000000 0.000000
# 3 -0.005901 -0.003591 0.013202 0.000000 0.000000 0.000000
# 4 0.000000 0.000000 0.000000 0.064129 0.000000 0.000000
# 5 0.000000 0.000000 0.000000 0.000000 0.058287 0.000000
# 6 0.000000 0.000000 0.000000 0.000000 0.000000 0.054295
#
#
# Mechanical properties :
#
#
# Convention : Reuss Voigt Hill
#
# Bulk Modulus (GPa) = 54.37801 58.48758 56.43280
# Shear Modulus (GPa) = 19.66675 20.95411 20.31043
#
# Velocity S-wave (km/s) = 3.21609 3.31968 3.26829
# Velocity P-wave (km/s) = 6.51073 6.74193 6.62734
#
# Compressibility (1/GPa) = 0.01838979
#
# Stress axis : x y z
#
# Youngs Moduli (GPa) = 70.50574 57.11617 75.74826
#
# Poissons Ratio (x) = 0.21478 0.44696
# Poissons Ratio (y) = 0.26513 0.27198
# Poissons Ratio (z) = 0.41603 0.20508
#
# Static dielectric constant tensor:
#      x y z
#    x 3.574790 0.000000 0.000000 
#    y 0.000000 3.362710 0.000000 
#    z 0.000000 0.000000 3.344090 
# 
# 
# High freq. dielectric constant tensor:
#      x y z
#    x 1.749040 0.000000 0.000000 
#    y 0.000000 1.725730 0.000000 
#    z 0.000000 0.000000 1.720210 
# 
# From -- ./inp_files/19434.got.cif
#   From: 2010.03.12/outbox.cif.g09.slc.cpg/sg51_10_cif.got.tgz:19434.got - 2010.04.16 13:43:02.
