data_PCOD8208283
_publ_section_title
;
Structure prediction by ZEFSAII (Michael W. Deem and Ramdas Pophale) SiO2 
 PCOD8208283
Probable space group: P M M A
;
_chemical_formula_sum "Si O2"
_cell_formula_units_Z 56
_cell_length_a 18.267786
_cell_length_b 9.421461
_cell_length_c 19.499664
_cell_angle_alpha 90.000000
_cell_angle_beta 90.000000
_cell_angle_gamma 90.000000
_cell_volume 3356.072222
_symmetry_space_group_name_H-M "P M M A"
_symmetry_group_IT_number 51
_symmetry_cell_setting 'orthorhombic'
loop_
_space_group_symop_operation_xyz
x,y,z
1/2-x,-y,z
1/2+x,-y,-z
-x,y,-z
-x,-y,-z
1/2+x,y,-z
1/2-x,y,z
x,-y,z
loop_
_atom_site_type_symbol
_atom_site_label
_atom_site_fract_x
_atom_site_fract_y
_atom_site_fract_z
Si Si1 0.330513 0.840703 0.384520
Si Si2 0.335547 0.165806 0.049222
Si Si3 0.431730 0.660636 0.950088
Si Si4 0.964619 0.160685 0.698768
Si Si5 0.526948 0.661767 0.425220
Si Si6 0.830486 0.660842 0.490872
Si Si7 0.529911 0.832815 0.853742
O O1 0.250000 0.785877 0.364679
O O2 0.378195 0.831288 0.316165
O O3 0.364676 0.744740 0.444532
O O4 0.328696 0.000000 0.413510
O O5 0.250000 0.202522 0.066710
O O6 0.390284 0.202381 0.112770
O O7 0.342641 0.000000 0.029986
O O8 0.362443 0.259170 0.984350
O O9 0.408035 0.500000 0.929256
O O10 0.460926 0.750297 0.885710
O O11 0.500000 0.653686 0.000000
O O12 0.972254 0.220293 0.775263
O O13 0.005586 0.249119 0.640857
O O14 0.994058 0.000000 0.694115
O O15 0.500000 0.717823 0.500000
O O16 0.500024 0.500000 0.415278
O O17 0.615523 0.673869 0.426323
O O18 0.750000 0.720847 0.470885
O O19 0.824727 0.500000 0.515810
O O20 0.515023 0.000000 0.860521
#
# Coordination Sequence:
#
# PCOD8208283 Si02
#       7
#     8   8   8   8   8   8   8
#     4   9  17  28  42  63  91 120 150 186 231 282
#     4   9  17  30  51  77 102 130 161 193 232 280
#     4   9  17  30  49  72  97 127 162 199 235 272
#     4  10  20  31  46  69  96 128 161 197 241 285
#     4  10  19  31  47  68  91 118 159 208 249 289
#     4   9  17  30  47  64  84 113 149 191 239 288
#     4   9  18  32  48  69  99 132 165 197 234 288
#
# _framework density 16.686171000000002
#
# number of rings (size 3 to 8) (size 9 to 14) (size 15 to 20)
#    0.000    2.714    1.429    0.429    0.000    4.000 
#    0.000    2.857    0.000    0.857    0.000    8.000 
#    0.000    0.000    0.000    0.000    0.000    0.000 
#
# Total GULP energy -693841.795989 kJ/mol
# GULP energy per Si atom -12390.032071 kJ/mol
# Density = 1.664819 g / cm^3
# Si number density = 16.686171 Si / 1000 Ang^3
#
#
#
# Elastic Constant Matrix: (Units=GPa)
#
#
# Indices 1 2 3 4 5 6 
#
# 1 69.1772 33.4111 55.2421 0.0000 0.0000 0.0000
# 2 33.4111 67.1431 55.3784 0.0000 0.0000 0.0000
# 3 55.2421 55.3784 125.2885 0.0000 0.0000 0.0000
# 4 0.0000 0.0000 0.0000 6.3604 0.0000 0.0000
# 5 0.0000 0.0000 0.0000 0.0000 19.2369 0.0000
# 6 0.0000 0.0000 0.0000 0.0000 0.0000 21.3102
#
#
#
# Elastic Compliance Matrix: (Units=1/GPa)
#
#
# Indices 1 2 3 4 5 6 
#
# 1 0.023297 -0.004911 -0.008101 0.000000 0.000000 0.000000
# 2 -0.004911 0.024473 -0.008652 0.000000 0.000000 0.000000
# 3 -0.008101 -0.008652 0.015378 0.000000 0.000000 0.000000
# 4 0.000000 0.000000 0.000000 0.157222 0.000000 0.000000
# 5 0.000000 0.000000 0.000000 0.000000 0.051983 0.000000
# 6 0.000000 0.000000 0.000000 0.000000 0.000000 0.046926
#
#
# Mechanical properties :
#
#
# Convention : Reuss Voigt Hill
#
# Bulk Modulus (GPa) = 50.45551 61.07464 55.76508
# Shear Modulus (GPa) = 13.54225 17.22000 15.38113
#
# Velocity S-wave (km/s) = 2.85192 3.21595 3.03939
# Velocity P-wave (km/s) = 6.41469 7.10431 6.76829
#
# Compressibility (1/GPa) = 0.01981944
#
# Stress axis : x y z
#
# Youngs Moduli (GPa) = 42.92414 40.86074 65.02825
#
# Poissons Ratio (x) = 0.20066 0.52682
# Poissons Ratio (y) = 0.21080 0.56263
# Poissons Ratio (z) = 0.34775 0.35353
#
# Static dielectric constant tensor:
#      x y z
#    x 3.327450 0.000000 0.000000 
#    y 0.000000 3.210390 0.000000 
#    z 0.000000 0.000000 2.955360 
# 
# 
# High freq. dielectric constant tensor:
#      x y z
#    x 1.642200 0.000000 0.000000 
#    y 0.000000 1.642230 0.000000 
#    z 0.000000 0.000000 1.614020 
# 
# From -- ./inp_files/30366.got.cif
#   From: 2010.03.12/outbox.cif.g09.slc.cpg/sg51_16_cif.got.tgz:30366.got - 2010.04.16 13:43:02.
