data_PCOD8208878
_publ_section_title
;
Structure prediction by ZEFSAII (Michael W. Deem and Ramdas Pophale) SiO2 
 PCOD8208878
Probable space group: P M M A
;
_chemical_formula_sum "Si O2"
_cell_formula_units_Z 48
_cell_length_a 9.996627
_cell_length_b 9.575622
_cell_length_c 29.115557
_cell_angle_alpha 90.000000
_cell_angle_beta 90.000000
_cell_angle_gamma 90.000000
_cell_volume 2787.055291
_symmetry_space_group_name_H-M "P M M A"
_symmetry_group_IT_number 51
_symmetry_cell_setting 'orthorhombic'
loop_
_space_group_symop_operation_xyz
x,y,z
1/2-x,-y,z
1/2+x,-y,-z
-x,y,-z
-x,-y,-z
1/2+x,y,-z
1/2-x,y,z
x,-y,z
loop_
_atom_site_type_symbol
_atom_site_label
_atom_site_fract_x
_atom_site_fract_y
_atom_site_fract_z
Si Si1 0.904458 0.837316 0.723573
Si Si2 0.750000 0.664638 0.036094
Si Si3 0.097839 0.160158 0.805185
Si Si4 0.250000 0.665554 0.066005
Si Si5 0.100479 0.666472 0.461946
Si Si6 0.972568 0.334682 0.106392
Si Si7 0.091211 0.345239 0.360918
O O1 0.750000 0.799035 0.734605
O O2 0.959522 0.758217 0.678640
O O3 0.995727 0.789162 0.765986
O O4 0.921306 0.000000 0.713480
O O5 0.750000 0.500000 0.030608
O O6 0.618556 0.712201 0.063569
O O7 0.750000 0.732299 0.985212
O O8 0.250000 0.176195 0.787321
O O9 0.077348 0.257503 0.848692
O O10 0.067759 0.000000 0.818904
O O11 0.250000 0.500000 0.061126
O O12 0.378338 0.715565 0.094491
O O13 0.250000 0.725648 0.471042
O O14 0.104469 0.500000 0.464430
O O15 0.047035 0.710568 0.411277
O O16 0.000000 0.729314 0.500000
O O17 0.962421 0.500000 0.115190
O O18 0.250000 0.353259 0.360811
O O19 0.031937 0.500000 0.351538
#
# Coordination Sequence:
#
# PCOD8208878 Si02
#       7
#     8   4   8   4   8   8   8
#     4   9  18  32  50  69  87 115 156 194 229 276
#     4   9  16  30  51  73  99 129 155 183 224 275
#     4  10  21  36  51  67  93 127 156 188 237 287
#     4   9  18  30  49  77 103 123 151 191 230 267
#     4   8  13  22  38  60  87 118 149 180 218 266
#     4  10  19  32  51  75  98 123 156 191 227 270
#     4   8  14  26  44  67  93 119 148 187 233 271
#
# _framework density 17.222479
#
# number of rings (size 3 to 8) (size 9 to 14) (size 15 to 20)
#    0.000    3.000    0.833    1.500    1.167    2.667 
#    0.000    0.833    0.000    4.500    0.000    0.000 
#    0.000    0.000    0.000    0.000    0.000    0.000 
#
# Total GULP energy -595006.953165 kJ/mol
# GULP energy per Si atom -12395.978191 kJ/mol
# Density = 1.718328 g / cm^3
# Si number density = 17.222479 Si / 1000 Ang^3
#
#
#
# Elastic Constant Matrix: (Units=GPa)
#
#
# Indices 1 2 3 4 5 6 
#
# 1 91.6174 18.8562 43.6034 0.0000 0.0000 0.0000
# 2 18.8562 33.0888 36.8368 0.0000 0.0000 0.0000
# 3 43.6034 36.8368 118.7963 0.0000 0.0000 0.0000
# 4 0.0000 0.0000 0.0000 -2.9681 0.0000 0.0000
# 5 0.0000 0.0000 0.0000 0.0000 110.2732 0.0000
# 6 0.0000 0.0000 0.0000 0.0000 0.0000 13.9216
#
#
#
# Elastic Compliance Matrix: (Units=1/GPa)
#
#
# Indices 1 2 3 4 5 6 
#
# 1 0.013459 -0.003314 -0.003912 0.000000 0.000000 0.000000
# 2 -0.003314 0.046971 -0.013348 0.000000 0.000000 0.000000
# 3 -0.003912 -0.013348 0.013993 0.000000 0.000000 0.000000
# 4 0.000000 0.000000 0.000000 -0.336921 0.000000 0.000000
# 5 0.000000 0.000000 0.000000 0.000000 0.009068 0.000000
# 6 0.000000 0.000000 0.000000 0.000000 0.000000 0.071831
#
#
# Mechanical properties :
#
#
# Convention : Reuss Voigt Hill
#
# Bulk Modulus (GPa) = 30.05475 49.12171 39.58823
# Shear Modulus (GPa) = -38.65259 33.85909 -2.39675
#
# Velocity S-wave (km/s) = -4.74256 4.43875 -1.18096
# Velocity P-wave (km/s) = 3.53558 7.40633 4.60182
#
# Compressibility (1/GPa) = 0.03327261
#
# Stress axis : x y z
#
# Youngs Moduli (GPa) = 74.29922 21.28979 71.46490
#
# Poissons Ratio (x) = 0.07056 0.27959
# Poissons Ratio (y) = 0.24626 0.95394
# Poissons Ratio (z) = 0.29068 0.28418
#
# Static dielectric constant tensor:
#      x y z
#    x 3.288280 0.000000 0.000000 
#    y 0.000000 2.923920 0.000000 
#    z 0.000000 0.000000 3.450480 
# 
# 
# High freq. dielectric constant tensor:
#      x y z
#    x 1.657930 0.000000 0.000000 
#    y 0.000000 1.623150 0.000000 
#    z 0.000000 0.000000 1.672470 
# 
# From -- ./inp_files/37123.got.cif
#   From: 2010.03.12/outbox.cif.g09.slc.cpg/sg51_19_cif.got.tgz:37123.got - 2010.04.16 13:43:02.
