data_PCOD8208579
_publ_section_title
;
Structure prediction by ZEFSAII (Michael W. Deem and Ramdas Pophale) SiO2 
 PCOD8208579
Probable space group: P M M A
;
_chemical_formula_sum "Si O2"
_cell_formula_units_Z 40
_cell_length_a 8.933306
_cell_length_b 7.639255
_cell_length_c 29.288562
_cell_angle_alpha 90.000000
_cell_angle_beta 90.000000
_cell_angle_gamma 90.000000
_cell_volume 1998.762841
_symmetry_space_group_name_H-M "P M M A"
_symmetry_group_IT_number 51
_symmetry_cell_setting 'orthorhombic'
loop_
_space_group_symop_operation_xyz
x,y,z
1/2-x,-y,z
1/2+x,-y,-z
-x,y,-z
-x,-y,-z
1/2+x,y,-z
1/2-x,y,z
x,-y,z
loop_
_atom_site_type_symbol
_atom_site_label
_atom_site_fract_x
_atom_site_fract_y
_atom_site_fract_z
Si Si1 0.072631 0.000000 0.710323
Si Si2 0.429123 0.000000 0.606952
Si Si3 0.581350 0.791464 0.044803
Si Si4 0.925347 0.701776 0.548348
Si Si5 0.424270 0.796717 0.135756
Si Si6 0.920951 0.305689 0.225740
O O1 0.012767 0.828525 0.736944
O O2 0.250000 0.000000 0.708402
O O3 0.011933 0.000000 0.658950
O O4 0.494764 0.824273 0.585026
O O5 0.250000 0.000000 0.602697
O O6 0.750000 0.721382 0.044770
O O7 0.500955 0.720564 0.090239
O O8 0.574842 0.000000 0.044022
O O9 0.500000 0.715233 0.000000
O O10 0.750000 0.746505 0.545261
O O11 0.951679 0.500000 0.562605
O O12 0.000000 0.742532 0.500000
O O13 0.250000 0.761405 0.130794
O O14 0.485008 0.695845 0.179493
O O15 0.462473 0.000000 0.142208
O O16 0.750000 0.255325 0.213818
O O17 0.931551 0.500000 0.246961
#
# Coordination Sequence:
#
# PCOD8208579 Si02
#       6
#     4   4   8   8   8   8
#     4   9  20  38  58  83 114 147 188 236 285 336
#     4  11  22  36  59  89 120 157 197 244 297 350
#     4   9  16  26  43  70 104 140 177 219 266 322
#     4  10  21  38  60  87 121 161 203 246 290 341
#     4  10  19  31  50  76 106 141 179 222 273 329
#     4  10  20  36  59  82 105 139 184 232 281 332
#
# _framework density 20.012378999999999
#
# number of rings (size 3 to 8) (size 9 to 14) (size 15 to 20)
#    0.000    2.200    1.000    2.400    0.000    5.600 
#    0.000    4.000    0.000    0.600    0.000    0.000 
#    0.000    0.000    0.000    0.000    0.000    0.000 
#
# Total GULP energy -496063.614988 kJ/mol
# GULP energy per Si atom -12401.590375 kJ/mol
# Density = 1.996683 g / cm^3
# Si number density = 20.012379 Si / 1000 Ang^3
#
#
#
# Elastic Constant Matrix: (Units=GPa)
#
#
# Indices 1 2 3 4 5 6 
#
# 1 107.1754 42.2160 61.0465 0.0000 0.0000 0.0000
# 2 42.2160 100.0701 69.7582 0.0000 0.0000 0.0000
# 3 61.0465 69.7582 175.7181 0.0000 0.0000 0.0000
# 4 0.0000 0.0000 0.0000 1.2992 0.0000 0.0000
# 5 0.0000 0.0000 0.0000 0.0000 30.6211 0.0000
# 6 0.0000 0.0000 0.0000 0.0000 0.0000 19.9827
#
#
#
# Elastic Compliance Matrix: (Units=1/GPa)
#
#
# Indices 1 2 3 4 5 6 
#
# 1 0.012270 -0.003048 -0.003053 0.000000 0.000000 0.000000
# 2 -0.003048 0.014574 -0.004727 0.000000 0.000000 0.000000
# 3 -0.003053 -0.004727 0.008628 0.000000 0.000000 0.000000
# 4 0.000000 0.000000 0.000000 0.769722 0.000000 0.000000
# 5 0.000000 0.000000 0.000000 0.000000 0.032657 0.000000
# 6 0.000000 0.000000 0.000000 0.000000 0.000000 0.050043
#
#
# Mechanical properties :
#
#
# Convention : Reuss Voigt Hill
#
# Bulk Modulus (GPa) = 72.37669 81.00056 76.68863
# Shear Modulus (GPa) = 5.46953 24.37678 14.92315
#
# Velocity S-wave (km/s) = 1.65499 3.49389 2.73371
# Velocity P-wave (km/s) = 6.31637 7.53920 6.95471
#
# Compressibility (1/GPa) = 0.01381660
#
# Stress axis : x y z
#
# Youngs Moduli (GPa) = 81.49988 68.61582 115.90350
#
# Poissons Ratio (x) = 0.20916 0.35380
# Poissons Ratio (y) = 0.24844 0.54784
# Poissons Ratio (z) = 0.24878 0.32432
#
# Static dielectric constant tensor:
#      x y z
#    x 3.595650 0.000000 0.000000 
#    y 0.000000 3.538960 0.000000 
#    z 0.000000 0.000000 3.688750 
# 
# 
# High freq. dielectric constant tensor:
#      x y z
#    x 1.777320 0.000000 0.000000 
#    y 0.000000 1.775950 0.000000 
#    z 0.000000 0.000000 1.778140 
# 
# From -- ./inp_files/36011.got.cif
#   From: 2010.03.12/outbox.cif.g09.slc.cpg/sg51_19_cif.got.tgz:36011.got - 2010.04.16 13:43:02.
