data_PCOD8208718
_publ_section_title
;
Structure prediction by ZEFSAII (Michael W. Deem and Ramdas Pophale) SiO2 
 PCOD8208718
Probable space group: P M M A
;
_chemical_formula_sum "Si O2"
_cell_formula_units_Z 56
_cell_length_a 9.422547
_cell_length_b 19.488433
_cell_length_c 15.306092
_cell_angle_alpha 90.000000
_cell_angle_beta 90.000000
_cell_angle_gamma 90.000000
_cell_volume 2810.668019
_symmetry_space_group_name_H-M "P M M A"
_symmetry_group_IT_number 51
_symmetry_cell_setting 'orthorhombic'
loop_
_space_group_symop_operation_xyz
x,y,z
1/2-x,-y,z
1/2+x,-y,-z
-x,y,-z
-x,-y,-z
1/2+x,y,-z
1/2-x,y,z
x,-y,z
loop_
_atom_site_type_symbol
_atom_site_label
_atom_site_fract_x
_atom_site_fract_y
_atom_site_fract_z
Si Si1 0.407542 0.926119 0.127391
Si Si2 0.591011 0.224022 0.922521
Si Si3 0.592466 0.150907 0.577891
Si Si4 0.410539 0.924114 0.708608
Si Si5 0.414195 0.580949 0.913760
Si Si6 0.592236 0.312828 0.581088
Si Si7 0.582383 0.669674 0.779784
O O1 0.250000 0.919532 0.171905
O O2 0.431741 0.858063 0.070857
O O3 0.537767 0.929133 0.193076
O O4 0.411514 0.000000 0.075327
O O5 0.750000 0.244382 0.945534
O O6 0.551579 0.256862 0.827841
O O7 0.500000 0.258237 0.000000
O O8 0.500000 0.118868 0.500000
O O9 0.750000 0.119015 0.574099
O O10 0.515540 0.130218 0.666096
O O11 0.600614 0.231834 0.571084
O O12 0.250000 0.895948 0.705377
O O13 0.419290 0.000000 0.665201
O O14 0.250000 0.605247 0.920586
O O15 0.422231 0.500000 0.901926
O O16 0.490485 0.612354 0.828695
O O17 0.500000 0.604323 0.000000
O O18 0.500000 0.343365 0.500000
O O19 0.750000 0.344255 0.571948
O O20 0.531133 0.328972 0.678218
O O21 0.750000 0.652348 0.783950
#
# Coordination Sequence:
#
# PCOD8208718 Si02
#       7
#     8   8   8   8   8   8   8
#     4   9  18  34  53  69  91 130 175 216 263 318
#     4  10  21  35  51  76 108 140 178 224 272 323
#     4  10  19  32  49  68  93 125 162 206 260 320
#     4  10  20  32  46  66  90 117 157 210 264 319
#     4  10  21  37  58  86 119 153 189 227 267 317
#     4   9  19  35  55  80 108 139 177 222 269 318
#     4  10  20  35  56  82 114 148 182 224 273 324
#
# _framework density 19.924088999999999
#
# number of rings (size 3 to 8) (size 9 to 14) (size 15 to 20)
#    0.000    2.286    0.000    2.571    0.000    8.000 
#    0.000    1.429    0.000    0.429    0.000    0.000 
#    0.000    0.000    0.000    0.000    0.000    0.000 
#
# Total GULP energy -693811.224884 kJ/mol
# GULP energy per Si atom -12389.486159 kJ/mol
# Density = 1.987874 g / cm^3
# Si number density = 19.924089 Si / 1000 Ang^3
#
#
#
# Elastic Constant Matrix: (Units=GPa)
#
#
# Indices 1 2 3 4 5 6 
#
# 1 131.5745 28.5318 68.3589 0.0000 0.0000 0.0000
# 2 28.5318 45.7564 25.2285 0.0000 0.0000 0.0000
# 3 68.3589 25.2285 142.6381 0.0000 0.0000 0.0000
# 4 0.0000 0.0000 0.0000 16.4020 0.0000 0.0000
# 5 0.0000 0.0000 0.0000 0.0000 36.6467 0.0000
# 6 0.0000 0.0000 0.0000 0.0000 0.0000 20.6909
#
#
#
# Elastic Compliance Matrix: (Units=1/GPa)
#
#
# Indices 1 2 3 4 5 6 
#
# 1 0.010838 -0.004315 -0.004431 0.000000 0.000000 0.000000
# 2 -0.004315 0.025935 -0.002519 0.000000 0.000000 0.000000
# 3 -0.004431 -0.002519 0.009580 0.000000 0.000000 0.000000
# 4 0.000000 0.000000 0.000000 0.060968 0.000000 0.000000
# 5 0.000000 0.000000 0.000000 0.000000 0.027288 0.000000
# 6 0.000000 0.000000 0.000000 0.000000 0.000000 0.048330
#
#
# Mechanical properties :
#
#
# Convention : Reuss Voigt Hill
#
# Bulk Modulus (GPa) = 41.97759 62.68971 52.33365
# Shear Modulus (GPa) = 23.42916 27.93791 25.68354
#
# Velocity S-wave (km/s) = 3.43289 3.74868 3.59426
# Velocity P-wave (km/s) = 6.06857 7.09009 6.59912
#
# Compressibility (1/GPa) = 0.02382223
#
# Stress axis : x y z
#
# Youngs Moduli (GPa) = 92.26770 38.55865 104.38650
#
# Poissons Ratio (x) = 0.16639 0.46252
# Poissons Ratio (y) = 0.39815 0.26296
# Poissons Ratio (z) = 0.40883 0.09713
#
# Static dielectric constant tensor:
#      x y z
#    x 3.915790 0.000000 0.000000 
#    y 0.000000 3.504310 0.000000 
#    z 0.000000 0.000000 3.505690 
# 
# 
# High freq. dielectric constant tensor:
#      x y z
#    x 1.785990 0.000000 0.000000 
#    y 0.000000 1.754770 0.000000 
#    z 0.000000 0.000000 1.762260 
# 
# From -- ./inp_files/21820.got.cif
#   From: 2010.03.12/outbox.cif.g09.slc.cpg/sg51_11_cif.got.tgz:21820.got - 2010.04.16 13:43:02.
