data_PCOD8208601
_publ_section_title
;
Structure prediction by ZEFSAII (Michael W. Deem and Ramdas Pophale) SiO2 
 PCOD8208601
Probable space group: P M M A
;
_chemical_formula_sum "Si O2"
_cell_formula_units_Z 56
_cell_length_a 22.815210
_cell_length_b 9.000354
_cell_length_c 14.214449
_cell_angle_alpha 90.000000
_cell_angle_beta 90.000000
_cell_angle_gamma 90.000000
_cell_volume 2918.865555
_symmetry_space_group_name_H-M "P M M A"
_symmetry_group_IT_number 51
_symmetry_cell_setting 'orthorhombic'
loop_
_space_group_symop_operation_xyz
x,y,z
1/2-x,-y,z
1/2+x,-y,-z
-x,y,-z
-x,-y,-z
1/2+x,y,-z
1/2-x,y,z
x,-y,z
loop_
_atom_site_type_symbol
_atom_site_label
_atom_site_fract_x
_atom_site_fract_y
_atom_site_fract_z
Si Si1 0.636277 0.671399 0.957289
Si Si2 0.750000 0.323378 0.854518
Si Si3 0.356995 0.825562 0.468396
Si Si4 0.250000 0.323161 0.362288
Si Si5 0.468400 0.170193 0.142341
Si Si6 0.526188 0.169817 0.642591
Si Si7 0.905694 0.673781 0.360846
Si Si8 0.087291 0.330059 0.850594
O O1 0.633305 0.500000 0.929480
O O2 0.693439 0.743428 0.908627
O O3 0.577860 0.744179 0.919537
O O4 0.638101 0.692522 0.071002
O O5 0.750000 0.500000 0.862660
O O6 0.750000 0.271604 0.746446
O O7 0.307359 0.741511 0.410909
O O8 0.419496 0.788030 0.422657
O O9 0.359520 0.762707 0.574565
O O10 0.342974 0.000000 0.468985
O O11 0.250000 0.500000 0.371424
O O12 0.452564 0.194421 0.251232
O O13 0.532964 0.228734 0.119985
O O14 0.466260 0.000000 0.112643
O O15 0.472051 0.275383 0.617314
O O16 0.505752 0.000000 0.625906
O O17 0.900269 0.500000 0.382591
O O18 0.888688 0.712704 0.252826
O O19 0.065124 0.500000 0.848759
#
# Coordination Sequence:
#
# PCOD8208601 Si02
#       8
#     8   4   8   4   8   8   8   8
#     4  10  19  34  54  75 103 139 177 215 260 313
#     4   9  20  37  58  81 102 130 171 217 258 301
#     4  11  22  37  56  77 105 142 179 215 263 318
#     4  11  23  39  58  81 106 132 171 219 262 307
#     4  10  19  31  50  78 109 139 173 215 263 313
#     4   9  19  34  52  77 109 143 176 213 264 324
#     4  10  20  34  53  80 110 139 176 221 265 310
#     4   9  19  34  52  76 107 141 175 213 260 313
#
# _framework density 19.185535000000002
#
# number of rings (size 3 to 8) (size 9 to 14) (size 15 to 20)
#    0.000    2.143    0.000    3.214    0.000    6.286 
#    0.000    1.786    0.000    2.571    0.000    0.000 
#    0.000    0.000    0.000    0.000    0.000    0.000 
#
# Total GULP energy -694451.618634 kJ/mol
# GULP energy per Si atom -12400.921761 kJ/mol
# Density = 1.914187 g / cm^3
# Si number density = 19.185535 Si / 1000 Ang^3
#
#
#
# Elastic Constant Matrix: (Units=GPa)
#
#
# Indices 1 2 3 4 5 6 
#
# 1 67.3549 38.9224 76.8420 0.0000 0.0000 0.0000
# 2 38.9224 74.5532 51.1743 0.0000 0.0000 0.0000
# 3 76.8420 51.1743 145.0761 0.0000 0.0000 0.0000
# 4 0.0000 0.0000 0.0000 24.6159 0.0000 0.0000
# 5 0.0000 0.0000 0.0000 0.0000 32.9986 0.0000
# 6 0.0000 0.0000 0.0000 0.0000 0.0000 16.0648
#
#
#
# Elastic Compliance Matrix: (Units=1/GPa)
#
#
# Indices 1 2 3 4 5 6 
#
# 1 0.041352 -0.008648 -0.018852 0.000000 0.000000 0.000000
# 2 -0.008648 0.019507 -0.002300 0.000000 0.000000 0.000000
# 3 -0.018852 -0.002300 0.017690 0.000000 0.000000 0.000000
# 4 0.000000 0.000000 0.000000 0.040624 0.000000 0.000000
# 5 0.000000 0.000000 0.000000 0.000000 0.030304 0.000000
# 6 0.000000 0.000000 0.000000 0.000000 0.000000 0.062248
#
#
# Mechanical properties :
#
#
# Convention : Reuss Voigt Hill
#
# Bulk Modulus (GPa) = 52.77802 68.98464 60.88133
# Shear Modulus (GPa) = 18.00881 22.73890 20.37385
#
# Velocity S-wave (km/s) = 3.06709 3.44642 3.26227
# Velocity P-wave (km/s) = 6.33338 7.20221 6.78172
#
# Compressibility (1/GPa) = 0.01894728
#
# Stress axis : x y z
#
# Youngs Moduli (GPa) = 24.18281 51.26282 56.53051
#
# Poissons Ratio (x) = 0.44335 1.06571
# Poissons Ratio (y) = 0.20914 0.13003
# Poissons Ratio (z) = 0.45589 0.11792
#
# Static dielectric constant tensor:
#      x y z
#    x 3.394290 0.000000 0.000000 
#    y 0.000000 3.469140 0.000000 
#    z 0.000000 0.000000 3.893860 
# 
# 
# High freq. dielectric constant tensor:
#      x y z
#    x 1.721960 0.000000 0.000000 
#    y 0.000000 1.742060 0.000000 
#    z 0.000000 0.000000 1.766460 
# 
# From -- ./inp_files/25850.got.cif
#   From: 2010.03.12/outbox.cif.g09.slc.cpg/sg51_13_cif.got.tgz:25850.got - 2010.04.16 13:43:02.
