data_PCOD8208928
_publ_section_title
;
Structure prediction by ZEFSAII (Michael W. Deem and Ramdas Pophale) SiO2 
 PCOD8208928
Probable space group: P M M A
;
_chemical_formula_sum "Si O2"
_cell_formula_units_Z 48
_cell_length_a 15.508224
_cell_length_b 18.454862
_cell_length_c 9.235150
_cell_angle_alpha 90.000000
_cell_angle_beta 90.000000
_cell_angle_gamma 90.000000
_cell_volume 2643.119636
_symmetry_space_group_name_H-M "P M M A"
_symmetry_group_IT_number 51
_symmetry_cell_setting 'orthorhombic'
loop_
_space_group_symop_operation_xyz
x,y,z
1/2-x,-y,z
1/2+x,-y,-z
-x,y,-z
-x,-y,-z
1/2+x,y,-z
1/2-x,y,z
x,-y,z
loop_
_atom_site_type_symbol
_atom_site_label
_atom_site_fract_x
_atom_site_fract_y
_atom_site_fract_z
Si Si1 0.347379 0.583880 0.140482
Si Si2 0.654785 0.919296 0.859801
Si Si3 0.001693 0.084395 0.665201
Si Si4 0.916009 0.178934 0.095970
Si Si5 0.849351 0.664748 0.154919
Si Si6 0.508192 0.584408 0.333590
O O1 0.250000 0.600156 0.197458
O O2 0.356736 0.500000 0.097980
O O3 0.417069 0.606299 0.260974
O O4 0.369211 0.630089 0.999936
O O5 0.750000 0.913836 0.794363
O O6 0.593161 0.900212 0.726885
O O7 0.633412 0.000000 0.917765
O O8 0.647976 0.866146 0.995218
O O9 0.000000 0.111475 0.500000
O O10 0.066848 0.131989 0.760200
O O11 0.028554 0.000000 0.675037
O O12 0.868260 0.250575 0.147285
O O13 0.000000 0.196970 0.000000
O O14 0.750000 0.651494 0.200571
O O15 0.911565 0.628716 0.271981
O O16 0.500000 0.605464 0.500000
O O17 0.528156 0.500000 0.310968
#
# Coordination Sequence:
#
# PCOD8208928 Si02
#       6
#     8   8   8   8   8   8
#     4   9  18  34  56  79 102 132 172 216 260 307
#     4   9  17  31  51  74 100 130 168 214 259 304
#     4   9  18  33  53  76 102 134 170 208 255 309
#     4  10  19  32  52  75 101 135 172 211 254 304
#     4  11  22  35  53  77 105 137 175 216 257 304
#     4  10  21  36  55  79 107 138 171 210 258 310
#
# _framework density 18.160359
#
# number of rings (size 3 to 8) (size 9 to 14) (size 15 to 20)
#    0.000    2.333    0.000    3.000    0.000    5.667 
#    0.000    3.333    0.000    4.000    0.000    0.000 
#    0.000    0.000    0.000    0.000    0.000    0.000 
#
# Total GULP energy -595191.576839 kJ/mol
# GULP energy per Si atom -12399.824517 kJ/mol
# Density = 1.811903 g / cm^3
# Si number density = 18.160359 Si / 1000 Ang^3
#
#
#
# Elastic Constant Matrix: (Units=GPa)
#
#
# Indices 1 2 3 4 5 6 
#
# 1 113.7479 53.1254 71.8405 0.0000 0.0000 0.0000
# 2 53.1254 86.1917 64.3712 0.0000 0.0000 0.0000
# 3 71.8405 64.3712 142.3040 0.0000 0.0000 0.0000
# 4 0.0000 0.0000 0.0000 19.7100 0.0000 0.0000
# 5 0.0000 0.0000 0.0000 0.0000 19.7646 0.0000
# 6 0.0000 0.0000 0.0000 0.0000 0.0000 48.8479
#
#
#
# Elastic Compliance Matrix: (Units=1/GPa)
#
#
# Indices 1 2 3 4 5 6 
#
# 1 0.014281 -0.005162 -0.004875 0.000000 0.000000 0.000000
# 2 -0.005162 0.019387 -0.006164 0.000000 0.000000 0.000000
# 3 -0.004875 -0.006164 0.012276 0.000000 0.000000 0.000000
# 4 0.000000 0.000000 0.000000 0.050736 0.000000 0.000000
# 5 0.000000 0.000000 0.000000 0.000000 0.050596 0.000000
# 6 0.000000 0.000000 0.000000 0.000000 0.000000 0.020472
#
#
# Mechanical properties :
#
#
# Convention : Reuss Voigt Hill
#
# Bulk Modulus (GPa) = 73.83461 80.10196 76.96829
# Shear Modulus (GPa) = 24.43055 27.85827 26.14441
#
# Velocity S-wave (km/s) = 3.67177 3.92090 3.79838
# Velocity P-wave (km/s) = 7.66297 8.04374 7.85567
#
# Compressibility (1/GPa) = 0.01354378
#
# Stress axis : x y z
#
# Youngs Moduli (GPa) = 70.02422 51.58127 81.45753
#
# Poissons Ratio (x) = 0.26624 0.39708
# Poissons Ratio (y) = 0.36144 0.50209
# Poissons Ratio (z) = 0.34134 0.31794
#
# Static dielectric constant tensor:
#      x y z
#    x 3.438340 0.000000 0.000000 
#    y 0.000000 3.352580 0.000000 
#    z 0.000000 0.000000 3.243880 
# 
# 
# High freq. dielectric constant tensor:
#      x y z
#    x 1.710070 0.000000 0.000000 
#    y 0.000000 1.704020 0.000000 
#    z 0.000000 0.000000 1.691860 
# 
# From -- ./inp_files/8205.got.cif
#   From: 2010.03.12/outbox.cif.g09.slc.cpg/sg51_5_cif.got.tgz:8205.got - 2010.04.16 13:43:02.
