data_PCOD8208523
_publ_section_title
;
Structure prediction by ZEFSAII (Michael W. Deem and Ramdas Pophale) SiO2 
 PCOD8208523
Probable space group: P M M A
;
_chemical_formula_sum "Si O2"
_cell_formula_units_Z 44
_cell_length_a 8.773965
_cell_length_b 16.419281
_cell_length_c 15.914373
_cell_angle_alpha 90.000000
_cell_angle_beta 90.000000
_cell_angle_gamma 90.000000
_cell_volume 2292.659535
_symmetry_space_group_name_H-M "P M M A"
_symmetry_group_IT_number 51
_symmetry_cell_setting 'orthorhombic'
loop_
_space_group_symop_operation_xyz
x,y,z
1/2-x,-y,z
1/2+x,-y,-z
-x,y,-z
-x,-y,-z
1/2+x,y,-z
1/2-x,y,z
x,-y,z
loop_
_atom_site_type_symbol
_atom_site_label
_atom_site_fract_x
_atom_site_fract_y
_atom_site_fract_z
Si Si1 0.075628 0.379434 0.708211
Si Si2 0.926812 0.590593 0.879366
Si Si3 0.071690 0.906152 0.413304
Si Si4 0.570225 0.757197 0.083371
Si Si5 0.568752 0.500000 0.589394
Si Si6 0.922777 0.193807 0.266149
O O1 0.250000 0.407822 0.722675
O O2 0.069508 0.283243 0.695433
O O3 0.970698 0.412320 0.782436
O O4 0.000417 0.417918 0.627233
O O5 0.750000 0.613634 0.889368
O O6 0.959391 0.500000 0.917739
O O7 0.026788 0.661435 0.921853
O O8 0.250000 0.893789 0.421485
O O9 0.000000 0.870247 0.500000
O O10 0.019013 0.863495 0.327190
O O11 0.023837 0.000000 0.404340
O O12 0.750000 0.763376 0.080641
O O13 0.512101 0.801157 0.169483
O O14 0.500000 0.800384 0.000000
O O15 0.750000 0.500000 0.592225
O O16 0.500000 0.500000 0.500000
O O17 0.750000 0.160907 0.264212
#
# Coordination Sequence:
#
# PCOD8208523 Si02
#       6
#     8   8   8   8   4   8
#     4  10  20  35  53  73 101 137 180 228 276 328
#     4  10  19  31  50  74 100 135 180 228 280 334
#     4  10  21  37  60  90 120 149 180 220 272 330
#     4  10  21  36  54  78 109 146 189 235 284 335
#     4  12  24  36  50  70  97 136 183 230 282 332
#     4   9  20  37  58  84 112 147 185 225 279 334
#
# _framework density 19.191685
#
# number of rings (size 3 to 8) (size 9 to 14) (size 15 to 20)
#    0.000    2.000    0.909    4.091    0.000    7.636 
#    0.000    0.000    0.000    0.545    0.000    0.000 
#    0.000    0.000    0.000    0.000    0.000    0.000 
#
# Total GULP energy -545289.564997 kJ/mol
# GULP energy per Si atom -12392.944659 kJ/mol
# Density = 1.914800 g / cm^3
# Si number density = 19.191685 Si / 1000 Ang^3
#
#
#
# Elastic Constant Matrix: (Units=GPa)
#
#
# Indices 1 2 3 4 5 6 
#
# 1 80.5247 32.3152 45.8436 0.0000 0.0000 0.0000
# 2 32.3152 55.5197 46.2596 0.0000 0.0000 0.0000
# 3 45.8436 46.2596 164.5806 0.0000 0.0000 0.0000
# 4 0.0000 0.0000 0.0000 -1.8347 0.0000 0.0000
# 5 0.0000 0.0000 0.0000 0.0000 37.3911 0.0000
# 6 0.0000 0.0000 0.0000 0.0000 0.0000 28.7573
#
#
#
# Elastic Compliance Matrix: (Units=1/GPa)
#
#
# Indices 1 2 3 4 5 6 
#
# 1 0.016985 -0.007762 -0.002549 0.000000 0.000000 0.000000
# 2 -0.007762 0.027067 -0.005446 0.000000 0.000000 0.000000
# 3 -0.002549 -0.005446 0.008317 0.000000 0.000000 0.000000
# 4 0.000000 0.000000 0.000000 -0.545048 0.000000 0.000000
# 5 0.000000 0.000000 0.000000 0.000000 0.026744 0.000000
# 6 0.000000 0.000000 0.000000 0.000000 0.000000 0.034774
#
#
# Mechanical properties :
#
#
# Convention : Reuss Voigt Hill
#
# Bulk Modulus (GPa) = 47.95124 61.05131 54.50128
# Shear Modulus (GPa) = -12.73250 24.60984 5.93867
#
# Velocity S-wave (km/s) = -2.57852 3.58483 1.76100
# Velocity P-wave (km/s) = 4.02177 7.00108 5.70919
#
# Compressibility (1/GPa) = 0.02085452
#
# Stress axis : x y z
#
# Youngs Moduli (GPa) = 58.87604 36.94553 120.23734
#
# Poissons Ratio (x) = 0.28676 0.30654
# Poissons Ratio (y) = 0.45698 0.65479
# Poissons Ratio (z) = 0.15010 0.20120
#
# Static dielectric constant tensor:
#      x y z
#    x 3.572680 0.000000 0.000000 
#    y 0.000000 3.307060 0.000000 
#    z 0.000000 0.000000 3.751290 
# 
# 
# High freq. dielectric constant tensor:
#      x y z
#    x 1.754490 0.000000 0.000000 
#    y 0.000000 1.714220 0.000000 
#    z 0.000000 0.000000 1.758790 
# 
# From -- ./inp_files/20890.got.cif
#   From: 2010.03.12/outbox.cif.g09.slc.cpg/sg51_11_cif.got.tgz:20890.got - 2010.04.16 13:43:02.
