data_PCOD8208609
_publ_section_title
;
Structure prediction by ZEFSAII (Michael W. Deem and Ramdas Pophale) SiO2 
 PCOD8208609
Probable space group: P M M A
;
_chemical_formula_sum "Si O2"
_cell_formula_units_Z 56
_cell_length_a 19.096383
_cell_length_b 9.281950
_cell_length_c 17.995970
_cell_angle_alpha 90.000000
_cell_angle_beta 90.000000
_cell_angle_gamma 90.000000
_cell_volume 3189.815775
_symmetry_space_group_name_H-M "P M M A"
_symmetry_group_IT_number 51
_symmetry_cell_setting 'orthorhombic'
loop_
_space_group_symop_operation_xyz
x,y,z
1/2-x,-y,z
1/2+x,-y,-z
-x,y,-z
-x,-y,-z
1/2+x,y,-z
1/2-x,y,z
x,-y,z
loop_
_atom_site_type_symbol
_atom_site_label
_atom_site_fract_x
_atom_site_fract_y
_atom_site_fract_z
Si Si1 0.925276 0.170388 0.343401
Si Si2 0.666500 0.838512 0.924379
Si Si3 0.833220 0.340389 0.061682
Si Si4 0.929763 0.669024 0.646145
Si Si5 0.917068 0.158386 0.506304
Si Si6 0.167995 0.333437 0.771906
Si Si7 0.830094 0.666488 0.782150
O O1 0.890564 0.204681 0.424214
O O2 0.872169 0.227066 0.282279
O O3 0.999040 0.250050 0.333668
O O4 0.937706 0.000000 0.334110
O O5 0.750000 0.834528 0.926456
O O6 0.639363 0.754713 0.851838
O O7 0.637386 0.000000 0.920744
O O8 0.635833 0.766471 0.999404
O O9 0.750000 0.344168 0.057593
O O10 0.862623 0.500000 0.045208
O O11 0.855571 0.291603 0.144367
O O12 0.944694 0.500000 0.638125
O O13 0.895733 0.726314 0.569003
O O14 0.874370 0.704799 0.709838
O O15 0.000000 0.149516 0.500000
O O16 0.887464 0.000000 0.528043
O O17 0.250000 0.307083 0.760874
O O18 0.149131 0.500000 0.755418
O O19 0.750000 0.709221 0.765114
O O20 0.836471 0.500000 0.803742
#
# Coordination Sequence:
#
# PCOD8208609 Si02
#       7
#     8   8   8   8   8   8   8
#     4  10  20  33  50  71  97 128 158 192 237 287
#     4   9  16  25  41  67  94 121 156 193 227 270
#     4   8  14  26  44  65  91 123 155 189 231 274
#     4  10  19  31  51  74  93 120 160 201 238 279
#     4   8  16  31  48  67  92 122 157 195 234 278
#     4   9  18  32  50  73  99 126 159 198 236 276
#     4   9  18  32  48  68  96 126 155 191 237 284
#
# _framework density 17.555872000000001
#
# number of rings (size 3 to 8) (size 9 to 14) (size 15 to 20)
#    0.000    3.000    0.000    3.000    0.000    6.857 
#    0.000    2.143    0.000    3.429    0.000    6.000 
#    0.000    0.000    0.000    0.000    0.000    0.000 
#
# Total GULP energy -694147.957952 kJ/mol
# GULP energy per Si atom -12395.499249 kJ/mol
# Density = 1.751591 g / cm^3
# Si number density = 17.555872 Si / 1000 Ang^3
#
#
#
# Elastic Constant Matrix: (Units=GPa)
#
#
# Indices 1 2 3 4 5 6 
#
# 1 36.0706 37.9902 44.5713 0.0000 0.0000 0.0000
# 2 37.9902 119.7191 96.4851 0.0000 0.0000 0.0000
# 3 44.5713 96.4851 169.6381 0.0000 0.0000 0.0000
# 4 0.0000 0.0000 0.0000 29.5355 0.0000 0.0000
# 5 0.0000 0.0000 0.0000 0.0000 -202.6568 0.0000
# 6 0.0000 0.0000 0.0000 0.0000 0.0000 16.1122
#
#
#
# Elastic Compliance Matrix: (Units=1/GPa)
#
#
# Indices 1 2 3 4 5 6 
#
# 1 0.045670 -0.008903 -0.006936 0.000000 0.000000 0.000000
# 2 -0.008903 0.017158 -0.007420 0.000000 0.000000 0.000000
# 3 -0.006936 -0.007420 0.011937 0.000000 0.000000 0.000000
# 4 0.000000 0.000000 0.000000 0.033858 0.000000 0.000000
# 5 0.000000 0.000000 0.000000 0.000000 -0.004934 0.000000
# 6 0.000000 0.000000 0.000000 0.000000 0.000000 0.062065
#
#
# Mechanical properties :
#
#
# Convention : Reuss Voigt Hill
#
# Bulk Modulus (GPa) = 35.39959 75.94677 55.67318
# Shear Modulus (GPa) = 22.55440 -21.64307 0.45566
#
# Velocity S-wave (km/s) = 3.58819 -3.51495 0.51001
# Velocity P-wave (km/s) = 6.11347 5.18467 5.66813
#
# Compressibility (1/GPa) = 0.02824891
#
# Stress axis : x y z
#
# Youngs Moduli (GPa) = 21.89597 58.28310 83.77027
#
# Poissons Ratio (x) = 0.51887 0.58104
# Poissons Ratio (y) = 0.19493 0.62155
# Poissons Ratio (z) = 0.15187 0.43244
#
# Static dielectric constant tensor:
#      x y z
#    x 2.771930 0.000000 0.000000 
#    y 0.000000 3.397200 0.000000 
#    z 0.000000 0.000000 3.644990 
# 
# 
# High freq. dielectric constant tensor:
#      x y z
#    x 1.622600 0.000000 0.000000 
#    y 0.000000 1.684880 0.000000 
#    z 0.000000 0.000000 1.695230 
# 
# From -- ./inp_files/25659.got.cif
#   From: 2010.03.12/outbox.cif.g09.slc.cpg/sg51_13_cif.got.tgz:25659.got - 2010.04.16 13:43:02.
