data_PCOD8208978
_publ_section_title
;
Structure prediction by ZEFSAII (Michael W. Deem and Ramdas Pophale) SiO2 
 PCOD8208978
Probable space group: P M M A
;
_chemical_formula_sum "Si O2"
_cell_formula_units_Z 56
_cell_length_a 17.185294
_cell_length_b 9.108913
_cell_length_c 18.851072
_cell_angle_alpha 90.000000
_cell_angle_beta 90.000000
_cell_angle_gamma 90.000000
_cell_volume 2950.934519
_symmetry_space_group_name_H-M "P M M A"
_symmetry_group_IT_number 51
_symmetry_cell_setting 'orthorhombic'
loop_
_space_group_symop_operation_xyz
x,y,z
1/2-x,-y,z
1/2+x,-y,-z
-x,y,-z
-x,-y,-z
1/2+x,y,-z
1/2-x,y,z
x,-y,z
loop_
_atom_site_type_symbol
_atom_site_label
_atom_site_fract_x
_atom_site_fract_y
_atom_site_fract_z
Si Si1 0.338648 0.167483 0.586767
Si Si2 0.089172 0.667135 0.713242
Si Si3 0.583143 0.673800 0.533850
Si Si4 0.663016 0.332750 0.141571
Si Si5 0.978826 0.829645 0.075836
Si Si6 0.048329 0.167091 0.219846
Si Si7 0.161337 0.830327 0.339200
O O1 0.250000 0.181016 0.611496
O O2 0.393025 0.227907 0.648205
O O3 0.349469 0.264014 0.516528
O O4 0.361930 0.000000 0.570494
O O5 0.083411 0.500000 0.685344
O O6 0.154364 0.683705 0.773623
O O7 0.006890 0.714540 0.744087
O O8 0.500000 0.721740 0.500000
O O9 0.588887 0.500000 0.540324
O O10 0.600482 0.742226 0.611191
O O11 0.750000 0.283662 0.121151
O O12 0.646974 0.500000 0.119209
O O13 0.603540 0.231882 0.100195
O O14 0.046816 0.799977 0.134811
O O15 0.965010 0.000000 0.064414
O O16 0.000000 0.756596 0.000000
O O17 0.132706 0.185960 0.256966
O O18 0.017681 0.000000 0.231861
O O19 0.250000 0.769700 0.344159
O O20 0.159413 0.000000 0.362658
#
# Coordination Sequence:
#
# PCOD8208978 Si02
#       7
#     8   8   8   8   8   8   8
#     4  11  23  36  51  74 103 134 168 206 251 304
#     4  10  19  32  52  77 105 136 171 211 255 306
#     4  11  24  39  55  76 101 131 170 217 268 317
#     4   9  18  32  50  74 104 138 174 211 256 311
#     4   9  18  33  53  79 109 139 174 215 259 310
#     4   9  18  34  55  77 104 138 173 211 257 309
#     4  10  21  37  56  77 102 136 179 223 266 315
#
# _framework density 18.977039999999999
#
# number of rings (size 3 to 8) (size 9 to 14) (size 15 to 20)
#    0.000    2.143    0.000    3.000    0.000    8.857 
#    0.000    0.714    0.000    2.571    0.000    0.000 
#    0.000    0.000    0.000    0.000    0.000    0.000 
#
# Total GULP energy -694227.203528 kJ/mol
# GULP energy per Si atom -12396.914349 kJ/mol
# Density = 1.893385 g / cm^3
# Si number density = 18.977040 Si / 1000 Ang^3
#
#
#
# Elastic Constant Matrix: (Units=GPa)
#
#
# Indices 1 2 3 4 5 6 
#
# 1 83.9608 36.3187 46.7437 0.0000 0.0000 0.0000
# 2 36.3187 60.6664 37.7279 0.0000 0.0000 0.0000
# 3 46.7437 37.7279 123.2603 0.0000 0.0000 0.0000
# 4 0.0000 0.0000 0.0000 19.6906 0.0000 0.0000
# 5 0.0000 0.0000 0.0000 0.0000 22.4065 0.0000
# 6 0.0000 0.0000 0.0000 0.0000 0.0000 21.5820
#
#
#
# Elastic Compliance Matrix: (Units=1/GPa)
#
#
# Indices 1 2 3 4 5 6 
#
# 1 0.017740 -0.007950 -0.004294 0.000000 0.000000 0.000000
# 2 -0.007950 0.023921 -0.004307 0.000000 0.000000 0.000000
# 3 -0.004294 -0.004307 0.011060 0.000000 0.000000 0.000000
# 4 0.000000 0.000000 0.000000 0.050786 0.000000 0.000000
# 5 0.000000 0.000000 0.000000 0.000000 0.044630 0.000000
# 6 0.000000 0.000000 0.000000 0.000000 0.000000 0.046335
#
#
# Mechanical properties :
#
#
# Convention : Reuss Voigt Hill
#
# Bulk Modulus (GPa) = 50.97137 56.60759 53.78948
# Shear Modulus (GPa) = 21.35721 22.54229 21.94975
#
# Velocity S-wave (km/s) = 3.35837 3.45029 3.40464
# Velocity P-wave (km/s) = 6.47735 6.76513 6.62280
#
# Compressibility (1/GPa) = 0.01961885
#
# Stress axis : x y z
#
# Youngs Moduli (GPa) = 56.37048 41.80371 90.41803
#
# Poissons Ratio (x) = 0.33232 0.38827
# Poissons Ratio (y) = 0.44812 0.38945
# Poissons Ratio (z) = 0.24206 0.18006
#
# Static dielectric constant tensor:
#      x y z
#    x 3.421920 0.000000 0.000000 
#    y 0.000000 3.461780 0.000000 
#    z 0.000000 0.000000 3.679360 
# 
# 
# High freq. dielectric constant tensor:
#      x y z
#    x 1.725820 0.000000 0.000000 
#    y 0.000000 1.737780 0.000000 
#    z 0.000000 0.000000 1.734120 
# 
# From -- ./inp_files/33483.got.cif
#   From: 2010.03.12/outbox.cif.g09.slc.cpg/sg51_17_cif.got.tgz:33483.got - 2010.04.16 13:43:02.
