data_PCOD8208064
_publ_section_title
;
Structure prediction by ZEFSAII (Michael W. Deem and Ramdas Pophale) SiO2 
 PCOD8208064
Probable space group: P M M A
;
_chemical_formula_sum "Si O2"
_cell_formula_units_Z 40
_cell_length_a 13.718123
_cell_length_b 8.364491
_cell_length_c 18.777703
_cell_angle_alpha 90.000000
_cell_angle_beta 90.000000
_cell_angle_gamma 90.000000
_cell_volume 2154.649716
_symmetry_space_group_name_H-M "P M M A"
_symmetry_group_IT_number 51
_symmetry_cell_setting 'orthorhombic'
loop_
_space_group_symop_operation_xyz
x,y,z
1/2-x,-y,z
1/2+x,-y,-z
-x,y,-z
-x,-y,-z
1/2+x,y,-z
1/2-x,y,z
x,-y,z
loop_
_atom_site_type_symbol
_atom_site_label
_atom_site_fract_x
_atom_site_fract_y
_atom_site_fract_z
Si Si1 0.143178 0.190284 0.535829
Si Si2 0.952604 0.809770 0.608226
Si Si3 0.360206 0.190261 0.247774
Si Si4 0.953682 0.186757 0.898175
Si Si5 0.139792 0.313267 0.962467
O O1 0.250000 0.258557 0.555938
O O2 0.114552 0.251033 0.456859
O O3 0.063764 0.249341 0.593863
O O4 0.144360 0.000000 0.534737
O O5 0.912870 0.737399 0.682206
O O6 0.949677 0.000000 0.611728
O O7 0.250000 0.256209 0.243732
O O8 0.420204 0.248754 0.179015
O O9 0.359229 0.000000 0.251464
O O10 0.068737 0.220390 0.908110
O O11 0.932564 0.000000 0.907929
O O12 0.891002 0.281005 0.956390
O O13 0.250000 0.252532 0.949900
O O14 0.130792 0.500000 0.947109
#
# Coordination Sequence:
#
# PCOD8208064 Si02
#       5
#     8   8   8   8   8
#     4   8  12  18  29  44  64  96 139 181 213 245
#     4   8  13  20  30  46  69 100 140 179 214 254
#     4   9  16  25  37  55  81 111 141 176 220 265
#     4  10  19  30  47  70  93 116 146 185 225 267
#     4  10  20  34  51  68  88 117 150 183 220 264
#
# _framework density 18.564502999999998
#
# number of rings (size 3 to 8) (size 9 to 14) (size 15 to 20)
#    0.000    3.000    0.000    4.800    0.000    4.800 
#    0.000    1.000    0.000    3.600    0.000    0.000 
#    0.000    0.000    0.000   14.400    0.000   80.000 
#
# Total GULP energy -495783.918853 kJ/mol
# GULP energy per Si atom -12394.597971 kJ/mol
# Density = 1.852225 g / cm^3
# Si number density = 18.564503 Si / 1000 Ang^3
#
#
#
# Elastic Constant Matrix: (Units=GPa)
#
#
# Indices 1 2 3 4 5 6 
#
# 1 182.8067 4.1748 86.3324 0.0000 0.0000 0.0000
# 2 4.1748 13.5311 1.5349 0.0000 0.0000 0.0000
# 3 86.3324 1.5349 147.0835 0.0000 0.0000 0.0000
# 4 0.0000 0.0000 0.0000 -1.4116 0.0000 0.0000
# 5 0.0000 0.0000 0.0000 0.0000 27.0017 0.0000
# 6 0.0000 0.0000 0.0000 0.0000 0.0000 14.1744
#
#
#
# Elastic Compliance Matrix: (Units=1/GPa)
#
#
# Indices 1 2 3 4 5 6 
#
# 1 0.007614 -0.001844 -0.004450 0.000000 0.000000 0.000000
# 2 -0.001844 0.074438 0.000306 0.000000 0.000000 0.000000
# 3 -0.004450 0.000306 0.009408 0.000000 0.000000 0.000000
# 4 0.000000 0.000000 0.000000 -0.708410 0.000000 0.000000
# 5 0.000000 0.000000 0.000000 0.000000 0.037035 0.000000
# 6 0.000000 0.000000 0.000000 0.000000 0.000000 0.070550
#
#
# Mechanical properties :
#
#
# Convention : Reuss Voigt Hill
#
# Bulk Modulus (GPa) = 12.58136 58.61173 35.59655
# Shear Modulus (GPa) = -10.61807 24.71152 7.04672
#
# Velocity S-wave (km/s) = -2.39415 3.65241 1.95040
# Velocity P-wave (km/s) = 0.92239 7.03045 4.92831
#
# Compressibility (1/GPa) = 0.07948267
#
# Stress axis : x y z
#
# Youngs Moduli (GPa) = 131.33973 13.43398 106.29788
#
# Poissons Ratio (x) = 0.02478 0.47300
# Poissons Ratio (y) = 0.24224 -0.03250
# Poissons Ratio (z) = 0.58443 -0.00411
#
# Static dielectric constant tensor:
#      x y z
#    x 3.842590 0.000000 0.000000 
#    y 0.000000 2.829250 0.000000 
#    z 0.000000 0.000000 3.517250 
# 
# 
# High freq. dielectric constant tensor:
#      x y z
#    x 1.733240 0.000000 0.000000 
#    y 0.000000 1.666770 0.000000 
#    z 0.000000 0.000000 1.707950 
# 
# From -- ./inp_files/29255.got.cif
#   From: 2010.03.12/outbox.cif.g09.slc.cpg/sg51_15_cif.got.tgz:29255.got - 2010.04.16 13:43:02.
