data_PCOD8208031
_publ_section_title
;
Structure prediction by ZEFSAII (Michael W. Deem and Ramdas Pophale) SiO2 
 PCOD8208031
Probable space group: P M M A
;
_chemical_formula_sum "Si O2"
_cell_formula_units_Z 64
_cell_length_a 18.811224
_cell_length_b 9.017965
_cell_length_c 19.696247
_cell_angle_alpha 90.000000
_cell_angle_beta 90.000000
_cell_angle_gamma 90.000000
_cell_volume 3341.250850
_symmetry_space_group_name_H-M "P M M A"
_symmetry_group_IT_number 51
_symmetry_cell_setting 'orthorhombic'
loop_
_space_group_symop_operation_xyz
x,y,z
1/2-x,-y,z
1/2+x,-y,-z
-x,y,-z
-x,-y,-z
1/2+x,y,-z
1/2-x,y,z
x,-y,z
loop_
_atom_site_type_symbol
_atom_site_label
_atom_site_fract_x
_atom_site_fract_y
_atom_site_fract_z
Si Si1 0.065175 0.166448 0.092809
Si Si2 0.917819 0.675348 0.414922
Si Si3 0.872531 0.668014 0.180283
Si Si4 0.329317 0.167753 0.695140
Si Si5 0.448624 0.170876 0.362840
Si Si6 0.401374 0.833116 0.947124
Si Si7 0.536005 0.331536 0.778614
Si Si8 0.831648 0.169901 0.531954
O O1 0.081505 0.270178 0.157520
O O2 0.982960 0.168254 0.074228
O O3 0.088807 0.000000 0.111895
O O4 0.107648 0.221134 0.025396
O O5 0.926745 0.500000 0.417673
O O6 0.879282 0.720966 0.345606
O O7 0.871061 0.728473 0.477639
O O8 0.996000 0.747627 0.413442
O O9 0.845223 0.500000 0.185705
O O10 0.826121 0.774600 0.227857
O O11 0.860100 0.722126 0.103010
O O12 0.953594 0.682496 0.203963
O O13 0.250000 0.170966 0.664296
O O14 0.359591 0.000000 0.692483
O O15 0.446181 0.239326 0.288309
O O16 0.370512 0.187764 0.395690
O O17 0.471515 0.000000 0.357159
O O18 0.371325 0.000000 0.939629
O O19 0.558761 0.500000 0.765395
O O20 0.750000 0.221253 0.540271
O O21 0.835792 0.000000 0.506392
#
# Coordination Sequence:
#
# PCOD8208031 Si02
#       8
#     8   8   8   8   8   8   8   8
#     4   8  14  25  42  66  97 135 176 215 260 313
#     4  12  24  38  58  85 113 142 177 221 272 325
#     4  10  19  30  46  70 102 139 176 221 275 322
#     4  11  23  37  54  75 102 142 188 230 273 326
#     4  11  22  37  60  84 109 146 183 221 270 323
#     4   8  14  25  42  64  94 134 176 217 260 312
#     4  10  19  30  47  75 109 140 173 220 271 320
#     4  10  23  43  63  84 110 141 181 224 267 321
#
# _framework density 19.154503999999999
#
# number of rings (size 3 to 8) (size 9 to 14) (size 15 to 20)
#    0.000    2.000    1.250    4.125    0.000    6.750 
#    0.000    2.500    0.000    0.000    0.000    0.875 
#    0.000    3.000    0.000    0.000    0.000    0.000 
#
# Total GULP energy -793494.028824 kJ/mol
# GULP energy per Si atom -12398.344200 kJ/mol
# Density = 1.911091 g / cm^3
# Si number density = 19.154504 Si / 1000 Ang^3
#
#
#
# Elastic Constant Matrix: (Units=GPa)
#
#
# Indices 1 2 3 4 5 6 
#
# 1 61.2918 35.3399 39.2086 0.0000 0.0000 0.0000
# 2 35.3399 136.4599 64.3980 0.0000 0.0000 0.0000
# 3 39.2086 64.3980 114.0559 0.0000 0.0000 0.0000
# 4 0.0000 0.0000 0.0000 27.0210 0.0000 0.0000
# 5 0.0000 0.0000 0.0000 0.0000 11.4206 0.0000
# 6 0.0000 0.0000 0.0000 0.0000 0.0000 9.1360
#
#
#
# Elastic Compliance Matrix: (Units=1/GPa)
#
#
# Indices 1 2 3 4 5 6 
#
# 1 0.021705 -0.002863 -0.005845 0.000000 0.000000 0.000000
# 2 -0.002863 0.010368 -0.004870 0.000000 0.000000 0.000000
# 3 -0.005845 -0.004870 0.013526 0.000000 0.000000 0.000000
# 4 0.000000 0.000000 0.000000 0.037008 0.000000 0.000000
# 5 0.000000 0.000000 0.000000 0.000000 0.087561 0.000000
# 6 0.000000 0.000000 0.000000 0.000000 0.000000 0.109457
#
#
# Mechanical properties :
#
#
# Convention : Reuss Voigt Hill
#
# Bulk Modulus (GPa) = 54.21743 65.52228 59.86985
# Shear Modulus (GPa) = 15.97809 21.03960 18.50885
#
# Velocity S-wave (km/s) = 2.89133 3.31783 3.11190
# Velocity P-wave (km/s) = 6.28595 6.99706 6.65102
#
# Compressibility (1/GPa) = 0.01844425
#
# Stress axis : x y z
#
# Youngs Moduli (GPa) = 46.07199 96.45435 73.92902
#
# Poissons Ratio (x) = 0.27612 0.43213
# Poissons Ratio (y) = 0.13189 0.36001
# Poissons Ratio (z) = 0.26930 0.46970
#
# Static dielectric constant tensor:
#      x y z
#    x 3.169500 0.000000 0.000000 
#    y 0.000000 3.572440 0.000000 
#    z 0.000000 0.000000 3.741960 
# 
# 
# High freq. dielectric constant tensor:
#      x y z
#    x 1.697860 0.000000 0.000000 
#    y 0.000000 1.749060 0.000000 
#    z 0.000000 0.000000 1.755090 
# 
# From -- ./inp_files/34125.got.cif
#   From: 2010.03.12/outbox.cif.g09.slc.cpg/sg51_18_cif.got.tgz:34125.got - 2010.04.16 13:43:02.
