data_PCOD8208530
_publ_section_title
;
Structure prediction by ZEFSAII (Michael W. Deem and Ramdas Pophale) SiO2 
 PCOD8208530
Probable space group: P M M A
;
_chemical_formula_sum "Si O2"
_cell_formula_units_Z 48
_cell_length_a 30.918829
_cell_length_b 9.121126
_cell_length_c 9.645289
_cell_angle_alpha 90.000000
_cell_angle_beta 90.000000
_cell_angle_gamma 90.000000
_cell_volume 2720.111693
_symmetry_space_group_name_H-M "P M M A"
_symmetry_group_IT_number 51
_symmetry_cell_setting 'orthorhombic'
loop_
_space_group_symop_operation_xyz
x,y,z
1/2-x,-y,z
1/2+x,-y,-z
-x,y,-z
-x,-y,-z
1/2+x,y,-z
1/2-x,y,z
x,-y,z
loop_
_atom_site_type_symbol
_atom_site_label
_atom_site_fract_x
_atom_site_fract_y
_atom_site_fract_z
Si Si1 0.427314 0.169225 0.744422
Si Si2 0.862648 0.171137 0.490572
Si Si3 0.635407 0.672464 0.059411
Si Si4 0.483949 0.828961 0.145705
Si Si5 0.611066 0.174614 0.793302
Si Si6 0.200925 0.671831 0.704392
O O1 0.406098 0.207860 0.596788
O O2 0.407457 0.268090 0.865802
O O3 0.478876 0.200542 0.738531
O O4 0.418578 0.000000 0.784840
O O5 0.870237 0.227263 0.646054
O O6 0.821357 0.251844 0.426794
O O7 0.852582 0.000000 0.487014
O O8 0.631077 0.500000 0.036754
O O9 0.676990 0.713687 0.152578
O O10 0.640648 0.751868 0.911524
O O11 0.438093 0.763091 0.194460
O O12 0.476133 0.000000 0.123528
O O13 0.500000 0.759681 0.000000
O O14 0.613246 0.000000 0.806619
O O15 0.250000 0.727683 0.716219
O O16 0.198409 0.500000 0.677346
#
# Coordination Sequence:
#
# PCOD8208530 Si02
#       6
#     8   8   8   8   8   8
#     4   9  16  30  49  69  96 132 171 205 240 281
#     4   9  19  32  50  76 103 131 161 201 249 294
#     4  10  19  31  50  74  97 124 162 204 245 288
#     4   9  15  25  46  71  95 132 175 207 234 276
#     4  10  19  32  48  71 104 135 164 200 243 286
#     4   9  19  37  58  75  93 122 160 200 243 298
#
# _framework density 17.646334
#
# number of rings (size 3 to 8) (size 9 to 14) (size 15 to 20)
#    0.000    2.667    1.667    0.500    0.000    2.333 
#    0.000    5.833    0.000    3.000    0.000    5.833 
#    0.000    0.000    0.000    0.000    0.000    0.000 
#
# Total GULP energy -595083.582010 kJ/mol
# GULP energy per Si atom -12397.574625 kJ/mol
# Density = 1.760617 g / cm^3
# Si number density = 17.646334 Si / 1000 Ang^3
#
#
#
# Elastic Constant Matrix: (Units=GPa)
#
#
# Indices 1 2 3 4 5 6 
#
# 1 128.1250 31.8261 69.5122 0.0000 0.0000 0.0000
# 2 31.8261 35.5564 43.2013 0.0000 0.0000 0.0000
# 3 69.5122 43.2013 152.7903 0.0000 0.0000 0.0000
# 4 0.0000 0.0000 0.0000 22.8507 0.0000 0.0000
# 5 0.0000 0.0000 0.0000 0.0000 20.2132 0.0000
# 6 0.0000 0.0000 0.0000 0.0000 0.0000 19.1123
#
#
#
# Elastic Compliance Matrix: (Units=1/GPa)
#
#
# Indices 1 2 3 4 5 6 
#
# 1 0.011092 -0.005784 -0.003411 0.000000 0.000000 0.000000
# 2 -0.005784 0.045859 -0.010335 0.000000 0.000000 0.000000
# 3 -0.003411 -0.010335 0.011019 0.000000 0.000000 0.000000
# 4 0.000000 0.000000 0.000000 0.043762 0.000000 0.000000
# 5 0.000000 0.000000 0.000000 0.000000 0.049473 0.000000
# 6 0.000000 0.000000 0.000000 0.000000 0.000000 0.052322
#
#
# Mechanical properties :
#
#
# Convention : Reuss Voigt Hill
#
# Bulk Modulus (GPa) = 34.59042 67.28343 50.93692
# Shear Modulus (GPa) = 19.06767 23.89740 21.48254
#
# Velocity S-wave (km/s) = 3.29073 3.68399 3.49290
# Velocity P-wave (km/s) = 5.83808 7.50382 6.72274
#
# Compressibility (1/GPa) = 0.02890974
#
# Stress axis : x y z
#
# Youngs Moduli (GPa) = 90.15335 21.80602 90.75269
#
# Poissons Ratio (x) = 0.12613 0.30955
# Poissons Ratio (y) = 0.52146 0.93793
# Poissons Ratio (z) = 0.30751 0.22537
#
# Static dielectric constant tensor:
#      x y z
#    x 3.325910 0.000000 0.000000 
#    y 0.000000 3.050140 0.000000 
#    z 0.000000 0.000000 3.340970 
# 
# 
# High freq. dielectric constant tensor:
#      x y z
#    x 1.674160 0.000000 0.000000 
#    y 0.000000 1.657650 0.000000 
#    z 0.000000 0.000000 1.679420 
# 
# From -- ./inp_files/12856.got.cif
#   From: 2010.03.12/outbox.cif.g09.slc.cpg/sg51_7_cif.got.tgz:12856.got - 2010.04.16 13:43:02.
