data_PCOD8208766
_publ_section_title
;
Structure prediction by ZEFSAII (Michael W. Deem and Ramdas Pophale) SiO2 
 PCOD8208766
Probable space group: P M M A
;
_chemical_formula_sum "Si O2"
_cell_formula_units_Z 44
_cell_length_a 9.181465
_cell_length_b 10.371279
_cell_length_c 25.201145
_cell_angle_alpha 90.000000
_cell_angle_beta 90.000000
_cell_angle_gamma 90.000000
_cell_volume 2399.742117
_symmetry_space_group_name_H-M "P M M A"
_symmetry_group_IT_number 51
_symmetry_cell_setting 'orthorhombic'
loop_
_space_group_symop_operation_xyz
x,y,z
1/2-x,-y,z
1/2+x,-y,-z
-x,y,-z
-x,-y,-z
1/2+x,y,-z
1/2-x,y,z
x,-y,z
loop_
_atom_site_type_symbol
_atom_site_label
_atom_site_fract_x
_atom_site_fract_y
_atom_site_fract_z
Si Si1 0.412435 0.000000 0.947634
Si Si2 0.920609 0.351869 0.641937
Si Si3 0.409879 0.644984 0.154584
Si Si4 0.920183 0.146265 0.554341
Si Si5 0.420872 0.278842 0.943357
Si Si6 0.087431 0.347219 0.747847
O O1 0.442483 0.134531 0.917713
O O2 0.250000 0.000000 0.968964
O O3 0.500000 0.000000 0.000000
O O4 0.750000 0.337891 0.653344
O O5 0.958791 0.500000 0.625731
O O6 0.972902 0.252490 0.596766
O O7 0.003916 0.308149 0.694615
O O8 0.250000 0.711649 0.147143
O O9 0.382808 0.500000 0.173486
O O10 0.499345 0.634277 0.099674
O O11 0.502317 0.713571 0.201430
O O12 0.750000 0.160793 0.543674
O O13 0.000000 0.179183 0.500000
O O14 0.957603 0.000000 0.573555
O O15 0.250000 0.315556 0.949273
O O16 0.500000 0.295459 0.000000
O O17 0.250000 0.287948 0.746678
O O18 0.097523 0.500000 0.753288
#
# Coordination Sequence:
#
# PCOD8208766 Si02
#       6
#     4   8   8   8   8   8
#     4   8  16  30  48  68  88 114 148 188 231 276
#     4   9  17  30  49  72  97 126 162 205 248 289
#     4  10  20  33  49  70  97 128 160 195 238 289
#     4   9  18  32  49  70  99 135 169 200 239 290
#     4  10  19  32  50  71  95 123 157 197 241 290
#     4   9  17  30  49  72  95 121 156 197 241 287
#
# _framework density 18.335304000000001
#
# number of rings (size 3 to 8) (size 9 to 14) (size 15 to 20)
#    0.000    2.727    0.000    1.636    0.000    5.455 
#    0.000    0.000    2.000    0.000    0.000    0.000 
#    0.000    0.000    0.000    0.000    0.000    0.000 
#
# Total GULP energy -545155.227147 kJ/mol
# GULP energy per Si atom -12389.891526 kJ/mol
# Density = 1.829357 g / cm^3
# Si number density = 18.335304 Si / 1000 Ang^3
#
#
#
# Elastic Constant Matrix: (Units=GPa)
#
#
# Indices 1 2 3 4 5 6 
#
# 1 114.5658 27.7587 72.3323 0.0000 0.0000 0.0000
# 2 27.7587 54.0561 44.8993 0.0000 0.0000 0.0000
# 3 72.3323 44.8993 147.8843 0.0000 0.0000 0.0000
# 4 0.0000 0.0000 0.0000 8.6502 0.0000 0.0000
# 5 0.0000 0.0000 0.0000 0.0000 35.9995 0.0000
# 6 0.0000 0.0000 0.0000 0.0000 0.0000 14.0788
#
#
#
# Elastic Compliance Matrix: (Units=1/GPa)
#
#
# Indices 1 2 3 4 5 6 
#
# 1 0.012762 -0.001830 -0.005686 0.000000 0.000000 0.000000
# 2 -0.001830 0.025000 -0.006695 0.000000 0.000000 0.000000
# 3 -0.005686 -0.006695 0.011576 0.000000 0.000000 0.000000
# 4 0.000000 0.000000 0.000000 0.115604 0.000000 0.000000
# 5 0.000000 0.000000 0.000000 0.000000 0.027778 0.000000
# 6 0.000000 0.000000 0.000000 0.000000 0.000000 0.071029
#
#
# Mechanical properties :
#
#
# Convention : Reuss Voigt Hill
#
# Bulk Modulus (GPa) = 47.81336 67.38744 57.60040
# Shear Modulus (GPa) = 16.71431 23.18011 19.94721
#
# Velocity S-wave (km/s) = 3.02253 3.55946 3.30193
# Velocity P-wave (km/s) = 6.18989 7.32978 6.78382
#
# Compressibility (1/GPa) = 0.02091466
#
# Stress axis : x y z
#
# Youngs Moduli (GPa) = 78.35555 39.99965 86.38498
#
# Poissons Ratio (x) = 0.07322 0.49123
# Poissons Ratio (y) = 0.14343 0.57835
# Poissons Ratio (z) = 0.44557 0.26780
#
# Static dielectric constant tensor:
#      x y z
#    x 3.624670 0.000000 0.000000 
#    y 0.000000 3.354570 0.000000 
#    z 0.000000 0.000000 3.211700 
# 
# 
# High freq. dielectric constant tensor:
#      x y z
#    x 1.725160 0.000000 0.000000 
#    y 0.000000 1.680810 0.000000 
#    z 0.000000 0.000000 1.699600 
# 
# From -- ./inp_files/34544.got.cif
#   From: 2010.03.12/outbox.cif.g09.slc.cpg/sg51_18_cif.got.tgz:34544.got - 2010.04.16 13:43:02.
