data_PCOD8208508
_publ_section_title
;
Structure prediction by ZEFSAII (Michael W. Deem and Ramdas Pophale) SiO2 
 PCOD8208508
Probable space group: P M M A
;
_chemical_formula_sum "Si O2"
_cell_formula_units_Z 64
_cell_length_a 19.048040
_cell_length_b 9.199307
_cell_length_c 21.357281
_cell_angle_alpha 90.000000
_cell_angle_beta 90.000000
_cell_angle_gamma 90.000000
_cell_volume 3742.410031
_symmetry_space_group_name_H-M "P M M A"
_symmetry_group_IT_number 51
_symmetry_cell_setting 'orthorhombic'
loop_
_space_group_symop_operation_xyz
x,y,z
1/2-x,-y,z
1/2+x,-y,-z
-x,y,-z
-x,-y,-z
1/2+x,y,-z
1/2-x,y,z
x,-y,z
loop_
_atom_site_type_symbol
_atom_site_label
_atom_site_fract_x
_atom_site_fract_y
_atom_site_fract_z
Si Si1 0.917964 0.328524 0.854844
Si Si2 0.674515 0.169301 0.612834
Si Si3 0.025473 0.827837 0.431794
Si Si4 0.022169 0.663189 0.684528
Si Si5 0.670184 0.671279 0.973862
Si Si6 0.670294 0.832534 0.097341
Si Si7 0.552430 0.170881 0.195291
Si Si8 0.362893 0.658751 0.273174
O O1 0.936744 0.500000 0.854775
O O2 0.881433 0.276927 0.918718
O O3 0.861486 0.294705 0.799627
O O4 0.988499 0.237312 0.844555
O O5 0.750000 0.207425 0.579967
O O6 0.606916 0.226817 0.574440
O O7 0.678421 0.230285 0.683275
O O8 0.665702 0.000000 0.620673
O O9 0.000000 0.780323 0.500000
O O10 0.975517 0.747815 0.381720
O O11 0.018546 0.000000 0.421393
O O12 0.053601 0.500000 0.676708
O O13 0.064225 0.753176 0.737247
O O14 0.943335 0.653617 0.707260
O O15 0.750000 0.721461 0.959226
O O16 0.666369 0.500000 0.981728
O O17 0.642843 0.741803 0.037994
O O18 0.750000 0.788940 0.114583
O O19 0.623328 0.797402 0.157442
O O20 0.664457 0.000000 0.078251
O O21 0.538621 0.000000 0.205543
O O22 0.328405 0.500000 0.281890
#
# Coordination Sequence:
#
# PCOD8208508 Si02
#       8
#     8   8   8   8   8   8   8   8
#     4   9  18  31  46  67  95 123 152 189 232 277
#     4   9  17  28  42  63  91 119 150 190 227 258
#     4   9  17  30  49  71  95 126 160 188 220 268
#     4   9  17  30  48  70  95 119 146 184 227 269
#     4   9  18  32  48  65  88 122 161 197 235 283
#     4   9  19  35  51  67  89 118 154 197 244 290
#     4  10  19  31  50  72  93 119 152 193 237 281
#     4   8  15  27  42  61  86 117 149 179 216 264
#
# _framework density 17.101279999999999
#
# number of rings (size 3 to 8) (size 9 to 14) (size 15 to 20)
#    0.000    3.000    0.000    1.500    0.000    6.000 
#    0.000    3.750    0.000    2.250    0.000    3.500 
#    0.000    0.000    0.000    0.000    0.000    0.000 
#
# Total GULP energy -793211.078046 kJ/mol
# GULP energy per Si atom -12393.923094 kJ/mol
# Density = 1.706236 g / cm^3
# Si number density = 17.101280 Si / 1000 Ang^3
#
#
#
# Elastic Constant Matrix: (Units=GPa)
#
#
# Indices 1 2 3 4 5 6 
#
# 1 70.7990 32.1555 57.5059 0.0000 0.0000 0.0000
# 2 32.1555 53.1666 50.8464 0.0000 0.0000 0.0000
# 3 57.5059 50.8464 140.3195 0.0000 0.0000 0.0000
# 4 0.0000 0.0000 0.0000 27.9436 0.0000 0.0000
# 5 0.0000 0.0000 0.0000 0.0000 17.1082 0.0000
# 6 0.0000 0.0000 0.0000 0.0000 0.0000 14.2468
#
#
#
# Elastic Compliance Matrix: (Units=1/GPa)
#
#
# Indices 1 2 3 4 5 6 
#
# 1 0.022965 -0.007481 -0.006701 0.000000 0.000000 0.000000
# 2 -0.007481 0.031221 -0.008247 0.000000 0.000000 0.000000
# 3 -0.006701 -0.008247 0.012861 0.000000 0.000000 0.000000
# 4 0.000000 0.000000 0.000000 0.035786 0.000000 0.000000
# 5 0.000000 0.000000 0.000000 0.000000 0.058451 0.000000
# 6 0.000000 0.000000 0.000000 0.000000 0.000000 0.070191
#
#
# Mechanical properties :
#
#
# Convention : Reuss Voigt Hill
#
# Bulk Modulus (GPa) = 45.06787 60.58896 52.82841
# Shear Modulus (GPa) = 17.62241 20.11155 18.86698
#
# Velocity S-wave (km/s) = 3.21358 3.43304 3.32512
# Velocity P-wave (km/s) = 6.33878 7.15687 6.76021
#
# Compressibility (1/GPa) = 0.02218876
#
# Stress axis : x y z
#
# Youngs Moduli (GPa) = 43.54506 32.02997 77.75359
#
# Poissons Ratio (x) = 0.23962 0.52099
# Poissons Ratio (y) = 0.32576 0.64126
# Poissons Ratio (z) = 0.29178 0.26416
#
# Static dielectric constant tensor:
#      x y z
#    x 3.163560 0.000000 0.000000 
#    y 0.000000 3.277170 0.000000 
#    z 0.000000 0.000000 3.288820 
# 
# 
# High freq. dielectric constant tensor:
#      x y z
#    x 1.638480 0.000000 0.000000 
#    y 0.000000 1.659980 0.000000 
#    z 0.000000 0.000000 1.651760 
# 
# From -- ./inp_files/34115.got.cif
#   From: 2010.03.12/outbox.cif.g09.slc.cpg/sg51_18_cif.got.tgz:34115.got - 2010.04.16 13:43:02.
