data_PCOD8208863
_publ_section_title
;
Structure prediction by ZEFSAII (Michael W. Deem and Ramdas Pophale) SiO2 
 PCOD8208863
Probable space group: P M M A
;
_chemical_formula_sum "Si O2"
_cell_formula_units_Z 56
_cell_length_a 17.207666
_cell_length_b 32.188294
_cell_length_c 5.220767
_cell_angle_alpha 90.000000
_cell_angle_beta 90.000000
_cell_angle_gamma 90.000000
_cell_volume 2891.706682
_symmetry_space_group_name_H-M "P M M A"
_symmetry_group_IT_number 51
_symmetry_cell_setting 'orthorhombic'
loop_
_space_group_symop_operation_xyz
x,y,z
1/2-x,-y,z
1/2+x,-y,-z
-x,y,-z
-x,-y,-z
1/2+x,y,-z
1/2-x,y,z
x,-y,z
loop_
_atom_site_type_symbol
_atom_site_label
_atom_site_fract_x
_atom_site_fract_y
_atom_site_fract_z
Si Si1 0.157330 0.811965 0.749849
Si Si2 0.842688 0.905855 0.250175
Si Si3 0.342136 0.377159 0.749896
Si Si4 0.657579 0.671043 0.750091
Si Si5 0.842740 0.235297 0.750153
Si Si6 0.449917 0.452622 0.750022
Si Si7 0.342685 0.046951 0.249826
O O1 0.250000 0.812051 0.749861
O O2 0.125347 0.858908 0.749854
O O3 0.125393 0.788367 0.499785
O O4 0.125389 0.788362 0.999891
O O5 0.750000 0.905807 0.250182
O O6 0.874700 0.929451 0.500182
O O7 0.874699 0.929457 0.000188
O O8 0.250000 0.380853 0.749863
O O9 0.373024 0.352572 0.501466
O O10 0.374557 0.423680 0.749930
O O11 0.373007 0.352568 0.998325
O O12 0.750000 0.672238 0.750028
O O13 0.624598 0.717834 0.750116
O O14 0.750000 0.235587 0.750172
O O15 0.500000 0.442971 0.500000
O O16 0.419950 0.500000 0.750175
O O17 0.500000 0.442932 0.000000
O O18 0.250000 0.046913 0.249826
O O19 0.374619 0.000000 0.249843
#
# Coordination Sequence:
#
# PCOD8208863 Si02
#       7
#     8   8   8   8   8   8   8
#     4   9  15  21  30  43  60  85 114 145 185 240
#     4   9  15  21  27  36  49  66  96 136 177 231
#     4  10  19  32  51  74  98 125 159 197 234 274
#     4   9  17  28  43  65  91 116 144 181 222 266
#     4   9  15  23  34  49  71  97 122 150 193 247
#     4  10  21  37  55  75 101 132 163 196 237 283
#     4   9  15  21  27  33  43  62  90 131 185 238
#
# _framework density 19.365725999999999
#
# number of rings (size 3 to 8) (size 9 to 14) (size 15 to 20)
#    0.000    2.714    0.000    3.000    0.000    8.857 
#    0.000    0.000    0.000    5.143    0.000    0.000 
#    0.000    0.000    0.000    0.000    0.000    0.000 
#
# Total GULP energy -694394.801745 kJ/mol
# GULP energy per Si atom -12399.907174 kJ/mol
# Density = 1.932165 g / cm^3
# Si number density = 19.365726 Si / 1000 Ang^3
#
#
#
# Elastic Constant Matrix: (Units=GPa)
#
#
# Indices 1 2 3 4 5 6 
#
# 1 8.0492 25.9835 16.9915 0.0000 0.0000 0.0000
# 2 25.9835 200.6439 103.2523 0.0000 0.0000 0.0000
# 3 16.9915 103.2523 212.1734 0.0000 0.0000 0.0000
# 4 0.0000 0.0000 0.0000 48.6240 0.0000 0.0000
# 5 0.0000 0.0000 0.0000 0.0000 4.1409 0.0000
# 6 0.0000 0.0000 0.0000 0.0000 0.0000 2.9634
#
#
#
# Elastic Compliance Matrix: (Units=1/GPa)
#
#
# Indices 1 2 3 4 5 6 
#
# 1 0.217301 -0.025595 -0.004946 0.000000 0.000000 0.000000
# 2 -0.025595 0.009664 -0.002653 0.000000 0.000000 0.000000
# 3 -0.004946 -0.002653 0.006400 0.000000 0.000000 0.000000
# 4 0.000000 0.000000 0.000000 0.020566 0.000000 0.000000
# 5 0.000000 0.000000 0.000000 0.000000 0.241493 0.000000
# 6 0.000000 0.000000 0.000000 0.000000 0.000000 0.337445
#
#
# Mechanical properties :
#
#
# Convention : Reuss Voigt Hill
#
# Bulk Modulus (GPa) = 5.98889 79.25789 42.62339
# Shear Modulus (GPa) = 5.23606 29.45496 17.34551
#
# Velocity S-wave (km/s) = 1.64610 3.90421 2.99604
# Velocity P-wave (km/s) = 2.59077 7.83196 5.83317
#
# Compressibility (1/GPa) = 0.16697571
#
# Stress axis : x y z
#
# Youngs Moduli (GPa) = 4.60192 103.47872 156.24140
#
# Poissons Ratio (x) = 2.64855 0.77284
# Poissons Ratio (y) = 0.11779 0.41452
# Poissons Ratio (z) = 0.02276 0.27454
#
# Static dielectric constant tensor:
#      x y z
#    x 2.601690 0.000000 0.000000 
#    y 0.000000 3.746840 0.000000 
#    z 0.000000 0.000000 3.865830 
# 
# 
# High freq. dielectric constant tensor:
#      x y z
#    x 1.664530 0.000000 0.000000 
#    y 0.000000 1.772160 0.000000 
#    z 0.000000 0.000000 1.777590 
# 
# From -- ./inp_files/2673.got.cif
#   From: 2010.03.12/outbox.cif.g09.slc.cpg/sg51_2_cif.got.tgz:2673.got - 2010.04.16 13:43:02.
