data_PCOD8208286
_publ_section_title
;
Structure prediction by ZEFSAII (Michael W. Deem and Ramdas Pophale) SiO2 
 PCOD8208286
Probable space group: P M M A
;
_chemical_formula_sum "Si O2"
_cell_formula_units_Z 64
_cell_length_a 9.103510
_cell_length_b 23.042090
_cell_length_c 17.235384
_cell_angle_alpha 90.000000
_cell_angle_beta 90.000000
_cell_angle_gamma 90.000000
_cell_volume 3615.361310
_symmetry_space_group_name_H-M "P M M A"
_symmetry_group_IT_number 51
_symmetry_cell_setting 'orthorhombic'
loop_
_space_group_symop_operation_xyz
x,y,z
1/2-x,-y,z
1/2+x,-y,-z
-x,y,-z
-x,-y,-z
1/2+x,y,-z
1/2-x,y,z
x,-y,z
loop_
_atom_site_type_symbol
_atom_site_label
_atom_site_fract_x
_atom_site_fract_y
_atom_site_fract_z
Si Si1 0.923982 0.065611 0.743244
Si Si2 0.921162 0.825376 0.216058
Si Si3 0.083763 0.739552 0.319002
Si Si4 0.084703 0.649743 0.179271
Si Si5 0.921426 0.263187 0.078761
Si Si6 0.922869 0.347481 0.420510
Si Si7 0.580063 0.433531 0.282117
Si Si8 0.909822 0.067935 0.570355
O O1 0.750000 0.075652 0.749331
O O2 0.980780 0.077000 0.655198
O O3 0.011099 0.110555 0.798016
O O4 0.962973 0.000000 0.769201
O O5 0.750000 0.829101 0.235294
O O6 0.950397 0.788615 0.138884
O O7 0.003382 0.797658 0.290193
O O8 0.250000 0.754237 0.345208
O O9 0.083960 0.694297 0.249528
O O10 0.993424 0.712733 0.390657
O O11 0.250000 0.637178 0.150375
O O12 0.991036 0.676554 0.108883
O O13 0.011603 0.590224 0.208851
O O14 0.750000 0.273536 0.064370
O O15 0.000000 0.244014 0.000000
O O16 0.750000 0.338351 0.432853
O O17 0.957178 0.399117 0.360572
O O18 0.000000 0.366073 0.500000
O O19 0.750000 0.425916 0.260575
O O20 0.536362 0.500000 0.296248
O O21 0.750000 0.097477 0.568915
O O22 0.000000 0.097333 0.500000
O O23 0.893326 0.000000 0.554330
#
# Coordination Sequence:
#
# PCOD8208286 Si02
#       8
#     8   8   8   8   8   8   8   8
#     4   9  18  32  49  70  98 133 170 205 244 294
#     4  10  20  33  51  76 102 126 157 200 245 292
#     4   9  17  31  50  69  91 123 162 203 249 298
#     4   9  17  30  50  75 100 127 161 201 244 290
#     4  10  20  34  54  80 106 129 156 195 243 295
#     4  10  19  31  47  68  97 132 171 216 262 303
#     4   9  18  32  49  70  99 137 177 213 250 294
#     4   8  14  25  41  61  85 114 150 191 231 269
#
# _framework density 17.702241000000001
#
# number of rings (size 3 to 8) (size 9 to 14) (size 15 to 20)
#    0.000    2.750    0.000    2.625    0.000    6.250 
#    0.000    1.875    0.000    2.250    0.000    0.000 
#    0.000    0.000    0.000    0.000    0.000    0.000 
#
# Total GULP energy -793460.503316 kJ/mol
# GULP energy per Si atom -12397.820364 kJ/mol
# Density = 1.766195 g / cm^3
# Si number density = 17.702241 Si / 1000 Ang^3
#
#
#
# Elastic Constant Matrix: (Units=GPa)
#
#
# Indices 1 2 3 4 5 6 
#
# 1 122.3018 59.6813 54.5032 0.0000 0.0000 0.0000
# 2 59.6813 102.9499 42.3057 0.0000 0.0000 0.0000
# 3 54.5032 42.3057 70.4941 0.0000 0.0000 0.0000
# 4 0.0000 0.0000 0.0000 15.3927 0.0000 0.0000
# 5 0.0000 0.0000 0.0000 0.0000 31.8660 0.0000
# 6 0.0000 0.0000 0.0000 0.0000 0.0000 27.9503
#
#
#
# Elastic Compliance Matrix: (Units=1/GPa)
#
#
# Indices 1 2 3 4 5 6 
#
# 1 0.014128 -0.004913 -0.007975 0.000000 0.000000 0.000000
# 2 -0.004913 0.014602 -0.004964 0.000000 0.000000 0.000000
# 3 -0.007975 -0.004964 0.023331 0.000000 0.000000 0.000000
# 4 0.000000 0.000000 0.000000 0.064966 0.000000 0.000000
# 5 0.000000 0.000000 0.000000 0.000000 0.031381 0.000000
# 6 0.000000 0.000000 0.000000 0.000000 0.000000 0.035778
#
#
# Mechanical properties :
#
#
# Convention : Reuss Voigt Hill
#
# Bulk Modulus (GPa) = 61.13966 67.63624 64.38795
# Shear Modulus (GPa) = 22.18858 24.32549 23.25704
#
# Velocity S-wave (km/s) = 3.54423 3.71097 3.62856
# Velocity P-wave (km/s) = 7.16669 7.52678 7.34894
#
# Compressibility (1/GPa) = 0.01635600
#
# Stress axis : x y z
#
# Youngs Moduli (GPa) = 70.78236 68.48560 42.86234
#
# Poissons Ratio (x) = 0.33647 0.34181
# Poissons Ratio (y) = 0.34775 0.21278
# Poissons Ratio (z) = 0.56446 0.33999
#
# Static dielectric constant tensor:
#      x y z
#    x 3.485800 0.000000 0.000000 
#    y 0.000000 3.170720 0.000000 
#    z 0.000000 0.000000 3.090240 
# 
# 
# High freq. dielectric constant tensor:
#      x y z
#    x 1.694640 0.000000 0.000000 
#    y 0.000000 1.668060 0.000000 
#    z 0.000000 0.000000 1.658900 
# 
# From -- ./inp_files/28568.got.cif
#   From: 2010.03.12/outbox.cif.g09.slc.cpg/sg51_15_cif.got.tgz:28568.got - 2010.04.16 13:43:02.
