data_PCOD8208992
_publ_section_title
;
Structure prediction by ZEFSAII (Michael W. Deem and Ramdas Pophale) SiO2 
 PCOD8208992
Probable space group: P M M A
;
_chemical_formula_sum "Si O2"
_cell_formula_units_Z 60
_cell_length_a 18.922505
_cell_length_b 22.398483
_cell_length_c 7.483185
_cell_angle_alpha 90.000000
_cell_angle_beta 90.000000
_cell_angle_gamma 90.000000
_cell_volume 3171.638757
_symmetry_space_group_name_H-M "P M M A"
_symmetry_group_IT_number 51
_symmetry_cell_setting 'orthorhombic'
loop_
_space_group_symop_operation_xyz
x,y,z
1/2-x,-y,z
1/2+x,-y,-z
-x,y,-z
-x,-y,-z
1/2+x,y,-z
1/2-x,y,z
x,-y,z
loop_
_atom_site_type_symbol
_atom_site_label
_atom_site_fract_x
_atom_site_fract_y
_atom_site_fract_z
Si Si1 0.328355 0.749584 0.339200
Si Si2 0.330363 0.339632 0.622629
Si Si3 0.450763 0.431839 0.670127
Si Si4 0.125507 0.272616 0.961957
Si Si5 0.000000 0.639097 0.000000
Si Si6 0.925548 0.931438 0.420379
Si Si7 0.579797 0.861432 0.060351
Si Si8 0.165141 0.880051 0.283702
O O1 0.250000 0.753823 0.418900
O O2 0.366079 0.699769 0.462461
O O3 0.362681 0.815220 0.353607
O O4 0.323528 0.731916 0.131826
O O5 0.250000 0.359659 0.580945
O O6 0.376295 0.398947 0.642298
O O7 0.330345 0.298500 0.798066
O O8 0.500000 0.426446 0.500000
O O9 0.432391 0.500000 0.715830
O O10 0.494944 0.403010 0.829185
O O11 0.066425 0.318648 0.022920
O O12 0.092375 0.208849 0.910839
O O13 0.904236 0.893239 0.247788
O O14 0.865190 0.926700 0.573105
O O15 0.000000 0.908400 0.500000
O O16 0.931644 0.000000 0.360783
O O17 0.500000 0.873768 0.000000
O O18 0.632583 0.890199 0.913395
O O19 0.250000 0.884621 0.270604
#
# Coordination Sequence:
#
# PCOD8208992 Si02
#       8
#     8   8   8   8   4   8   8   8
#     4   9  18  33  53  78 109 141 172 217 278 336
#     4  10  20  34  54  81 110 144 183 226 279 337
#     4  10  21  36  53  75 106 146 189 232 274 321
#     4  10  19  32  53  83 112 140 176 226 281 336
#     4  10  19  32  52  78 105 138 178 224 274 324
#     4  11  24  40  60  84 115 156 198 242 289 341
#     4  11  21  38  61  91 118 152 195 238 292 355
#     4  10  22  40  61  86 118 152 190 239 294 348
#
# _framework density 18.917666000000001
#
# number of rings (size 3 to 8) (size 9 to 14) (size 15 to 20)
#    0.000    1.867    2.000    2.200    0.000    2.400 
#    0.000    0.667    0.000    0.000    0.000    3.733 
#    0.000    0.000    0.000    0.000    0.000    0.000 
#
# Total GULP energy -743946.727696 kJ/mol
# GULP energy per Si atom -12399.112128 kJ/mol
# Density = 1.887461 g / cm^3
# Si number density = 18.917666 Si / 1000 Ang^3
#
#
#
# Elastic Constant Matrix: (Units=GPa)
#
#
# Indices 1 2 3 4 5 6 
#
# 1 92.7428 30.0448 37.4208 0.0000 0.0000 0.0000
# 2 30.0448 98.1472 60.7366 0.0000 0.0000 0.0000
# 3 37.4208 60.7366 109.3287 0.0000 0.0000 0.0000
# 4 0.0000 0.0000 0.0000 39.6383 0.0000 0.0000
# 5 0.0000 0.0000 0.0000 0.0000 30.6012 0.0000
# 6 0.0000 0.0000 0.0000 0.0000 0.0000 -171.1222
#
#
#
# Elastic Compliance Matrix: (Units=1/GPa)
#
#
# Indices 1 2 3 4 5 6 
#
# 1 0.012722 -0.001828 -0.003339 0.000000 0.000000 0.000000
# 2 -0.001828 0.015789 -0.008146 0.000000 0.000000 0.000000
# 3 -0.003339 -0.008146 0.014815 0.000000 0.000000 0.000000
# 4 0.000000 0.000000 0.000000 0.025228 0.000000 0.000000
# 5 0.000000 0.000000 0.000000 0.000000 0.032678 0.000000
# 6 0.000000 0.000000 0.000000 0.000000 0.000000 -0.005844
#
#
# Mechanical properties :
#
#
# Convention : Reuss Voigt Hill
#
# Bulk Modulus (GPa) = 59.87895 61.84702 60.86298
# Shear Modulus (GPa) = 39.19060 -8.70877 15.24091
#
# Velocity S-wave (km/s) = 4.55647 -2.14791 2.84147
# Velocity P-wave (km/s) = 7.70733 5.15872 6.55802
#
# Compressibility (1/GPa) = 0.01670036
#
# Stress axis : x y z
#
# Youngs Moduli (GPa) = 78.60420 63.33376 67.49977
#
# Poissons Ratio (x) = 0.11580 0.22536
# Poissons Ratio (y) = 0.14371 0.54984
# Poissons Ratio (z) = 0.26244 0.51591
#
# Static dielectric constant tensor:
#      x y z
#    x 3.123000 0.000000 0.000000 
#    y 0.000000 3.490480 0.000000 
#    z 0.000000 0.000000 3.907950 
# 
# 
# High freq. dielectric constant tensor:
#      x y z
#    x 1.728340 0.000000 0.000000 
#    y 0.000000 1.732050 0.000000 
#    z 0.000000 0.000000 1.746730 
# 
# From -- ./inp_files/2658.got.cif
#   From: 2010.03.12/outbox.cif.g09.slc.cpg/sg51_2_cif.got.tgz:2658.got - 2010.04.16 13:43:02.
