data_PCOD8208096
_publ_section_title
;
Structure prediction by ZEFSAII (Michael W. Deem and Ramdas Pophale) SiO2 
 PCOD8208096
Probable space group: P M M A
;
_chemical_formula_sum "Si O2"
_cell_formula_units_Z 64
_cell_length_a 8.981195
_cell_length_b 20.085312
_cell_length_c 19.671502
_cell_angle_alpha 90.000000
_cell_angle_beta 90.000000
_cell_angle_gamma 90.000000
_cell_volume 3548.544286
_symmetry_space_group_name_H-M "P M M A"
_symmetry_group_IT_number 51
_symmetry_cell_setting 'orthorhombic'
loop_
_space_group_symop_operation_xyz
x,y,z
1/2-x,-y,z
1/2+x,-y,-z
-x,y,-z
-x,-y,-z
1/2+x,y,-z
1/2-x,y,z
x,-y,z
loop_
_atom_site_type_symbol
_atom_site_label
_atom_site_fract_x
_atom_site_fract_y
_atom_site_fract_z
Si Si1 0.926382 0.680631 0.662755
Si Si2 0.418616 0.724728 0.066782
Si Si3 0.077695 0.422025 0.569601
Si Si4 0.075606 0.274388 0.796679
Si Si5 0.075124 0.806254 0.427634
Si Si6 0.076858 0.119044 0.798060
Si Si7 0.079400 0.074716 0.334210
Si Si8 0.917334 0.116709 0.933606
O O1 0.750000 0.673363 0.666724
O O2 0.974994 0.744452 0.618646
O O3 0.996837 0.614603 0.631127
O O4 0.991772 0.686236 0.737843
O O5 0.250000 0.697496 0.069629
O O6 0.509469 0.699538 0.132218
O O7 0.419112 0.803993 0.064285
O O8 0.500000 0.695891 0.000000
O O9 0.250000 0.401300 0.565709
O O10 0.057508 0.500000 0.582340
O O11 0.000000 0.399354 0.500000
O O12 0.250000 0.290095 0.794473
O O13 0.042023 0.196558 0.787212
O O14 0.250000 0.806971 0.439422
O O15 0.020291 0.874086 0.391149
O O16 0.000000 0.799572 0.500000
O O17 0.250000 0.105074 0.806300
O O18 0.016423 0.079191 0.733807
O O19 0.998663 0.091188 0.865790
O O20 0.250000 0.092256 0.315721
O O21 0.064443 0.000000 0.363660
O O22 0.750000 0.088928 0.933349
O O23 0.000000 0.087876 0.000000
#
# Coordination Sequence:
#
# PCOD8208096 Si02
#       8
#     8   8   8   8   8   8   8   8
#     4  11  21  34  54  79 108 141 176 217 260 308
#     4   9  16  26  41  64  97 135 172 211 255 306
#     4  10  21  37  56  79 109 144 181 218 257 307
#     4  10  19  30  47  72 102 136 172 214 262 310
#     4  10  22  37  54  77 102 129 165 208 258 310
#     4  10  19  31  49  72  98 128 165 210 257 309
#     4  10  21  38  56  72  95 129 168 211 261 316
#     4   9  16  26  43  67  96 128 163 203 248 302
#
# _framework density 18.035565999999999
#
# number of rings (size 3 to 8) (size 9 to 14) (size 15 to 20)
#    0.000    2.125    1.250    2.625    0.000    7.750 
#    0.000    0.000    0.000    0.375    0.000    0.000 
#    0.000    0.500    0.000    1.875    0.000    2.875 
#
# Total GULP energy -793809.288384 kJ/mol
# GULP energy per Si atom -12403.270131 kJ/mol
# Density = 1.799452 g / cm^3
# Si number density = 18.035566 Si / 1000 Ang^3
#
#
#
# Elastic Constant Matrix: (Units=GPa)
#
#
# Indices 1 2 3 4 5 6 
#
# 1 108.5254 32.0678 59.5921 0.0000 0.0000 0.0000
# 2 32.0678 46.0086 36.8270 0.0000 0.0000 0.0000
# 3 59.5921 36.8270 143.6606 0.0000 0.0000 0.0000
# 4 0.0000 0.0000 0.0000 11.1424 0.0000 0.0000
# 5 0.0000 0.0000 0.0000 0.0000 40.8054 0.0000
# 6 0.0000 0.0000 0.0000 0.0000 0.0000 16.1732
#
#
#
# Elastic Compliance Matrix: (Units=1/GPa)
#
#
# Indices 1 2 3 4 5 6 
#
# 1 0.013141 -0.006034 -0.003904 0.000000 0.000000 0.000000
# 2 -0.006034 0.030117 -0.005217 0.000000 0.000000 0.000000
# 3 -0.003904 -0.005217 0.009918 0.000000 0.000000 0.000000
# 4 0.000000 0.000000 0.000000 0.089748 0.000000 0.000000
# 5 0.000000 0.000000 0.000000 0.000000 0.024507 0.000000
# 6 0.000000 0.000000 0.000000 0.000000 0.000000 0.061831
#
#
# Mechanical properties :
#
#
# Convention : Reuss Voigt Hill
#
# Bulk Modulus (GPa) = 43.73613 61.68539 52.71076
# Shear Modulus (GPa) = 18.71295 24.93804 21.82550
#
# Velocity S-wave (km/s) = 3.22461 3.72252 3.48248
# Velocity P-wave (km/s) = 6.17792 7.26310 6.74238
#
# Compressibility (1/GPa) = 0.02286439
#
# Stress axis : x y z
#
# Youngs Moduli (GPa) = 76.09548 33.20375 100.82823
#
# Poissons Ratio (x) = 0.20036 0.39367
# Poissons Ratio (y) = 0.45918 0.52605
# Poissons Ratio (z) = 0.29710 0.17323
#
# Static dielectric constant tensor:
#      x y z
#    x 3.437530 0.000000 0.000000 
#    y 0.000000 2.984450 0.000000 
#    z 0.000000 0.000000 3.415310 
# 
# 
# High freq. dielectric constant tensor:
#      x y z
#    x 1.711960 0.000000 0.000000 
#    y 0.000000 1.652480 0.000000 
#    z 0.000000 0.000000 1.706910 
# 
# From -- ./inp_files/28323.got.cif
#   From: 2010.03.12/outbox.cif.g09.slc.cpg/sg51_15_cif.got.tgz:28323.got - 2010.04.16 13:43:02.
