data_PCOD8208780
_publ_section_title
;
Structure prediction by ZEFSAII (Michael W. Deem and Ramdas Pophale) SiO2 
 PCOD8208780
Probable space group: P M M A
;
_chemical_formula_sum "Si O2"
_cell_formula_units_Z 48
_cell_length_a 31.089699
_cell_length_b 9.185653
_cell_length_c 9.237895
_cell_angle_alpha 90.000000
_cell_angle_beta 90.000000
_cell_angle_gamma 90.000000
_cell_volume 2638.150543
_symmetry_space_group_name_H-M "P M M A"
_symmetry_group_IT_number 51
_symmetry_cell_setting 'orthorhombic'
loop_
_space_group_symop_operation_xyz
x,y,z
1/2-x,-y,z
1/2+x,-y,-z
-x,y,-z
-x,-y,-z
1/2+x,y,-z
1/2-x,y,z
x,-y,z
loop_
_atom_site_type_symbol
_atom_site_label
_atom_site_fract_x
_atom_site_fract_y
_atom_site_fract_z
Si Si1 0.327374 0.328509 0.169155
Si Si2 0.415460 0.663717 0.839842
Si Si3 0.497510 0.836544 0.827286
Si Si4 0.330913 0.171413 0.869412
Si Si5 0.750000 0.670867 0.627788
Si Si6 0.750000 0.832516 0.327895
Si Si7 0.421952 0.339171 0.183541
O O1 0.324307 0.500000 0.130910
O O2 0.319066 0.238284 0.024238
O O3 0.292215 0.278750 0.285237
O O4 0.374399 0.291781 0.237042
O O5 0.411941 0.500000 0.776710
O O6 0.457160 0.742201 0.771326
O O7 0.373065 0.754896 0.799275
O O8 0.420546 0.658470 0.010988
O O9 0.541586 0.771213 0.760577
O O10 0.492364 0.000000 0.768764
O O11 0.500000 0.834362 0.000000
O O12 0.339165 0.000000 0.887924
O O13 0.291862 0.207395 0.763836
O O14 0.750000 0.500000 0.606095
O O15 0.750000 0.740748 0.472189
O O16 0.750000 0.000000 0.372398
O O17 0.433672 0.500000 0.241525
#
# Coordination Sequence:
#
# PCOD8208780 Si02
#       7
#     8   8   8   8   4   4   8
#     4   9  18  32  50  74 100 126 161 204 245 285
#     4   9  16  26  41  63  92 125 158 194 238 282
#     4   9  15  22  35  59  91 124 157 191 228 277
#     4  10  19  32  50  72  98 129 164 200 240 288
#     4  10  21  36  54  74  96 126 165 204 242 290
#     4  10  23  38  50  70 100 130 161 200 246 292
#     4   8  14  24  38  59  91 125 153 188 235 281
#
# _framework density 18.194564
#
# number of rings (size 3 to 8) (size 9 to 14) (size 15 to 20)
#    0.000    2.833    0.000    3.000    0.000    8.000 
#    0.000    0.000    0.000    0.000    0.000    1.167 
#    0.000    9.333    0.000    0.000    0.000    0.000 
#
# Total GULP energy -595084.574868 kJ/mol
# GULP energy per Si atom -12397.595310 kJ/mol
# Density = 1.815315 g / cm^3
# Si number density = 18.194564 Si / 1000 Ang^3
#
#
#
# Elastic Constant Matrix: (Units=GPa)
#
#
# Indices 1 2 3 4 5 6 
#
# 1 173.5778 82.8569 45.2383 0.0000 0.0000 0.0000
# 2 82.8569 120.4129 38.2620 0.0000 0.0000 0.0000
# 3 45.2383 38.2620 47.0294 0.0000 0.0000 0.0000
# 4 0.0000 0.0000 0.0000 18.9516 0.0000 0.0000
# 5 0.0000 0.0000 0.0000 0.0000 -1.8371 0.0000
# 6 0.0000 0.0000 0.0000 0.0000 0.0000 35.2541
#
#
#
# Elastic Compliance Matrix: (Units=1/GPa)
#
#
# Indices 1 2 3 4 5 6 
#
# 1 0.009407 -0.004852 -0.005101 0.000000 0.000000 0.000000
# 2 -0.004852 0.013703 -0.006481 0.000000 0.000000 0.000000
# 3 -0.005101 -0.006481 0.031443 0.000000 0.000000 0.000000
# 4 0.000000 0.000000 0.000000 0.052766 0.000000 0.000000
# 5 0.000000 0.000000 0.000000 0.000000 -0.544326 0.000000
# 6 0.000000 0.000000 0.000000 0.000000 0.000000 0.028365
#
#
# Mechanical properties :
#
#
# Convention : Reuss Voigt Hill
#
# Bulk Modulus (GPa) = 46.11641 74.85941 60.48791
# Shear Modulus (GPa) = -13.56682 22.11791 4.27555
#
# Velocity S-wave (km/s) = -2.73363 3.49038 1.53460
# Velocity P-wave (km/s) = 3.92908 7.58134 6.03798
#
# Compressibility (1/GPa) = 0.02168425
#
# Stress axis : x y z
#
# Youngs Moduli (GPa) = 106.30896 72.97780 31.80366
#
# Poissons Ratio (x) = 0.35408 0.16223
# Poissons Ratio (y) = 0.51579 0.20613
# Poissons Ratio (z) = 0.54228 0.47298
#
# Static dielectric constant tensor:
#      x y z
#    x 3.780600 0.000000 0.000000 
#    y 0.000000 3.497110 0.000000 
#    z 0.000000 0.000000 2.693520 
# 
# 
# High freq. dielectric constant tensor:
#      x y z
#    x 1.728520 0.000000 0.000000 
#    y 0.000000 1.712790 0.000000 
#    z 0.000000 0.000000 1.633330 
# 
# From -- ./inp_files/12936.got.cif
#   From: 2010.03.12/outbox.cif.g09.slc.cpg/sg51_7_cif.got.tgz:12936.got - 2010.04.16 13:43:02.
