data_PCOD8208572
_publ_section_title
;
Structure prediction by ZEFSAII (Michael W. Deem and Ramdas Pophale) SiO2 
 PCOD8208572
Probable space group: P M M A
;
_chemical_formula_sum "Si O2"
_cell_formula_units_Z 40
_cell_length_a 8.900531
_cell_length_b 24.879272
_cell_length_c 10.120272
_cell_angle_alpha 90.000000
_cell_angle_beta 90.000000
_cell_angle_gamma 90.000000
_cell_volume 2241.020196
_symmetry_space_group_name_H-M "P M M A"
_symmetry_group_IT_number 51
_symmetry_cell_setting 'orthorhombic'
loop_
_space_group_symop_operation_xyz
x,y,z
1/2-x,-y,z
1/2+x,-y,-z
-x,y,-z
-x,-y,-z
1/2+x,y,-z
1/2-x,y,z
x,-y,z
loop_
_atom_site_type_symbol
_atom_site_label
_atom_site_fract_x
_atom_site_fract_y
_atom_site_fract_z
Si Si1 0.574977 0.556700 0.640392
Si Si2 0.074512 0.061832 0.362560
Si Si3 0.428012 0.326561 0.355650
Si Si4 0.923666 0.744696 0.135915
Si Si5 0.576547 0.870860 0.135005
O O1 0.500000 0.554724 0.500000
O O2 0.750000 0.557667 0.613635
O O3 0.532140 0.500000 0.717326
O O4 0.531537 0.613948 0.706761
O O5 0.250000 0.073432 0.373035
O O6 0.000000 0.078242 0.500000
O O7 0.004060 0.098940 0.252365
O O8 0.040525 0.000000 0.327485
O O9 0.500000 0.319436 0.500000
O O10 0.250000 0.317569 0.367056
O O11 0.496678 0.282919 0.258967
O O12 0.750000 0.728113 0.130766
O O13 0.945422 0.807791 0.156863
O O14 0.000000 0.725490 0.000000
O O15 0.750000 0.887333 0.130209
O O16 0.500000 0.889931 0.000000
#
# Coordination Sequence:
#
# PCOD8208572 Si02
#       5
#     8   8   8   8   8
#     4   8  14  25  42  66  96 128 162 202 248 296
#     4  10  21  37  57  81 109 140 172 208 252 300
#     4  10  19  31  50  76 104 134 169 210 254 301
#     4  10  21  37  55  75 101 134 171 211 257 306
#     4  10  21  37  57  79 103 134 172 213 255 301
#
# _framework density 17.849014
#
# number of rings (size 3 to 8) (size 9 to 14) (size 15 to 20)
#    0.000    2.400    0.000    2.400    0.000    5.600 
#    0.000    0.000    0.000    0.600    0.000    0.000 
#    0.000    0.000    0.000    0.000    0.000    0.000 
#
# Total GULP energy -495669.126306 kJ/mol
# GULP energy per Si atom -12391.728158 kJ/mol
# Density = 1.780839 g / cm^3
# Si number density = 17.849014 Si / 1000 Ang^3
#
#
#
# Elastic Constant Matrix: (Units=GPa)
#
#
# Indices 1 2 3 4 5 6 
#
# 1 105.4668 47.4428 64.7189 0.0000 0.0000 0.0000
# 2 47.4428 58.2407 57.1737 0.0000 0.0000 0.0000
# 3 64.7189 57.1737 115.4155 0.0000 0.0000 0.0000
# 4 0.0000 0.0000 0.0000 30.6765 0.0000 0.0000
# 5 0.0000 0.0000 0.0000 0.0000 34.5591 0.0000
# 6 0.0000 0.0000 0.0000 0.0000 0.0000 25.2927
#
#
#
# Elastic Compliance Matrix: (Units=1/GPa)
#
#
# Indices 1 2 3 4 5 6 
#
# 1 0.016322 -0.008392 -0.004995 0.000000 0.000000 0.000000
# 2 -0.008392 0.037739 -0.013989 0.000000 0.000000 0.000000
# 3 -0.004995 -0.013989 0.018395 0.000000 0.000000 0.000000
# 4 0.000000 0.000000 0.000000 0.032598 0.000000 0.000000
# 5 0.000000 0.000000 0.000000 0.000000 0.028936 0.000000
# 6 0.000000 0.000000 0.000000 0.000000 0.000000 0.039537
#
#
# Mechanical properties :
#
#
# Convention : Reuss Voigt Hill
#
# Bulk Modulus (GPa) = 56.48631 68.64376 62.56503
# Shear Modulus (GPa) = 21.35093 25.42483 23.38788
#
# Velocity S-wave (km/s) = 3.46236 3.77827 3.62376
# Velocity P-wave (km/s) = 6.90647 7.58784 7.25516
#
# Compressibility (1/GPa) = 0.01770340
#
# Stress axis : x y z
#
# Youngs Moduli (GPa) = 61.26664 26.49773 54.36190
#
# Poissons Ratio (x) = 0.22237 0.27156
# Poissons Ratio (y) = 0.51416 0.76047
# Poissons Ratio (z) = 0.30605 0.37068
#
# Static dielectric constant tensor:
#      x y z
#    x 3.811290 0.000000 0.000000 
#    y 0.000000 3.766840 0.000000 
#    z 0.000000 0.000000 3.083760 
# 
# 
# High freq. dielectric constant tensor:
#      x y z
#    x 1.709060 0.000000 0.000000 
#    y 0.000000 1.704800 0.000000 
#    z 0.000000 0.000000 1.664350 
# 
# From -- ./inp_files/5210.got.cif
#   From: 2010.03.12/outbox.cif.g09.slc.cpg/sg51_3_cif.got.tgz:5210.got - 2010.04.16 13:43:02.
