data_PCOD8208209
_publ_section_title
;
Structure prediction by ZEFSAII (Michael W. Deem and Ramdas Pophale) SiO2 
 PCOD8208209
Probable space group: P M M A
;
_chemical_formula_sum "Si O2"
_cell_formula_units_Z 56
_cell_length_a 18.104363
_cell_length_b 9.229685
_cell_length_c 20.453337
_cell_angle_alpha 90.000000
_cell_angle_beta 90.000000
_cell_angle_gamma 90.000000
_cell_volume 3417.702862
_symmetry_space_group_name_H-M "P M M A"
_symmetry_group_IT_number 51
_symmetry_cell_setting 'orthorhombic'
loop_
_space_group_symop_operation_xyz
x,y,z
1/2-x,-y,z
1/2+x,-y,-z
-x,y,-z
-x,-y,-z
1/2+x,y,-z
1/2-x,y,z
x,-y,z
loop_
_atom_site_type_symbol
_atom_site_label
_atom_site_fract_x
_atom_site_fract_y
_atom_site_fract_z
Si Si1 0.463962 0.836087 0.929087
Si Si2 0.165324 0.668056 0.982935
Si Si3 0.165527 0.830924 0.501311
Si Si4 0.419820 0.168476 0.371088
Si Si5 0.903979 0.669406 0.877865
Si Si6 0.664558 0.166052 0.759600
Si Si7 0.455982 0.336412 0.567333
O O1 0.383893 0.760367 0.932402
O O2 0.516748 0.749116 0.879593
O O3 0.454454 0.000000 0.903654
O O4 0.500000 0.831775 0.000000
O O5 0.250000 0.713867 0.972795
O O6 0.152346 0.500000 0.967179
O O7 0.142895 0.702222 0.057240
O O8 0.250000 0.781720 0.505105
O O9 0.136095 0.790992 0.429361
O O10 0.121662 0.744931 0.557552
O O11 0.155627 0.000000 0.515502
O O12 0.381736 0.212886 0.303594
O O13 0.495954 0.257349 0.377018
O O14 0.440052 0.000000 0.373426
O O15 0.918545 0.500000 0.868598
O O16 0.856302 0.729077 0.818418
O O17 0.750000 0.186702 0.742093
O O18 0.647887 0.000000 0.779448
O O19 0.500000 0.329609 0.500000
O O20 0.440569 0.500000 0.589925
#
# Coordination Sequence:
#
# PCOD8208209 Si02
#       7
#     8   8   8   8   8   8   8
#     4   9  17  29  45  65  88 115 149 188 228 266
#     4   9  17  29  45  66  92 120 149 183 224 268
#     4   9  16  27  45  67  89 115 148 184 222 265
#     4   9  17  30  46  63  87 120 154 185 218 259
#     4  10  19  31  46  64  90 124 157 185 217 262
#     4  10  20  32  46  66  92 121 153 188 222 256
#     4   9  17  28  42  62  88 116 146 182 224 266
#
# _framework density 16.385275
#
# number of rings (size 3 to 8) (size 9 to 14) (size 15 to 20)
#    0.000    2.714    0.000    2.143    0.000    7.714 
#    0.000    0.000    0.000    2.571    0.000    1.000 
#    0.000    1.143    0.000    0.000    0.000    0.000 
#
# Total GULP energy -694453.889417 kJ/mol
# GULP energy per Si atom -12400.962311 kJ/mol
# Density = 1.634798 g / cm^3
# Si number density = 16.385275 Si / 1000 Ang^3
#
#
#
# Elastic Constant Matrix: (Units=GPa)
#
#
# Indices 1 2 3 4 5 6 
#
# 1 102.9819 47.1445 19.4541 0.0000 0.0000 0.0000
# 2 47.1445 79.8369 22.3973 0.0000 0.0000 0.0000
# 3 19.4541 22.3973 33.8641 0.0000 0.0000 0.0000
# 4 0.0000 0.0000 0.0000 20.4930 0.0000 0.0000
# 5 0.0000 0.0000 0.0000 0.0000 27.0398 0.0000
# 6 0.0000 0.0000 0.0000 0.0000 0.0000 26.4730
#
#
#
# Elastic Compliance Matrix: (Units=1/GPa)
#
#
# Indices 1 2 3 4 5 6 
#
# 1 0.013562 -0.007149 -0.003063 0.000000 0.000000 0.000000
# 2 -0.007149 0.019148 -0.008557 0.000000 0.000000 0.000000
# 3 -0.003063 -0.008557 0.036949 0.000000 0.000000 0.000000
# 4 0.000000 0.000000 0.000000 0.048797 0.000000 0.000000
# 5 0.000000 0.000000 0.000000 0.000000 0.036983 0.000000
# 6 0.000000 0.000000 0.000000 0.000000 0.000000 0.037774
#
#
# Mechanical properties :
#
#
# Convention : Reuss Voigt Hill
#
# Bulk Modulus (GPa) = 31.13263 43.85276 37.49269
# Shear Modulus (GPa) = 20.70763 23.31364 22.01063
#
# Velocity S-wave (km/s) = 3.55885 3.77615 3.66911
# Velocity P-wave (km/s) = 5.99406 6.77008 6.39386
#
# Compressibility (1/GPa) = 0.03212064
#
# Stress axis : x y z
#
# Youngs Moduli (GPa) = 73.73612 52.22519 27.06461
#
# Poissons Ratio (x) = 0.37337 0.08289
# Poissons Ratio (y) = 0.52716 0.23159
# Poissons Ratio (z) = 0.22582 0.44689
#
# Static dielectric constant tensor:
#      x y z
#    x 3.173660 0.000000 0.000000 
#    y 0.000000 3.171770 0.000000 
#    z 0.000000 0.000000 2.761070 
# 
# 
# High freq. dielectric constant tensor:
#      x y z
#    x 1.631790 0.000000 0.000000 
#    y 0.000000 1.636960 0.000000 
#    z 0.000000 0.000000 1.588030 
# 
# From -- ./inp_files/33667.got.cif
#   From: 2010.03.12/outbox.cif.g09.slc.cpg/sg51_17_cif.got.tgz:33667.got - 2010.04.16 13:43:02.
