data_PCOD8208917
_publ_section_title
;
Structure prediction by ZEFSAII (Michael W. Deem and Ramdas Pophale) SiO2 
 PCOD8208917
Probable space group: P M M A
;
_chemical_formula_sum "Si O2"
_cell_formula_units_Z 40
_cell_length_a 18.917592
_cell_length_b 9.086531
_cell_length_c 12.845565
_cell_angle_alpha 90.000000
_cell_angle_beta 90.000000
_cell_angle_gamma 90.000000
_cell_volume 2208.092071
_symmetry_space_group_name_H-M "P M M A"
_symmetry_group_IT_number 51
_symmetry_cell_setting 'orthorhombic'
loop_
_space_group_symop_operation_xyz
x,y,z
1/2-x,-y,z
1/2+x,-y,-z
-x,y,-z
-x,-y,-z
1/2+x,y,-z
1/2-x,y,z
x,-y,z
loop_
_atom_site_type_symbol
_atom_site_label
_atom_site_fract_x
_atom_site_fract_y
_atom_site_fract_z
Si Si1 0.332731 0.329856 0.613080
Si Si2 0.415964 0.334101 0.000197
Si Si3 0.080219 0.171018 0.204381
Si Si4 0.331691 0.830146 0.403323
Si Si5 0.084260 0.827890 0.794382
O O1 0.250000 0.305929 0.632183
O O2 0.354274 0.500000 0.619159
O O3 0.354998 0.268086 0.500769
O O4 0.374090 0.239667 0.698946
O O5 0.386770 0.500000 0.994621
O O6 0.388507 0.258915 0.105929
O O7 0.500000 0.330163 0.000000
O O8 0.387328 0.245205 0.900708
O O9 0.122418 0.223759 0.305736
O O10 0.998143 0.206010 0.222809
O O11 0.092640 0.000000 0.181338
O O12 0.250000 0.805843 0.375026
O O13 0.347419 0.000000 0.430430
O O14 0.099796 0.000000 0.800965
#
# Coordination Sequence:
#
# PCOD8208917 Si02
#       5
#     8   8   8   8   8
#     4  10  21  36  52  71  98 130 164 204 249 296
#     4   9  17  30  49  73 101 132 165 202 247 295
#     4   9  18  32  51  76 102 129 165 207 247 289
#     4   9  18  34  54  73  97 131 167 201 241 291
#     4  10  19  32  52  75 100 130 165 205 247 294
#
# _framework density 18.115186000000001
#
# number of rings (size 3 to 8) (size 9 to 14) (size 15 to 20)
#    0.000    2.600    0.000    1.800    0.000    6.000 
#    0.000    5.000    0.000    3.600    0.000    0.000 
#    0.000    0.000    0.000    0.000    0.000    0.000 
#
# Total GULP energy -496096.846823 kJ/mol
# GULP energy per Si atom -12402.421171 kJ/mol
# Density = 1.807396 g / cm^3
# Si number density = 18.115186 Si / 1000 Ang^3
#
#
#
# Elastic Constant Matrix: (Units=GPa)
#
#
# Indices 1 2 3 4 5 6 
#
# 1 41.6175 41.1271 60.7505 0.0000 0.0000 0.0000
# 2 41.1271 115.3973 88.8264 0.0000 0.0000 0.0000
# 3 60.7505 88.8264 176.6625 0.0000 0.0000 0.0000
# 4 0.0000 0.0000 0.0000 18.9820 0.0000 0.0000
# 5 0.0000 0.0000 0.0000 0.0000 -34.4161 0.0000
# 6 0.0000 0.0000 0.0000 0.0000 0.0000 21.5354
#
#
#
# Elastic Compliance Matrix: (Units=1/GPa)
#
#
# Indices 1 2 3 4 5 6 
#
# 1 0.052236 -0.007814 -0.014034 0.000000 0.000000 0.000000
# 2 -0.007814 0.015306 -0.005009 0.000000 0.000000 0.000000
# 3 -0.014034 -0.005009 0.013005 0.000000 0.000000 0.000000
# 4 0.000000 0.000000 0.000000 0.052681 0.000000 0.000000
# 5 0.000000 0.000000 0.000000 0.000000 -0.029056 0.000000
# 6 0.000000 0.000000 0.000000 0.000000 0.000000 0.046435
#
#
# Mechanical properties :
#
#
# Convention : Reuss Voigt Hill
#
# Bulk Modulus (GPa) = 37.26699 79.45393 58.36046
# Shear Modulus (GPa) = 23.44486 10.75183 17.09835
#
# Velocity S-wave (km/s) = 3.60142 2.43888 3.07558
# Velocity P-wave (km/s) = 6.15715 7.20323 6.70063
#
# Compressibility (1/GPa) = 0.02683340
#
# Stress axis : x y z
#
# Youngs Moduli (GPa) = 19.14378 65.33291 76.89382
#
# Poissons Ratio (x) = 0.51053 1.07912
# Poissons Ratio (y) = 0.14959 0.38515
# Poissons Ratio (z) = 0.26866 0.32724
#
# Static dielectric constant tensor:
#      x y z
#    x 3.110330 0.000000 0.000000 
#    y 0.000000 3.464590 0.000000 
#    z 0.000000 0.000000 3.514200 
# 
# 
# High freq. dielectric constant tensor:
#      x y z
#    x 1.671820 0.000000 0.000000 
#    y 0.000000 1.710250 0.000000 
#    z 0.000000 0.000000 1.715350 
# 
# From -- ./inp_files/17073.got.cif
#   From: 2010.03.12/outbox.cif.g09.slc.cpg/sg51_9_cif.got.tgz:17073.got - 2010.04.16 13:43:02.
