data_PCOD8208164
_publ_section_title
;
Structure prediction by ZEFSAII (Michael W. Deem and Ramdas Pophale) SiO2 
 PCOD8208164
Probable space group: P M M A
;
_chemical_formula_sum "Si O2"
_cell_formula_units_Z 56
_cell_length_a 19.115606
_cell_length_b 9.599893
_cell_length_c 17.751697
_cell_angle_alpha 90.000000
_cell_angle_beta 90.000000
_cell_angle_gamma 90.000000
_cell_volume 3257.574370
_symmetry_space_group_name_H-M "P M M A"
_symmetry_group_IT_number 51
_symmetry_cell_setting 'orthorhombic'
loop_
_space_group_symop_operation_xyz
x,y,z
1/2-x,-y,z
1/2+x,-y,-z
-x,y,-z
-x,-y,-z
1/2+x,y,-z
1/2-x,y,z
x,-y,z
loop_
_atom_site_type_symbol
_atom_site_label
_atom_site_fract_x
_atom_site_fract_y
_atom_site_fract_z
Si Si1 0.668438 0.837682 0.117827
Si Si2 0.666966 0.653943 0.980898
Si Si3 0.569234 0.834682 0.706675
Si Si4 0.671685 0.166068 0.407720
Si Si5 0.411979 0.165114 0.735709
Si Si6 0.429195 0.165330 0.463949
Si Si7 0.668461 0.338069 0.812540
O O1 0.750000 0.806295 0.132494
O O2 0.625200 0.778933 0.188820
O O3 0.655015 0.000000 0.105105
O O4 0.639177 0.761239 0.043419
O O5 0.750000 0.649755 0.981666
O O6 0.637611 0.500000 0.999779
O O7 0.643061 0.699599 0.897318
O O8 0.492452 0.787631 0.734292
O O9 0.580300 0.782214 0.621187
O O10 0.626705 0.759141 0.756211
O O11 0.579231 0.000000 0.714075
O O12 0.750000 0.226928 0.405248
O O13 0.628359 0.226482 0.336901
O O14 0.635912 0.216167 0.485418
O O15 0.672810 0.000000 0.404059
O O16 0.406473 0.000000 0.732727
O O17 0.500000 0.227676 0.500000
O O18 0.435007 0.000000 0.463631
O O19 0.750000 0.304296 0.802213
O O20 0.653580 0.500000 0.795550
#
# Coordination Sequence:
#
# PCOD8208164 Si02
#       7
#     8   8   8   8   8   8   8
#     4   9  16  26  44  70  96 122 157 199 236 276
#     4   8  15  30  50  68  88 119 157 194 237 286
#     4  10  19  30  49  73  98 127 158 195 239 284
#     4   9  15  23  39  63  92 127 163 196 232 277
#     4   9  16  27  41  64  98 130 155 186 236 288
#     4   9  15  26  42  64  96 130 159 193 238 280
#     4   9  19  36  54  70  92 123 158 197 240 287
#
# _framework density 17.190704
#
# number of rings (size 3 to 8) (size 9 to 14) (size 15 to 20)
#    0.000    3.000    1.429    1.286    0.000    3.143 
#    0.000    4.286    0.000    4.714    0.000    0.000 
#    0.000    3.429    0.000    0.000    0.000    0.000 
#
# Total GULP energy -694173.740684 kJ/mol
# GULP energy per Si atom -12395.959655 kJ/mol
# Density = 1.715158 g / cm^3
# Si number density = 17.190704 Si / 1000 Ang^3
#
#
#
# Elastic Constant Matrix: (Units=GPa)
#
#
# Indices 1 2 3 4 5 6 
#
# 1 97.5984 32.5357 70.3286 0.0000 0.0000 0.0000
# 2 32.5357 35.6849 51.2342 0.0000 0.0000 0.0000
# 3 70.3286 51.2342 171.7985 0.0000 0.0000 0.0000
# 4 0.0000 0.0000 0.0000 -0.1109 0.0000 0.0000
# 5 0.0000 0.0000 0.0000 0.0000 31.0457 0.0000
# 6 0.0000 0.0000 0.0000 0.0000 0.0000 12.5511
#
#
#
# Elastic Compliance Matrix: (Units=1/GPa)
#
#
# Indices 1 2 3 4 5 6 
#
# 1 0.016062 -0.009101 -0.003861 0.000000 0.000000 0.000000
# 2 -0.009101 0.054163 -0.012427 0.000000 0.000000 0.000000
# 3 -0.003861 -0.012427 0.011107 0.000000 0.000000 0.000000
# 4 0.000000 0.000000 0.000000 -9.017349 0.000000 0.000000
# 5 0.000000 0.000000 0.000000 0.000000 0.032211 0.000000
# 6 0.000000 0.000000 0.000000 0.000000 0.000000 0.079675
#
#
# Mechanical properties :
#
#
# Convention : Reuss Voigt Hill
#
# Bulk Modulus (GPa) = 32.72891 68.14208 50.43549
# Shear Modulus (GPa) = -0.57057 18.76274 9.09609
#
# Velocity S-wave (km/s) = -0.57674 3.30729 2.30277
# Velocity P-wave (km/s) = 4.31701 7.36948 6.03928
#
# Compressibility (1/GPa) = 0.03055403
#
# Stress axis : x y z
#
# Youngs Moduli (GPa) = 62.25700 18.46291 90.03016
#
# Poissons Ratio (x) = 0.16803 0.34763
# Poissons Ratio (y) = 0.56661 1.11879
# Poissons Ratio (z) = 0.24039 0.22943
#
# Static dielectric constant tensor:
#      x y z
#    x 3.158130 0.000000 0.000000 
#    y 0.000000 2.776890 0.000000 
#    z 0.000000 0.000000 3.502990 
# 
# 
# High freq. dielectric constant tensor:
#      x y z
#    x 1.653880 0.000000 0.000000 
#    y 0.000000 1.608600 0.000000 
#    z 0.000000 0.000000 1.679510 
# 
# From -- ./inp_files/25788.got.cif
#   From: 2010.03.12/outbox.cif.g09.slc.cpg/sg51_13_cif.got.tgz:25788.got - 2010.04.16 13:43:02.
