data_PCOD8208755
_publ_section_title
;
Structure prediction by ZEFSAII (Michael W. Deem and Ramdas Pophale) SiO2 
 PCOD8208755
Probable space group: P M M A
;
_chemical_formula_sum "Si O2"
_cell_formula_units_Z 48
_cell_length_a 9.138543
_cell_length_b 14.512989
_cell_length_c 18.724615
_cell_angle_alpha 90.000000
_cell_angle_beta 90.000000
_cell_angle_gamma 90.000000
_cell_volume 2483.400262
_symmetry_space_group_name_H-M "P M M A"
_symmetry_group_IT_number 51
_symmetry_cell_setting 'orthorhombic'
loop_
_space_group_symop_operation_xyz
x,y,z
1/2-x,-y,z
1/2+x,-y,-z
-x,y,-z
-x,-y,-z
1/2+x,y,-z
1/2-x,y,z
x,-y,z
loop_
_atom_site_type_symbol
_atom_site_label
_atom_site_fract_x
_atom_site_fract_y
_atom_site_fract_z
Si Si1 0.912456 0.636409 0.565566
Si Si2 0.580891 0.894327 0.729857
Si Si3 0.076639 0.740645 0.815970
Si Si4 0.584120 0.853978 0.570249
Si Si5 0.410040 0.401189 0.696932
Si Si6 0.077118 0.395489 0.075789
O O1 0.750000 0.602089 0.555356
O O2 0.927184 0.745255 0.569523
O O3 0.000000 0.594761 0.500000
O O4 0.971346 0.590613 0.636256
O O5 0.750000 0.861009 0.730859
O O6 0.491064 0.838319 0.790747
O O7 0.519578 0.884983 0.647859
O O8 0.566401 0.000000 0.753513
O O9 0.250000 0.750835 0.832767
O O10 0.041007 0.676685 0.749815
O O11 0.994716 0.689242 0.880537
O O12 0.500000 0.894168 0.500000
O O13 0.750000 0.889900 0.563741
O O14 0.250000 0.377394 0.664578
O O15 0.405361 0.500000 0.736979
O O16 0.250000 0.376298 0.068753
O O17 0.051758 0.500000 0.107477
O O18 0.000000 0.390938 0.000000
#
# Coordination Sequence:
#
# PCOD8208755 Si02
#       6
#     8   8   8   8   8   8
#     4  10  19  32  50  70  97 134 179 229 281 337
#     4  10  21  38  58  81 112 150 194 243 295 351
#     4  11  22  37  59  85 118 153 188 233 284 337
#     4   9  18  32  51  75 103 137 182 237 297 354
#     4  10  21  35  51  74 104 140 182 226 275 331
#     4  10  21  38  63  95 129 162 195 229 269 324
#
# _framework density 19.328337999999999
#
# number of rings (size 3 to 8) (size 9 to 14) (size 15 to 20)
#    0.000    2.000    1.667    2.000    0.000    5.000 
#    0.000    0.000    0.000    0.500    0.000    0.000 
#    0.000    0.000    0.000    0.000    0.000    0.000 
#
# Total GULP energy -594707.559242 kJ/mol
# GULP energy per Si atom -12389.740818 kJ/mol
# Density = 1.928435 g / cm^3
# Si number density = 19.328338 Si / 1000 Ang^3
#
#
#
# Elastic Constant Matrix: (Units=GPa)
#
#
# Indices 1 2 3 4 5 6 
#
# 1 99.6312 44.1676 60.2554 0.0000 0.0000 0.0000
# 2 44.1676 85.8792 42.3451 0.0000 0.0000 0.0000
# 3 60.2554 42.3451 86.1804 0.0000 0.0000 0.0000
# 4 0.0000 0.0000 0.0000 10.1483 0.0000 0.0000
# 5 0.0000 0.0000 0.0000 0.0000 35.8770 0.0000
# 6 0.0000 0.0000 0.0000 0.0000 0.0000 22.5134
#
#
#
# Elastic Compliance Matrix: (Units=1/GPa)
#
#
# Indices 1 2 3 4 5 6 
#
# 1 0.018435 -0.004125 -0.010863 0.000000 0.000000 0.000000
# 2 -0.004125 0.016290 -0.005120 0.000000 0.000000 0.000000
# 3 -0.010863 -0.005120 0.021714 0.000000 0.000000 0.000000
# 4 0.000000 0.000000 0.000000 0.098539 0.000000 0.000000
# 5 0.000000 0.000000 0.000000 0.000000 0.027873 0.000000
# 6 0.000000 0.000000 0.000000 0.000000 0.000000 0.044418
#
#
# Mechanical properties :
#
#
# Convention : Reuss Voigt Hill
#
# Bulk Modulus (GPa) = 61.63654 62.80299 62.21976
# Shear Modulus (GPa) = 18.32214 22.03592 20.17903
#
# Velocity S-wave (km/s) = 3.08221 3.38018 3.23462
# Velocity P-wave (km/s) = 6.68020 6.91356 6.79788
#
# Compressibility (1/GPa) = 0.01622414
#
# Stress axis : x y z
#
# Youngs Moduli (GPa) = 54.24384 61.38568 46.05268
#
# Poissons Ratio (x) = 0.25322 0.50025
# Poissons Ratio (y) = 0.22376 0.23580
# Poissons Ratio (z) = 0.58923 0.31430
#
# Static dielectric constant tensor:
#      x y z
#    x 3.850400 0.000000 0.000000 
#    y 0.000000 -10.587180 0.000000 
#    z 0.000000 0.000000 4.119800 
# 
# 
# High freq. dielectric constant tensor:
#      x y z
#    x 1.756170 0.000000 0.000000 
#    y 0.000000 1.753240 0.000000 
#    z 0.000000 0.000000 1.730530 
# 
# From -- ./inp_files/27561.got.cif
#   From: 2010.03.12/outbox.cif.g09.slc.cpg/sg51_14_cif.got.tgz:27561.got - 2010.04.16 13:43:02.
