data_PCOD8208860
_publ_section_title
;
Structure prediction by ZEFSAII (Michael W. Deem and Ramdas Pophale) SiO2 
 PCOD8208860
Probable space group: P M M A
;
_chemical_formula_sum "Si O2"
_cell_formula_units_Z 48
_cell_length_a 17.208122
_cell_length_b 15.473914
_cell_length_c 9.532738
_cell_angle_alpha 90.000000
_cell_angle_beta 90.000000
_cell_angle_gamma 90.000000
_cell_volume 2538.348876
_symmetry_space_group_name_H-M "P M M A"
_symmetry_group_IT_number 51
_symmetry_cell_setting 'orthorhombic'
loop_
_space_group_symop_operation_xyz
x,y,z
1/2-x,-y,z
1/2+x,-y,-z
-x,y,-z
-x,-y,-z
1/2+x,y,-z
1/2-x,y,z
x,-y,z
loop_
_atom_site_type_symbol
_atom_site_label
_atom_site_fract_x
_atom_site_fract_y
_atom_site_fract_z
Si Si1 0.158025 0.344070 0.286587
Si Si2 0.657335 0.655604 0.026066
Si Si3 0.657110 0.500000 0.212509
Si Si4 0.841518 0.148950 0.709068
Si Si5 0.909490 0.000000 0.523957
Si Si6 0.157086 0.500000 0.472162
Si Si7 0.157812 0.153572 0.972207
Si Si8 0.657760 0.000000 0.216728
O O1 0.250000 0.351600 0.282834
O O2 0.135253 0.247001 0.332907
O O3 0.124143 0.414415 0.394981
O O4 0.126448 0.365111 0.130550
O O5 0.750000 0.653842 0.026007
O O6 0.624320 0.584934 0.134023
O O7 0.627411 0.750983 0.070937
O O8 0.750000 0.500000 0.211212
O O9 0.624403 0.500000 0.370058
O O10 0.750000 0.132901 0.690017
O O11 0.887351 0.085633 0.607861
O O12 0.867421 0.130298 0.869161
O O13 0.000000 0.000000 0.500000
O O14 0.865999 0.000000 0.376751
O O15 0.250000 0.500000 0.472613
O O16 0.250000 0.153478 0.966683
O O17 0.123349 0.084245 0.862857
O O18 0.750000 0.000000 0.206239
#
# Coordination Sequence:
#
# PCOD8208860 Si02
#       8
#     8   8   4   8   4   4   8   4
#     4   8  14  24  41  62  86 118 157 192 224 268
#     4   8  13  22  35  55  83 117 151 185 225 269
#     4   9  15  19  27  47  85 127 148 169 221 276
#     4   9  17  33  54  71  90 126 167 200 235 284
#     4  12  25  36  46  68 100 130 157 194 242 294
#     4   9  15  21  31  59  98 129 154 183 220 268
#     4   8  15  28  49  72  90 113 157 205 238 273
#     4  10  19  32  51  74  95 118 149 194 244 286
#
# _framework density 18.909931
#
# number of rings (size 3 to 8) (size 9 to 14) (size 15 to 20)
#    0.000    3.167    0.000    3.750    0.000    4.667 
#    0.000    6.667    0.000    0.000    0.000    0.583 
#    0.000    0.000    0.000   11.500    0.000   10.667 
#
# Total GULP energy -594910.846128 kJ/mol
# GULP energy per Si atom -12393.975961 kJ/mol
# Density = 1.886689 g / cm^3
# Si number density = 18.909931 Si / 1000 Ang^3
#
#
#
# Elastic Constant Matrix: (Units=GPa)
#
#
# Indices 1 2 3 4 5 6 
#
# 1 4.0477 4.0806 -3.0564 0.0000 0.0000 0.0000
# 2 4.0806 171.2191 101.0333 0.0000 0.0000 0.0000
# 3 -3.0564 101.0333 137.7590 0.0000 0.0000 0.0000
# 4 0.0000 0.0000 0.0000 19.1453 0.0000 0.0000
# 5 0.0000 0.0000 0.0000 0.0000 0.0358 0.0000
# 6 0.0000 0.0000 0.0000 0.0000 0.0000 2.8632
#
#
#
# Elastic Compliance Matrix: (Units=1/GPa)
#
#
# Indices 1 2 3 4 5 6 
#
# 1 0.280245 -0.018243 0.019597 0.000000 0.000000 0.000000
# 2 -0.018243 0.011484 -0.008827 0.000000 0.000000 0.000000
# 3 0.019597 -0.008827 0.014168 0.000000 0.000000 0.000000
# 4 0.000000 0.000000 0.000000 0.052232 0.000000 0.000000
# 5 0.000000 0.000000 0.000000 0.000000 27.947570 0.000000
# 6 0.000000 0.000000 0.000000 0.000000 0.000000 0.349265
#
#
# Mechanical properties :
#
#
# Convention : Reuss Voigt Hill
#
# Bulk Modulus (GPa) = 3.43701 57.46009 30.44855
# Shear Modulus (GPa) = 0.17381 18.47339 9.32360
#
# Velocity S-wave (km/s) = 0.30350 3.12895 2.22289
# Velocity P-wave (km/s) = 1.39439 6.59591 4.76709
#
# Compressibility (1/GPa) = 0.29095085
#
# Stress axis : x y z
#
# Youngs Moduli (GPa) = 3.56831 87.07747 70.58271
#
# Poissons Ratio (x) = 1.58855 -1.38322
# Poissons Ratio (y) = 0.06510 0.62305
# Poissons Ratio (z) = -0.06993 0.76865
#
# Static dielectric constant tensor:
#      x y z
#    x 2.631120 0.000000 0.000000 
#    y 0.000000 3.983410 0.000000 
#    z 0.000000 0.000000 3.451250 
# 
# 
# High freq. dielectric constant tensor:
#      x y z
#    x 1.651620 0.000000 0.000000 
#    y 0.000000 1.755030 0.000000 
#    z 0.000000 0.000000 1.737290 
# 
# From -- ./inp_files/9779.got.cif
#   From: 2010.03.12/outbox.cif.g09.slc.cpg/sg51_5_cif.got.tgz:9779.got - 2010.04.16 13:43:02.
