data_PCOD8208025
_publ_section_title
;
Structure prediction by ZEFSAII (Michael W. Deem and Ramdas Pophale) SiO2 
 PCOD8208025
Probable space group: P M M A
;
_chemical_formula_sum "Si O2"
_cell_formula_units_Z 48
_cell_length_a 8.990120
_cell_length_b 16.967029
_cell_length_c 15.947938
_cell_angle_alpha 90.000000
_cell_angle_beta 90.000000
_cell_angle_gamma 90.000000
_cell_volume 2432.628718
_symmetry_space_group_name_H-M "P M M A"
_symmetry_group_IT_number 51
_symmetry_cell_setting 'orthorhombic'
loop_
_space_group_symop_operation_xyz
x,y,z
1/2-x,-y,z
1/2+x,-y,-z
-x,y,-z
-x,-y,-z
1/2+x,y,-z
1/2-x,y,z
x,-y,z
loop_
_atom_site_type_symbol
_atom_site_label
_atom_site_fract_x
_atom_site_fract_y
_atom_site_fract_z
Si Si1 0.575941 0.317434 0.084894
Si Si2 0.928073 0.000000 0.410758
Si Si3 0.075268 0.000000 0.089140
Si Si4 0.426705 0.410528 0.753054
Si Si5 0.072594 0.323598 0.585944
Si Si6 0.079557 0.151304 0.846695
Si Si7 0.422316 0.162618 0.657337
O O1 0.750000 0.334017 0.077525
O O2 0.510526 0.363009 0.166194
O O3 0.543235 0.223929 0.092200
O O4 0.500000 0.349068 0.000000
O O5 0.992488 0.077520 0.364052
O O6 0.000000 0.000000 0.500000
O O7 0.750000 0.000000 0.414775
O O8 0.027947 0.078149 0.138083
O O9 0.250000 0.000000 0.077448
O O10 0.000000 0.000000 0.000000
O O11 0.250000 0.404530 0.753871
O O12 0.483090 0.500000 0.759906
O O13 0.484493 0.375230 0.664802
O O14 0.250000 0.328129 0.578251
O O15 0.013614 0.234127 0.601488
O O16 0.000000 0.355590 0.500000
O O17 0.250000 0.122702 0.857315
O O18 0.050222 0.183784 0.753813
O O19 0.250000 0.156817 0.637090
#
# Coordination Sequence:
#
# PCOD8208025 Si02
#       7
#     8   4   4   8   8   8   8
#     4  10  20  35  58  85 111 144 187 231 278 334
#     4  10  19  30  46  70 100 134 175 221 265 313
#     4  12  25  38  52  78 112 146 185 229 277 329
#     4   9  18  35  58  82 111 148 188 228 274 338
#     4  10  19  34  56  82 111 146 188 230 274 329
#     4  10  19  36  59  79 104 143 190 233 274 325
#     4   9  17  32  54  76 101 140 186 223 266 328
#
# _framework density 19.731741
#
# number of rings (size 3 to 8) (size 9 to 14) (size 15 to 20)
#    0.000    2.167    1.667    2.250    0.000    4.000 
#    0.000    3.333    0.000    1.000    0.000    0.000 
#    0.000    0.000    0.000    0.000    0.000    0.000 
#
# Total GULP energy -595069.779854 kJ/mol
# GULP energy per Si atom -12397.287080 kJ/mol
# Density = 1.968683 g / cm^3
# Si number density = 19.731741 Si / 1000 Ang^3
#
#
#
# Elastic Constant Matrix: (Units=GPa)
#
#
# Indices 1 2 3 4 5 6 
#
# 1 45.8907 31.8967 31.6197 0.0000 0.0000 0.0000
# 2 31.8967 118.5081 62.4628 0.0000 0.0000 0.0000
# 3 31.6197 62.4628 144.8448 0.0000 0.0000 0.0000
# 4 0.0000 0.0000 0.0000 24.8096 0.0000 0.0000
# 5 0.0000 0.0000 0.0000 0.0000 33.1707 0.0000
# 6 0.0000 0.0000 0.0000 0.0000 0.0000 11.4513
#
#
#
# Elastic Compliance Matrix: (Units=1/GPa)
#
#
# Indices 1 2 3 4 5 6 
#
# 1 0.028291 -0.005642 -0.003743 0.000000 0.000000 0.000000
# 2 -0.005642 0.012045 -0.003963 0.000000 0.000000 0.000000
# 3 -0.003743 -0.003963 0.009430 0.000000 0.000000 0.000000
# 4 0.000000 0.000000 0.000000 0.040307 0.000000 0.000000
# 5 0.000000 0.000000 0.000000 0.000000 0.030147 0.000000
# 6 0.000000 0.000000 0.000000 0.000000 0.000000 0.087326
#
#
# Mechanical properties :
#
#
# Convention : Reuss Voigt Hill
#
# Bulk Modulus (GPa) = 43.34379 62.35578 52.84979
# Shear Modulus (GPa) = 20.66687 26.10394 23.38540
#
# Velocity S-wave (km/s) = 3.23985 3.64117 3.44636
# Velocity P-wave (km/s) = 6.00081 7.02480 6.53290
#
# Compressibility (1/GPa) = 0.02307135
#
# Stress axis : x y z
#
# Youngs Moduli (GPa) = 35.34658 83.01865 106.04453
#
# Poissons Ratio (x) = 0.46837 0.39693
# Poissons Ratio (y) = 0.19942 0.42024
# Poissons Ratio (z) = 0.13230 0.32899
#
# Static dielectric constant tensor:
#      x y z
#    x 3.157280 0.000000 0.000000 
#    y 0.000000 -9.523070 0.000000 
#    z 0.000000 0.000000 3.556910 
# 
# 
# High freq. dielectric constant tensor:
#      x y z
#    x 1.716010 0.000000 0.000000 
#    y 0.000000 1.776190 0.000000 
#    z 0.000000 0.000000 1.782950 
# 
# From -- ./inp_files/21134.got.cif
#   From: 2010.03.12/outbox.cif.g09.slc.cpg/sg51_11_cif.got.tgz:21134.got - 2010.04.16 13:43:02.
