data_PCOD8208194
_publ_section_title
;
Structure prediction by ZEFSAII (Michael W. Deem and Ramdas Pophale) SiO2 
 PCOD8208194
Probable space group: P M M A
;
_chemical_formula_sum "Si O2"
_cell_formula_units_Z 64
_cell_length_a 9.377835
_cell_length_b 19.441629
_cell_length_c 19.296263
_cell_angle_alpha 90.000000
_cell_angle_beta 90.000000
_cell_angle_gamma 90.000000
_cell_volume 3518.102174
_symmetry_space_group_name_H-M "P M M A"
_symmetry_group_IT_number 51
_symmetry_cell_setting 'orthorhombic'
loop_
_space_group_symop_operation_xyz
x,y,z
1/2-x,-y,z
1/2+x,-y,-z
-x,y,-z
-x,-y,-z
1/2+x,y,-z
1/2-x,y,z
x,-y,z
loop_
_atom_site_type_symbol
_atom_site_label
_atom_site_fract_x
_atom_site_fract_y
_atom_site_fract_z
Si Si1 0.413206 0.775691 0.651584
Si Si2 0.593474 0.291333 0.062130
Si Si3 0.583882 0.330716 0.568294
Si Si4 0.082502 0.687448 0.782518
Si Si5 0.406864 0.132092 0.939271
Si Si6 0.914306 0.421207 0.699646
Si Si7 0.089766 0.924997 0.687956
Si Si8 0.089367 0.077265 0.177722
O O1 0.250000 0.754474 0.635119
O O2 0.518171 0.740158 0.597189
O O3 0.452163 0.751495 0.730542
O O4 0.434659 0.857866 0.640339
O O5 0.750000 0.326352 0.060098
O O6 0.525457 0.298980 0.139276
O O7 0.611710 0.211715 0.044654
O O8 0.500000 0.325373 0.000000
O O9 0.500000 0.353673 0.500000
O O10 0.750000 0.318632 0.551820
O O11 0.559837 0.391426 0.623128
O O12 0.250000 0.674436 0.784483
O O13 0.007585 0.618584 0.755865
O O14 0.250000 0.097191 0.936184
O O15 0.487335 0.125026 0.866992
O O16 0.500000 0.096593 0.000000
O O17 0.750000 0.413144 0.721106
O O18 0.963518 0.500000 0.699196
O O19 0.250000 0.919504 0.720190
O O20 0.968672 0.922113 0.745120
O O21 0.075797 0.000000 0.649137
O O22 0.250000 0.106885 0.177147
O O23 0.086774 0.000000 0.147676
#
# Coordination Sequence:
#
# PCOD8208194 Si02
#       8
#     8   8   8   8   8   8   8   8
#     4   9  17  31  51  74 101 132 166 206 250 296
#     4   9  18  31  47  69  95 122 156 201 250 297
#     4  10  20  34  53  78 107 138 169 200 237 283
#     4   9  17  30  49  73 100 130 165 204 246 294
#     4  10  19  31  45  60  81 111 148 192 243 298
#     4   9  19  35  53  76 106 136 166 200 238 282
#     4   9  17  30  49  71  94 123 159 200 248 297
#     4  10  20  31  42  59  84 114 150 193 241 294
#
# _framework density 18.191625999999999
#
# number of rings (size 3 to 8) (size 9 to 14) (size 15 to 20)
#    0.000    2.625    0.000    1.875    0.000    5.500 
#    0.000    2.500    0.000    0.750    0.000    0.000 
#    0.000    0.000    0.000    0.000    0.000    0.000 
#
# Total GULP energy -793198.134736 kJ/mol
# GULP energy per Si atom -12393.720855 kJ/mol
# Density = 1.815022 g / cm^3
# Si number density = 18.191626 Si / 1000 Ang^3
#
#
#
# Elastic Constant Matrix: (Units=GPa)
#
#
# Indices 1 2 3 4 5 6 
#
# 1 93.4734 24.0899 29.3926 0.0000 0.0000 0.0000
# 2 24.0899 86.3079 11.9191 0.0000 0.0000 0.0000
# 3 29.3926 11.9191 66.5283 0.0000 0.0000 0.0000
# 4 0.0000 0.0000 0.0000 16.1336 0.0000 0.0000
# 5 0.0000 0.0000 0.0000 0.0000 31.0849 0.0000
# 6 0.0000 0.0000 0.0000 0.0000 0.0000 21.7918
#
#
#
# Elastic Compliance Matrix: (Units=1/GPa)
#
#
# Indices 1 2 3 4 5 6 
#
# 1 0.013110 -0.002932 -0.005267 0.000000 0.000000 0.000000
# 2 -0.002932 0.012536 -0.000951 0.000000 0.000000 0.000000
# 3 -0.005267 -0.000951 0.017528 0.000000 0.000000 0.000000
# 4 0.000000 0.000000 0.000000 0.061983 0.000000 0.000000
# 5 0.000000 0.000000 0.000000 0.000000 0.032170 0.000000
# 6 0.000000 0.000000 0.000000 0.000000 0.000000 0.045889
#
#
# Mechanical properties :
#
#
# Convention : Reuss Voigt Hill
#
# Bulk Modulus (GPa) = 40.19961 41.90142 41.05052
# Shear Modulus (GPa) = 23.83151 25.86258 24.84704
#
# Velocity S-wave (km/s) = 3.62335 3.77460 3.69975
# Velocity P-wave (km/s) = 6.29689 6.48692 6.39261
#
# Compressibility (1/GPa) = 0.02487586
#
# Stress axis : x y z
#
# Youngs Moduli (GPa) = 76.27786 79.77009 57.05021
#
# Poissons Ratio (x) = 0.23387 0.30047
# Poissons Ratio (y) = 0.22364 0.05423
# Poissons Ratio (z) = 0.40174 0.07583
#
# Static dielectric constant tensor:
#      x y z
#    x 3.592790 0.000000 0.000000 
#    y 0.000000 3.241380 0.000000 
#    z 0.000000 0.000000 3.150850 
# 
# 
# High freq. dielectric constant tensor:
#      x y z
#    x 1.713700 0.000000 0.000000 
#    y 0.000000 1.682230 0.000000 
#    z 0.000000 0.000000 1.680950 
# 
# From -- ./inp_files/28404.got.cif
#   From: 2010.03.12/outbox.cif.g09.slc.cpg/sg51_15_cif.got.tgz:28404.got - 2010.04.16 13:43:02.
