data_PCOD8208376
_publ_section_title
;
Structure prediction by ZEFSAII (Michael W. Deem and Ramdas Pophale) SiO2 
 PCOD8208376
Probable space group: P M M A
;
_chemical_formula_sum "Si O2"
_cell_formula_units_Z 44
_cell_length_a 8.860929
_cell_length_b 28.373799
_cell_length_c 9.852925
_cell_angle_alpha 90.000000
_cell_angle_beta 90.000000
_cell_angle_gamma 90.000000
_cell_volume 2477.204850
_symmetry_space_group_name_H-M "P M M A"
_symmetry_group_IT_number 51
_symmetry_cell_setting 'orthorhombic'
loop_
_space_group_symop_operation_xyz
x,y,z
1/2-x,-y,z
1/2+x,-y,-z
-x,y,-z
-x,-y,-z
1/2+x,y,-z
1/2-x,y,z
x,-y,z
loop_
_atom_site_type_symbol
_atom_site_label
_atom_site_fract_x
_atom_site_fract_y
_atom_site_fract_z
Si Si1 0.074655 0.225667 0.354770
Si Si2 0.929345 0.682077 0.351080
Si Si3 0.425846 0.054605 0.860185
Si Si4 0.427847 0.398034 0.852553
Si Si5 0.574652 0.500000 0.143275
Si Si6 0.574446 0.121973 0.646405
O O1 0.250000 0.238692 0.368658
O O2 0.052885 0.174228 0.285888
O O3 0.000000 0.221227 0.500000
O O4 0.988705 0.269059 0.281213
O O5 0.750000 0.682907 0.363167
O O6 0.987986 0.640170 0.254553
O O7 0.000000 0.675187 0.500000
O O8 0.250000 0.065232 0.869280
O O9 0.496812 0.083568 0.738972
O O10 0.460314 0.000000 0.831990
O O11 0.500000 0.071334 0.000000
O O12 0.250000 0.392667 0.872033
O O13 0.470412 0.449916 0.787431
O O14 0.500000 0.389932 0.000000
O O15 0.750000 0.500000 0.116885
O O16 0.500000 0.500000 0.000000
O O17 0.500000 0.119043 0.500000
O O18 0.750000 0.110030 0.630947
#
# Coordination Sequence:
#
# PCOD8208376 Si02
#       6
#     8   8   8   8   4   8
#     4   9  17  30  49  72  97 128 163 199 241 288
#     4  10  19  31  48  71  97 128 162 196 238 288
#     4  10  21  37  56  77 103 136 170 204 247 298
#     4   9  18  31  49  71  94 122 158 198 241 286
#     4   8  14  28  47  66  90 120 154 194 237 284
#     4  10  20  34  54  79 104 131 167 209 250 292
#
# _framework density 17.761955
#
# number of rings (size 3 to 8) (size 9 to 14) (size 15 to 20)
#    0.000    2.545    0.000    3.273    0.000    5.091 
#    0.000    1.364    0.000    2.182    0.000    0.000 
#    0.000    0.000    0.000    0.000    0.000    0.000 
#
# Total GULP energy -545130.818661 kJ/mol
# GULP energy per Si atom -12389.336788 kJ/mol
# Density = 1.772153 g / cm^3
# Si number density = 17.761955 Si / 1000 Ang^3
#
#
#
# Elastic Constant Matrix: (Units=GPa)
#
#
# Indices 1 2 3 4 5 6 
#
# 1 82.0703 59.7554 38.4912 0.0000 0.0000 0.0000
# 2 59.7554 136.9855 68.3923 0.0000 0.0000 0.0000
# 3 38.4912 68.3923 78.3847 0.0000 0.0000 0.0000
# 4 0.0000 0.0000 0.0000 6.3210 0.0000 0.0000
# 5 0.0000 0.0000 0.0000 0.0000 26.5271 0.0000
# 6 0.0000 0.0000 0.0000 0.0000 0.0000 35.6844
#
#
#
# Elastic Compliance Matrix: (Units=1/GPa)
#
#
# Indices 1 2 3 4 5 6 
#
# 1 0.018413 -0.006233 -0.003603 0.000000 0.000000 0.000000
# 2 -0.006233 0.015045 -0.010066 0.000000 0.000000 0.000000
# 3 -0.003603 -0.010066 0.023310 0.000000 0.000000 0.000000
# 4 0.000000 0.000000 0.000000 0.158202 0.000000 0.000000
# 5 0.000000 0.000000 0.000000 0.000000 0.037697 0.000000
# 6 0.000000 0.000000 0.000000 0.000000 0.000000 0.028023
#
#
# Mechanical properties :
#
#
# Convention : Reuss Voigt Hill
#
# Bulk Modulus (GPa) = 58.95292 70.07983 64.51637
# Shear Modulus (GPa) = 15.33043 22.42663 18.87853
#
# Velocity S-wave (km/s) = 2.94105 3.55719 3.26370
# Velocity P-wave (km/s) = 6.69296 7.51080 7.11364
#
# Compressibility (1/GPa) = 0.01696269
#
# Stress axis : x y z
#
# Youngs Moduli (GPa) = 54.30981 66.46902 42.90044
#
# Poissons Ratio (x) = 0.41430 0.15458
# Poissons Ratio (y) = 0.33851 0.43184
# Poissons Ratio (z) = 0.19569 0.66908
#
# Static dielectric constant tensor:
#      x y z
#    x 3.363020 0.000000 0.000000 
#    y 0.000000 4.265170 0.000000 
#    z 0.000000 0.000000 2.965880 
# 
# 
# High freq. dielectric constant tensor:
#      x y z
#    x 1.700840 0.000000 0.000000 
#    y 0.000000 1.711340 0.000000 
#    z 0.000000 0.000000 1.644420 
# 
# From -- ./inp_files/5716.got.cif
#   From: 2010.03.12/outbox.cif.g09.slc.cpg/sg51_3_cif.got.tgz:5716.got - 2010.04.16 13:43:02.
