data_PCOD8208790
_publ_section_title
;
Structure prediction by ZEFSAII (Michael W. Deem and Ramdas Pophale) SiO2 
 PCOD8208790
Probable space group: P M M A
;
_chemical_formula_sum "Si O2"
_cell_formula_units_Z 64
_cell_length_a 24.780651
_cell_length_b 8.848375
_cell_length_c 15.080998
_cell_angle_alpha 90.000000
_cell_angle_beta 90.000000
_cell_angle_gamma 90.000000
_cell_volume 3306.787701
_symmetry_space_group_name_H-M "P M M A"
_symmetry_group_IT_number 51
_symmetry_cell_setting 'orthorhombic'
loop_
_space_group_symop_operation_xyz
x,y,z
1/2-x,-y,z
1/2+x,-y,-z
-x,y,-z
-x,-y,-z
1/2+x,y,-z
1/2-x,y,z
x,-y,z
loop_
_atom_site_type_symbol
_atom_site_label
_atom_site_fract_x
_atom_site_fract_y
_atom_site_fract_z
Si Si1 0.960468 0.833538 0.576409
Si Si2 0.146393 0.168844 0.531027
Si Si3 0.812342 0.324514 0.959872
Si Si4 0.879763 0.680589 0.793065
Si Si5 0.888341 0.679615 0.285867
Si Si6 0.507567 0.673715 0.741997
Si Si7 0.187010 0.825294 0.856775
Si Si8 0.810522 0.327226 0.628409
O O1 0.901571 0.837414 0.538182
O O2 0.967188 0.699342 0.645647
O O3 0.000000 0.786108 0.500000
O O4 0.975526 0.000000 0.616116
O O5 0.130181 0.257323 0.619444
O O6 0.190780 0.249187 0.469287
O O7 0.165074 0.000000 0.558797
O O8 0.750000 0.299116 0.935468
O O9 0.824309 0.500000 0.979428
O O10 0.847771 0.260449 0.878879
O O11 0.829297 0.228929 0.045551
O O12 0.876811 0.500000 0.789532
O O13 0.942908 0.736143 0.803704
O O14 0.851055 0.744073 0.703080
O O15 0.891226 0.500000 0.294232
O O16 0.844828 0.726031 0.213734
O O17 0.947339 0.747051 0.254623
O O18 0.499656 0.500000 0.763340
O O19 0.250000 0.797101 0.839290
O O20 0.171468 0.000000 0.845868
O O21 0.750000 0.313490 0.667265
O O22 0.826961 0.500000 0.612035
#
# Coordination Sequence:
#
# PCOD8208790 Si02
#       8
#     8   8   8   8   8   8   8   8
#     4  10  19  32  50  73 103 142 186 227 268 314
#     4  11  22  35  52  75 107 147 186 226 274 323
#     4   9  17  33  60  88 110 138 179 224 269 320
#     4   9  17  32  55  83 114 145 179 221 269 321
#     4  11  23  37  57  84 110 142 185 229 274 324
#     4  10  20  33  53  81 112 145 182 224 269 317
#     4  10  22  41  63  84 107 137 175 224 280 331
#     4  10  20  34  53  78 110 148 188 230 275 323
#
# _framework density 19.354130999999999
#
# number of rings (size 3 to 8) (size 9 to 14) (size 15 to 20)
#    0.000    2.000    2.500    1.500    0.000    4.250 
#    0.000    1.875    0.000    5.250    0.000    0.000 
#    0.000    0.000    0.000    0.000    0.000    0.000 
#
# Total GULP energy -792949.047292 kJ/mol
# GULP energy per Si atom -12389.828864 kJ/mol
# Density = 1.931008 g / cm^3
# Si number density = 19.354131 Si / 1000 Ang^3
#
#
#
# Elastic Constant Matrix: (Units=GPa)
#
#
# Indices 1 2 3 4 5 6 
#
# 1 85.6735 25.5626 55.5092 0.0000 0.0000 0.0000
# 2 25.5626 50.1073 30.6607 0.0000 0.0000 0.0000
# 3 55.5092 30.6607 105.5309 0.0000 0.0000 0.0000
# 4 0.0000 0.0000 0.0000 13.9997 0.0000 0.0000
# 5 0.0000 0.0000 0.0000 0.0000 24.3599 0.0000
# 6 0.0000 0.0000 0.0000 0.0000 0.0000 16.9198
#
#
#
# Elastic Compliance Matrix: (Units=1/GPa)
#
#
# Indices 1 2 3 4 5 6 
#
# 1 0.018411 -0.004216 -0.008459 0.000000 0.000000 0.000000
# 2 -0.004216 0.025238 -0.005115 0.000000 0.000000 0.000000
# 3 -0.008459 -0.005115 0.015411 0.000000 0.000000 0.000000
# 4 0.000000 0.000000 0.000000 0.071430 0.000000 0.000000
# 5 0.000000 0.000000 0.000000 0.000000 0.041051 0.000000
# 6 0.000000 0.000000 0.000000 0.000000 0.000000 0.059102
#
#
# Mechanical properties :
#
#
# Convention : Reuss Voigt Hill
#
# Bulk Modulus (GPa) = 42.58977 51.64186 47.11582
# Shear Modulus (GPa) = 18.24476 19.69449 18.96963
#
# Velocity S-wave (km/s) = 3.07364 3.19342 3.13410
# Velocity P-wave (km/s) = 5.88640 6.35120 6.12321
#
# Compressibility (1/GPa) = 0.02347982
#
# Stress axis : x y z
#
# Youngs Moduli (GPa) = 54.31500 39.62290 64.88672
#
# Poissons Ratio (x) = 0.16706 0.54889
# Poissons Ratio (y) = 0.22901 0.33188
# Poissons Ratio (z) = 0.45946 0.20266
#
# Static dielectric constant tensor:
#      x y z
#    x 3.806510 0.000000 0.000000 
#    y 0.000000 3.517260 0.000000 
#    z 0.000000 0.000000 3.444480 
# 
# 
# High freq. dielectric constant tensor:
#      x y z
#    x 1.763680 0.000000 0.000000 
#    y 0.000000 1.733590 0.000000 
#    z 0.000000 0.000000 1.738900 
# 
# From -- ./inp_files/26364.got.cif
#   From: 2010.03.12/outbox.cif.g09.slc.cpg/sg51_14_cif.got.tgz:26364.got - 2010.04.16 13:43:02.
