data_PCOD8208490
_publ_section_title
;
Structure prediction by ZEFSAII (Michael W. Deem and Ramdas Pophale) SiO2 
 PCOD8208490
Probable space group: P M M A
;
_chemical_formula_sum "Si O2"
_cell_formula_units_Z 28
_cell_length_a 8.827483
_cell_length_b 18.406179
_cell_length_c 9.090299
_cell_angle_alpha 90.000000
_cell_angle_beta 90.000000
_cell_angle_gamma 90.000000
_cell_volume 1476.993892
_symmetry_space_group_name_H-M "P M M A"
_symmetry_group_IT_number 51
_symmetry_cell_setting 'orthorhombic'
loop_
_space_group_symop_operation_xyz
x,y,z
1/2-x,-y,z
1/2+x,-y,-z
-x,y,-z
-x,-y,-z
1/2+x,y,-z
1/2-x,y,z
x,-y,z
loop_
_atom_site_type_symbol
_atom_site_label
_atom_site_fract_x
_atom_site_fract_y
_atom_site_fract_z
Si Si1 0.428761 0.861053 0.341014
Si Si2 0.070813 0.000000 0.159444
Si Si3 0.929367 0.721134 0.839032
Si Si4 0.927389 0.421254 0.159578
O O1 0.500000 0.865405 0.500000
O O2 0.250000 0.863031 0.358405
O O3 0.483298 0.787795 0.261054
O O4 0.486856 0.929165 0.246170
O O5 0.250000 0.000000 0.142579
O O6 0.000000 0.000000 0.000000
O O7 0.750000 0.717546 0.853317
O O8 0.991567 0.646974 0.760317
O O9 0.000000 0.731028 0.000000
O O10 0.750000 0.404983 0.145487
O O11 0.954804 0.500000 0.238904
O O12 0.000000 0.425635 0.000000
#
# Coordination Sequence:
#
# PCOD8208490 Si02
#       4
#     8   4   8   8
#     4  10  22  37  54  77 105 137 173 210 251 302
#     4  10  21  38  58  82 108 134 169 210 252 300
#     4  10  19  31  49  75 103 133 171 212 255 303
#     4   9  16  26  43  69  99 131 167 208 255 303
#
# _framework density 18.957426000000002
#
# number of rings (size 3 to 8) (size 9 to 14) (size 15 to 20)
#    0.000    2.286    0.000    4.714    0.000    5.143 
#    0.000    0.000    0.000    0.857    0.000    0.000 
#    0.000    0.000    0.000    0.000    0.000    0.000 
#
# Total GULP energy -347039.835680 kJ/mol
# GULP energy per Si atom -12394.279846 kJ/mol
# Density = 1.891428 g / cm^3
# Si number density = 18.957426 Si / 1000 Ang^3
#
#
#
# Elastic Constant Matrix: (Units=GPa)
#
#
# Indices 1 2 3 4 5 6 
#
# 1 67.5648 56.2333 34.1381 0.0000 0.0000 0.0000
# 2 56.2333 224.5930 82.0716 0.0000 0.0000 0.0000
# 3 34.1381 82.0716 107.1163 0.0000 0.0000 0.0000
# 4 0.0000 0.0000 0.0000 5.9933 0.0000 0.0000
# 5 0.0000 0.0000 0.0000 0.0000 27.7332 0.0000
# 6 0.0000 0.0000 0.0000 0.0000 0.0000 29.8621
#
#
#
# Elastic Compliance Matrix: (Units=1/GPa)
#
#
# Indices 1 2 3 4 5 6 
#
# 1 0.019573 -0.003640 -0.003449 0.000000 0.000000 0.000000
# 2 -0.003640 0.006861 -0.004097 0.000000 0.000000 0.000000
# 3 -0.003449 -0.004097 0.013574 0.000000 0.000000 0.000000
# 4 0.000000 0.000000 0.000000 0.166854 0.000000 0.000000
# 5 0.000000 0.000000 0.000000 0.000000 0.036058 0.000000
# 6 0.000000 0.000000 0.000000 0.000000 0.000000 0.033487
#
#
# Mechanical properties :
#
#
# Convention : Reuss Voigt Hill
#
# Bulk Modulus (GPa) = 56.70197 82.68447 69.69322
# Shear Modulus (GPa) = 16.41193 27.83979 22.12586
#
# Velocity S-wave (km/s) = 2.94551 3.83631 3.42004
# Velocity P-wave (km/s) = 6.44540 7.95824 7.24144
#
# Compressibility (1/GPa) = 0.01763607
#
# Stress axis : x y z
#
# Youngs Moduli (GPa) = 51.09084 145.75159 73.67277
#
# Poissons Ratio (x) = 0.53060 0.25407
# Poissons Ratio (y) = 0.18599 0.30181
# Poissons Ratio (z) = 0.17619 0.59709
#
# Static dielectric constant tensor:
#      x y z
#    x 3.452530 0.000000 0.000000 
#    y 0.000000 4.703150 0.000000 
#    z 0.000000 0.000000 3.061520 
# 
# 
# High freq. dielectric constant tensor:
#      x y z
#    x 1.740580 0.000000 0.000000 
#    y 0.000000 1.771650 0.000000 
#    z 0.000000 0.000000 1.691260 
# 
# From -- ./inp_files/4663.got.cif
#   From: 2010.03.12/outbox.cif.g09.slc.cpg/sg51_3_cif.got.tgz:4663.got - 2010.04.16 13:43:02.
