data_PCOD8208845
_publ_section_title
;
Structure prediction by ZEFSAII (Michael W. Deem and Ramdas Pophale) SiO2 
 PCOD8208845
Probable space group: P M M A
;
_chemical_formula_sum "Si O2"
_cell_formula_units_Z 40
_cell_length_a 26.274549
_cell_length_b 8.770652
_cell_length_c 9.325415
_cell_angle_alpha 90.000000
_cell_angle_beta 90.000000
_cell_angle_gamma 90.000000
_cell_volume 2148.994567
_symmetry_space_group_name_H-M "P M M A"
_symmetry_group_IT_number 51
_symmetry_cell_setting 'orthorhombic'
loop_
_space_group_symop_operation_xyz
x,y,z
1/2-x,-y,z
1/2+x,-y,-z
-x,y,-z
-x,-y,-z
1/2+x,y,-z
1/2-x,y,z
x,-y,z
loop_
_atom_site_type_symbol
_atom_site_label
_atom_site_fract_x
_atom_site_fract_y
_atom_site_fract_z
Si Si1 0.140219 0.681569 0.087695
Si Si2 0.250000 0.675410 0.083188
Si Si3 0.639045 0.823963 0.602174
Si Si4 0.450607 0.819305 0.913187
Si Si5 0.750000 0.172635 0.625801
Si Si6 0.547785 0.181237 0.410712
O O1 0.138602 0.500000 0.089291
O O2 0.195757 0.742861 0.028588
O O3 0.130362 0.737855 0.248799
O O4 0.099052 0.745935 0.980425
O O5 0.250000 0.500000 0.045435
O O6 0.250000 0.699449 0.253435
O O7 0.696925 0.804321 0.538903
O O8 0.599947 0.759319 0.483933
O O9 0.626496 0.000000 0.633167
O O10 0.455464 0.757173 0.751250
O O11 0.444846 0.000000 0.919355
O O12 0.500000 0.764142 0.000000
O O13 0.750000 0.000000 0.691151
O O14 0.500000 0.246321 0.500000
O O15 0.546136 0.000000 0.407979
#
# Coordination Sequence:
#
# PCOD8208845 Si02
#       6
#     8   4   8   8   4   8
#     4  10  19  32  51  74 100 129 163 200 239 284
#     4   8  16  30  47  68  96 130 162 194 233 280
#     4   9  16  29  49  71  95 122 156 196 238 284
#     4  10  20  34  52  73  98 129 164 201 243 290
#     4   8  14  24  43  70  94 118 150 192 237 280
#     4   9  17  30  49  71  93 121 158 198 240 287
#
# _framework density 18.613356
#
# number of rings (size 3 to 8) (size 9 to 14) (size 15 to 20)
#    0.000    2.800    0.000    1.800    0.000    4.400 
#    0.000    2.000    0.000    4.800    0.000    4.200 
#    0.000    0.000    0.000    0.000    0.000    0.000 
#
# Total GULP energy -495548.763032 kJ/mol
# GULP energy per Si atom -12388.719076 kJ/mol
# Density = 1.857099 g / cm^3
# Si number density = 18.613356 Si / 1000 Ang^3
#
#
#
# Elastic Constant Matrix: (Units=GPa)
#
#
# Indices 1 2 3 4 5 6 
#
# 1 209.0001 27.5722 101.6763 0.0000 0.0000 0.0000
# 2 27.5722 18.5270 20.1019 0.0000 0.0000 0.0000
# 3 101.6763 20.1019 134.6741 0.0000 0.0000 0.0000
# 4 0.0000 0.0000 0.0000 5.7782 0.0000 0.0000
# 5 0.0000 0.0000 0.0000 0.0000 33.8909 0.0000
# 6 0.0000 0.0000 0.0000 0.0000 0.0000 19.2501
#
#
#
# Elastic Compliance Matrix: (Units=1/GPa)
#
#
# Indices 1 2 3 4 5 6 
#
# 1 0.008174 -0.006526 -0.005197 0.000000 0.000000 0.000000
# 2 -0.006526 0.069615 -0.005464 0.000000 0.000000 0.000000
# 3 -0.005197 -0.005464 0.012165 0.000000 0.000000 0.000000
# 4 0.000000 0.000000 0.000000 0.173065 0.000000 0.000000
# 5 0.000000 0.000000 0.000000 0.000000 0.029506 0.000000
# 6 0.000000 0.000000 0.000000 0.000000 0.000000 0.051948
#
#
# Mechanical properties :
#
#
# Convention : Reuss Voigt Hill
#
# Bulk Modulus (GPa) = 17.99210 73.43356 45.71283
# Shear Modulus (GPa) = 12.58261 25.97389 19.27825
#
# Velocity S-wave (km/s) = 2.60282 3.73962 3.22175
# Velocity P-wave (km/s) = 4.32667 7.62785 6.20097
#
# Compressibility (1/GPa) = 0.05557995
#
# Stress axis : x y z
#
# Youngs Moduli (GPa) = 122.34037 14.36462 82.20530
#
# Poissons Ratio (x) = 0.09374 0.42723
# Poissons Ratio (y) = 0.79835 0.44919
# Poissons Ratio (z) = 0.63582 0.07849
#
# Static dielectric constant tensor:
#      x y z
#    x 4.049590 0.000000 0.000000 
#    y 0.000000 3.133410 0.000000 
#    z 0.000000 0.000000 3.258920 
# 
# 
# High freq. dielectric constant tensor:
#      x y z
#    x 1.754020 0.000000 0.000000 
#    y 0.000000 1.691560 0.000000 
#    z 0.000000 0.000000 1.688280 
# 
# From -- ./inp_files/12156.got.cif
#   From: 2010.03.12/outbox.cif.g09.slc.cpg/sg51_7_cif.got.tgz:12156.got - 2010.04.16 13:43:02.
