data_PCOD8208981
_publ_section_title
;
Structure prediction by ZEFSAII (Michael W. Deem and Ramdas Pophale) SiO2 
 PCOD8208981
Probable space group: P M M A
;
_chemical_formula_sum "Si O2"
_cell_formula_units_Z 64
_cell_length_a 23.914191
_cell_length_b 9.437410
_cell_length_c 14.878848
_cell_angle_alpha 90.000000
_cell_angle_beta 90.000000
_cell_angle_gamma 90.000000
_cell_volume 3357.977824
_symmetry_space_group_name_H-M "P M M A"
_symmetry_group_IT_number 51
_symmetry_cell_setting 'orthorhombic'
loop_
_space_group_symop_operation_xyz
x,y,z
1/2-x,-y,z
1/2+x,-y,-z
-x,y,-z
-x,-y,-z
1/2+x,y,-z
1/2-x,y,z
x,-y,z
loop_
_atom_site_type_symbol
_atom_site_label
_atom_site_fract_x
_atom_site_fract_y
_atom_site_fract_z
Si Si1 0.350165 0.837749 0.038318
Si Si2 0.000213 0.663485 0.266849
Si Si3 0.685972 0.668426 0.483772
Si Si4 0.125066 0.335291 0.695900
Si Si5 0.186435 0.167792 0.846866
Si Si6 0.114974 0.665971 0.348636
Si Si7 0.188921 0.159663 0.225033
Si Si8 0.530835 0.834072 0.907389
O O1 0.305020 0.820972 0.117475
O O2 0.407399 0.770751 0.076331
O O3 0.363274 0.000000 0.015148
O O4 0.327173 0.770307 0.946277
O O5 0.006710 0.500000 0.238375
O O6 0.049065 0.703876 0.339109
O O7 0.002350 0.754347 0.175937
O O8 0.941293 0.689624 0.317037
O O9 0.750000 0.726049 0.492908
O O10 0.686534 0.500000 0.486874
O O11 0.658442 0.720989 0.391072
O O12 0.645310 0.728814 0.562431
O O13 0.138367 0.500000 0.713303
O O14 0.144831 0.245016 0.780066
O O15 0.250000 0.207326 0.822719
O O16 0.177038 0.000000 0.840567
O O17 0.124925 0.500000 0.346567
O O18 0.144513 0.730887 0.262087
O O19 0.250000 0.188513 0.267138
O O20 0.168672 0.000000 0.247316
O O21 0.530560 0.000000 0.882716
O O22 0.500000 0.802477 0.000000
#
# Coordination Sequence:
#
# PCOD8208981 Si02
#       8
#     8   8   8   8   8   8   8   8
#     4   9  17  31  50  75 105 138 175 213 260 316
#     4  10  21  35  52  79 111 142 177 222 271 315
#     4   9  18  34  57  81 104 137 180 223 269 324
#     4  10  21  37  56  78 107 143 181 221 270 325
#     4  10  20  35  56  81 108 139 179 227 273 317
#     4  10  20  35  55  79 108 140 177 219 266 317
#     4  10  19  32  52  77 105 139 176 215 263 318
#     4  10  19  32  53  77 103 142 187 222 255 310
#
# _framework density 19.059087999999999
#
# number of rings (size 3 to 8) (size 9 to 14) (size 15 to 20)
#    0.000    2.250    1.250    1.875    0.000    5.250 
#    0.000    4.375    0.000    3.750    0.000    2.625 
#    0.000    0.000    0.000    0.000    0.000    0.000 
#
# Total GULP energy -793293.283957 kJ/mol
# GULP energy per Si atom -12395.207562 kJ/mol
# Density = 1.901571 g / cm^3
# Si number density = 19.059088 Si / 1000 Ang^3
#
#
#
# Elastic Constant Matrix: (Units=GPa)
#
#
# Indices 1 2 3 4 5 6 
#
# 1 129.6477 28.3746 53.4014 0.0000 0.0000 0.0000
# 2 28.3746 25.4411 26.8759 0.0000 0.0000 0.0000
# 3 53.4014 26.8759 107.7570 0.0000 0.0000 0.0000
# 4 0.0000 0.0000 0.0000 16.9339 0.0000 0.0000
# 5 0.0000 0.0000 0.0000 0.0000 36.9818 0.0000
# 6 0.0000 0.0000 0.0000 0.0000 0.0000 22.7141
#
#
#
# Elastic Compliance Matrix: (Units=1/GPa)
#
#
# Indices 1 2 3 4 5 6 
#
# 1 0.010979 -0.008821 -0.003241 0.000000 0.000000 0.000000
# 2 -0.008821 0.060456 -0.010707 0.000000 0.000000 0.000000
# 3 -0.003241 -0.010707 0.013556 0.000000 0.000000 0.000000
# 4 0.000000 0.000000 0.000000 0.059053 0.000000 0.000000
# 5 0.000000 0.000000 0.000000 0.000000 0.027040 0.000000
# 6 0.000000 0.000000 0.000000 0.000000 0.000000 0.044026
#
#
# Mechanical properties :
#
#
# Convention : Reuss Voigt Hill
#
# Bulk Modulus (GPa) = 25.34630 53.34995 39.34813
# Shear Modulus (GPa) = 18.26165 25.60556 21.93360
#
# Velocity S-wave (km/s) = 3.09877 3.66933 3.39606
# Velocity P-wave (km/s) = 5.11184 6.78267 6.00564
#
# Compressibility (1/GPa) = 0.03945349
#
# Stress axis : x y z
#
# Youngs Moduli (GPa) = 91.08631 16.54108 73.76545
#
# Poissons Ratio (x) = 0.14591 0.23904
# Poissons Ratio (y) = 0.80349 0.78979
# Poissons Ratio (z) = 0.29517 0.17710
#
# Static dielectric constant tensor:
#      x y z
#    x 3.804380 0.000000 0.000000 
#    y 0.000000 3.135590 0.000000 
#    z 0.000000 0.000000 3.504650 
# 
# 
# High freq. dielectric constant tensor:
#      x y z
#    x 1.759690 0.000000 0.000000 
#    y 0.000000 1.700680 0.000000 
#    z 0.000000 0.000000 1.740040 
# 
# From -- ./inp_files/26308.got.cif
#   From: 2010.03.12/outbox.cif.g09.slc.cpg/sg51_14_cif.got.tgz:26308.got - 2010.04.16 13:43:02.
