data_PCOD8208548
_publ_section_title
;
Structure prediction by ZEFSAII (Michael W. Deem and Ramdas Pophale) SiO2 
 PCOD8208548
Probable space group: P M M A
;
_chemical_formula_sum "Si O2"
_cell_formula_units_Z 56
_cell_length_a 25.637750
_cell_length_b 13.805399
_cell_length_c 9.337091
_cell_angle_alpha 90.000000
_cell_angle_beta 90.000000
_cell_angle_gamma 90.000000
_cell_volume 3304.764089
_symmetry_space_group_name_H-M "P M M A"
_symmetry_group_IT_number 51
_symmetry_cell_setting 'orthorhombic'
loop_
_space_group_symop_operation_xyz
x,y,z
1/2-x,-y,z
1/2+x,-y,-z
-x,y,-z
-x,-y,-z
1/2+x,y,-z
1/2-x,y,z
x,-y,z
loop_
_atom_site_type_symbol
_atom_site_label
_atom_site_fract_x
_atom_site_fract_y
_atom_site_fract_z
Si Si1 0.998988 0.611637 0.338871
Si Si2 0.190629 0.111959 0.469228
Si Si3 0.310423 0.746376 0.732147
Si Si4 0.104452 0.612442 0.836969
Si Si5 0.883987 0.106889 0.785105
Si Si6 0.308771 0.105170 0.958477
Si Si7 0.948164 0.721126 0.909150
O O1 0.014378 0.500000 0.349064
O O2 0.041232 0.657514 0.231886
O O3 0.000000 0.657117 0.500000
O O4 0.942281 0.628332 0.273343
O O5 0.250000 0.123156 0.408884
O O6 0.181412 0.192487 0.589305
O O7 0.144798 0.140034 0.359339
O O8 0.183458 0.000000 0.521788
O O9 0.250000 0.717511 0.751241
O O10 0.344833 0.649883 0.750074
O O11 0.333458 0.815664 0.855167
O O12 0.112559 0.500000 0.874367
O O13 0.093464 0.667174 0.987863
O O14 0.927660 0.178251 0.845086
O O15 0.909697 0.000000 0.767214
O O16 0.836676 0.101655 0.892585
O O17 0.250000 0.135225 0.991189
O O18 0.311626 0.000000 0.882020
O O19 0.000000 0.742600 0.000000
#
# Coordination Sequence:
#
# PCOD8208548 Si02
#       7
#     8   8   8   8   8   8   8
#     4   9  19  35  57  80  96 122 170 222 261 297
#     4   9  18  32  50  74 104 134 168 211 252 294
#     4  10  19  31  50  76 104 137 169 202 251 304
#     4  10  20  35  53  76 103 132 168 210 258 301
#     4  10  19  31  50  75 103 135 169 204 251 304
#     4   9  16  28  48  73  99 128 169 211 240 281
#     4  10  20  35  53  75 103 135 165 211 259 305
#
# _framework density 16.945233999999999
#
# number of rings (size 3 to 8) (size 9 to 14) (size 15 to 20)
#    0.000    2.429    1.429    1.286    2.000    5.714 
#    0.000    0.000    0.000    0.429    0.000    0.000 
#    0.000    0.000    0.000    0.000    0.000    0.000 
#
# Total GULP energy -693854.949159 kJ/mol
# GULP energy per Si atom -12390.266949 kJ/mol
# Density = 1.690667 g / cm^3
# Si number density = 16.945234 Si / 1000 Ang^3
#
#
#
# Elastic Constant Matrix: (Units=GPa)
#
#
# Indices 1 2 3 4 5 6 
#
# 1 63.0126 51.8070 39.1279 0.0000 0.0000 0.0000
# 2 51.8070 90.6739 46.0249 0.0000 0.0000 0.0000
# 3 39.1279 46.0249 100.4233 0.0000 0.0000 0.0000
# 4 0.0000 0.0000 0.0000 24.2329 0.0000 0.0000
# 5 0.0000 0.0000 0.0000 0.0000 21.6955 0.0000
# 6 0.0000 0.0000 0.0000 0.0000 0.0000 70.7882
#
#
#
# Elastic Compliance Matrix: (Units=1/GPa)
#
#
# Indices 1 2 3 4 5 6 
#
# 1 0.031974 -0.015566 -0.005324 0.000000 0.000000 0.000000
# 2 -0.015566 0.021950 -0.003995 0.000000 0.000000 0.000000
# 3 -0.005324 -0.003995 0.013863 0.000000 0.000000 0.000000
# 4 0.000000 0.000000 0.000000 0.041266 0.000000 0.000000
# 5 0.000000 0.000000 0.000000 0.000000 0.046092 0.000000
# 6 0.000000 0.000000 0.000000 0.000000 0.000000 0.014127
#
#
# Mechanical properties :
#
#
# Convention : Reuss Voigt Hill
#
# Bulk Modulus (GPa) = 55.50247 58.66994 57.08621
# Shear Modulus (GPa) = 22.21758 31.15333 26.68545
#
# Velocity S-wave (km/s) = 3.62490 4.29239 3.97269
# Velocity P-wave (km/s) = 7.09542 7.69835 7.40303
#
# Compressibility (1/GPa) = 0.01801722
#
# Stress axis : x y z
#
# Youngs Moduli (GPa) = 31.27583 45.55812 72.13405
#
# Poissons Ratio (x) = 0.70916 0.38403
# Poissons Ratio (y) = 0.48684 0.28817
# Poissons Ratio (z) = 0.16651 0.18200
#
# Static dielectric constant tensor:
#      x y z
#    x 3.004260 0.000000 0.000000 
#    y 0.000000 3.208440 0.000000 
#    z 0.000000 0.000000 3.268770 
# 
# 
# High freq. dielectric constant tensor:
#      x y z
#    x 1.639760 0.000000 0.000000 
#    y 0.000000 1.647430 0.000000 
#    z 0.000000 0.000000 1.659320 
# 
# From -- ./inp_files/10996.got.cif
#   From: 2010.03.12/outbox.cif.g09.slc.cpg/sg51_6_cif.got.tgz:10996.got - 2010.04.16 13:43:02.
