data_PCOD8208583
_publ_section_title
;
Structure prediction by ZEFSAII (Michael W. Deem and Ramdas Pophale) SiO2 
 PCOD8208583
Probable space group: P M M A
;
_chemical_formula_sum "Si O2"
_cell_formula_units_Z 40
_cell_length_a 17.794831
_cell_length_b 12.566850
_cell_length_c 9.692076
_cell_angle_alpha 90.000000
_cell_angle_beta 90.000000
_cell_angle_gamma 90.000000
_cell_volume 2167.390224
_symmetry_space_group_name_H-M "P M M A"
_symmetry_group_IT_number 51
_symmetry_cell_setting 'orthorhombic'
loop_
_space_group_symop_operation_xyz
x,y,z
1/2-x,-y,z
1/2+x,-y,-z
-x,y,-z
-x,-y,-z
1/2+x,y,-z
1/2-x,y,z
x,-y,z
loop_
_atom_site_type_symbol
_atom_site_label
_atom_site_fract_x
_atom_site_fract_y
_atom_site_fract_z
Si Si1 0.165434 0.380669 0.079286
Si Si2 0.517226 0.122215 0.158610
Si Si3 0.665566 0.239073 0.179838
Si Si4 0.399055 0.621934 0.599245
Si Si5 0.054864 0.310131 0.309789
O O1 0.250000 0.356719 0.131067
O O2 0.159199 0.500000 0.020611
O O3 0.109800 0.368836 0.206063
O O4 0.142838 0.301986 0.957545
O O5 0.604753 0.145077 0.194283
O O6 0.462928 0.190641 0.257873
O O7 0.499831 0.000000 0.191494
O O8 0.500000 0.149870 0.000000
O O9 0.750000 0.191678 0.170910
O O10 0.663637 0.320681 0.308304
O O11 0.376216 0.500000 0.567674
O O12 0.405832 0.690743 0.459195
O O13 0.477861 0.622945 0.681934
#
# Coordination Sequence:
#
# PCOD8208583 Si02
#       5
#     8   8   8   8   8
#     4  10  19  31  50  76 108 142 178 221 269 326
#     4  10  20  37  60  83 105 139 187 236 287 326
#     4  10  21  36  53  81 113 143 182 226 274 328
#     4  10  20  33  53  79 114 150 178 213 264 331
#     4  10  19  35  53  79 108 141 186 226 266 320
#
# _framework density 18.455376000000001
#
# number of rings (size 3 to 8) (size 9 to 14) (size 15 to 20)
#    0.000    2.000    2.000    3.000    0.000    2.400 
#    0.000   11.000    0.000    0.600    0.000    0.000 
#    0.000    0.000    0.000    0.000    0.000    0.000 
#
# Total GULP energy -495986.767880 kJ/mol
# GULP energy per Si atom -12399.669197 kJ/mol
# Density = 1.841337 g / cm^3
# Si number density = 18.455376 Si / 1000 Ang^3
#
#
#
# Elastic Constant Matrix: (Units=GPa)
#
#
# Indices 1 2 3 4 5 6 
#
# 1 52.8804 18.1407 24.7075 0.0000 0.0000 0.0000
# 2 18.1407 94.4094 34.5212 0.0000 0.0000 0.0000
# 3 24.7075 34.5212 93.0832 0.0000 0.0000 0.0000
# 4 0.0000 0.0000 0.0000 27.2968 0.0000 0.0000
# 5 0.0000 0.0000 0.0000 0.0000 25.4992 0.0000
# 6 0.0000 0.0000 0.0000 0.0000 0.0000 18.8307
#
#
#
# Elastic Compliance Matrix: (Units=1/GPa)
#
#
# Indices 1 2 3 4 5 6 
#
# 1 0.022058 -0.002427 -0.004955 0.000000 0.000000 0.000000
# 2 -0.002427 0.012521 -0.003999 0.000000 0.000000 0.000000
# 3 -0.004955 -0.003999 0.013542 0.000000 0.000000 0.000000
# 4 0.000000 0.000000 0.000000 0.036634 0.000000 0.000000
# 5 0.000000 0.000000 0.000000 0.000000 0.039217 0.000000
# 6 0.000000 0.000000 0.000000 0.000000 0.000000 0.053105
#
#
# Mechanical properties :
#
#
# Convention : Reuss Voigt Hill
#
# Bulk Modulus (GPa) = 39.43464 43.90131 41.66798
# Shear Modulus (GPa) = 24.00481 25.19226 24.59853
#
# Velocity S-wave (km/s) = 3.61043 3.69865 3.65480
# Velocity P-wave (km/s) = 6.22850 6.48687 6.35900
#
# Compressibility (1/GPa) = 0.02535841
#
# Stress axis : x y z
#
# Youngs Moduli (GPa) = 45.33456 79.86683 73.84675
#
# Poissons Ratio (x) = 0.19381 0.36591
# Poissons Ratio (y) = 0.11001 0.29534
# Poissons Ratio (z) = 0.22464 0.31942
#
# Static dielectric constant tensor:
#      x y z
#    x 3.347050 0.000000 0.000000 
#    y 0.000000 3.197180 0.000000 
#    z 0.000000 0.000000 3.444140 
# 
# 
# High freq. dielectric constant tensor:
#      x y z
#    x 1.713390 0.000000 0.000000 
#    y 0.000000 1.696150 0.000000 
#    z 0.000000 0.000000 1.718910 
# 
# From -- ./inp_files/9265.got.cif
#   From: 2010.03.12/outbox.cif.g09.slc.cpg/sg51_5_cif.got.tgz:9265.got - 2010.04.16 13:43:02.
