data_PCOD8208544
_publ_section_title
;
Structure prediction by ZEFSAII (Michael W. Deem and Ramdas Pophale) SiO2 
 PCOD8208544
Probable space group: P M M A
;
_chemical_formula_sum "Si O2"
_cell_formula_units_Z 48
_cell_length_a 18.178573
_cell_length_b 9.134097
_cell_length_c 16.525101
_cell_angle_alpha 90.000000
_cell_angle_beta 90.000000
_cell_angle_gamma 90.000000
_cell_volume 2743.907902
_symmetry_space_group_name_H-M "P M M A"
_symmetry_group_IT_number 51
_symmetry_cell_setting 'orthorhombic'
loop_
_space_group_symop_operation_xyz
x,y,z
1/2-x,-y,z
1/2+x,-y,-z
-x,y,-z
-x,-y,-z
1/2+x,y,-z
1/2-x,y,z
x,-y,z
loop_
_atom_site_type_symbol
_atom_site_label
_atom_site_fract_x
_atom_site_fract_y
_atom_site_fract_z
Si Si1 0.412265 0.332054 0.820259
Si Si2 0.541444 0.171441 0.738705
Si Si3 0.829664 0.671166 0.336155
Si Si4 0.979242 0.674054 0.410524
Si Si5 0.916370 0.668958 0.999246
Si Si6 0.167036 0.170799 0.141737
O O1 0.438743 0.500000 0.808482
O O2 0.481562 0.229001 0.802504
O O3 0.346786 0.295264 0.757962
O O4 0.383016 0.306587 0.910958
O O5 0.535603 0.253658 0.652760
O O6 0.621027 0.206471 0.777144
O O7 0.529300 0.000000 0.724435
O O8 0.750000 0.743522 0.357605
O O9 0.823568 0.500000 0.351413
O O10 0.896227 0.731501 0.391781
O O11 0.985039 0.500000 0.400781
O O12 0.000000 0.726510 0.500000
O O13 0.915744 0.500000 0.973254
O O14 0.866093 0.754162 0.937090
O O15 0.000000 0.728094 0.000000
O O16 0.250000 0.227186 0.156264
O O17 0.165129 0.000000 0.123306
#
# Coordination Sequence:
#
# PCOD8208544 Si02
#       6
#     8   8   8   8   8   8
#     4   9  17  30  49  72  98 128 163 202 247 300
#     4  10  19  32  52  73  95 128 167 205 244 295
#     4   8  14  26  46  70  95 123 154 191 237 291
#     4   9  18  33  53  75  99 127 159 200 250 304
#     4  10  19  31  50  75 101 131 170 217 259 300
#     4  10  22  37  50  69 101 140 178 214 253 297
#
# _framework density 17.493299
#
# number of rings (size 3 to 8) (size 9 to 14) (size 15 to 20)
#    0.000    2.667    1.667    1.500    0.000    3.000 
#    0.000    2.500    0.000    9.000    0.000    0.000 
#    0.000    0.000    0.000    0.000    0.000    0.000 
#
# Total GULP energy -594991.292582 kJ/mol
# GULP energy per Si atom -12395.651929 kJ/mol
# Density = 1.745348 g / cm^3
# Si number density = 17.493299 Si / 1000 Ang^3
#
#
#
# Elastic Constant Matrix: (Units=GPa)
#
#
# Indices 1 2 3 4 5 6 
#
# 1 141.4371 36.3367 78.0159 0.0000 0.0000 0.0000
# 2 36.3367 40.5621 38.7240 0.0000 0.0000 0.0000
# 3 78.0159 38.7240 142.2924 0.0000 0.0000 0.0000
# 4 0.0000 0.0000 0.0000 22.6801 0.0000 0.0000
# 5 0.0000 0.0000 0.0000 0.0000 20.7030 0.0000
# 6 0.0000 0.0000 0.0000 0.0000 0.0000 19.7153
#
#
#
# Elastic Compliance Matrix: (Units=1/GPa)
#
#
# Indices 1 2 3 4 5 6 
#
# 1 0.010981 -0.005525 -0.004517 0.000000 0.000000 0.000000
# 2 -0.005525 0.036087 -0.006792 0.000000 0.000000 0.000000
# 3 -0.004517 -0.006792 0.011353 0.000000 0.000000 0.000000
# 4 0.000000 0.000000 0.000000 0.044092 0.000000 0.000000
# 5 0.000000 0.000000 0.000000 0.000000 0.048302 0.000000
# 6 0.000000 0.000000 0.000000 0.000000 0.000000 0.050722
#
#
# Mechanical properties :
#
#
# Convention : Reuss Voigt Hill
#
# Bulk Modulus (GPa) = 40.39855 70.04941 55.22398
# Shear Modulus (GPa) = 20.53765 24.03401 22.28583
#
# Velocity S-wave (km/s) = 3.43013 3.71063 3.57313
# Velocity P-wave (km/s) = 6.23150 7.64780 6.97569
#
# Compressibility (1/GPa) = 0.02475336
#
# Stress axis : x y z
#
# Youngs Moduli (GPa) = 91.06318 27.71108 88.08383
#
# Poissons Ratio (x) = 0.15310 0.39790
# Poissons Ratio (y) = 0.50311 0.59823
# Poissons Ratio (z) = 0.41136 0.18820
#
# Static dielectric constant tensor:
#      x y z
#    x 3.477750 0.000000 0.000000 
#    y 0.000000 3.049640 0.000000 
#    z 0.000000 0.000000 3.308110 
# 
# 
# High freq. dielectric constant tensor:
#      x y z
#    x 1.668600 0.000000 0.000000 
#    y 0.000000 1.653490 0.000000 
#    z 0.000000 0.000000 1.674500 
# 
# From -- ./inp_files/30071.got.cif
#   From: 2010.03.12/outbox.cif.g09.slc.cpg/sg51_16_cif.got.tgz:30071.got - 2010.04.16 13:43:02.
