data_PCOD8208444
_publ_section_title
;
Structure prediction by ZEFSAII (Michael W. Deem and Ramdas Pophale) SiO2 
 PCOD8208444
Probable space group: P M M A
;
_chemical_formula_sum "Si O2"
_cell_formula_units_Z 64
_cell_length_a 31.335582
_cell_length_b 9.302504
_cell_length_c 11.958767
_cell_angle_alpha 90.000000
_cell_angle_beta 90.000000
_cell_angle_gamma 90.000000
_cell_volume 3485.973129
_symmetry_space_group_name_H-M "P M M A"
_symmetry_group_IT_number 51
_symmetry_cell_setting 'orthorhombic'
loop_
_space_group_symop_operation_xyz
x,y,z
1/2-x,-y,z
1/2+x,-y,-z
-x,y,-z
-x,-y,-z
1/2+x,y,-z
1/2-x,y,z
x,-y,z
loop_
_atom_site_type_symbol
_atom_site_label
_atom_site_fract_x
_atom_site_fract_y
_atom_site_fract_z
Si Si1 0.950687 0.331647 0.494772
Si Si2 0.116098 0.840825 0.362965
Si Si3 0.135495 0.171527 0.917194
Si Si4 0.202105 0.832273 0.278119
Si Si5 0.580931 0.158249 0.873215
Si Si6 0.418510 0.331095 0.750350
Si Si7 0.997872 0.659035 0.868407
Si Si8 0.700780 0.337098 0.949241
O O1 0.952006 0.500000 0.518505
O O2 0.919476 0.263429 0.586641
O O3 0.928022 0.294815 0.377977
O O4 0.000000 0.273093 0.500000
O O5 0.166455 0.795507 0.375327
O O6 0.113888 0.844693 0.228266
O O7 0.107922 0.000000 0.413426
O O8 0.102628 0.220438 0.015040
O O9 0.179884 0.244505 0.950926
O O10 0.140345 0.000000 0.908058
O O11 0.120832 0.237634 0.797853
O O12 0.250000 0.799461 0.324588
O O13 0.192823 0.736121 0.169928
O O14 0.198287 0.000000 0.244156
O O15 0.541860 0.250558 0.827767
O O16 0.563432 0.000000 0.901268
O O17 0.409418 0.500000 0.769016
O O18 0.459148 0.274637 0.819504
O O19 0.992074 0.500000 0.817819
O O20 0.000000 0.657628 0.000000
O O21 0.750000 0.340192 0.980219
O O22 0.682272 0.500000 0.945438
#
# Coordination Sequence:
#
# PCOD8208444 Si02
#       8
#     8   8   8   8   8   8   8   8
#     4  10  22  40  59  78 105 145 191 235 282 335
#     4  10  20  35  54  79 109 140 182 228 274 324
#     4  11  21  34  53  78 110 144 179 217 268 328
#     4   9  17  32  54  80 113 148 179 220 275 331
#     4  10  20  32  47  74 108 139 172 216 262 313
#     4  10  21  37  54  76 106 137 180 230 272 322
#     4  10  19  31  49  72  98 134 173 212 263 317
#     4  10  20  33  52  81 115 148 181 219 267 326
#
# _framework density 18.359293000000001
#
# number of rings (size 3 to 8) (size 9 to 14) (size 15 to 20)
#    0.000    2.000    2.500    1.500    0.000    4.750 
#    0.000    0.000    0.000    0.750    0.000    3.500 
#    0.000    0.000    0.000    0.000    0.000    0.000 
#
# Total GULP energy -793212.152425 kJ/mol
# GULP energy per Si atom -12393.939882 kJ/mol
# Density = 1.831751 g / cm^3
# Si number density = 18.359293 Si / 1000 Ang^3
#
#
#
# Elastic Constant Matrix: (Units=GPa)
#
#
# Indices 1 2 3 4 5 6 
#
# 1 111.3437 48.6830 36.0707 0.0000 0.0000 0.0000
# 2 48.6830 77.4731 29.8757 0.0000 0.0000 0.0000
# 3 36.0707 29.8757 68.5594 0.0000 0.0000 0.0000
# 4 0.0000 0.0000 0.0000 12.3266 0.0000 0.0000
# 5 0.0000 0.0000 0.0000 0.0000 30.5748 0.0000
# 6 0.0000 0.0000 0.0000 0.0000 0.0000 27.0135
#
#
#
# Elastic Compliance Matrix: (Units=1/GPa)
#
#
# Indices 1 2 3 4 5 6 
#
# 1 0.013244 -0.006773 -0.004016 0.000000 0.000000 0.000000
# 2 -0.006773 0.018979 -0.004707 0.000000 0.000000 0.000000
# 3 -0.004016 -0.004707 0.018750 0.000000 0.000000 0.000000
# 4 0.000000 0.000000 0.000000 0.081125 0.000000 0.000000
# 5 0.000000 0.000000 0.000000 0.000000 0.032707 0.000000
# 6 0.000000 0.000000 0.000000 0.000000 0.000000 0.037019
#
#
# Mechanical properties :
#
#
# Convention : Reuss Voigt Hill
#
# Bulk Modulus (GPa) = 50.05007 54.07056 52.06031
# Shear Modulus (GPa) = 20.87886 23.49942 22.18914
#
# Velocity S-wave (km/s) = 3.37595 3.58155 3.48027
# Velocity P-wave (km/s) = 6.52048 6.82778 6.67590
#
# Compressibility (1/GPa) = 0.01997999
#
# Stress axis : x y z
#
# Youngs Moduli (GPa) = 75.50658 52.68953 53.33338
#
# Poissons Ratio (x) = 0.35689 0.21420
# Poissons Ratio (y) = 0.51144 0.25103
# Poissons Ratio (z) = 0.30326 0.24800
#
# Static dielectric constant tensor:
#      x y z
#    x 3.569460 0.000000 0.000000 
#    y 0.000000 3.447040 0.000000 
#    z 0.000000 0.000000 3.150190 
# 
# 
# High freq. dielectric constant tensor:
#      x y z
#    x 1.716470 0.000000 0.000000 
#    y 0.000000 1.710880 0.000000 
#    z 0.000000 0.000000 1.681460 
# 
# From -- ./inp_files/19481.got.cif
#   From: 2010.03.12/outbox.cif.g09.slc.cpg/sg51_10_cif.got.tgz:19481.got - 2010.04.16 13:43:02.
