data_PCOD8208851
_publ_section_title
;
Structure prediction by ZEFSAII (Michael W. Deem and Ramdas Pophale) SiO2 
 PCOD8208851
Probable space group: P M M A
;
_chemical_formula_sum "Si O2"
_cell_formula_units_Z 64
_cell_length_a 20.040676
_cell_length_b 8.983475
_cell_length_c 20.068909
_cell_angle_alpha 90.000000
_cell_angle_beta 90.000000
_cell_angle_gamma 90.000000
_cell_volume 3613.104262
_symmetry_space_group_name_H-M "P M M A"
_symmetry_group_IT_number 51
_symmetry_cell_setting 'orthorhombic'
loop_
_space_group_symop_operation_xyz
x,y,z
1/2-x,-y,z
1/2+x,-y,-z
-x,y,-z
-x,-y,-z
1/2+x,y,-z
1/2-x,y,z
x,-y,z
loop_
_atom_site_type_symbol
_atom_site_label
_atom_site_fract_x
_atom_site_fract_y
_atom_site_fract_z
Si Si1 0.934235 0.673896 0.314964
Si Si2 0.571286 0.328368 0.024994
Si Si3 0.584775 0.323158 0.667857
Si Si4 0.536397 0.328477 0.170723
Si Si5 0.402007 0.825537 0.196555
Si Si6 0.325865 0.674675 0.582954
Si Si7 0.824486 0.825130 0.932873
Si Si8 0.173277 0.825860 0.443689
O O1 0.931985 0.500000 0.326634
O O2 0.920982 0.712549 0.236954
O O3 0.875278 0.741599 0.360394
O O4 0.007651 0.731726 0.336571
O O5 0.576560 0.500000 0.004678
O O6 0.579939 0.304353 0.104471
O O7 0.500000 0.265405 0.000000
O O8 0.630787 0.243376 0.990381
O O9 0.590225 0.500000 0.666956
O O10 0.616373 0.262715 0.736382
O O11 0.625168 0.257242 0.606837
O O12 0.511492 0.500000 0.175917
O O13 0.472796 0.222479 0.166495
O O14 0.347623 0.781950 0.141313
O O15 0.402526 0.000000 0.212573
O O16 0.250000 0.705055 0.606292
O O17 0.337137 0.500000 0.569350
O O18 0.342868 0.763549 0.516384
O O19 0.750000 0.763353 0.942170
O O20 0.827966 0.000000 0.942383
O O21 0.250000 0.793178 0.424265
O O22 0.157632 0.000000 0.442323
#
# Coordination Sequence:
#
# PCOD8208851 Si02
#       8
#     8   8   8   8   8   8   8   8
#     4   8  16  31  51  76 104 132 164 210 257 297
#     4  10  19  32  54  80 104 134 175 221 264 309
#     4  10  20  34  53  76 105 137 170 210 256 306
#     4   9  17  32  52  75 104 134 169 213 261 309
#     4  10  19  32  51  74 101 135 175 213 256 307
#     4   9  17  32  54  75  96 129 173 211 248 303
#     4  10  22  37  51  72 105 141 176 216 262 314
#     4  10  21  36  52  72 101 134 168 210 257 305
#
# _framework density 17.713301000000001
#
# number of rings (size 3 to 8) (size 9 to 14) (size 15 to 20)
#    0.000    2.500    1.250    1.875    0.000    3.250 
#    0.000    7.500    0.000    2.250    0.000    1.750 
#    0.000    0.000    0.000    0.000    0.000    0.000 
#
# Total GULP energy -793483.411766 kJ/mol
# GULP energy per Si atom -12398.178309 kJ/mol
# Density = 1.767298 g / cm^3
# Si number density = 17.713301 Si / 1000 Ang^3
#
#
#
# Elastic Constant Matrix: (Units=GPa)
#
#
# Indices 1 2 3 4 5 6 
#
# 1 116.5727 35.7568 92.7252 0.0000 0.0000 0.0000
# 2 35.7568 47.7185 50.8502 0.0000 0.0000 0.0000
# 3 92.7252 50.8502 148.0595 0.0000 0.0000 0.0000
# 4 0.0000 0.0000 0.0000 24.3156 0.0000 0.0000
# 5 0.0000 0.0000 0.0000 0.0000 28.1882 0.0000
# 6 0.0000 0.0000 0.0000 0.0000 0.0000 23.3678
#
#
#
# Elastic Compliance Matrix: (Units=1/GPa)
#
#
# Indices 1 2 3 4 5 6 
#
# 1 0.017243 -0.002229 -0.010033 0.000000 0.000000 0.000000
# 2 -0.002229 0.033341 -0.010055 0.000000 0.000000 0.000000
# 3 -0.010033 -0.010055 0.016491 0.000000 0.000000 0.000000
# 4 0.000000 0.000000 0.000000 0.041126 0.000000 0.000000
# 5 0.000000 0.000000 0.000000 0.000000 0.035476 0.000000
# 6 0.000000 0.000000 0.000000 0.000000 0.000000 0.042794
#
#
# Mechanical properties :
#
#
# Convention : Reuss Voigt Hill
#
# Bulk Modulus (GPa) = 44.56162 74.55726 59.55944
# Shear Modulus (GPa) = 20.95696 24.04222 22.49959
#
# Velocity S-wave (km/s) = 3.44338 3.68815 3.56787
# Velocity P-wave (km/s) = 6.40476 7.76654 7.11829
#
# Compressibility (1/GPa) = 0.02244083
#
# Stress axis : x y z
#
# Youngs Moduli (GPa) = 57.99612 29.99280 60.64004
#
# Poissons Ratio (x) = 0.06685 0.60840
# Poissons Ratio (y) = 0.12927 0.60974
# Poissons Ratio (z) = 0.58187 0.30158
#
# Static dielectric constant tensor:
#      x y z
#    x 3.348870 0.000000 0.000000 
#    y 0.000000 3.189420 0.000000 
#    z 0.000000 0.000000 3.471730 
# 
# 
# High freq. dielectric constant tensor:
#      x y z
#    x 1.670390 0.000000 0.000000 
#    y 0.000000 1.675070 0.000000 
#    z 0.000000 0.000000 1.696370 
# 
# From -- ./inp_files/33964.got.cif
#   From: 2010.03.12/outbox.cif.g09.slc.cpg/sg51_17_cif.got.tgz:33964.got - 2010.04.16 13:43:02.
