data_PCOD8208482
_publ_section_title
;
Structure prediction by ZEFSAII (Michael W. Deem and Ramdas Pophale) SiO2 
 PCOD8208482
Probable space group: P M M A
;
_chemical_formula_sum "Si O2"
_cell_formula_units_Z 64
_cell_length_a 19.432016
_cell_length_b 9.450003
_cell_length_c 19.919187
_cell_angle_alpha 90.000000
_cell_angle_beta 90.000000
_cell_angle_gamma 90.000000
_cell_volume 3657.812288
_symmetry_space_group_name_H-M "P M M A"
_symmetry_group_IT_number 51
_symmetry_cell_setting 'orthorhombic'
loop_
_space_group_symop_operation_xyz
x,y,z
1/2-x,-y,z
1/2+x,-y,-z
-x,y,-z
-x,-y,-z
1/2+x,y,-z
1/2-x,y,z
x,-y,z
loop_
_atom_site_type_symbol
_atom_site_label
_atom_site_fract_x
_atom_site_fract_y
_atom_site_fract_z
Si Si1 0.062758 0.834722 0.731511
Si Si2 0.830354 0.834498 0.899784
Si Si3 0.412306 0.832865 0.229068
Si Si4 0.670354 0.836375 0.155688
Si Si5 0.168369 0.659878 0.971598
Si Si6 0.048346 0.664078 0.599585
Si Si7 0.171440 0.838678 0.354366
Si Si8 0.599491 0.336361 0.543211
O O1 0.126433 0.795988 0.779074
O O2 0.074543 0.754461 0.662004
O O3 0.992112 0.786898 0.768242
O O4 0.059789 0.000000 0.714849
O O5 0.750000 0.807077 0.884281
O O6 0.875617 0.775259 0.837964
O O7 0.843451 0.000000 0.914177
O O8 0.857010 0.746167 0.963601
O O9 0.374038 0.770929 0.294614
O O10 0.402667 0.000000 0.229216
O O11 0.750000 0.804965 0.172214
O O12 0.642422 0.740800 0.094746
O O13 0.659576 0.000000 0.135494
O O14 0.250000 0.657430 0.971124
O O15 0.138649 0.500000 0.972793
O O16 0.051240 0.500000 0.619372
O O17 0.097774 0.695556 0.536207
O O18 0.971664 0.708494 0.578616
O O19 0.250000 0.826594 0.331831
O O20 0.160012 0.753716 0.423241
O O21 0.149950 0.000000 0.368077
O O22 0.614457 0.500000 0.555818
#
# Coordination Sequence:
#
# PCOD8208482 Si02
#       8
#     8   8   8   8   8   8   8   8
#     4  10  19  32  52  76  99 127 162 203 247 293
#     4   9  16  28  48  70  94 128 164 197 236 282
#     4   9  17  30  47  71 100 129 164 200 238 289
#     4   9  18  33  52  73  96 123 158 200 248 301
#     4   9  17  30  49  72  96 123 160 203 242 286
#     4   9  18  33  52  72  96 127 164 204 245 290
#     4  10  19  31  49  74 104 134 165 206 249 287
#     4   9  18  33  51  71  96 129 168 205 241 288
#
# _framework density 17.496797000000001
#
# number of rings (size 3 to 8) (size 9 to 14) (size 15 to 20)
#    0.000    2.750    1.250    1.500    0.000    4.250 
#    0.000    3.750    0.000    7.500    0.000    0.000 
#    0.000    0.000    0.000    0.000    0.000    0.000 
#
# Total GULP energy -793558.449282 kJ/mol
# GULP energy per Si atom -12399.350770 kJ/mol
# Density = 1.745697 g / cm^3
# Si number density = 17.496797 Si / 1000 Ang^3
#
#
#
# Elastic Constant Matrix: (Units=GPa)
#
#
# Indices 1 2 3 4 5 6 
#
# 1 68.0331 32.1802 54.0083 0.0000 0.0000 0.0000
# 2 32.1802 68.8448 66.9223 0.0000 0.0000 0.0000
# 3 54.0083 66.9223 149.2455 0.0000 0.0000 0.0000
# 4 0.0000 0.0000 0.0000 19.7951 0.0000 0.0000
# 5 0.0000 0.0000 0.0000 0.0000 29.1843 0.0000
# 6 0.0000 0.0000 0.0000 0.0000 0.0000 16.8008
#
#
#
# Elastic Compliance Matrix: (Units=1/GPa)
#
#
# Indices 1 2 3 4 5 6 
#
# 1 0.021342 -0.004376 -0.005761 0.000000 0.000000 0.000000
# 2 -0.004376 0.026646 -0.010365 0.000000 0.000000 0.000000
# 3 -0.005761 -0.010365 0.013433 0.000000 0.000000 0.000000
# 4 0.000000 0.000000 0.000000 0.050518 0.000000 0.000000
# 5 0.000000 0.000000 0.000000 0.000000 0.034265 0.000000
# 6 0.000000 0.000000 0.000000 0.000000 0.000000 0.059521
#
#
# Mechanical properties :
#
#
# Convention : Reuss Voigt Hill
#
# Bulk Modulus (GPa) = 48.97705 65.81612 57.39659
# Shear Modulus (GPa) = 19.72129 22.02355 20.87242
#
# Velocity S-wave (km/s) = 3.36093 3.55169 3.45763
# Velocity P-wave (km/s) = 6.56612 7.38357 6.98681
#
# Compressibility (1/GPa) = 0.02041772
#
# Stress axis : x y z
#
# Youngs Moduli (GPa) = 46.85625 37.52889 74.44495
#
# Poissons Ratio (x) = 0.16422 0.42888
# Poissons Ratio (y) = 0.20503 0.77161
# Poissons Ratio (z) = 0.26994 0.38898
#
# Static dielectric constant tensor:
#      x y z
#    x 3.050240 0.000000 0.000000 
#    y 0.000000 3.143270 0.000000 
#    z 0.000000 0.000000 3.313100 
# 
# 
# High freq. dielectric constant tensor:
#      x y z
#    x 1.652580 0.000000 0.000000 
#    y 0.000000 1.660660 0.000000 
#    z 0.000000 0.000000 1.682210 
# 
# From -- ./inp_files/30648.got.cif
#   From: 2010.03.12/outbox.cif.g09.slc.cpg/sg51_16_cif.got.tgz:30648.got - 2010.04.16 13:43:02.
