data_PCOD8208806
_publ_section_title
;
Structure prediction by ZEFSAII (Michael W. Deem and Ramdas Pophale) SiO2 
 PCOD8208806
Probable space group: P M M A
;
_chemical_formula_sum "Si O2"
_cell_formula_units_Z 40
_cell_length_a 15.723100
_cell_length_b 7.684890
_cell_length_c 17.186296
_cell_angle_alpha 90.000000
_cell_angle_beta 90.000000
_cell_angle_gamma 90.000000
_cell_volume 2076.625198
_symmetry_space_group_name_H-M "P M M A"
_symmetry_group_IT_number 51
_symmetry_cell_setting 'orthorhombic'
loop_
_space_group_symop_operation_xyz
x,y,z
1/2-x,-y,z
1/2+x,-y,-z
-x,y,-z
-x,-y,-z
1/2+x,y,-z
1/2-x,y,z
x,-y,z
loop_
_atom_site_type_symbol
_atom_site_label
_atom_site_fract_x
_atom_site_fract_y
_atom_site_fract_z
Si Si1 0.075577 0.696998 0.310241
Si Si2 0.912413 0.794243 0.039486
Si Si3 0.843464 0.000000 0.307991
Si Si4 0.507402 0.000000 0.591520
Si Si5 0.413345 0.305842 0.785736
Si Si6 0.250000 0.206502 0.232705
Si Si7 0.750000 0.793670 0.943140
O O1 0.064790 0.500000 0.341412
O O2 0.058130 0.828296 0.381284
O O3 0.169007 0.721329 0.277281
O O4 0.009770 0.738638 0.240475
O O5 0.906275 0.702636 0.122083
O O6 0.909202 0.000000 0.051721
O O7 0.834244 0.726396 0.987033
O O8 0.000000 0.735361 0.000000
O O9 0.850124 0.829818 0.254036
O O10 0.911668 0.000000 0.376437
O O11 0.750000 0.000000 0.346312
O O12 0.500000 0.000000 0.500000
O O13 0.387796 0.500000 0.758631
O O14 0.250000 0.279477 0.144629
O O15 0.250000 0.000000 0.233501
O O16 0.750000 0.000000 0.941047
#
# Coordination Sequence:
#
# PCOD8208806 Si02
#       7
#     8   8   4   4   8   4   4
#     4  10  21  38  61  91 122 157 195 239 292 346
#     4  10  19  32  50  75 111 155 198 248 300 341
#     4  10  22  40  62  85 116 150 186 239 290 339
#     4  10  22  43  66  94 121 152 187 227 289 363
#     4  10  21  36  58  82 113 157 204 243 289 350
#     4  11  19  35  61  88 119 158 206 250 284 349
#     4   9  20  31  49  79 112 152 201 249 302 338
#
# _framework density 19.262022999999999
#
# number of rings (size 3 to 8) (size 9 to 14) (size 15 to 20)
#    0.000    2.000    2.000    1.500    1.400    2.800 
#    1.800    2.000    0.000    0.000    0.000    0.000 
#    0.000    0.000    0.000    0.000    0.000    0.000 
#
# Total GULP energy -496097.421718 kJ/mol
# GULP energy per Si atom -12402.435543 kJ/mol
# Density = 1.921818 g / cm^3
# Si number density = 19.262023 Si / 1000 Ang^3
#
#
#
# Elastic Constant Matrix: (Units=GPa)
#
#
# Indices 1 2 3 4 5 6 
#
# 1 150.5321 39.0605 59.8167 0.0000 0.0000 0.0000
# 2 39.0605 109.8018 48.8747 0.0000 0.0000 0.0000
# 3 59.8167 48.8747 145.5880 0.0000 0.0000 0.0000
# 4 0.0000 0.0000 0.0000 8.1411 0.0000 0.0000
# 5 0.0000 0.0000 0.0000 0.0000 17.4338 0.0000
# 6 0.0000 0.0000 0.0000 0.0000 0.0000 -1.6620
#
#
#
# Elastic Compliance Matrix: (Units=1/GPa)
#
#
# Indices 1 2 3 4 5 6 
#
# 1 0.008190 -0.001664 -0.002806 0.000000 0.000000 0.000000
# 2 -0.001664 0.011046 -0.003024 0.000000 0.000000 0.000000
# 3 -0.002806 -0.003024 0.009037 0.000000 0.000000 0.000000
# 4 0.000000 0.000000 0.000000 0.122833 0.000000 0.000000
# 5 0.000000 0.000000 0.000000 0.000000 0.057360 0.000000
# 6 0.000000 0.000000 0.000000 0.000000 0.000000 -0.601682
#
#
# Mechanical properties :
#
#
# Convention : Reuss Voigt Hill
#
# Bulk Modulus (GPa) = 75.28515 77.93618 76.61067
# Shear Modulus (GPa) = -13.37615 21.99392 4.30888
#
# Velocity S-wave (km/s) = -2.63807 3.38276 1.49728
# Velocity P-wave (km/s) = 5.46721 7.47036 6.54587
#
# Compressibility (1/GPa) = 0.01328283
#
# Stress axis : x y z
#
# Youngs Moduli (GPa) = 122.09860 90.53429 110.65708
#
# Poissons Ratio (x) = 0.15069 0.31053
# Poissons Ratio (y) = 0.20322 0.33465
# Poissons Ratio (z) = 0.34264 0.27379
#
# Static dielectric constant tensor:
#      x y z
#    x 4.304270 0.000000 0.000000 
#    y 0.000000 3.638370 0.000000 
#    z 0.000000 0.000000 3.236140 
# 
# 
# High freq. dielectric constant tensor:
#      x y z
#    x 1.756560 0.000000 0.000000 
#    y 0.000000 1.757100 0.000000 
#    z 0.000000 0.000000 1.722960 
# 
# From -- ./inp_files/23853.got.cif
#   From: 2010.03.12/outbox.cif.g09.slc.cpg/sg51_12_cif.got.tgz:23853.got - 2010.04.16 13:43:02.
