data_PCOD8208002
_publ_section_title
;
Structure prediction by ZEFSAII (Michael W. Deem and Ramdas Pophale) SiO2 
 PCOD8208002
Probable space group: P M M A
;
_chemical_formula_sum "Si O2"
_cell_formula_units_Z 64
_cell_length_a 8.913506
_cell_length_b 14.362120
_cell_length_c 28.453436
_cell_angle_alpha 90.000000
_cell_angle_beta 90.000000
_cell_angle_gamma 90.000000
_cell_volume 3642.519043
_symmetry_space_group_name_H-M "P M M A"
_symmetry_group_IT_number 51
_symmetry_cell_setting 'orthorhombic'
loop_
_space_group_symop_operation_xyz
x,y,z
1/2-x,-y,z
1/2+x,-y,-z
-x,y,-z
-x,-y,-z
1/2+x,y,-z
1/2-x,y,z
x,-y,z
loop_
_atom_site_type_symbol
_atom_site_label
_atom_site_fract_x
_atom_site_fract_y
_atom_site_fract_z
Si Si1 0.925423 0.106721 0.911668
Si Si2 0.422931 0.395282 0.774305
Si Si3 0.581824 0.110677 0.454059
Si Si4 0.927184 0.722790 0.047324
Si Si5 0.079217 0.107183 0.816118
Si Si6 0.076784 0.785057 0.723201
Si Si7 0.922416 0.391253 0.870973
Si Si8 0.573464 0.106050 0.641045
O O1 0.750000 0.124698 0.918342
O O2 0.017348 0.170676 0.947534
O O3 0.970266 0.134409 0.858658
O O4 0.969733 0.000000 0.922013
O O5 0.250000 0.387244 0.790190
O O6 0.461904 0.500000 0.757315
O O7 0.453999 0.325195 0.730844
O O8 0.522498 0.366001 0.818802
O O9 0.500000 0.152333 0.500000
O O10 0.750000 0.150460 0.452662
O O11 0.497021 0.143495 0.407276
O O12 0.582069 0.000000 0.456917
O O13 0.750000 0.719465 0.042679
O O14 0.978225 0.662943 0.091629
O O15 0.000000 0.680626 0.000000
O O16 0.250000 0.130774 0.831073
O O17 0.028651 0.165411 0.771274
O O18 0.061929 0.000000 0.802182
O O19 0.250000 0.805672 0.711026
O O20 0.975291 0.824030 0.681776
O O21 0.750000 0.360365 0.876023
O O22 0.943753 0.500000 0.880705
O O23 0.750000 0.109460 0.635279
O O24 0.520059 0.000000 0.652120
#
# Coordination Sequence:
#
# PCOD8208002 Si02
#       8
#     8   8   8   8   8   8   8   8
#     4  10  21  37  56  77 101 129 163 202 241 283
#     4   9  18  33  53  77 103 131 164 200 240 289
#     4   9  16  27  44  64  89 125 168 210 249 290
#     4  12  25  40  58  78 102 130 160 196 238 286
#     4   9  17  29  46  69  96 127 164 201 237 283
#     4  10  19  30  46  68  96 131 166 201 243 288
#     4  10  21  38  60  84 107 129 156 193 238 290
#     4  10  20  31  43  64  96 132 170 211 253 295
#
# _framework density 17.570257000000002
#
# number of rings (size 3 to 8) (size 9 to 14) (size 15 to 20)
#    0.000    2.125    0.000    3.750    0.000    6.750 
#    0.000    1.250    0.000    0.000    0.000    0.000 
#    0.000    0.500    0.000    1.375    0.000    2.000 
#
# Total GULP energy -793739.393991 kJ/mol
# GULP energy per Si atom -12402.178031 kJ/mol
# Density = 1.753027 g / cm^3
# Si number density = 17.570257 Si / 1000 Ang^3
#
#
#
# Elastic Constant Matrix: (Units=GPa)
#
#
# Indices 1 2 3 4 5 6 
#
# 1 107.4666 32.4599 49.2475 0.0000 0.0000 0.0000
# 2 32.4599 62.7910 44.3221 0.0000 0.0000 0.0000
# 3 49.2475 44.3221 85.9346 0.0000 0.0000 0.0000
# 4 0.0000 0.0000 0.0000 14.9216 0.0000 0.0000
# 5 0.0000 0.0000 0.0000 0.0000 35.2891 0.0000
# 6 0.0000 0.0000 0.0000 0.0000 0.0000 21.3490
#
#
#
# Elastic Compliance Matrix: (Units=1/GPa)
#
#
# Indices 1 2 3 4 5 6 
#
# 1 0.012821 -0.002267 -0.006178 0.000000 0.000000 0.000000
# 2 -0.002267 0.025444 -0.011824 0.000000 0.000000 0.000000
# 3 -0.006178 -0.011824 0.021276 0.000000 0.000000 0.000000
# 4 0.000000 0.000000 0.000000 0.067017 0.000000 0.000000
# 5 0.000000 0.000000 0.000000 0.000000 0.028337 0.000000
# 6 0.000000 0.000000 0.000000 0.000000 0.000000 0.046841
#
#
# Mechanical properties :
#
#
# Convention : Reuss Voigt Hill
#
# Bulk Modulus (GPa) = 52.62470 56.47235 54.54853
# Shear Modulus (GPa) = 20.11193 22.98945 21.55069
#
# Velocity S-wave (km/s) = 3.38695 3.62115 3.50600
# Velocity P-wave (km/s) = 6.73136 7.04942 6.89223
#
# Compressibility (1/GPa) = 0.01900248
#
# Stress axis : x y z
#
# Youngs Moduli (GPa) = 77.99563 39.30229 47.00148
#
# Poissons Ratio (x) = 0.08909 0.29040
# Poissons Ratio (y) = 0.17680 0.55575
# Poissons Ratio (z) = 0.48189 0.46471
#
# Static dielectric constant tensor:
#      x y z
#    x 3.348710 0.000000 0.000000 
#    y 0.000000 3.279770 0.000000 
#    z 0.000000 0.000000 3.181870 
# 
# 
# High freq. dielectric constant tensor:
#      x y z
#    x 1.687790 0.000000 0.000000 
#    y 0.000000 1.660410 0.000000 
#    z 0.000000 0.000000 1.664750 
# 
# From -- ./inp_files/34961.got.cif
#   From: 2010.03.12/outbox.cif.g09.slc.cpg/sg51_18_cif.got.tgz:34961.got - 2010.04.16 13:43:02.
