data_PCOD8208728
_publ_section_title
;
Structure prediction by ZEFSAII (Michael W. Deem and Ramdas Pophale) SiO2 
 PCOD8208728
Probable space group: P M M A
;
_chemical_formula_sum "Si O2"
_cell_formula_units_Z 52
_cell_length_a 9.002676
_cell_length_b 18.166448
_cell_length_c 18.897978
_cell_angle_alpha 90.000000
_cell_angle_beta 90.000000
_cell_angle_gamma 90.000000
_cell_volume 3090.700907
_symmetry_space_group_name_H-M "P M M A"
_symmetry_group_IT_number 51
_symmetry_cell_setting 'orthorhombic'
loop_
_space_group_symop_operation_xyz
x,y,z
1/2-x,-y,z
1/2+x,-y,-z
-x,y,-z
-x,-y,-z
1/2+x,y,-z
1/2-x,y,z
x,-y,z
loop_
_atom_site_type_symbol
_atom_site_label
_atom_site_fract_x
_atom_site_fract_y
_atom_site_fract_z
Si Si1 0.080976 0.800593 0.338593
Si Si2 0.079184 0.415627 0.699978
Si Si3 0.924368 0.660840 0.076261
Si Si4 0.081044 0.500000 0.927657
Si Si5 0.077088 0.653094 0.425000
Si Si6 0.075127 0.705043 0.208889
Si Si7 0.423279 0.915557 0.572080
O O1 0.250000 0.827887 0.342608
O O2 0.054150 0.732929 0.391051
O O3 0.040727 0.775584 0.258586
O O4 0.977031 0.868041 0.361145
O O5 0.250000 0.388949 0.696993
O O6 0.070185 0.500000 0.724570
O O7 0.004467 0.407520 0.623032
O O8 0.989834 0.368138 0.756277
O O9 0.750000 0.677738 0.069077
O O10 0.954514 0.578321 0.109806
O O11 0.998602 0.717005 0.132280
O O12 0.000000 0.671116 0.000000
O O13 0.250000 0.500000 0.949670
O O14 0.000000 0.500000 0.000000
O O15 0.250000 0.632761 0.431649
O O16 0.000000 0.652517 0.500000
O O17 0.250000 0.694071 0.199646
O O18 0.500000 0.887831 0.500000
O O19 0.250000 0.904157 0.561616
O O20 0.465192 0.000000 0.587719
#
# Coordination Sequence:
#
# PCOD8208728 Si02
#       7
#     8   8   8   4   8   8   8
#     4   9  19  34  50  69  95 126 160 195 232 280
#     4  10  21  35  49  65  86 115 154 198 244 291
#     4  10  19  32  49  70  96 125 159 199 243 291
#     4   8  16  28  42  62  88 116 149 188 233 284
#     4  10  20  33  49  68  89 116 154 196 240 286
#     4  10  21  35  50  70  94 124 160 197 241 290
#     4  10  20  32  49  75 104 133 164 196 233 278
#
# _framework density 16.824662
#
# number of rings (size 3 to 8) (size 9 to 14) (size 15 to 20)
#    0.000    2.308    0.000    3.692    1.077    8.000 
#    0.000    0.000    0.000    0.000    0.000    0.000 
#    0.000    0.615    0.000    2.000    0.000    2.923 
#
# Total GULP energy -644606.882485 kJ/mol
# GULP energy per Si atom -12396.286202 kJ/mol
# Density = 1.678637 g / cm^3
# Si number density = 16.824662 Si / 1000 Ang^3
#
#
#
# Elastic Constant Matrix: (Units=GPa)
#
#
# Indices 1 2 3 4 5 6 
#
# 1 105.7494 39.2610 55.8980 0.0000 0.0000 0.0000
# 2 39.2610 58.3568 34.0887 0.0000 0.0000 0.0000
# 3 55.8980 34.0887 112.8938 0.0000 0.0000 0.0000
# 4 0.0000 0.0000 0.0000 19.3591 0.0000 0.0000
# 5 0.0000 0.0000 0.0000 0.0000 33.2023 0.0000
# 6 0.0000 0.0000 0.0000 0.0000 0.0000 24.8761
#
#
#
# Elastic Compliance Matrix: (Units=1/GPa)
#
#
# Indices 1 2 3 4 5 6 
#
# 1 0.014782 -0.006884 -0.005241 0.000000 0.000000 0.000000
# 2 -0.006884 0.024011 -0.003842 0.000000 0.000000 0.000000
# 3 -0.005241 -0.003842 0.012613 0.000000 0.000000 0.000000
# 4 0.000000 0.000000 0.000000 0.051655 0.000000 0.000000
# 5 0.000000 0.000000 0.000000 0.000000 0.030118 0.000000
# 6 0.000000 0.000000 0.000000 0.000000 0.000000 0.040199
#
#
# Mechanical properties :
#
#
# Convention : Reuss Voigt Hill
#
# Bulk Modulus (GPa) = 51.35125 59.49948 55.42536
# Shear Modulus (GPa) = 23.60682 25.33766 24.47224
#
# Velocity S-wave (km/s) = 3.74987 3.88491 3.81799
# Velocity P-wave (km/s) = 7.02399 7.45417 7.24227
#
# Compressibility (1/GPa) = 0.01947372
#
# Stress axis : x y z
#
# Youngs Moduli (GPa) = 67.64902 41.64687 79.28463
#
# Poissons Ratio (x) = 0.28669 0.41550
# Poissons Ratio (y) = 0.46568 0.30460
# Poissons Ratio (z) = 0.35452 0.16000
#
# Static dielectric constant tensor:
#      x y z
#    x 3.272720 0.000000 0.000000 
#    y 0.000000 2.948770 0.000000 
#    z 0.000000 0.000000 1.988760 
# 
# 
# High freq. dielectric constant tensor:
#      x y z
#    x 1.666840 0.000000 0.000000 
#    y 0.000000 1.610420 0.000000 
#    z 0.000000 0.000000 1.643880 
# 
# From -- ./inp_files/27915.got.cif
#   From: 2010.03.12/outbox.cif.g09.slc.cpg/sg51_14_cif.got.tgz:27915.got - 2010.04.16 13:43:02.
