data_PCOD8208270
_publ_section_title
;
Structure prediction by ZEFSAII (Michael W. Deem and Ramdas Pophale) SiO2 
 PCOD8208270
Probable space group: P M M A
;
_chemical_formula_sum "Si O2"
_cell_formula_units_Z 52
_cell_length_a 8.961987
_cell_length_b 26.280920
_cell_length_c 13.702845
_cell_angle_alpha 90.000000
_cell_angle_beta 90.000000
_cell_angle_gamma 90.000000
_cell_volume 3227.420989
_symmetry_space_group_name_H-M "P M M A"
_symmetry_group_IT_number 51
_symmetry_cell_setting 'orthorhombic'
loop_
_space_group_symop_operation_xyz
x,y,z
1/2-x,-y,z
1/2+x,-y,-z
-x,y,-z
-x,-y,-z
1/2+x,y,-z
1/2-x,y,z
x,-y,z
loop_
_atom_site_type_symbol
_atom_site_label
_atom_site_fract_x
_atom_site_fract_y
_atom_site_fract_z
Si Si1 0.576776 0.705001 0.273715
Si Si2 0.425511 0.609940 0.605127
Si Si3 0.422652 0.059235 0.898956
Si Si4 0.074381 0.858457 0.224181
Si Si5 0.424503 0.241016 0.103755
Si Si6 0.922520 0.500000 0.398033
Si Si7 0.575964 0.804390 0.396090
O O1 0.750000 0.701993 0.245221
O O2 0.516199 0.652310 0.319475
O O3 0.484920 0.715311 0.175561
O O4 0.547067 0.748501 0.353328
O O5 0.500000 0.617099 0.500000
O O6 0.250000 0.617280 0.589012
O O7 0.463855 0.554014 0.653432
O O8 0.250000 0.074954 0.905897
O O9 0.503039 0.089202 0.812478
O O10 0.442682 0.000000 0.875703
O O11 0.500000 0.074328 0.000000
O O12 0.250000 0.865078 0.238252
O O13 0.035391 0.814197 0.147017
O O14 0.000401 0.846393 0.327751
O O15 0.250000 0.248613 0.091272
O O16 0.500000 0.247228 0.000000
O O17 0.750000 0.500000 0.421398
O O18 0.000000 0.500000 0.500000
O O19 0.500000 0.807685 0.500000
O O20 0.750000 0.816810 0.405078
#
# Coordination Sequence:
#
# PCOD8208270 Si02
#       7
#     8   8   8   8   8   4   8
#     4   9  18  30  44  64  90 120 152 185 223 266
#     4   9  16  26  41  62  89 120 151 184 221 262
#     4  10  20  33  50  73  99 125 153 186 225 268
#     4  10  20  33  50  71  94 122 154 186 223 268
#     4  10  20  32  47  67  91 118 148 183 223 268
#     4   8  14  24  38  58  85 116 149 182 219 262
#     4  10  19  31  47  67  93 123 155 190 225 265
#
# _framework density 16.111934000000002
#
# number of rings (size 3 to 8) (size 9 to 14) (size 15 to 20)
#    0.000    2.462    0.000    2.769    0.000    5.231 
#    0.000    0.000    0.000    0.462    0.000    0.538 
#    0.000    0.000    0.000    0.000    0.000    0.000 
#
# Total GULP energy -644694.006732 kJ/mol
# GULP energy per Si atom -12397.961668 kJ/mol
# Density = 1.607526 g / cm^3
# Si number density = 16.111934 Si / 1000 Ang^3
#
#
#
# Elastic Constant Matrix: (Units=GPa)
#
#
# Indices 1 2 3 4 5 6 
#
# 1 83.4008 46.8372 59.9978 0.0000 0.0000 0.0000
# 2 46.8372 90.7909 54.7792 0.0000 0.0000 0.0000
# 3 59.9978 54.7792 121.2752 0.0000 0.0000 0.0000
# 4 0.0000 0.0000 0.0000 24.3462 0.0000 0.0000
# 5 0.0000 0.0000 0.0000 0.0000 31.2416 0.0000
# 6 0.0000 0.0000 0.0000 0.0000 0.0000 20.3304
#
#
#
# Elastic Compliance Matrix: (Units=1/GPa)
#
#
# Indices 1 2 3 4 5 6 
#
# 1 0.020911 -0.006249 -0.007523 0.000000 0.000000 0.000000
# 2 -0.006249 0.017008 -0.004591 0.000000 0.000000 0.000000
# 3 -0.007523 -0.004591 0.014041 0.000000 0.000000 0.000000
# 4 0.000000 0.000000 0.000000 0.041074 0.000000 0.000000
# 5 0.000000 0.000000 0.000000 0.000000 0.032009 0.000000
# 6 0.000000 0.000000 0.000000 0.000000 0.000000 0.049187
#
#
# Mechanical properties :
#
#
# Convention : Reuss Voigt Hill
#
# Bulk Modulus (GPa) = 65.63704 68.74393 67.19048
# Shear Modulus (GPa) = 23.14448 24.10717 23.62583
#
# Velocity S-wave (km/s) = 3.79420 3.87231 3.83346
# Velocity P-wave (km/s) = 7.74734 7.92162 7.83497
#
# Compressibility (1/GPa) = 0.01523530
#
# Stress axis : x y z
#
# Youngs Moduli (GPa) = 47.82066 58.79610 71.21933
#
# Poissons Ratio (x) = 0.36741 0.53577
# Poissons Ratio (y) = 0.29882 0.32696
# Poissons Ratio (z) = 0.35975 0.26993
#
# Static dielectric constant tensor:
#      x y z
#    x 3.100920 0.000000 0.000000 
#    y 0.000000 3.332500 0.000000 
#    z 0.000000 0.000000 2.858240 
# 
# 
# High freq. dielectric constant tensor:
#      x y z
#    x 1.632410 0.000000 0.000000 
#    y 0.000000 1.616660 0.000000 
#    z 0.000000 0.000000 1.597700 
# 
# From -- ./inp_files/14642.got.cif
#   From: 2010.03.12/outbox.cif.g09.slc.cpg/sg51_8_cif.got.tgz:14642.got - 2010.04.16 13:43:02.
