data_PCOD8208700
_publ_section_title
;
Structure prediction by ZEFSAII (Michael W. Deem and Ramdas Pophale) SiO2 
 PCOD8208700
Probable space group: P M M A
;
_chemical_formula_sum "Si O2"
_cell_formula_units_Z 64
_cell_length_a 28.445722
_cell_length_b 8.673566
_cell_length_c 15.642123
_cell_angle_alpha 90.000000
_cell_angle_beta 90.000000
_cell_angle_gamma 90.000000
_cell_volume 3859.316049
_symmetry_space_group_name_H-M "P M M A"
_symmetry_group_IT_number 51
_symmetry_cell_setting 'orthorhombic'
loop_
_space_group_symop_operation_xyz
x,y,z
1/2-x,-y,z
1/2+x,-y,-z
-x,y,-z
-x,-y,-z
1/2+x,y,-z
1/2-x,y,z
x,-y,z
loop_
_atom_site_type_symbol
_atom_site_label
_atom_site_fract_x
_atom_site_fract_y
_atom_site_fract_z
Si Si1 0.637921 0.318674 0.662005
Si Si2 0.449032 0.680975 0.586973
Si Si3 0.359906 0.819274 0.660270
Si Si4 0.804815 0.821925 0.511008
Si Si5 0.697553 0.683832 0.821350
Si Si6 0.953482 0.181357 0.596595
Si Si7 0.302579 0.818675 0.821661
Si Si8 0.194043 0.328579 0.992896
O O1 0.628441 0.500000 0.666009
O O2 0.670166 0.284342 0.580444
O O3 0.663531 0.255581 0.746984
O O4 0.588441 0.230385 0.659023
O O5 0.449143 0.500000 0.567893
O O6 0.408416 0.725821 0.653070
O O7 0.499163 0.731572 0.625679
O O8 0.439146 0.771977 0.499360
O O9 0.325571 0.782793 0.581614
O O10 0.335117 0.754821 0.745756
O O11 0.371304 0.000000 0.666444
O O12 0.750000 0.781641 0.509254
O O13 0.813860 0.000000 0.534711
O O14 0.750000 0.750204 0.804532
O O15 0.699948 0.500000 0.821031
O O16 0.677793 0.738366 0.914476
O O17 0.962015 0.000000 0.601045
O O18 0.250000 0.748429 0.811960
O O19 0.324383 0.774301 0.914001
O O20 0.299770 0.000000 0.814035
O O21 0.250000 0.331703 0.995384
O O22 0.173846 0.500000 0.978985
#
# Coordination Sequence:
#
# PCOD8208700 Si02
#       8
#     8   8   8   8   8   8   8   8
#     4  11  20  31  48  71  96 125 162 203 239 278
#     4  11  21  34  52  73  93 117 157 205 242 278
#     4  10  19  32  48  67  96 132 162 191 236 288
#     4  10  20  32  45  63  93 133 168 193 226 279
#     4   8  15  28  46  68  96 129 161 195 239 284
#     4  11  21  35  52  69  93 125 157 194 243 293
#     4   9  17  29  46  69  97 129 163 197 233 276
#     4   8  14  27  46  66  90 123 161 199 238 278
#
# _framework density 16.583248999999999
#
# number of rings (size 3 to 8) (size 9 to 14) (size 15 to 20)
#    0.000    2.250    1.250    4.875    0.000    2.750 
#    0.000    1.250    0.000    5.250    0.000    0.875 
#    0.000    7.000    0.000    0.000    0.000    0.000 
#
# Total GULP energy -793513.896237 kJ/mol
# GULP energy per Si atom -12398.654629 kJ/mol
# Density = 1.654550 g / cm^3
# Si number density = 16.583249 Si / 1000 Ang^3
#
#
#
# Elastic Constant Matrix: (Units=GPa)
#
#
# Indices 1 2 3 4 5 6 
#
# 1 95.3026 19.4107 49.3078 0.0000 0.0000 0.0000
# 2 19.4107 45.4400 19.3341 0.0000 0.0000 0.0000
# 3 49.3078 19.3341 114.3885 0.0000 0.0000 0.0000
# 4 0.0000 0.0000 0.0000 20.5556 0.0000 0.0000
# 5 0.0000 0.0000 0.0000 0.0000 13.1555 0.0000
# 6 0.0000 0.0000 0.0000 0.0000 0.0000 21.0460
#
#
#
# Elastic Compliance Matrix: (Units=1/GPa)
#
#
# Indices 1 2 3 4 5 6 
#
# 1 0.014057 -0.003692 -0.005435 0.000000 0.000000 0.000000
# 2 -0.003692 0.024682 -0.002580 0.000000 0.000000 0.000000
# 3 -0.005435 -0.002580 0.011521 0.000000 0.000000 0.000000
# 4 0.000000 0.000000 0.000000 0.048649 0.000000 0.000000
# 5 0.000000 0.000000 0.000000 0.000000 0.076014 0.000000
# 6 0.000000 0.000000 0.000000 0.000000 0.000000 0.047515
#
#
# Mechanical properties :
#
#
# Convention : Reuss Voigt Hill
#
# Bulk Modulus (GPa) = 37.25109 47.91516 42.58313
# Shear Modulus (GPa) = 19.62315 22.08999 20.85657
#
# Velocity S-wave (km/s) = 3.44366 3.65371 3.55024
# Velocity P-wave (km/s) = 6.19061 6.83783 6.52225
#
# Compressibility (1/GPa) = 0.02684485
#
# Stress axis : x y z
#
# Youngs Moduli (GPa) = 71.13887 40.51520 86.79659
#
# Poissons Ratio (x) = 0.14959 0.47177
# Poissons Ratio (y) = 0.26265 0.22396
# Poissons Ratio (z) = 0.38666 0.10454
#
# Static dielectric constant tensor:
#      x y z
#    x 3.144440 0.000000 0.000000 
#    y 0.000000 2.999010 0.000000 
#    z 0.000000 0.000000 3.284160 
# 
# 
# High freq. dielectric constant tensor:
#      x y z
#    x 1.621750 0.000000 0.000000 
#    y 0.000000 1.630310 0.000000 
#    z 0.000000 0.000000 1.627760 
# 
# From -- ./inp_files/26620.got.cif
#   From: 2010.03.12/outbox.cif.g09.slc.cpg/sg51_14_cif.got.tgz:26620.got - 2010.04.16 13:43:02.
