data_PCOD8208716
_publ_section_title
;
Structure prediction by ZEFSAII (Michael W. Deem and Ramdas Pophale) SiO2 
 PCOD8208716
Probable space group: P M M A
;
_chemical_formula_sum "Si O2"
_cell_formula_units_Z 52
_cell_length_a 9.455435
_cell_length_b 10.615692
_cell_length_c 29.215946
_cell_angle_alpha 90.000000
_cell_angle_beta 90.000000
_cell_angle_gamma 90.000000
_cell_volume 2932.579377
_symmetry_space_group_name_H-M "P M M A"
_symmetry_group_IT_number 51
_symmetry_cell_setting 'orthorhombic'
loop_
_space_group_symop_operation_xyz
x,y,z
1/2-x,-y,z
1/2+x,-y,-z
-x,y,-z
-x,-y,-z
1/2+x,y,-z
1/2-x,y,z
x,-y,z
loop_
_atom_site_type_symbol
_atom_site_label
_atom_site_fract_x
_atom_site_fract_y
_atom_site_fract_z
Si Si1 0.912421 0.284632 0.118978
Si Si2 0.402003 0.143986 0.962418
Si Si3 0.086726 0.644344 0.706130
Si Si4 0.913577 0.500000 0.047018
Si Si5 0.911612 0.353182 0.795833
Si Si6 0.413368 0.144796 0.631015
Si Si7 0.090890 0.148410 0.458169
O O1 0.750000 0.301225 0.135979
O O2 0.944193 0.155063 0.091317
O O3 0.953723 0.383205 0.079500
O O4 0.013220 0.282752 0.162582
O O5 0.250000 0.212011 0.967766
O O6 0.390057 0.000000 0.976038
O O7 0.500000 0.212820 0.000000
O O8 0.250000 0.654862 0.720828
O O9 0.054869 0.500000 0.689076
O O10 0.049635 0.750416 0.668802
O O11 0.990510 0.679960 0.749055
O O12 0.750000 0.500000 0.033725
O O13 0.000000 0.500000 0.000000
O O14 0.750000 0.307626 0.791720
O O15 0.922013 0.500000 0.806462
O O16 0.250000 0.155990 0.615867
O O17 0.511833 0.181451 0.588670
O O18 0.443617 0.000000 0.647770
O O19 0.250000 0.205960 0.457680
O O20 0.000000 0.207118 0.500000
O O21 0.101490 0.000000 0.464920
#
# Coordination Sequence:
#
# PCOD8208716 Si02
#       7
#     8   8   8   4   8   8   8
#     4  10  19  32  49  68  92 120 149 183 224 273
#     4   9  18  32  49  68  90 119 153 185 219 264
#     4   9  18  33  53  73  95 128 166 201 242 296
#     4  10  20  30  44  68  94 118 142 174 221 272
#     4  10  20  33  50  72  94 119 154 196 237 278
#     4   9  17  30  49  74 102 130 163 205 250 293
#     4   9  16  26  43  69 101 136 171 207 249 296
#
# _framework density 17.731829999999999
#
# number of rings (size 3 to 8) (size 9 to 14) (size 15 to 20)
#    0.000    2.615    0.769    1.385    0.000    4.308 
#    0.000    0.769    0.000    5.077    0.000    0.000 
#    0.000    0.000    0.000    0.000    0.000    0.000 
#
# Total GULP energy -644273.208583 kJ/mol
# GULP energy per Si atom -12389.869396 kJ/mol
# Density = 1.769147 g / cm^3
# Si number density = 17.731830 Si / 1000 Ang^3
#
#
#
# Elastic Constant Matrix: (Units=GPa)
#
#
# Indices 1 2 3 4 5 6 
#
# 1 127.1728 35.0509 96.1247 0.0000 0.0000 0.0000
# 2 35.0509 51.3734 47.8365 0.0000 0.0000 0.0000
# 3 96.1247 47.8365 145.3946 0.0000 0.0000 0.0000
# 4 0.0000 0.0000 0.0000 22.0972 0.0000 0.0000
# 5 0.0000 0.0000 0.0000 0.0000 37.2661 0.0000
# 6 0.0000 0.0000 0.0000 0.0000 0.0000 10.9683
#
#
#
# Elastic Compliance Matrix: (Units=1/GPa)
#
#
# Indices 1 2 3 4 5 6 
#
# 1 0.015800 -0.001518 -0.009946 0.000000 0.000000 0.000000
# 2 -0.001518 0.028209 -0.008277 0.000000 0.000000 0.000000
# 3 -0.009946 -0.008277 0.016177 0.000000 0.000000 0.000000
# 4 0.000000 0.000000 0.000000 0.045255 0.000000 0.000000
# 5 0.000000 0.000000 0.000000 0.000000 0.026834 0.000000
# 6 0.000000 0.000000 0.000000 0.000000 0.000000 0.091172
#
#
# Mechanical properties :
#
#
# Convention : Reuss Voigt Hill
#
# Bulk Modulus (GPa) = 48.30492 75.77390 62.03941
# Shear Modulus (GPa) = 18.53024 23.72823 21.12923
#
# Velocity S-wave (km/s) = 3.23619 3.66207 3.45570
# Velocity P-wave (km/s) = 6.42378 7.79147 7.14045
#
# Compressibility (1/GPa) = 0.02070182
#
# Stress axis : x y z
#
# Youngs Moduli (GPa) = 63.29284 35.45023 61.81750
#
# Poissons Ratio (x) = 0.05383 0.61483
# Poissons Ratio (y) = 0.09611 0.51167
# Poissons Ratio (z) = 0.62951 0.29342
#
# Static dielectric constant tensor:
#      x y z
#    x 3.634070 0.000000 0.000000 
#    y 0.000000 3.320660 0.000000 
#    z 0.000000 0.000000 3.224230 
# 
# 
# High freq. dielectric constant tensor:
#      x y z
#    x 1.691270 0.000000 0.000000 
#    y 0.000000 1.659540 0.000000 
#    z 0.000000 0.000000 1.682570 
# 
# From -- ./inp_files/36212.got.cif
#   From: 2010.03.12/outbox.cif.g09.slc.cpg/sg51_19_cif.got.tgz:36212.got - 2010.04.16 13:43:02.
