data_PCOD8208379
_publ_section_title
;
Structure prediction by ZEFSAII (Michael W. Deem and Ramdas Pophale) SiO2 
 PCOD8208379
Probable space group: P M M A
;
_chemical_formula_sum "Si O2"
_cell_formula_units_Z 56
_cell_length_a 8.994088
_cell_length_b 22.416008
_cell_length_c 14.807520
_cell_angle_alpha 90.000000
_cell_angle_beta 90.000000
_cell_angle_gamma 90.000000
_cell_volume 2985.367038
_symmetry_space_group_name_H-M "P M M A"
_symmetry_group_IT_number 51
_symmetry_cell_setting 'orthorhombic'
loop_
_space_group_symop_operation_xyz
x,y,z
1/2-x,-y,z
1/2+x,-y,-z
-x,y,-z
-x,-y,-z
1/2+x,y,-z
1/2-x,y,z
x,-y,z
loop_
_atom_site_type_symbol
_atom_site_label
_atom_site_fract_x
_atom_site_fract_y
_atom_site_fract_z
Si Si1 0.076997 0.069637 0.593553
Si Si2 0.422824 0.792690 0.090235
Si Si3 0.421544 0.433068 0.780686
Si Si4 0.575255 0.657137 0.908938
Si Si5 0.074180 0.837288 0.283073
Si Si6 0.421108 0.607809 0.587722
Si Si7 0.426302 0.255836 0.591801
O O1 0.250000 0.087422 0.588274
O O2 0.000000 0.088966 0.500000
O O3 0.998412 0.103042 0.676514
O O4 0.054999 0.000000 0.611843
O O5 0.250000 0.792373 0.069384
O O6 0.476532 0.724959 0.110959
O O7 0.460202 0.834609 0.175795
O O8 0.500000 0.818320 0.000000
O O9 0.250000 0.415002 0.796376
O O10 0.452958 0.500000 0.816228
O O11 0.525472 0.385554 0.828627
O O12 0.459849 0.431753 0.674480
O O13 0.750000 0.652208 0.920071
O O14 0.500000 0.633230 0.000000
O O15 0.250000 0.836542 0.301661
O O16 0.998256 0.779487 0.325833
O O17 0.500000 0.580416 0.500000
O O18 0.250000 0.606448 0.563858
O O19 0.471814 0.675665 0.606440
O O20 0.500000 0.231098 0.500000
O O21 0.250000 0.245255 0.589044
#
# Coordination Sequence:
#
# PCOD8208379 Si02
#       7
#     8   8   8   8   8   8   8
#     4  10  21  37  56  79 109 146 185 220 254 295
#     4   9  20  36  55  80 107 135 167 209 258 308
#     4  10  21  36  52  72  99 130 167 211 256 304
#     4  10  20  36  57  79 103 131 165 205 255 312
#     4  11  21  33  52  79 109 138 171 212 258 304
#     4   9  19  34  51  71  97 131 168 208 255 305
#     4  10  19  31  48  72 102 134 168 207 254 307
#
# _framework density 18.758163
#
# number of rings (size 3 to 8) (size 9 to 14) (size 15 to 20)
#    0.000    2.143    0.000    3.000    0.000    4.571 
#    0.000    0.000    0.000    0.429    0.000    0.000 
#    0.000    0.000    0.000    0.000    0.000    0.000 
#
# Total GULP energy -694489.648782 kJ/mol
# GULP energy per Si atom -12401.600871 kJ/mol
# Density = 1.871547 g / cm^3
# Si number density = 18.758163 Si / 1000 Ang^3
#
#
#
# Elastic Constant Matrix: (Units=GPa)
#
#
# Indices 1 2 3 4 5 6 
#
# 1 91.9851 34.0480 57.2290 0.0000 0.0000 0.0000
# 2 34.0480 63.0350 42.2178 0.0000 0.0000 0.0000
# 3 57.2290 42.2178 116.9165 0.0000 0.0000 0.0000
# 4 0.0000 0.0000 0.0000 18.1839 0.0000 0.0000
# 5 0.0000 0.0000 0.0000 0.0000 36.8903 0.0000
# 6 0.0000 0.0000 0.0000 0.0000 0.0000 21.2521
#
#
#
# Elastic Compliance Matrix: (Units=1/GPa)
#
#
# Indices 1 2 3 4 5 6 
#
# 1 0.016604 -0.004650 -0.006449 0.000000 0.000000 0.000000
# 2 -0.004650 0.022227 -0.005750 0.000000 0.000000 0.000000
# 3 -0.006449 -0.005750 0.013786 0.000000 0.000000 0.000000
# 4 0.000000 0.000000 0.000000 0.054994 0.000000 0.000000
# 5 0.000000 0.000000 0.000000 0.000000 0.027107 0.000000
# 6 0.000000 0.000000 0.000000 0.000000 0.000000 0.047054
#
#
# Mechanical properties :
#
#
# Convention : Reuss Voigt Hill
#
# Bulk Modulus (GPa) = 52.85303 59.88067 56.36685
# Shear Modulus (GPa) = 22.54526 24.49472 23.51999
#
# Velocity S-wave (km/s) = 3.47059 3.61753 3.54482
# Velocity P-wave (km/s) = 6.65561 7.03139 6.84608
#
# Compressibility (1/GPa) = 0.01892039
#
# Stress axis : x y z
#
# Youngs Moduli (GPa) = 60.22466 44.99077 72.53793
#
# Poissons Ratio (x) = 0.20920 0.46777
# Poissons Ratio (y) = 0.28003 0.41709
# Poissons Ratio (z) = 0.38837 0.25869
#
# Static dielectric constant tensor:
#      x y z
#    x 3.476210 0.000000 0.000000 
#    y 0.000000 3.317570 0.000000 
#    z 0.000000 0.000000 3.467820 
# 
# 
# High freq. dielectric constant tensor:
#      x y z
#    x 1.734370 0.000000 0.000000 
#    y 0.000000 1.713050 0.000000 
#    z 0.000000 0.000000 1.728050 
# 
# From -- ./inp_files/21742.got.cif
#   From: 2010.03.12/outbox.cif.g09.slc.cpg/sg51_11_cif.got.tgz:21742.got - 2010.04.16 13:43:02.
