data_PCOD8208408
_publ_section_title
;
Structure prediction by ZEFSAII (Michael W. Deem and Ramdas Pophale) SiO2 
 PCOD8208408
Probable space group: P M M A
;
_chemical_formula_sum "Si O2"
_cell_formula_units_Z 64
_cell_length_a 9.370439
_cell_length_b 14.236615
_cell_length_c 30.895111
_cell_angle_alpha 90.000000
_cell_angle_beta 90.000000
_cell_angle_gamma 90.000000
_cell_volume 4121.510763
_symmetry_space_group_name_H-M "P M M A"
_symmetry_group_IT_number 51
_symmetry_cell_setting 'orthorhombic'
loop_
_space_group_symop_operation_xyz
x,y,z
1/2-x,-y,z
1/2+x,-y,-z
-x,y,-z
-x,-y,-z
1/2+x,y,-z
1/2-x,y,z
x,-y,z
loop_
_atom_site_type_symbol
_atom_site_label
_atom_site_fract_x
_atom_site_fract_y
_atom_site_fract_z
Si Si1 0.914334 0.103939 0.832020
Si Si2 0.417211 0.704282 0.957504
Si Si3 0.910772 0.387957 0.540890
Si Si4 0.085994 0.610729 0.119639
Si Si5 0.085381 0.292718 0.209249
Si Si6 0.418490 0.606333 0.717065
Si Si7 0.591447 0.611658 0.379268
Si Si8 0.586472 0.104134 0.082885
O O1 0.750000 0.107567 0.845626
O O2 0.945760 0.181304 0.795444
O O3 0.997792 0.131069 0.875046
O O4 0.957312 0.000000 0.814765
O O5 0.250000 0.679619 0.961718
O O6 0.480908 0.650159 0.916638
O O7 0.442021 0.816637 0.953127
O O8 0.500000 0.669260 0.000000
O O9 0.750000 0.348732 0.538036
O O10 0.910085 0.500000 0.541018
O O11 0.000000 0.350042 0.500000
O O12 0.982681 0.348645 0.584841
O O13 0.250000 0.637889 0.108720
O O14 0.065910 0.500000 0.122661
O O15 0.039674 0.654182 0.165508
O O16 0.250000 0.313336 0.219690
O O17 0.992332 0.325665 0.249190
O O18 0.250000 0.611576 0.723384
O O19 0.472499 0.500000 0.724666
O O20 0.460178 0.641088 0.668739
O O21 0.750000 0.651770 0.388777
O O22 0.598505 0.500000 0.381537
O O23 0.750000 0.105657 0.097488
O O24 0.544129 0.000000 0.065097
#
# Coordination Sequence:
#
# PCOD8208408 Si02
#       8
#     8   8   8   8   8   8   8   8
#     4   9  17  30  50  73  94 116 140 168 206 252
#     4  11  23  37  54  73  94 118 144 173 207 251
#     4   9  15  21  31  48  69  97 136 181 226 268
#     4  10  21  37  54  71  92 116 144 180 217 251
#     4  10  19  31  49  71  93 114 141 176 214 255
#     4   9  18  30  43  61  86 117 151 185 222 262
#     4   8  14  25  37  49  71 103 139 181 223 259
#     4   9  18  33  52  74  97 117 138 167 204 246
#
# _framework density 15.528287000000001
#
# number of rings (size 3 to 8) (size 9 to 14) (size 15 to 20)
#    0.000    2.625    1.250    1.875    0.000    5.000 
#    0.000    1.250    0.000    0.000    0.000    0.000 
#    0.000    0.000    0.000    0.000    0.000    0.625 
#
# Total GULP energy -793402.100961 kJ/mol
# GULP energy per Si atom -12396.907828 kJ/mol
# Density = 1.549294 g / cm^3
# Si number density = 15.528287 Si / 1000 Ang^3
#
#
#
# Elastic Constant Matrix: (Units=GPa)
#
#
# Indices 1 2 3 4 5 6 
#
# 1 79.9367 27.5489 63.4538 0.0000 0.0000 0.0000
# 2 27.5489 52.7533 34.0106 0.0000 0.0000 0.0000
# 3 63.4538 34.0106 119.6904 0.0000 0.0000 0.0000
# 4 0.0000 0.0000 0.0000 6.6135 0.0000 0.0000
# 5 0.0000 0.0000 0.0000 0.0000 29.3122 0.0000
# 6 0.0000 0.0000 0.0000 0.0000 0.0000 18.0670
#
#
#
# Elastic Compliance Matrix: (Units=1/GPa)
#
#
# Indices 1 2 3 4 5 6 
#
# 1 0.022627 -0.004998 -0.010576 0.000000 0.000000 0.000000
# 2 -0.004998 0.024312 -0.004258 0.000000 0.000000 0.000000
# 3 -0.010576 -0.004258 0.015172 0.000000 0.000000 0.000000
# 4 0.000000 0.000000 0.000000 0.151205 0.000000 0.000000
# 5 0.000000 0.000000 0.000000 0.000000 0.034116 0.000000
# 6 0.000000 0.000000 0.000000 0.000000 0.000000 0.055350
#
#
# Mechanical properties :
#
#
# Convention : Reuss Voigt Hill
#
# Bulk Modulus (GPa) = 44.55117 55.82298 50.18707
# Shear Modulus (GPa) = 14.28864 19.28967 16.78916
#
# Velocity S-wave (km/s) = 3.03672 3.52835 3.29173
# Velocity P-wave (km/s) = 6.40688 7.25440 6.84377
#
# Compressibility (1/GPa) = 0.02244610
#
# Stress axis : x y z
#
# Youngs Moduli (GPa) = 44.19412 41.13215 65.91248
#
# Poissons Ratio (x) = 0.20559 0.69707
# Poissons Ratio (y) = 0.22090 0.28069
# Poissons Ratio (z) = 0.46738 0.17516
#
# Static dielectric constant tensor:
#      x y z
#    x 3.070000 0.000000 0.000000 
#    y 0.000000 2.885720 0.000000 
#    z 0.000000 0.000000 2.933970 
# 
# 
# High freq. dielectric constant tensor:
#      x y z
#    x 1.603290 0.000000 0.000000 
#    y 0.000000 1.560500 0.000000 
#    z 0.000000 0.000000 1.584020 
# 
# From -- ./inp_files/37606.got.cif
#   From: 2010.03.12/outbox.cif.g09.slc.cpg/sg51_19_cif.got.tgz:37606.got - 2010.04.16 13:43:02.
