data_PCOD8208769
_publ_section_title
;
Structure prediction by ZEFSAII (Michael W. Deem and Ramdas Pophale) SiO2 
 PCOD8208769
Probable space group: P M M A
;
_chemical_formula_sum "Si O2"
_cell_formula_units_Z 52
_cell_length_a 8.829320
_cell_length_b 26.827521
_cell_length_c 13.605288
_cell_angle_alpha 90.000000
_cell_angle_beta 90.000000
_cell_angle_gamma 90.000000
_cell_volume 3222.667803
_symmetry_space_group_name_H-M "P M M A"
_symmetry_group_IT_number 51
_symmetry_cell_setting 'orthorhombic'
loop_
_space_group_symop_operation_xyz
x,y,z
1/2-x,-y,z
1/2+x,-y,-z
-x,y,-z
-x,-y,-z
1/2+x,y,-z
1/2-x,y,z
x,-y,z
loop_
_atom_site_type_symbol
_atom_site_label
_atom_site_fract_x
_atom_site_fract_y
_atom_site_fract_z
Si Si1 0.427581 0.552643 0.605799
Si Si2 0.572902 0.756118 0.281609
Si Si3 0.428372 0.093896 0.212772
Si Si4 0.074097 0.195159 0.103979
Si Si5 0.571252 0.660037 0.393491
Si Si6 0.071449 0.855880 0.606035
Si Si7 0.569988 0.000000 0.107970
O O1 0.500000 0.551781 0.500000
O O2 0.250000 0.553080 0.589973
O O3 0.474125 0.500000 0.661311
O O4 0.473348 0.605774 0.655557
O O5 0.750000 0.754372 0.259300
O O6 0.488380 0.764102 0.179396
O O7 0.510081 0.703981 0.324114
O O8 0.534241 0.799849 0.358799
O O9 0.250000 0.082819 0.219702
O O10 0.464950 0.140044 0.141755
O O11 0.493431 0.104650 0.320935
O O12 0.516213 0.047709 0.167825
O O13 0.250000 0.203645 0.092759
O O14 0.000000 0.204484 0.000000
O O15 0.500000 0.666109 0.500000
O O16 0.750000 0.665795 0.406058
O O17 0.250000 0.866062 0.602755
O O18 0.000000 0.864298 0.500000
O O19 0.750000 0.000000 0.098173
O O20 0.500000 0.000000 0.000000
#
# Coordination Sequence:
#
# PCOD8208769 Si02
#       7
#     8   8   8   8   8   8   4
#     4   8  13  21  33  50  75 109 148 185 220 259
#     4   9  18  30  44  64  91 120 152 188 224 266
#     4  10  21  37  55  76  99 124 154 187 223 266
#     4  10  20  33  51  71  92 118 147 180 221 268
#     4   9  16  25  38  58  85 118 152 187 224 260
#     4  10  19  32  50  71  96 127 159 191 226 266
#     4  12  24  38  57  80 103 126 152 186 228 270
#
# _framework density 16.1357
#
# number of rings (size 3 to 8) (size 9 to 14) (size 15 to 20)
#    0.000    2.462    0.000    3.000    0.000    4.308 
#    0.000    0.385    0.000    0.000    0.000    0.000 
#    0.000    0.615    0.000    1.077    0.000    1.846 
#
# Total GULP energy -644419.125000 kJ/mol
# GULP energy per Si atom -12392.675481 kJ/mol
# Density = 1.609897 g / cm^3
# Si number density = 16.135700 Si / 1000 Ang^3
#
#
#
# Elastic Constant Matrix: (Units=GPa)
#
#
# Indices 1 2 3 4 5 6 
#
# 1 59.7968 51.4382 46.3022 0.0000 0.0000 0.0000
# 2 51.4382 147.8197 71.4712 0.0000 0.0000 0.0000
# 3 46.3022 71.4712 119.7861 0.0000 0.0000 0.0000
# 4 0.0000 0.0000 0.0000 15.0766 0.0000 0.0000
# 5 0.0000 0.0000 0.0000 0.0000 27.2248 0.0000
# 6 0.0000 0.0000 0.0000 0.0000 0.0000 16.2878
#
#
#
# Elastic Compliance Matrix: (Units=1/GPa)
#
#
# Indices 1 2 3 4 5 6 
#
# 1 0.027391 -0.006201 -0.006888 0.000000 0.000000 0.000000
# 2 -0.006201 0.010912 -0.004114 0.000000 0.000000 0.000000
# 3 -0.006888 -0.004114 0.013465 0.000000 0.000000 0.000000
# 4 0.000000 0.000000 0.000000 0.066328 0.000000 0.000000
# 5 0.000000 0.000000 0.000000 0.000000 0.036731 0.000000
# 6 0.000000 0.000000 0.000000 0.000000 0.000000 0.061396
#
#
# Mechanical properties :
#
#
# Convention : Reuss Voigt Hill
#
# Bulk Modulus (GPa) = 57.59461 73.98066 65.78764
# Shear Modulus (GPa) = 19.49959 22.26390 20.88174
#
# Velocity S-wave (km/s) = 3.48008 3.71858 3.60131
# Velocity P-wave (km/s) = 7.20551 8.02407 7.62578
#
# Compressibility (1/GPa) = 0.01736274
#
# Stress axis : x y z
#
# Youngs Moduli (GPa) = 36.50816 91.64346 74.26659
#
# Poissons Ratio (x) = 0.56831 0.51153
# Poissons Ratio (y) = 0.22640 0.30550
# Poissons Ratio (z) = 0.25146 0.37698
#
# Static dielectric constant tensor:
#      x y z
#    x 3.074670 0.000000 0.000000 
#    y 0.000000 3.601120 0.000000 
#    z 0.000000 0.000000 2.874580 
# 
# 
# High freq. dielectric constant tensor:
#      x y z
#    x 1.630730 0.000000 0.000000 
#    y 0.000000 1.627530 0.000000 
#    z 0.000000 0.000000 1.590050 
# 
# From -- ./inp_files/14626.got.cif
#   From: 2010.03.12/outbox.cif.g09.slc.cpg/sg51_8_cif.got.tgz:14626.got - 2010.04.16 13:43:02.
