data_PCOD8208037
_publ_section_title
;
Structure prediction by ZEFSAII (Michael W. Deem and Ramdas Pophale) SiO2 
 PCOD8208037
Probable space group: P M M A
;
_chemical_formula_sum "Si O2"
_cell_formula_units_Z 64
_cell_length_a 8.909834
_cell_length_b 18.875208
_cell_length_c 23.394206
_cell_angle_alpha 90.000000
_cell_angle_beta 90.000000
_cell_angle_gamma 90.000000
_cell_volume 3934.319892
_symmetry_space_group_name_H-M "P M M A"
_symmetry_group_IT_number 51
_symmetry_cell_setting 'orthorhombic'
loop_
_space_group_symop_operation_xyz
x,y,z
1/2-x,-y,z
1/2+x,-y,-z
-x,y,-z
-x,-y,-z
1/2+x,y,-z
1/2-x,y,z
x,-y,z
loop_
_atom_site_type_symbol
_atom_site_label
_atom_site_fract_x
_atom_site_fract_y
_atom_site_fract_z
Si Si1 0.077248 0.850907 0.164343
Si Si2 0.078310 0.920188 0.731345
Si Si3 0.426898 0.710867 0.439922
Si Si4 0.422618 0.579857 0.615115
Si Si5 0.924013 0.420947 0.251266
Si Si6 0.073886 0.919094 0.940922
Si Si7 0.924010 0.787677 0.339337
Si Si8 0.576681 0.284426 0.765755
O O1 0.250000 0.866626 0.150986
O O2 0.050561 0.768845 0.181331
O O3 0.028257 0.901618 0.215978
O O4 0.981602 0.866908 0.108362
O O5 0.250000 0.910768 0.752243
O O6 0.046243 0.869530 0.677281
O O7 0.045513 0.000000 0.711099
O O8 0.500000 0.729907 0.500000
O O9 0.250000 0.714682 0.445729
O O10 0.472534 0.632220 0.420287
O O11 0.481716 0.770288 0.395476
O O12 0.250000 0.600267 0.603627
O O13 0.455136 0.500000 0.594120
O O14 0.459608 0.586522 0.681795
O O15 0.750000 0.406975 0.238698
O O16 0.968729 0.500000 0.230606
O O17 0.023411 0.363456 0.216632
O O18 0.250000 0.911087 0.947544
O O19 0.028215 0.000000 0.925963
O O20 0.000000 0.894732 0.000000
O O21 0.750000 0.771848 0.351295
O O22 0.975102 0.738059 0.287506
O O23 0.750000 0.284151 0.746993
#
# Coordination Sequence:
#
# PCOD8208037 Si02
#       8
#     8   8   8   8   8   8   8   8
#     4  10  20  31  45  70 103 133 164 201 237 273
#     4   9  18  32  51  74  97 123 154 189 233 283
#     4  12  24  36  51  69  90 117 152 190 229 278
#     4   9  18  33  51  70  93 120 151 187 227 273
#     4   9  17  29  47  69  94 125 157 190 232 282
#     4  10  20  33  49  69  96 133 174 209 242 281
#     4  10  19  33  51  69  93 120 148 187 233 280
#     4  10  19  30  46  70  97 126 159 195 234 278
#
# _framework density 16.267105999999998
#
# number of rings (size 3 to 8) (size 9 to 14) (size 15 to 20)
#    0.000    2.125    1.250    3.750    0.000    5.250 
#    0.000    1.250    0.000    0.375    0.000    0.000 
#    0.000    0.500    0.000    1.625    0.000    2.375 
#
# Total GULP energy -793673.900326 kJ/mol
# GULP energy per Si atom -12401.154693 kJ/mol
# Density = 1.623008 g / cm^3
# Si number density = 16.267106 Si / 1000 Ang^3
#
#
#
# Elastic Constant Matrix: (Units=GPa)
#
#
# Indices 1 2 3 4 5 6 
#
# 1 92.4007 46.2724 45.2642 0.0000 0.0000 0.0000
# 2 46.2724 115.5318 46.6475 0.0000 0.0000 0.0000
# 3 45.2642 46.6475 80.8903 0.0000 0.0000 0.0000
# 4 0.0000 0.0000 0.0000 19.4854 0.0000 0.0000
# 5 0.0000 0.0000 0.0000 0.0000 27.3003 0.0000
# 6 0.0000 0.0000 0.0000 0.0000 0.0000 22.6885
#
#
#
# Elastic Compliance Matrix: (Units=1/GPa)
#
#
# Indices 1 2 3 4 5 6 
#
# 1 0.016005 -0.003642 -0.006855 0.000000 0.000000 0.000000
# 2 -0.003642 0.012112 -0.004946 0.000000 0.000000 0.000000
# 3 -0.006855 -0.004946 0.019051 0.000000 0.000000 0.000000
# 4 0.000000 0.000000 0.000000 0.051320 0.000000 0.000000
# 5 0.000000 0.000000 0.000000 0.000000 0.036630 0.000000
# 6 0.000000 0.000000 0.000000 0.000000 0.000000 0.044075
#
#
# Mechanical properties :
#
#
# Convention : Reuss Voigt Hill
#
# Bulk Modulus (GPa) = 61.42799 62.79901 62.11350
# Shear Modulus (GPa) = 23.20113 23.93742 23.56928
#
# Velocity S-wave (km/s) = 3.78068 3.84021 3.81056
# Velocity P-wave (km/s) = 7.54335 7.63882 7.59124
#
# Compressibility (1/GPa) = 0.01627922
#
# Stress axis : x y z
#
# Youngs Moduli (GPa) = 62.48203 82.56603 52.49061
#
# Poissons Ratio (x) = 0.30072 0.35985
# Poissons Ratio (y) = 0.22757 0.25964
# Poissons Ratio (z) = 0.42834 0.40840
#
# Static dielectric constant tensor:
#      x y z
#    x 3.128530 0.000000 0.000000 
#    y 0.000000 3.254870 0.000000 
#    z 0.000000 0.000000 2.831670 
# 
# 
# High freq. dielectric constant tensor:
#      x y z
#    x 1.637220 0.000000 0.000000 
#    y 0.000000 1.626570 0.000000 
#    z 0.000000 0.000000 1.588660 
# 
# From -- ./inp_files/35107.got.cif
#   From: 2010.03.12/outbox.cif.g09.slc.cpg/sg51_18_cif.got.tgz:35107.got - 2010.04.16 13:43:02.
