data_PCOD8208812
_publ_section_title
;
Structure prediction by ZEFSAII (Michael W. Deem and Ramdas Pophale) SiO2 
 PCOD8208812
Probable space group: P M M A
;
_chemical_formula_sum "Si O2"
_cell_formula_units_Z 64
_cell_length_a 21.937734
_cell_length_b 13.681181
_cell_length_c 12.365015
_cell_angle_alpha 90.000000
_cell_angle_beta 90.000000
_cell_angle_gamma 90.000000
_cell_volume 3711.162767
_symmetry_space_group_name_H-M "P M M A"
_symmetry_group_IT_number 51
_symmetry_cell_setting 'orthorhombic'
loop_
_space_group_symop_operation_xyz
x,y,z
1/2-x,-y,z
1/2+x,-y,-z
-x,y,-z
-x,-y,-z
1/2+x,y,-z
1/2-x,y,z
x,-y,z
loop_
_atom_site_type_symbol
_atom_site_label
_atom_site_fract_x
_atom_site_fract_y
_atom_site_fract_z
Si Si1 0.318550 0.389513 0.569624
Si Si2 0.147398 0.387394 0.330732
Si Si3 0.819948 0.613806 0.075816
Si Si4 0.510436 0.385085 0.621725
Si Si5 0.181770 0.737186 0.133058
Si Si6 0.445471 0.111770 0.848921
Si Si7 0.581535 0.111191 0.903503
Si Si8 0.399705 0.704014 0.736886
O O1 0.250000 0.383809 0.613781
O O2 0.344841 0.500000 0.589860
O O3 0.319248 0.365784 0.443375
O O4 0.358360 0.308116 0.630361
O O5 0.153472 0.500000 0.298443
O O6 0.077293 0.355646 0.339350
O O7 0.181889 0.326344 0.240826
O O8 0.750000 0.636638 0.110575
O O9 0.828534 0.500000 0.052259
O O10 0.867051 0.644980 0.167832
O O11 0.838244 0.670449 0.967421
O O12 0.500000 0.343813 0.500000
O O13 0.499924 0.500000 0.620156
O O14 0.465671 0.339545 0.710563
O O15 0.250000 0.778637 0.115419
O O16 0.135008 0.825513 0.148217
O O17 0.516511 0.142102 0.853192
O O18 0.408231 0.182122 0.767900
O O19 0.437754 0.000000 0.808753
O O20 0.417665 0.124034 0.967718
O O21 0.595101 0.000000 0.872230
#
# Coordination Sequence:
#
# PCOD8208812 Si02
#       8
#     8   8   8   8   8   8   8   8
#     4  10  20  33  52  77 104 143 190 222 249 304
#     4  10  20  35  52  74 109 147 184 218 257 309
#     4  10  21  34  48  74 113 149 177 212 263 320
#     4  10  19  32  50  77 108 138 177 225 266 301
#     4  11  21  34  53  79 110 143 179 219 263 312
#     4   9  19  35  58  81 104 135 172 221 274 327
#     4   9  18  37  58  78 104 135 176 220 267 321
#     4  12  19  32  56  78 106 136 178 219 272 318
#
# _framework density 17.245267999999999
#
# number of rings (size 3 to 8) (size 9 to 14) (size 15 to 20)
#    0.000    1.875    2.500    3.750    0.000    2.500 
#    0.000    0.000    0.000    5.625    0.000    0.000 
#    0.000    0.000    0.000    0.000    0.000    0.000 
#
# Total GULP energy -793606.780059 kJ/mol
# GULP energy per Si atom -12400.105938 kJ/mol
# Density = 1.720602 g / cm^3
# Si number density = 17.245268 Si / 1000 Ang^3
#
#
#
# Elastic Constant Matrix: (Units=GPa)
#
#
# Indices 1 2 3 4 5 6 
#
# 1 74.2600 41.9450 25.0973 0.0000 0.0000 0.0000
# 2 41.9450 70.2989 31.2907 0.0000 0.0000 0.0000
# 3 25.0973 31.2907 68.4221 0.0000 0.0000 0.0000
# 4 0.0000 0.0000 0.0000 20.5365 0.0000 0.0000
# 5 0.0000 0.0000 0.0000 0.0000 30.5891 0.0000
# 6 0.0000 0.0000 0.0000 0.0000 0.0000 26.2756
#
#
#
# Elastic Compliance Matrix: (Units=1/GPa)
#
#
# Indices 1 2 3 4 5 6 
#
# 1 0.020629 -0.011226 -0.002433 0.000000 0.000000 0.000000
# 2 -0.011226 0.023969 -0.006844 0.000000 0.000000 0.000000
# 3 -0.002433 -0.006844 0.018638 0.000000 0.000000 0.000000
# 4 0.000000 0.000000 0.000000 0.048694 0.000000 0.000000
# 5 0.000000 0.000000 0.000000 0.000000 0.032691 0.000000
# 6 0.000000 0.000000 0.000000 0.000000 0.000000 0.038058
#
#
# Mechanical properties :
#
#
# Convention : Reuss Voigt Hill
#
# Bulk Modulus (GPa) = 44.98348 45.51633 45.24990
# Shear Modulus (GPa) = 21.63608 23.12343 22.37975
#
# Velocity S-wave (km/s) = 3.54589 3.66574 3.60631
# Velocity P-wave (km/s) = 6.55024 6.66091 6.60580
#
# Compressibility (1/GPa) = 0.02223039
#
# Stress axis : x y z
#
# Youngs Moduli (GPa) = 48.47486 41.71989 53.65524
#
# Poissons Ratio (x) = 0.46834 0.13055
# Poissons Ratio (y) = 0.54417 0.36722
# Poissons Ratio (z) = 0.11794 0.28553
#
# Static dielectric constant tensor:
#      x y z
#    x 3.304810 0.000000 0.000000 
#    y 0.000000 3.029830 0.000000 
#    z 0.000000 0.000000 3.151880 
# 
# 
# High freq. dielectric constant tensor:
#      x y z
#    x 1.677820 0.000000 0.000000 
#    y 0.000000 1.640700 0.000000 
#    z 0.000000 0.000000 1.661240 
# 
# From -- ./inp_files/18867.got.cif
#   From: 2010.03.12/outbox.cif.g09.slc.cpg/sg51_10_cif.got.tgz:18867.got - 2010.04.16 13:43:02.
