data_PCOD8208982
_publ_section_title
;
Structure prediction by ZEFSAII (Michael W. Deem and Ramdas Pophale) SiO2 
 PCOD8208982
Probable space group: P M M A
;
_chemical_formula_sum "Si O2"
_cell_formula_units_Z 56
_cell_length_a 14.054224
_cell_length_b 19.648463
_cell_length_c 9.891610
_cell_angle_alpha 90.000000
_cell_angle_beta 90.000000
_cell_angle_gamma 90.000000
_cell_volume 2731.507765
_symmetry_space_group_name_H-M "P M M A"
_symmetry_group_IT_number 51
_symmetry_cell_setting 'orthorhombic'
loop_
_space_group_symop_operation_xyz
x,y,z
1/2-x,-y,z
1/2+x,-y,-z
-x,y,-z
-x,-y,-z
1/2+x,y,-z
1/2-x,y,z
x,-y,z
loop_
_atom_site_type_symbol
_atom_site_label
_atom_site_fract_x
_atom_site_fract_y
_atom_site_fract_z
Si Si1 0.446567 0.574716 0.637967
Si Si2 0.138702 0.710643 0.700555
Si Si3 0.637444 0.836338 0.865224
Si Si4 0.520832 0.157786 0.347951
Si Si5 0.361828 0.922262 0.871388
Si Si6 0.354818 0.295694 0.000541
Si Si7 0.422729 0.426090 0.115909
O O1 0.500000 0.568377 0.500000
O O2 0.399164 0.500000 0.671927
O O3 0.371004 0.636411 0.630061
O O4 0.528095 0.592570 0.744579
O O5 0.250000 0.732128 0.690223
O O6 0.069699 0.767491 0.635724
O O7 0.098701 0.699152 0.852963
O O8 0.750000 0.839891 0.832102
O O9 0.580731 0.848811 0.727113
O O10 0.597066 0.762389 0.909656
O O11 0.608515 0.887628 0.986284
O O12 0.500000 0.130615 0.500000
O O13 0.592747 0.111798 0.261137
O O14 0.250000 0.915088 0.851258
O O15 0.395371 0.000000 0.879503
O O16 0.250000 0.267982 0.973164
O O17 0.348676 0.367200 0.078778
O O18 0.371191 0.500000 0.123773
O O19 0.500000 0.427159 0.000000
#
# Coordination Sequence:
#
# PCOD8208982 Si02
#       7
#     8   8   8   8   8   8   8
#     4  10  21  37  55  79 112 154 203 250 303 366
#     4  11  22  37  59  87 118 156 206 257 306 363
#     4  10  22  40  63  92 121 160 209 254 300 354
#     4  12  25  39  62  93 130 168 200 248 306 367
#     4  10  22  43  70  97 125 160 206 253 295 351
#     4  10  20  34  56  83 111 144 195 253 301 354
#     4  10  19  32  52  77 106 142 187 241 299 355
#
# _framework density 20.501497000000001
#
# number of rings (size 3 to 8) (size 9 to 14) (size 15 to 20)
#    0.000    1.571    2.857    2.143    0.000    3.143 
#    0.000    3.571    0.000    4.286    0.000    0.000 
#    0.000    0.000    0.000    0.000    0.000    0.000 
#
# Total GULP energy -693876.248173 kJ/mol
# GULP energy per Si atom -12390.647289 kJ/mol
# Density = 2.045483 g / cm^3
# Si number density = 20.501497 Si / 1000 Ang^3
#
#
#
# Elastic Constant Matrix: (Units=GPa)
#
#
# Indices 1 2 3 4 5 6 
#
# 1 69.9736 34.8055 37.6942 0.0000 0.0000 0.0000
# 2 34.8055 134.1279 34.0443 0.0000 0.0000 0.0000
# 3 37.6942 34.0443 130.7896 0.0000 0.0000 0.0000
# 4 0.0000 0.0000 0.0000 18.7333 0.0000 0.0000
# 5 0.0000 0.0000 0.0000 0.0000 24.3251 0.0000
# 6 0.0000 0.0000 0.0000 0.0000 0.0000 31.2649
#
#
#
# Elastic Compliance Matrix: (Units=1/GPa)
#
#
# Indices 1 2 3 4 5 6 
#
# 1 0.018476 -0.003687 -0.004365 0.000000 0.000000 0.000000
# 2 -0.003687 0.008719 -0.001207 0.000000 0.000000 0.000000
# 3 -0.004365 -0.001207 0.009218 0.000000 0.000000 0.000000
# 4 0.000000 0.000000 0.000000 0.053381 0.000000 0.000000
# 5 0.000000 0.000000 0.000000 0.000000 0.041110 0.000000
# 6 0.000000 0.000000 0.000000 0.000000 0.000000 0.031985
#
#
# Mechanical properties :
#
#
# Convention : Reuss Voigt Hill
#
# Bulk Modulus (GPa) = 55.88030 60.88660 58.38345
# Shear Modulus (GPa) = 26.68498 30.08781 28.38640
#
# Velocity S-wave (km/s) = 3.61170 3.83507 3.72506
# Velocity P-wave (km/s) = 6.68643 7.02662 6.85864
#
# Compressibility (1/GPa) = 0.01789539
#
# Stress axis : x y z
#
# Youngs Moduli (GPa) = 54.12301 114.69795 108.48140
#
# Poissons Ratio (x) = 0.42284 0.47357
# Poissons Ratio (y) = 0.19953 0.13093
# Poissons Ratio (z) = 0.23627 0.13844
#
# Static dielectric constant tensor:
#      x y z
#    x 3.457250 0.000000 0.000000 
#    y 0.000000 4.135570 0.000000 
#    z 0.000000 0.000000 3.597590 
# 
# 
# High freq. dielectric constant tensor:
#      x y z
#    x 1.788000 0.000000 0.000000 
#    y 0.000000 1.810550 0.000000 
#    z 0.000000 0.000000 1.793880 
# 
# From -- ./inp_files/8487.got.cif
#   From: 2010.03.12/outbox.cif.g09.slc.cpg/sg51_5_cif.got.tgz:8487.got - 2010.04.16 13:43:02.
