data_PCOD8208815
_publ_section_title
;
Structure prediction by ZEFSAII (Michael W. Deem and Ramdas Pophale) SiO2 
 PCOD8208815
Probable space group: P M M A
;
_chemical_formula_sum "Si O2"
_cell_formula_units_Z 48
_cell_length_a 8.719485
_cell_length_b 16.862600
_cell_length_c 15.829568
_cell_angle_alpha 90.000000
_cell_angle_beta 90.000000
_cell_angle_gamma 90.000000
_cell_volume 2327.471844
_symmetry_space_group_name_H-M "P M M A"
_symmetry_group_IT_number 51
_symmetry_cell_setting 'orthorhombic'
loop_
_space_group_symop_operation_xyz
x,y,z
1/2-x,-y,z
1/2+x,-y,-z
-x,y,-z
-x,-y,-z
1/2+x,y,-z
1/2-x,y,z
x,-y,z
loop_
_atom_site_type_symbol
_atom_site_label
_atom_site_fract_x
_atom_site_fract_y
_atom_site_fract_z
Si Si1 0.431241 0.500000 0.407810
Si Si2 0.931897 0.174122 0.087589
Si Si3 0.426894 0.335842 0.842043
Si Si4 0.431001 0.184756 0.414015
Si Si5 0.433501 0.500000 0.907994
Si Si6 0.927662 0.660191 0.350325
Si Si7 0.572942 0.093124 0.259054
O O1 0.250000 0.500000 0.412951
O O2 0.500000 0.500000 0.500000
O O3 0.488423 0.423275 0.358375
O O4 0.750000 0.171976 0.081188
O O5 0.995573 0.263907 0.102214
O O6 0.986262 0.120606 0.166724
O O7 0.000000 0.140537 0.000000
O O8 0.250000 0.343782 0.864750
O O9 0.501913 0.421410 0.862185
O O10 0.449495 0.311035 0.745356
O O11 0.500000 0.146566 0.500000
O O12 0.250000 0.187262 0.421116
O O13 0.495419 0.274132 0.409098
O O14 0.476963 0.133272 0.333282
O O15 0.250000 0.500000 0.907168
O O16 0.500000 0.500000 0.000000
O O17 0.750000 0.650303 0.375174
O O18 0.750000 0.118131 0.270989
O O19 0.548803 0.000000 0.265868
#
# Coordination Sequence:
#
# PCOD8208815 Si02
#       7
#     4   8   8   8   4   8   8
#     4  12  25  40  56  86 124 162 211 263 313 368
#     4  10  20  37  60  90 124 164 207 256 311 374
#     4   9  18  34  57  81 114 157 205 249 305 367
#     4  12  25  42  66  96 129 165 206 258 316 380
#     4  10  19  32  50  78 112 154 199 245 295 355
#     4  11  21  40  65  88 119 165 213 260 313 372
#     4  10  22  43  68  92 124 166 210 258 315 380
#
# _framework density 20.623232999999999
#
# number of rings (size 3 to 8) (size 9 to 14) (size 15 to 20)
#    0.000    1.500    1.667    4.250    0.000    3.000 
#    0.000    2.500    0.000    0.000    0.000    0.000 
#    0.000    0.000    0.000    0.000    0.000    0.000 
#
# Total GULP energy -595229.966639 kJ/mol
# GULP energy per Si atom -12400.624305 kJ/mol
# Density = 2.057629 g / cm^3
# Si number density = 20.623233 Si / 1000 Ang^3
#
#
#
# Elastic Constant Matrix: (Units=GPa)
#
#
# Indices 1 2 3 4 5 6 
#
# 1 109.4408 41.3229 53.6789 0.0000 0.0000 0.0000
# 2 41.3229 92.5123 43.2398 0.0000 0.0000 0.0000
# 3 53.6789 43.2398 132.2755 0.0000 0.0000 0.0000
# 4 0.0000 0.0000 0.0000 20.2684 0.0000 0.0000
# 5 0.0000 0.0000 0.0000 0.0000 36.6312 0.0000
# 6 0.0000 0.0000 0.0000 0.0000 0.0000 22.5404
#
#
#
# Elastic Compliance Matrix: (Units=1/GPa)
#
#
# Indices 1 2 3 4 5 6 
#
# 1 0.012431 -0.003771 -0.003812 0.000000 0.000000 0.000000
# 2 -0.003771 0.013903 -0.003014 0.000000 0.000000 0.000000
# 3 -0.003812 -0.003014 0.010092 0.000000 0.000000 0.000000
# 4 0.000000 0.000000 0.000000 0.049338 0.000000 0.000000
# 5 0.000000 0.000000 0.000000 0.000000 0.027299 0.000000
# 6 0.000000 0.000000 0.000000 0.000000 0.000000 0.044365
#
#
# Mechanical properties :
#
#
# Convention : Reuss Voigt Hill
#
# Bulk Modulus (GPa) = 65.65385 67.85688 66.75537
# Shear Modulus (GPa) = 27.21841 28.95380 28.08611
#
# Velocity S-wave (km/s) = 3.63684 3.75098 3.69435
# Velocity P-wave (km/s) = 7.03843 7.19266 7.11596
#
# Compressibility (1/GPa) = 0.01523140
#
# Stress axis : x y z
#
# Youngs Moduli (GPa) = 80.44494 71.92881 99.08564
#
# Poissons Ratio (x) = 0.27123 0.37771
# Poissons Ratio (y) = 0.30335 0.29868
# Poissons Ratio (z) = 0.30665 0.21682
#
# Static dielectric constant tensor:
#      x y z
#    x 3.537840 0.000000 0.000000 
#    y 0.000000 4.081850 0.000000 
#    z 0.000000 0.000000 3.829920 
# 
# 
# High freq. dielectric constant tensor:
#      x y z
#    x 1.782760 0.000000 0.000000 
#    y 0.000000 1.813640 0.000000 
#    z 0.000000 0.000000 1.820780 
# 
# From -- ./inp_files/21136.got.cif
#   From: 2010.03.12/outbox.cif.g09.slc.cpg/sg51_11_cif.got.tgz:21136.got - 2010.04.16 13:43:02.
