data_PCOD8208319
_publ_section_title
;
Structure prediction by ZEFSAII (Michael W. Deem and Ramdas Pophale) SiO2 
 PCOD8208319
Probable space group: P M M A
;
_chemical_formula_sum "Si O2"
_cell_formula_units_Z 64
_cell_length_a 14.185075
_cell_length_b 9.346597
_cell_length_c 25.893834
_cell_angle_alpha 90.000000
_cell_angle_beta 90.000000
_cell_angle_gamma 90.000000
_cell_volume 3433.060946
_symmetry_space_group_name_H-M "P M M A"
_symmetry_group_IT_number 51
_symmetry_cell_setting 'orthorhombic'
loop_
_space_group_symop_operation_xyz
x,y,z
1/2-x,-y,z
1/2+x,-y,-z
-x,y,-z
-x,-y,-z
1/2+x,y,-z
1/2-x,y,z
x,-y,z
loop_
_atom_site_type_symbol
_atom_site_label
_atom_site_fract_x
_atom_site_fract_y
_atom_site_fract_z
Si Si1 0.643258 0.835547 0.675845
Si Si2 0.959685 0.833657 0.271739
Si Si3 0.045319 0.330145 0.924227
Si Si4 0.106498 0.158092 0.514314
Si Si5 0.644644 0.344377 0.580969
Si Si6 0.355481 0.329886 0.027439
Si Si7 0.359408 0.669866 0.819628
Si Si8 0.644007 0.168408 0.372727
O O1 0.750000 0.791373 0.691922
O O2 0.573324 0.811321 0.724679
O O3 0.599682 0.750660 0.626672
O O4 0.640243 0.000000 0.658265
O O5 0.915876 0.740271 0.226804
O O6 0.919015 0.773932 0.325894
O O7 0.933444 0.000000 0.262607
O O8 0.047756 0.500000 0.924350
O O9 0.090329 0.271432 0.871456
O O10 0.935594 0.279303 0.931176
O O11 0.110364 0.274381 0.971310
O O12 0.152033 0.264684 0.473558
O O13 0.115007 0.230373 0.571066
O O14 0.000000 0.138793 0.500000
O O15 0.155459 0.000000 0.512689
O O16 0.750000 0.371217 0.599792
O O17 0.593419 0.500000 0.575723
O O18 0.250000 0.268403 0.040021
O O19 0.350412 0.500000 0.027098
O O20 0.250000 0.717299 0.819285
O O21 0.368075 0.500000 0.814986
O O22 0.750000 0.214669 0.359980
O O23 0.630984 0.000000 0.376286
#
# Coordination Sequence:
#
# PCOD8208319 Si02
#       8
#     8   8   8   8   8   8   8   8
#     4   9  18  34  55  74  92 120 160 203 245 291
#     4  10  20  35  54  73  93 121 163 211 250 287
#     4   8  14  24  39  63  96 131 165 202 245 292
#     4  10  19  31  48  68  90 119 156 194 234 286
#     4  10  20  32  47  70  98 124 150 184 232 292
#     4   8  12  20  38  64  94 129 168 207 244 283
#     4  10  20  33  49  71 101 134 165 200 247 299
#     4   9  17  29  46  67  89 115 150 194 240 281
#
# _framework density 18.642254999999999
#
# number of rings (size 3 to 8) (size 9 to 14) (size 15 to 20)
#    0.000    2.750    0.000    3.000    0.000    6.250 
#    0.000    1.250    0.000    3.000    0.000    1.750 
#    0.000    1.000    0.000    0.000    0.000    0.000 
#
# Total GULP energy -792930.098084 kJ/mol
# GULP energy per Si atom -12389.532783 kJ/mol
# Density = 1.859982 g / cm^3
# Si number density = 18.642255 Si / 1000 Ang^3
#
#
#
# Elastic Constant Matrix: (Units=GPa)
#
#
# Indices 1 2 3 4 5 6 
#
# 1 129.3922 22.7788 69.2732 0.0000 0.0000 0.0000
# 2 22.7788 46.7205 35.4761 0.0000 0.0000 0.0000
# 3 69.2732 35.4761 128.9839 0.0000 0.0000 0.0000
# 4 0.0000 0.0000 0.0000 11.9753 0.0000 0.0000
# 5 0.0000 0.0000 0.0000 0.0000 30.5602 0.0000
# 6 0.0000 0.0000 0.0000 0.0000 0.0000 15.2115
#
#
#
# Elastic Compliance Matrix: (Units=1/GPa)
#
#
# Indices 1 2 3 4 5 6 
#
# 1 0.010892 -0.001098 -0.005548 0.000000 0.000000 0.000000
# 2 -0.001098 0.027165 -0.006882 0.000000 0.000000 0.000000
# 3 -0.005548 -0.006882 0.012625 0.000000 0.000000 0.000000
# 4 0.000000 0.000000 0.000000 0.083505 0.000000 0.000000
# 5 0.000000 0.000000 0.000000 0.000000 0.032722 0.000000
# 6 0.000000 0.000000 0.000000 0.000000 0.000000 0.065740
#
#
# Mechanical properties :
#
#
# Convention : Reuss Voigt Hill
#
# Bulk Modulus (GPa) = 42.32452 62.23920 52.28186
# Shear Modulus (GPa) = 18.68604 23.38729 21.03667
#
# Velocity S-wave (km/s) = 3.16942 3.54578 3.36287
# Velocity P-wave (km/s) = 6.01220 7.08675 6.57147
#
# Compressibility (1/GPa) = 0.02362697
#
# Stress axis : x y z
#
# Youngs Moduli (GPa) = 91.81217 36.81241 79.20661
#
# Poissons Ratio (x) = 0.04041 0.43941
# Poissons Ratio (y) = 0.10080 0.54509
# Poissons Ratio (z) = 0.50935 0.25334
#
# Static dielectric constant tensor:
#      x y z
#    x 3.714950 0.000000 0.000000 
#    y 0.000000 3.160770 0.000000 
#    z 0.000000 0.000000 3.401210 
# 
# 
# High freq. dielectric constant tensor:
#      x y z
#    x 1.737600 0.000000 0.000000 
#    y 0.000000 1.673550 0.000000 
#    z 0.000000 0.000000 1.707850 
# 
# From -- ./inp_files/35764.got.cif
#   From: 2010.03.12/outbox.cif.g09.slc.cpg/sg51_18_cif.got.tgz:35764.got - 2010.04.16 13:43:02.
