data_PCOD8208192
_publ_section_title
;
Structure prediction by ZEFSAII (Michael W. Deem and Ramdas Pophale) SiO2 
 PCOD8208192
Probable space group: P M M A
;
_chemical_formula_sum "Si O2"
_cell_formula_units_Z 48
_cell_length_a 19.640871
_cell_length_b 7.823705
_cell_length_c 17.127864
_cell_angle_alpha 90.000000
_cell_angle_beta 90.000000
_cell_angle_gamma 90.000000
_cell_volume 2631.942613
_symmetry_space_group_name_H-M "P M M A"
_symmetry_group_IT_number 51
_symmetry_cell_setting 'orthorhombic'
loop_
_space_group_symop_operation_xyz
x,y,z
1/2-x,-y,z
1/2+x,-y,-z
-x,y,-z
-x,-y,-z
1/2+x,y,-z
1/2-x,y,z
x,-y,z
loop_
_atom_site_type_symbol
_atom_site_label
_atom_site_fract_x
_atom_site_fract_y
_atom_site_fract_z
Si Si1 0.325668 0.804979 0.275484
Si Si2 0.331501 0.000000 0.010069
Si Si3 0.575857 0.701395 0.416407
Si Si4 0.830449 0.000000 0.164655
Si Si5 0.170224 0.697271 0.723961
Si Si6 0.076252 0.702330 0.410025
Si Si7 0.169273 0.312165 0.111607
O O1 0.250000 0.734473 0.296289
O O2 0.373201 0.789868 0.350107
O O3 0.357489 0.707610 0.200553
O O4 0.320380 0.000000 0.249424
O O5 0.360533 0.831438 0.053557
O O6 0.250000 0.000000 0.008560
O O7 0.361482 0.000000 0.922306
O O8 0.572447 0.500000 0.422105
O O9 0.631743 0.760158 0.353889
O O10 0.595746 0.767778 0.502813
O O11 0.500686 0.765093 0.391452
O O12 0.854059 0.174533 0.207725
O O13 0.750000 0.000000 0.159602
O O14 0.250000 0.716192 0.706997
O O15 0.152171 0.500000 0.746309
O O16 0.083627 0.500000 0.401943
O O17 0.250000 0.290925 0.114368
O O18 0.147877 0.500000 0.080452
#
# Coordination Sequence:
#
# PCOD8208192 Si02
#       7
#     8   4   8   4   8   8   8
#     4  10  19  31  44  66 103 133 159 201 242 283
#     4   9  16  28  44  66  99 126 152 197 239 283
#     4   8  16  32  50  69  96 126 162 209 246 281
#     4   9  18  30  46  71  99 127 159 198 243 290
#     4   9  17  31  50  71  98 130 162 200 247 292
#     4   9  17  31  50  70  93 126 168 206 242 285
#     4   9  16  27  45  67  93 128 160 189 237 292
#
# _framework density 18.237480999999999
#
# number of rings (size 3 to 8) (size 9 to 14) (size 15 to 20)
#    0.000    3.000    0.833    1.500    0.000    2.333 
#    3.000    5.833    0.000    0.000    0.000    2.333 
#    0.000    5.333    0.000    0.000    0.000    0.000 
#
# Total GULP energy -594886.128901 kJ/mol
# GULP energy per Si atom -12393.461019 kJ/mol
# Density = 1.819597 g / cm^3
# Si number density = 18.237481 Si / 1000 Ang^3
#
#
#
# Elastic Constant Matrix: (Units=GPa)
#
#
# Indices 1 2 3 4 5 6 
#
# 1 47.5028 23.2096 50.4109 0.0000 0.0000 0.0000
# 2 23.2096 99.8382 62.3487 0.0000 0.0000 0.0000
# 3 50.4109 62.3487 153.4444 0.0000 0.0000 0.0000
# 4 0.0000 0.0000 0.0000 27.9496 0.0000 0.0000
# 5 0.0000 0.0000 0.0000 0.0000 0.8583 0.0000
# 6 0.0000 0.0000 0.0000 0.0000 0.0000 11.6089
#
#
#
# Elastic Compliance Matrix: (Units=1/GPa)
#
#
# Indices 1 2 3 4 5 6 
#
# 1 0.032424 -0.001186 -0.010170 0.000000 0.000000 0.000000
# 2 -0.001186 0.013465 -0.005082 0.000000 0.000000 0.000000
# 3 -0.010170 -0.005082 0.011923 0.000000 0.000000 0.000000
# 4 0.000000 0.000000 0.000000 0.035779 0.000000 0.000000
# 5 0.000000 0.000000 0.000000 0.000000 1.165079 0.000000
# 6 0.000000 0.000000 0.000000 0.000000 0.000000 0.086141
#
#
# Mechanical properties :
#
#
# Convention : Reuss Voigt Hill
#
# Bulk Modulus (GPa) = 40.10270 63.63597 51.86934
# Shear Modulus (GPa) = 3.60751 19.07112 11.33931
#
# Velocity S-wave (km/s) = 1.40797 3.23725 2.49621
# Velocity P-wave (km/s) = 4.96790 6.99584 6.06720
#
# Compressibility (1/GPa) = 0.02493597
#
# Stress axis : x y z
#
# Youngs Moduli (GPa) = 30.84163 74.26395 83.87168
#
# Poissons Ratio (x) = 0.08811 0.85298
# Poissons Ratio (y) = 0.03659 0.42620
# Poissons Ratio (z) = 0.31366 0.37738
#
# Static dielectric constant tensor:
#      x y z
#    x 3.071360 0.000000 0.000000 
#    y 0.000000 3.367670 0.000000 
#    z 0.000000 0.000000 3.583520 
# 
# 
# High freq. dielectric constant tensor:
#      x y z
#    x 1.657530 0.000000 0.000000 
#    y 0.000000 1.709470 0.000000 
#    z 0.000000 0.000000 1.706010 
# 
# From -- ./inp_files/24956.got.cif
#   From: 2010.03.12/outbox.cif.g09.slc.cpg/sg51_13_cif.got.tgz:24956.got - 2010.04.16 13:43:02.
