data_PCOD8208261
_publ_section_title
;
Structure prediction by ZEFSAII (Michael W. Deem and Ramdas Pophale) SiO2 
 PCOD8208261
Probable space group: P M M A
;
_chemical_formula_sum "Si O2"
_cell_formula_units_Z 64
_cell_length_a 8.926617
_cell_length_b 14.268552
_cell_length_c 31.104551
_cell_angle_alpha 90.000000
_cell_angle_beta 90.000000
_cell_angle_gamma 90.000000
_cell_volume 3961.783515
_symmetry_space_group_name_H-M "P M M A"
_symmetry_group_IT_number 51
_symmetry_cell_setting 'orthorhombic'
loop_
_space_group_symop_operation_xyz
x,y,z
1/2-x,-y,z
1/2+x,-y,-z
-x,y,-z
-x,-y,-z
1/2+x,y,-z
1/2-x,y,z
x,-y,z
loop_
_atom_site_type_symbol
_atom_site_label
_atom_site_fract_x
_atom_site_fract_y
_atom_site_fract_z
Si Si1 0.418835 0.611637 0.957779
Si Si2 0.075151 0.391381 0.455351
Si Si3 0.426597 0.607988 0.128300
Si Si4 0.072180 0.707329 0.213010
Si Si5 0.575897 0.106386 0.652747
Si Si6 0.075415 0.609414 0.299857
Si Si7 0.926817 0.284084 0.377484
Si Si8 0.927987 0.101739 0.750885
O O1 0.250000 0.648990 0.957833
O O2 0.425637 0.500000 0.958689
O O3 0.499795 0.648965 0.914931
O O4 0.500000 0.652721 0.000000
O O5 0.250000 0.368837 0.458017
O O6 0.045508 0.500000 0.444867
O O7 0.000000 0.362151 0.500000
O O8 0.001608 0.331016 0.418341
O O9 0.250000 0.619849 0.123590
O O10 0.470524 0.500000 0.135585
O O11 0.492810 0.665853 0.168683
O O12 0.250000 0.707298 0.210122
O O13 0.022526 0.642190 0.252700
O O14 0.010019 0.813437 0.219691
O O15 0.750000 0.133198 0.648236
O O16 0.477495 0.175638 0.623666
O O17 0.522061 0.118702 0.701907
O O18 0.547766 0.000000 0.637214
O O19 0.250000 0.633141 0.307376
O O20 0.043668 0.500000 0.304437
O O21 0.978716 0.663890 0.334555
O O22 0.750000 0.291026 0.381932
O O23 0.750000 0.100579 0.752183
O O24 0.988876 0.000000 0.767097
#
# Coordination Sequence:
#
# PCOD8208261 Si02
#       8
#     8   8   8   8   8   8   8   8
#     4   9  16  26  40  57  78 107 144 186 226 265
#     4  10  21  38  59  80 102 129 162 200 240 283
#     4   9  16  25  38  58  84 116 151 185 224 270
#     4   9  15  25  42  63  89 119 155 195 232 274
#     4   9  17  32  54  75  95 123 162 205 244 282
#     4  10  19  31  47  66  91 127 169 206 235 269
#     4  12  23  33  49  74 104 133 161 196 238 286
#     4   8  13  23  43  68  89 112 149 198 241 273
#
# _framework density 16.154340999999999
#
# number of rings (size 3 to 8) (size 9 to 14) (size 15 to 20)
#    0.000    2.500    1.250    3.375    0.000    5.750 
#    0.000    0.625    0.000    1.875    0.000    0.000 
#    0.000    0.500    0.000    0.875    0.000    1.250 
#
# Total GULP energy -793448.263404 kJ/mol
# GULP energy per Si atom -12397.629116 kJ/mol
# Density = 1.611757 g / cm^3
# Si number density = 16.154341 Si / 1000 Ang^3
#
#
#
# Elastic Constant Matrix: (Units=GPa)
#
#
# Indices 1 2 3 4 5 6 
#
# 1 60.6660 34.9418 47.3377 0.0000 0.0000 0.0000
# 2 34.9418 87.6051 55.8759 0.0000 0.0000 0.0000
# 3 47.3377 55.8759 129.2131 0.0000 0.0000 0.0000
# 4 0.0000 0.0000 0.0000 55.2883 0.0000 0.0000
# 5 0.0000 0.0000 0.0000 0.0000 22.4323 0.0000
# 6 0.0000 0.0000 0.0000 0.0000 0.0000 12.5912
#
#
#
# Elastic Compliance Matrix: (Units=1/GPa)
#
#
# Indices 1 2 3 4 5 6 
#
# 1 0.024986 -0.005699 -0.006689 0.000000 0.000000 0.000000
# 2 -0.005699 0.017062 -0.005290 0.000000 0.000000 0.000000
# 3 -0.006689 -0.005290 0.012477 0.000000 0.000000 0.000000
# 4 0.000000 0.000000 0.000000 0.018087 0.000000 0.000000
# 5 0.000000 0.000000 0.000000 0.000000 0.044579 0.000000
# 6 0.000000 0.000000 0.000000 0.000000 0.000000 0.079421
#
#
# Mechanical properties :
#
#
# Convention : Reuss Voigt Hill
#
# Bulk Modulus (GPa) = 52.16997 61.53277 56.85137
# Shear Modulus (GPa) = 20.97680 27.35096 24.16388
#
# Velocity S-wave (km/s) = 3.60741 4.11920 3.87177
# Velocity P-wave (km/s) = 7.05096 7.79724 7.43347
#
# Compressibility (1/GPa) = 0.01916812
#
# Stress axis : x y z
#
# Youngs Moduli (GPa) = 40.02265 58.60873 80.14477
#
# Poissons Ratio (x) = 0.33403 0.53609
# Poissons Ratio (y) = 0.22810 0.42399
# Poissons Ratio (z) = 0.26771 0.31006
#
# Static dielectric constant tensor:
#      x y z
#    x 2.469300 0.000000 0.000000 
#    y 0.000000 3.198840 0.000000 
#    z 0.000000 0.000000 3.253300 
# 
# 
# High freq. dielectric constant tensor:
#      x y z
#    x 1.600150 0.000000 0.000000 
#    y 0.000000 1.605500 0.000000 
#    z 0.000000 0.000000 1.613310 
# 
# From -- ./inp_files/37680.got.cif
#   From: 2010.03.12/outbox.cif.g09.slc.cpg/sg51_19_cif.got.tgz:37680.got - 2010.04.16 13:43:02.
