data_PCOD8208771
_publ_section_title
;
Structure prediction by ZEFSAII (Michael W. Deem and Ramdas Pophale) SiO2 
 PCOD8208771
Probable space group: P M M A
;
_chemical_formula_sum "Si O2"
_cell_formula_units_Z 48
_cell_length_a 14.176104
_cell_length_b 15.507403
_cell_length_c 11.598409
_cell_angle_alpha 90.000000
_cell_angle_beta 90.000000
_cell_angle_gamma 90.000000
_cell_volume 2549.731113
_symmetry_space_group_name_H-M "P M M A"
_symmetry_group_IT_number 51
_symmetry_cell_setting 'orthorhombic'
loop_
_space_group_symop_operation_xyz
x,y,z
1/2-x,-y,z
1/2+x,-y,-z
-x,y,-z
-x,-y,-z
1/2+x,y,-z
1/2-x,y,z
x,-y,z
loop_
_atom_site_type_symbol
_atom_site_label
_atom_site_fract_x
_atom_site_fract_y
_atom_site_fract_z
Si Si1 0.960333 0.401383 0.708550
Si Si2 0.855790 0.650978 0.187074
Si Si3 0.140848 0.254934 0.424353
Si Si4 0.646753 0.184648 0.324496
Si Si5 0.857457 0.399353 0.937417
Si Si6 0.530643 0.906180 0.630923
O O1 0.930639 0.500000 0.679176
O O2 0.921669 0.338320 0.609091
O O3 0.916661 0.366908 0.828432
O O4 0.073565 0.397194 0.724465
O O5 0.750000 0.610283 0.198864
O O6 0.852477 0.751587 0.216612
O O7 0.892366 0.644520 0.055649
O O8 0.250000 0.272804 0.395561
O O9 0.123867 0.239469 0.559822
O O10 0.107870 0.169467 0.353197
O O11 0.750000 0.139919 0.337564
O O12 0.565604 0.114987 0.299399
O O13 0.750000 0.375094 0.910922
O O14 0.872682 0.500000 0.955866
O O15 0.500000 0.913239 0.500000
O O16 0.569850 0.000000 0.672509
#
# Coordination Sequence:
#
# PCOD8208771 Si02
#       6
#     8   8   8   8   8   8
#     4  11  21  33  51  72  99 137 175 208 248 293
#     4  10  19  32  50  71  98 132 167 209 255 293
#     4  10  20  34  51  73 105 136 167 208 248 294
#     4   9  18  33  52  74 104 134 163 202 248 301
#     4   9  18  32  49  71  97 125 168 217 251 286
#     4   9  17  31  53  77 101 129 163 203 251 301
#
# _framework density 18.825516
#
# number of rings (size 3 to 8) (size 9 to 14) (size 15 to 20)
#    0.000    2.333    1.667    1.500    0.000    4.000 
#    0.000    5.833    0.000    6.000    0.000    2.333 
#    0.000    4.000    0.000    0.000    0.000    0.000 
#
# Total GULP energy -594920.163771 kJ/mol
# GULP energy per Si atom -12394.170079 kJ/mol
# Density = 1.878267 g / cm^3
# Si number density = 18.825516 Si / 1000 Ang^3
#
#
#
# Elastic Constant Matrix: (Units=GPa)
#
#
# Indices 1 2 3 4 5 6 
#
# 1 58.1553 12.1321 1.8990 0.0000 0.0000 0.0000
# 2 12.1321 84.0041 9.4508 0.0000 0.0000 0.0000
# 3 1.8990 9.4508 30.2097 0.0000 0.0000 0.0000
# 4 0.0000 0.0000 0.0000 5.7972 0.0000 0.0000
# 5 0.0000 0.0000 0.0000 0.0000 22.8446 0.0000
# 6 0.0000 0.0000 0.0000 0.0000 0.0000 22.2737
#
#
#
# Elastic Compliance Matrix: (Units=1/GPa)
#
#
# Indices 1 2 3 4 5 6 
#
# 1 0.017733 -0.002524 -0.000325 0.000000 0.000000 0.000000
# 2 -0.002524 0.012698 -0.003814 0.000000 0.000000 0.000000
# 3 -0.000325 -0.003814 0.034315 0.000000 0.000000 0.000000
# 4 0.000000 0.000000 0.000000 0.172497 0.000000 0.000000
# 5 0.000000 0.000000 0.000000 0.000000 0.043774 0.000000
# 6 0.000000 0.000000 0.000000 0.000000 0.000000 0.044896
#
#
# Mechanical properties :
#
#
# Convention : Reuss Voigt Hill
#
# Bulk Modulus (GPa) = 19.44779 24.37032 21.90905
# Shear Modulus (GPa) = 14.03000 20.10891 17.06946
#
# Velocity S-wave (km/s) = 2.73292 3.27184 3.01444
# Velocity P-wave (km/s) = 4.50682 5.21984 4.87638
#
# Compressibility (1/GPa) = 0.05141973
#
# Stress axis : x y z
#
# Youngs Moduli (GPa) = 56.39331 78.75367 29.14143
#
# Poissons Ratio (x) = 0.19881 0.00947
# Poissons Ratio (y) = 0.14236 0.11114
# Poissons Ratio (z) = 0.01832 0.30034
#
# Static dielectric constant tensor:
#      x y z
#    x 3.795500 0.000000 0.000000 
#    y 0.000000 3.441510 0.000000 
#    z 0.000000 0.000000 3.328040 
# 
# 
# High freq. dielectric constant tensor:
#      x y z
#    x 1.749780 0.000000 0.000000 
#    y 0.000000 1.704450 0.000000 
#    z 0.000000 0.000000 1.695700 
# 
# From -- ./inp_files/16380.got.cif
#   From: 2010.03.12/outbox.cif.g09.slc.cpg/sg51_9_cif.got.tgz:16380.got - 2010.04.16 13:43:02.
