data_PCOD8208269
_publ_section_title
;
Structure prediction by ZEFSAII (Michael W. Deem and Ramdas Pophale) SiO2 
 PCOD8208269
Probable space group: P M M A
;
_chemical_formula_sum "Si O2"
_cell_formula_units_Z 48
_cell_length_a 8.770870
_cell_length_b 24.185081
_cell_length_c 13.484538
_cell_angle_alpha 90.000000
_cell_angle_beta 90.000000
_cell_angle_gamma 90.000000
_cell_volume 2860.396854
_symmetry_space_group_name_H-M "P M M A"
_symmetry_group_IT_number 51
_symmetry_cell_setting 'orthorhombic'
loop_
_space_group_symop_operation_xyz
x,y,z
1/2-x,-y,z
1/2+x,-y,-z
-x,y,-z
-x,-y,-z
1/2+x,y,-z
1/2-x,y,z
x,-y,z
loop_
_atom_site_type_symbol
_atom_site_label
_atom_site_fract_x
_atom_site_fract_y
_atom_site_fract_z
Si Si1 0.928112 0.562528 0.299618
Si Si2 0.571585 0.336496 0.601505
Si Si3 0.430107 0.274951 0.200462
Si Si4 0.071248 0.376952 0.899758
Si Si5 0.928365 0.059904 0.892403
Si Si6 0.569418 0.169467 0.109630
O O1 0.750000 0.568524 0.320921
O O2 0.984910 0.500000 0.315586
O O3 0.966195 0.579802 0.187057
O O4 0.014957 0.601445 0.376775
O O5 0.500000 0.313800 0.500000
O O6 0.750000 0.338555 0.588581
O O7 0.522870 0.295350 0.689776
O O8 0.250000 0.268609 0.188293
O O9 0.490497 0.318470 0.120180
O O10 0.511441 0.216865 0.182803
O O11 0.250000 0.366882 0.911915
O O12 0.000000 0.402104 0.000000
O O13 0.750000 0.073545 0.901101
O O14 0.013248 0.111496 0.840057
O O15 0.953471 0.000000 0.838168
O O16 0.000000 0.055181 0.000000
O O17 0.750000 0.170898 0.102096
O O18 0.500000 0.177196 0.000000
#
# Coordination Sequence:
#
# PCOD8208269 Si02
#       6
#     8   8   8   8   8   8
#     4   9  19  35  52  70  93 120 151 186 222 266
#     4  10  21  36  55  74  92 116 144 182 231 280
#     4  10  20  34  49  67  91 118 152 190 228 272
#     4  10  19  31  47  67  92 122 154 187 225 267
#     4   9  16  26  40  59  87 124 163 199 231 264
#     4  11  20  29  44  66  94 128 162 196 231 267
#
# _framework density 16.780888999999998
#
# number of rings (size 3 to 8) (size 9 to 14) (size 15 to 20)
#    0.000    2.167    0.000    5.000    0.000    4.667 
#    0.000    0.000    0.000    0.000    0.000    0.000 
#    0.000    0.667    0.000    2.167    0.000    3.000 
#
# Total GULP energy -595115.548995 kJ/mol
# GULP energy per Si atom -12398.240604 kJ/mol
# Density = 1.674269 g / cm^3
# Si number density = 16.780889 Si / 1000 Ang^3
#
#
#
# Elastic Constant Matrix: (Units=GPa)
#
#
# Indices 1 2 3 4 5 6 
#
# 1 95.0997 48.3241 33.2590 0.0000 0.0000 0.0000
# 2 48.3241 127.2311 30.8146 0.0000 0.0000 0.0000
# 3 33.2590 30.8146 73.4854 0.0000 0.0000 0.0000
# 4 0.0000 0.0000 0.0000 13.0594 0.0000 0.0000
# 5 0.0000 0.0000 0.0000 0.0000 25.8244 0.0000
# 6 0.0000 0.0000 0.0000 0.0000 0.0000 29.1858
#
#
#
# Elastic Compliance Matrix: (Units=1/GPa)
#
#
# Indices 1 2 3 4 5 6 
#
# 1 0.014346 -0.004314 -0.004684 0.000000 0.000000 0.000000
# 2 -0.004314 0.010046 -0.002260 0.000000 0.000000 0.000000
# 3 -0.004684 -0.002260 0.016676 0.000000 0.000000 0.000000
# 4 0.000000 0.000000 0.000000 0.076573 0.000000 0.000000
# 5 0.000000 0.000000 0.000000 0.000000 0.038723 0.000000
# 6 0.000000 0.000000 0.000000 0.000000 0.000000 0.034263
#
#
# Mechanical properties :
#
#
# Convention : Reuss Voigt Hill
#
# Bulk Modulus (GPa) = 53.90454 57.84572 55.87513
# Shear Modulus (GPa) = 22.79720 25.84183 24.31951
#
# Velocity S-wave (km/s) = 3.68981 3.92848 3.81102
# Velocity P-wave (km/s) = 7.09544 7.42451 7.26184
#
# Compressibility (1/GPa) = 0.01855131
#
# Stress axis : x y z
#
# Youngs Moduli (GPa) = 69.70814 99.54553 59.96819
#
# Poissons Ratio (x) = 0.42947 0.28087
# Poissons Ratio (y) = 0.30074 0.13552
# Poissons Ratio (z) = 0.32648 0.22496
#
# Static dielectric constant tensor:
#      x y z
#    x 3.267430 0.000000 0.000000 
#    y 0.000000 3.603110 0.000000 
#    z 0.000000 0.000000 3.063550 
# 
# 
# High freq. dielectric constant tensor:
#      x y z
#    x 1.664420 0.000000 0.000000 
#    y 0.000000 1.648950 0.000000 
#    z 0.000000 0.000000 1.607900 
# 
# From -- ./inp_files/14417.got.cif
#   From: 2010.03.12/outbox.cif.g09.slc.cpg/sg51_8_cif.got.tgz:14417.got - 2010.04.16 13:43:02.
