data_PCOD8208723
_publ_section_title
;
Structure prediction by ZEFSAII (Michael W. Deem and Ramdas Pophale) SiO2 
 PCOD8208723
Probable space group: P M M A
;
_chemical_formula_sum "Si O2"
_cell_formula_units_Z 64
_cell_length_a 9.500029
_cell_length_b 18.699391
_cell_length_c 19.312476
_cell_angle_alpha 90.000000
_cell_angle_beta 90.000000
_cell_angle_gamma 90.000000
_cell_volume 3430.760102
_symmetry_space_group_name_H-M "P M M A"
_symmetry_group_IT_number 51
_symmetry_cell_setting 'orthorhombic'
loop_
_space_group_symop_operation_xyz
x,y,z
1/2-x,-y,z
1/2+x,-y,-z
-x,y,-z
-x,-y,-z
1/2+x,y,-z
1/2-x,y,z
x,-y,z
loop_
_atom_site_type_symbol
_atom_site_label
_atom_site_fract_x
_atom_site_fract_y
_atom_site_fract_z
Si Si1 0.902676 0.626862 0.557272
Si Si2 0.406282 0.581453 0.672275
Si Si3 0.915588 0.418022 0.068899
Si Si4 0.091347 0.326359 0.800902
Si Si5 0.409281 0.081108 0.191899
Si Si6 0.904110 0.789124 0.559814
Si Si7 0.412476 0.787385 0.284289
Si Si8 0.591583 0.084961 0.062919
O O1 0.750000 0.588685 0.561579
O O2 0.880973 0.708256 0.535009
O O3 0.000000 0.586969 0.500000
O O4 0.979106 0.626984 0.631072
O O5 0.250000 0.592984 0.640357
O O6 0.452994 0.500000 0.668281
O O7 0.408135 0.605308 0.751140
O O8 0.750000 0.410543 0.054394
O O9 0.950853 0.500000 0.091568
O O10 0.963538 0.359655 0.126668
O O11 0.000000 0.397543 0.000000
O O12 0.250000 0.295597 0.808699
O O13 0.994553 0.264315 0.768645
O O14 0.250000 0.085381 0.162179
O O15 0.427149 0.131490 0.258017
O O16 0.516189 0.108607 0.133412
O O17 0.444838 0.000000 0.214769
O O18 0.750000 0.827180 0.561834
O O19 0.973235 0.789597 0.637064
O O20 0.000000 0.826847 0.500000
O O21 0.250000 0.761649 0.286182
O O22 0.750000 0.116537 0.060999
O O23 0.596350 0.000000 0.057080
O O24 0.500000 0.117154 0.000000
#
# Coordination Sequence:
#
# PCOD8208723 Si02
#       8
#     8   8   8   8   8   8   8   8
#     4  10  19  32  49  69  96 129 166 206 247 295
#     4  10  20  33  49  70  97 130 166 205 250 298
#     4   9  18  34  55  78 104 136 175 217 258 302
#     4  10  20  34  53  76 102 132 168 209 255 306
#     4   9  18  33  53  76 103 137 174 211 258 314
#     4   9  18  32  51  74  99 129 166 207 250 300
#     4  10  20  35  54  78 106 133 166 212 260 305
#     4   9  16  27  46  72 102 134 168 205 242 286
#
# _framework density 18.654758000000001
#
# number of rings (size 3 to 8) (size 9 to 14) (size 15 to 20)
#    0.000    2.500    1.250    1.125    0.000    5.500 
#    0.000    0.625    0.000    4.125    0.000    0.000 
#    0.000    0.000    0.000    0.000    0.000    0.000 
#
# Total GULP energy -793179.882130 kJ/mol
# GULP energy per Si atom -12393.435658 kJ/mol
# Density = 1.861230 g / cm^3
# Si number density = 18.654758 Si / 1000 Ang^3
#
#
#
# Elastic Constant Matrix: (Units=GPa)
#
#
# Indices 1 2 3 4 5 6 
#
# 1 104.7294 28.1409 64.5655 0.0000 0.0000 0.0000
# 2 28.1409 46.0578 39.0420 0.0000 0.0000 0.0000
# 3 64.5655 39.0420 134.3007 0.0000 0.0000 0.0000
# 4 0.0000 0.0000 0.0000 17.0264 0.0000 0.0000
# 5 0.0000 0.0000 0.0000 0.0000 34.3868 0.0000
# 6 0.0000 0.0000 0.0000 0.0000 0.0000 15.6588
#
#
#
# Elastic Compliance Matrix: (Units=1/GPa)
#
#
# Indices 1 2 3 4 5 6 
#
# 1 0.014053 -0.003794 -0.005653 0.000000 0.000000 0.000000
# 2 -0.003794 0.029836 -0.006849 0.000000 0.000000 0.000000
# 3 -0.005653 -0.006849 0.012155 0.000000 0.000000 0.000000
# 4 0.000000 0.000000 0.000000 0.058732 0.000000 0.000000
# 5 0.000000 0.000000 0.000000 0.000000 0.029081 0.000000
# 6 0.000000 0.000000 0.000000 0.000000 0.000000 0.063862
#
#
# Mechanical properties :
#
#
# Convention : Reuss Voigt Hill
#
# Bulk Modulus (GPa) = 42.64289 60.95386 51.79837
# Shear Modulus (GPa) = 20.15075 23.63702 21.89389
#
# Velocity S-wave (km/s) = 3.29020 3.56346 3.42955
# Velocity P-wave (km/s) = 6.11085 7.04817 6.59618
#
# Compressibility (1/GPa) = 0.02345057
#
# Stress axis : x y z
#
# Youngs Moduli (GPa) = 71.15904 33.51622 82.27178
#
# Poissons Ratio (x) = 0.12717 0.46508
# Poissons Ratio (y) = 0.27000 0.56351
# Poissons Ratio (z) = 0.40226 0.22957
#
# Static dielectric constant tensor:
#      x y z
#    x 3.723610 0.000000 0.000000 
#    y 0.000000 3.029430 0.000000 
#    z 0.000000 0.000000 3.407960 
# 
# 
# High freq. dielectric constant tensor:
#      x y z
#    x 1.728130 0.000000 0.000000 
#    y 0.000000 1.682140 0.000000 
#    z 0.000000 0.000000 1.725080 
# 
# From -- ./inp_files/32341.got.cif
#   From: 2010.03.12/outbox.cif.g09.slc.cpg/sg51_17_cif.got.tgz:32341.got - 2010.04.16 13:43:02.
