data_PCOD8208152
_publ_section_title
;
Structure prediction by ZEFSAII (Michael W. Deem and Ramdas Pophale) SiO2 
 PCOD8208152
Probable space group: P M M A
;
_chemical_formula_sum "Si O2"
_cell_formula_units_Z 56
_cell_length_a 18.524806
_cell_length_b 9.504909
_cell_length_c 17.290989
_cell_angle_alpha 90.000000
_cell_angle_beta 90.000000
_cell_angle_gamma 90.000000
_cell_volume 3044.538472
_symmetry_space_group_name_H-M "P M M A"
_symmetry_group_IT_number 51
_symmetry_cell_setting 'orthorhombic'
loop_
_space_group_symop_operation_xyz
x,y,z
1/2-x,-y,z
1/2+x,-y,-z
-x,y,-z
-x,-y,-z
1/2+x,y,-z
1/2-x,y,z
x,-y,z
loop_
_atom_site_type_symbol
_atom_site_label
_atom_site_fract_x
_atom_site_fract_y
_atom_site_fract_z
Si Si1 0.432244 0.161358 0.830990
Si Si2 0.910894 0.160705 0.883668
Si Si3 0.908753 0.337475 0.603927
Si Si4 0.331690 0.338280 0.240353
Si Si5 0.943198 0.333547 0.325232
Si Si6 0.331240 0.832712 0.965167
Si Si7 0.831217 0.333530 0.453778
O O1 0.502859 0.173040 0.885184
O O2 0.436395 0.259044 0.756722
O O3 0.366775 0.216512 0.884602
O O4 0.420908 0.000000 0.804192
O O5 0.884305 0.245125 0.809890
O O6 0.885764 0.000000 0.873620
O O7 0.876869 0.225616 0.961900
O O8 0.922866 0.500000 0.586454
O O9 0.849516 0.313728 0.670068
O O10 0.876297 0.267617 0.525928
O O11 0.986174 0.273930 0.629682
O O12 0.250000 0.291090 0.225367
O O13 0.344131 0.500000 0.217643
O O14 0.950762 0.500000 0.310360
O O15 0.872394 0.295503 0.374750
O O16 0.250000 0.772602 0.969568
O O17 0.332151 0.000000 0.967792
O O18 0.750000 0.270159 0.450541
O O19 0.826346 0.500000 0.464945
#
# Coordination Sequence:
#
# PCOD8208152 Si02
#       7
#     8   8   8   8   8   8   8
#     4  10  20  34  53  76 101 132 169 206 249 301
#     4  10  19  33  53  75 100 129 166 208 250 295
#     4   9  16  29  48  71 101 132 164 201 244 293
#     4  10  19  30  48  75 105 134 162 198 248 303
#     4  10  19  32  52  76 101 131 168 207 249 297
#     4   9  18  33  53  75  98 129 171 213 248 290
#     4   9  17  29  48  75 102 129 167 213 251 286
#
# _framework density 18.393594
#
# number of rings (size 3 to 8) (size 9 to 14) (size 15 to 20)
#    0.000    2.429    1.429    1.714    0.000    6.571 
#    0.000    0.714    0.000    5.143    0.000    0.000 
#    0.000    0.000    0.000    0.000    0.000    0.000 
#
# Total GULP energy -694293.491962 kJ/mol
# GULP energy per Si atom -12398.098071 kJ/mol
# Density = 1.835173 g / cm^3
# Si number density = 18.393594 Si / 1000 Ang^3
#
#
#
# Elastic Constant Matrix: (Units=GPa)
#
#
# Indices 1 2 3 4 5 6 
#
# 1 113.2861 22.3086 64.6253 0.0000 0.0000 0.0000
# 2 22.3086 28.6381 29.4716 0.0000 0.0000 0.0000
# 3 64.6253 29.4716 121.1531 0.0000 0.0000 0.0000
# 4 0.0000 0.0000 0.0000 48.9898 0.0000 0.0000
# 5 0.0000 0.0000 0.0000 0.0000 33.5830 0.0000
# 6 0.0000 0.0000 0.0000 0.0000 0.0000 16.3311
#
#
#
# Elastic Compliance Matrix: (Units=1/GPa)
#
#
# Indices 1 2 3 4 5 6 
#
# 1 0.013022 -0.003996 -0.005974 0.000000 0.000000 0.000000
# 2 -0.003996 0.047805 -0.009498 0.000000 0.000000 0.000000
# 3 -0.005974 -0.009498 0.013751 0.000000 0.000000 0.000000
# 4 0.000000 0.000000 0.000000 0.020412 0.000000 0.000000
# 5 0.000000 0.000000 0.000000 0.000000 0.029777 0.000000
# 6 0.000000 0.000000 0.000000 0.000000 0.000000 0.061233
#
#
# Mechanical properties :
#
#
# Convention : Reuss Voigt Hill
#
# Bulk Modulus (GPa) = 28.05588 55.09871 41.57730
# Shear Modulus (GPa) = 21.11331 29.55890 25.33610
#
# Velocity S-wave (km/s) = 3.39169 4.01312 3.71542
# Velocity P-wave (km/s) = 5.53392 7.17592 6.40773
#
# Compressibility (1/GPa) = 0.03564315
#
# Stress axis : x y z
#
# Youngs Moduli (GPa) = 76.79218 20.91816 72.72120
#
# Poissons Ratio (x) = 0.08359 0.43445
# Poissons Ratio (y) = 0.30686 0.69067
# Poissons Ratio (z) = 0.45877 0.19867
#
# Static dielectric constant tensor:
#      x y z
#    x 3.704220 0.000000 0.000000 
#    y 0.000000 2.901320 0.000000 
#    z 0.000000 0.000000 3.391060 
# 
# 
# High freq. dielectric constant tensor:
#      x y z
#    x 1.729370 0.000000 0.000000 
#    y 0.000000 1.652870 0.000000 
#    z 0.000000 0.000000 1.721320 
# 
# From -- ./inp_files/25631.got.cif
#   From: 2010.03.12/outbox.cif.g09.slc.cpg/sg51_13_cif.got.tgz:25631.got - 2010.04.16 13:43:02.
