data_PCOD8208450
_publ_section_title
;
Structure prediction by ZEFSAII (Michael W. Deem and Ramdas Pophale) SiO2 
 PCOD8208450
Probable space group: P M M A
;
_chemical_formula_sum "Si O2"
_cell_formula_units_Z 52
_cell_length_a 8.994243
_cell_length_b 17.815741
_cell_length_c 17.583201
_cell_angle_alpha 90.000000
_cell_angle_beta 90.000000
_cell_angle_gamma 90.000000
_cell_volume 2817.516370
_symmetry_space_group_name_H-M "P M M A"
_symmetry_group_IT_number 51
_symmetry_cell_setting 'orthorhombic'
loop_
_space_group_symop_operation_xyz
x,y,z
1/2-x,-y,z
1/2+x,-y,-z
-x,y,-z
-x,-y,-z
1/2+x,y,-z
1/2-x,y,z
x,-y,z
loop_
_atom_site_type_symbol
_atom_site_label
_atom_site_fract_x
_atom_site_fract_y
_atom_site_fract_z
Si Si1 0.925629 0.836285 0.082200
Si Si2 0.421797 0.000000 0.920655
Si Si3 0.081658 0.215545 0.357874
Si Si4 0.425442 0.646970 0.575941
Si Si5 0.419884 0.084918 0.579494
Si Si6 0.918551 0.280213 0.808544
Si Si7 0.077073 0.414428 0.738134
O O1 0.750000 0.824072 0.074165
O O2 0.989279 0.769804 0.133230
O O3 0.961217 0.919645 0.119796
O O4 0.000000 0.830446 0.000000
O O5 0.250000 0.000000 0.939632
O O6 0.500000 0.000000 0.000000
O O7 0.250000 0.212566 0.388244
O O8 0.075203 0.240354 0.271784
O O9 0.987889 0.269292 0.413148
O O10 0.005371 0.134257 0.358537
O O11 0.500000 0.611560 0.500000
O O12 0.250000 0.648761 0.564050
O O13 0.471245 0.598727 0.650253
O O14 0.500000 0.096537 0.500000
O O15 0.250000 0.110681 0.571436
O O16 0.431280 0.000000 0.608440
O O17 0.750000 0.288893 0.838083
O O18 0.988884 0.362900 0.798167
O O19 0.250000 0.394900 0.746537
O O20 0.041660 0.500000 0.759669
#
# Coordination Sequence:
#
# PCOD8208450 Si02
#       7
#     8   4   8   8   8   8   8
#     4  10  19  34  57  83 113 145 179 217 257 305
#     4   8  16  30  50  78 108 140 173 206 247 294
#     4  10  20  34  50  68  96 131 170 214 258 308
#     4  10  19  31  49  73 101 132 169 213 261 313
#     4  10  20  33  49  68  91 124 167 215 264 312
#     4  10  21  36  54  79 107 138 176 214 259 313
#     4   9  19  36  56  77 103 138 177 217 264 317
#
# _framework density 18.455971000000002
#
# number of rings (size 3 to 8) (size 9 to 14) (size 15 to 20)
#    0.000    2.308    0.000    2.769    0.000    4.615 
#    1.385    0.000    0.000    0.462    0.000    0.000 
#    0.000    0.000    0.000    0.000    0.000    0.000 
#
# Total GULP energy -644562.208477 kJ/mol
# GULP energy per Si atom -12395.427086 kJ/mol
# Density = 1.841396 g / cm^3
# Si number density = 18.455971 Si / 1000 Ang^3
#
#
#
# Elastic Constant Matrix: (Units=GPa)
#
#
# Indices 1 2 3 4 5 6 
#
# 1 110.7028 62.2251 36.9380 0.0000 0.0000 0.0000
# 2 62.2251 128.9112 45.3322 0.0000 0.0000 0.0000
# 3 36.9380 45.3322 50.5273 0.0000 0.0000 0.0000
# 4 0.0000 0.0000 0.0000 21.6649 0.0000 0.0000
# 5 0.0000 0.0000 0.0000 0.0000 30.5821 0.0000
# 6 0.0000 0.0000 0.0000 0.0000 0.0000 27.7936
#
#
#
# Elastic Compliance Matrix: (Units=1/GPa)
#
#
# Indices 1 2 3 4 5 6 
#
# 1 0.013493 -0.004447 -0.005874 0.000000 0.000000 0.000000
# 2 -0.004447 0.012799 -0.008231 0.000000 0.000000 0.000000
# 3 -0.005874 -0.008231 0.031470 0.000000 0.000000 0.000000
# 4 0.000000 0.000000 0.000000 0.046158 0.000000 0.000000
# 5 0.000000 0.000000 0.000000 0.000000 0.032699 0.000000
# 6 0.000000 0.000000 0.000000 0.000000 0.000000 0.035979
#
#
# Mechanical properties :
#
#
# Convention : Reuss Voigt Hill
#
# Bulk Modulus (GPa) = 48.41067 64.34799 56.37933
# Shear Modulus (GPa) = 23.08518 25.71786 24.40152
#
# Velocity S-wave (km/s) = 3.54054 3.73697 3.64008
# Velocity P-wave (km/s) = 6.55753 7.31856 6.94847
#
# Compressibility (1/GPa) = 0.02065660
#
# Stress axis : x y z
#
# Youngs Moduli (GPa) = 74.11249 78.13323 31.77583
#
# Poissons Ratio (x) = 0.34749 0.18665
# Poissons Ratio (y) = 0.32961 0.26156
# Poissons Ratio (z) = 0.43533 0.64315
#
# Static dielectric constant tensor:
#      x y z
#    x 4.117470 0.000000 0.000000 
#    y 0.000000 3.591900 0.000000 
#    z 0.000000 0.000000 3.072440 
# 
# 
# High freq. dielectric constant tensor:
#      x y z
#    x 1.730940 0.000000 0.000000 
#    y 0.000000 1.719880 0.000000 
#    z 0.000000 0.000000 1.681870 
# 
# From -- ./inp_files/27963.got.cif
#   From: 2010.03.12/outbox.cif.g09.slc.cpg/sg51_14_cif.got.tgz:27963.got - 2010.04.16 13:43:02.
