data_PCOD8208279
_publ_section_title
;
Structure prediction by ZEFSAII (Michael W. Deem and Ramdas Pophale) SiO2 
 PCOD8208279
Probable space group: P M M A
;
_chemical_formula_sum "Si O2"
_cell_formula_units_Z 64
_cell_length_a 9.096686
_cell_length_b 23.218007
_cell_length_c 17.378624
_cell_angle_alpha 90.000000
_cell_angle_beta 90.000000
_cell_angle_gamma 90.000000
_cell_volume 3670.485635
_symmetry_space_group_name_H-M "P M M A"
_symmetry_group_IT_number 51
_symmetry_cell_setting 'orthorhombic'
loop_
_space_group_symop_operation_xyz
x,y,z
1/2-x,-y,z
1/2+x,-y,-z
-x,y,-z
-x,-y,-z
1/2+x,y,-z
1/2-x,y,z
x,-y,z
loop_
_atom_site_type_symbol
_atom_site_label
_atom_site_fract_x
_atom_site_fract_y
_atom_site_fract_z
Si Si1 0.080936 0.817818 0.215998
Si Si2 0.577142 0.349043 0.579122
Si Si3 0.584285 0.351736 0.180592
Si Si4 0.576199 0.264748 0.920370
Si Si5 0.919305 0.063669 0.725375
Si Si6 0.915558 0.736570 0.320057
Si Si7 0.579765 0.433968 0.716754
Si Si8 0.587140 0.068040 0.427908
O O1 0.250000 0.802707 0.233273
O O2 0.033982 0.788014 0.136290
O O3 0.055335 0.887130 0.209645
O O4 0.988111 0.794996 0.288629
O O5 0.500000 0.366897 0.500000
O O6 0.750000 0.341008 0.566326
O O7 0.509644 0.288851 0.609370
O O8 0.541016 0.399988 0.638894
O O9 0.750000 0.363629 0.151442
O O10 0.488980 0.324834 0.111336
O O11 0.583342 0.308325 0.251058
O O12 0.511581 0.410936 0.209955
O O13 0.750000 0.271531 0.931230
O O14 0.500000 0.248775 0.000000
O O15 0.750000 0.061009 0.700852
O O16 0.007343 0.083791 0.650868
O O17 0.970037 0.000000 0.755312
O O18 0.750000 0.749192 0.348371
O O19 0.750000 0.425944 0.737487
O O20 0.536943 0.500000 0.702775
O O21 0.500000 0.095399 0.500000
O O22 0.750000 0.095042 0.426241
O O23 0.596024 0.000000 0.438166
#
# Coordination Sequence:
#
# PCOD8208279 Si02
#       8
#     8   8   8   8   8   8   8   8
#     4   9  18  32  50  72  97 124 155 193 236 284
#     4  10  19  31  47  67  95 130 167 209 252 290
#     4   9  17  30  49  73  98 124 157 196 237 282
#     4  10  19  32  52  77 102 126 154 192 238 286
#     4   9  17  30  48  69  94 126 162 197 235 283
#     4   9  17  30  48  68  90 119 156 198 244 290
#     4   9  18  32  49  70  98 134 172 205 240 284
#     4   9  16  26  41  61  85 114 149 189 230 269
#
# _framework density 17.436385000000001
#
# number of rings (size 3 to 8) (size 9 to 14) (size 15 to 20)
#    0.000    2.750    0.000    1.875    0.000    6.500 
#    0.000    0.625    0.000    3.750    0.000    0.000 
#    0.000    0.000    0.000    0.000    0.000    0.375 
#
# Total GULP energy -793415.814787 kJ/mol
# GULP energy per Si atom -12397.122106 kJ/mol
# Density = 1.739670 g / cm^3
# Si number density = 17.436385 Si / 1000 Ang^3
#
#
#
# Elastic Constant Matrix: (Units=GPa)
#
#
# Indices 1 2 3 4 5 6 
#
# 1 105.7201 46.3297 52.6827 0.0000 0.0000 0.0000
# 2 46.3297 99.9203 52.0769 0.0000 0.0000 0.0000
# 3 52.6827 52.0769 89.1384 0.0000 0.0000 0.0000
# 4 0.0000 0.0000 0.0000 18.1154 0.0000 0.0000
# 5 0.0000 0.0000 0.0000 0.0000 30.6213 0.0000
# 6 0.0000 0.0000 0.0000 0.0000 0.0000 18.2995
#
#
#
# Elastic Compliance Matrix: (Units=1/GPa)
#
#
# Indices 1 2 3 4 5 6 
#
# 1 0.014064 -0.003147 -0.006473 0.000000 0.000000 0.000000
# 2 -0.003147 0.015094 -0.006958 0.000000 0.000000 0.000000
# 3 -0.006473 -0.006958 0.019110 0.000000 0.000000 0.000000
# 4 0.000000 0.000000 0.000000 0.055202 0.000000 0.000000
# 5 0.000000 0.000000 0.000000 0.000000 0.032657 0.000000
# 6 0.000000 0.000000 0.000000 0.000000 0.000000 0.054646
#
#
# Mechanical properties :
#
#
# Convention : Reuss Voigt Hill
#
# Bulk Modulus (GPa) = 66.18210 66.32860 66.25535
# Shear Modulus (GPa) = 21.83732 22.98656 22.41194
#
# Velocity S-wave (km/s) = 3.54276 3.63479 3.58907
# Velocity P-wave (km/s) = 7.40092 7.46583 7.43344
#
# Compressibility (1/GPa) = 0.01510983
#
# Stress axis : x y z
#
# Youngs Moduli (GPa) = 71.10361 66.25316 52.32984
#
# Poissons Ratio (x) = 0.20851 0.33876
# Poissons Ratio (y) = 0.22377 0.36411
# Poissons Ratio (z) = 0.46029 0.46099
#
# Static dielectric constant tensor:
#      x y z
#    x 3.443340 0.000000 0.000000 
#    y 0.000000 3.194360 0.000000 
#    z 0.000000 0.000000 3.035430 
# 
# 
# High freq. dielectric constant tensor:
#      x y z
#    x 1.686120 0.000000 0.000000 
#    y 0.000000 1.657530 0.000000 
#    z 0.000000 0.000000 1.645500 
# 
# From -- ./inp_files/28586.got.cif
#   From: 2010.03.12/outbox.cif.g09.slc.cpg/sg51_15_cif.got.tgz:28586.got - 2010.04.16 13:43:02.
