data_PCOD8208333
_publ_section_title
;
Structure prediction by ZEFSAII (Michael W. Deem and Ramdas Pophale) SiO2 
 PCOD8208333
Probable space group: P M M A
;
_chemical_formula_sum "Si O2"
_cell_formula_units_Z 48
_cell_length_a 9.349934
_cell_length_b 16.213969
_cell_length_c 18.606288
_cell_angle_alpha 90.000000
_cell_angle_beta 90.000000
_cell_angle_gamma 90.000000
_cell_volume 2820.704702
_symmetry_space_group_name_H-M "P M M A"
_symmetry_group_IT_number 51
_symmetry_cell_setting 'orthorhombic'
loop_
_space_group_symop_operation_xyz
x,y,z
1/2-x,-y,z
1/2+x,-y,-z
-x,y,-z
-x,-y,-z
1/2+x,y,-z
1/2-x,y,z
x,-y,z
loop_
_atom_site_type_symbol
_atom_site_label
_atom_site_fract_x
_atom_site_fract_y
_atom_site_fract_z
Si Si1 0.414993 0.165148 0.156756
Si Si2 0.583344 0.248391 0.279834
Si Si3 0.913461 0.407607 0.195647
Si Si4 0.411026 0.000000 0.570141
Si Si5 0.415845 0.821103 0.573812
Si Si6 0.083589 0.670278 0.072760
Si Si7 0.918992 0.000000 0.924669
O O1 0.250000 0.160848 0.179405
O O2 0.503387 0.183422 0.228676
O O3 0.442414 0.236472 0.098539
O O4 0.465887 0.079752 0.121212
O O5 0.750000 0.226856 0.273347
O O6 0.549188 0.342692 0.258434
O O7 0.532441 0.239699 0.362698
O O8 0.750000 0.394331 0.169458
O O9 0.935835 0.500000 0.225962
O O10 0.019951 0.394083 0.129620
O O11 0.500000 0.000000 0.500000
O O12 0.443392 0.087124 0.609144
O O13 0.250000 0.000000 0.543363
O O14 0.500000 0.804461 0.500000
O O15 0.250000 0.807501 0.555186
O O16 0.250000 0.650828 0.061511
O O17 0.000000 0.655918 0.000000
O O18 0.750000 0.000000 0.940412
O O19 0.000000 0.000000 0.000000
#
# Coordination Sequence:
#
# PCOD8208333 Si02
#       7
#     8   8   8   4   8   8   4
#     4   9  19  33  47  66  93 125 159 194 232 273
#     4   9  18  32  50  71  93 119 154 193 232 278
#     4   9  18  33  51  69  90 118 151 187 230 279
#     4   8  14  25  40  60  88 117 143 174 211 251
#     4   9  17  29  46  69  95 122 153 187 224 268
#     4  10  19  31  48  69  93 120 151 189 232 276
#     4  10  20  33  48  68  95 127 165 202 233 269
#
# _framework density 17.017025
#
# number of rings (size 3 to 8) (size 9 to 14) (size 15 to 20)
#    0.000    2.833    0.000    1.000    0.000    3.333 
#    0.000    0.833    0.000    3.500    0.000    0.000 
#    0.000    0.000    0.000    0.000    0.000    0.000 
#
# Total GULP energy -594895.099190 kJ/mol
# GULP energy per Si atom -12393.647900 kJ/mol
# Density = 1.697829 g / cm^3
# Si number density = 17.017025 Si / 1000 Ang^3
#
#
#
# Elastic Constant Matrix: (Units=GPa)
#
#
# Indices 1 2 3 4 5 6 
#
# 1 64.4262 40.4965 57.7829 0.0000 0.0000 0.0000
# 2 40.4965 115.5103 67.3639 0.0000 0.0000 0.0000
# 3 57.7829 67.3639 137.1420 0.0000 0.0000 0.0000
# 4 0.0000 0.0000 0.0000 15.1383 0.0000 0.0000
# 5 0.0000 0.0000 0.0000 0.0000 27.5092 0.0000
# 6 0.0000 0.0000 0.0000 0.0000 0.0000 21.2176
#
#
#
# Elastic Compliance Matrix: (Units=1/GPa)
#
#
# Indices 1 2 3 4 5 6 
#
# 1 0.026110 -0.003837 -0.009116 0.000000 0.000000 0.000000
# 2 -0.003837 0.012697 -0.004620 0.000000 0.000000 0.000000
# 3 -0.009116 -0.004620 0.013402 0.000000 0.000000 0.000000
# 4 0.000000 0.000000 0.000000 0.066058 0.000000 0.000000
# 5 0.000000 0.000000 0.000000 0.000000 0.036351 0.000000
# 6 0.000000 0.000000 0.000000 0.000000 0.000000 0.047131
#
#
# Mechanical properties :
#
#
# Convention : Reuss Voigt Hill
#
# Bulk Modulus (GPa) = 58.61015 72.04057 65.32536
# Shear Modulus (GPa) = 20.61158 22.86870 21.74014
#
# Velocity S-wave (km/s) = 3.48405 3.66986 3.57816
# Velocity P-wave (km/s) = 7.12051 7.77068 7.45269
#
# Compressibility (1/GPa) = 0.01706189
#
# Stress axis : x y z
#
# Youngs Moduli (GPa) = 38.29977 78.76002 74.61637
#
# Poissons Ratio (x) = 0.30224 0.68021
# Poissons Ratio (y) = 0.14697 0.34471
# Poissons Ratio (z) = 0.34914 0.36386
#
# Static dielectric constant tensor:
#      x y z
#    x 3.222080 0.000000 0.000000 
#    y 0.000000 3.191290 0.000000 
#    z 0.000000 0.000000 3.004370 
# 
# 
# High freq. dielectric constant tensor:
#      x y z
#    x 1.658210 0.000000 0.000000 
#    y 0.000000 1.655670 0.000000 
#    z 0.000000 0.000000 1.638020 
# 
# From -- ./inp_files/27627.got.cif
#   From: 2010.03.12/outbox.cif.g09.slc.cpg/sg51_14_cif.got.tgz:27627.got - 2010.04.16 13:43:02.
