data_PCOD8208681
_publ_section_title
;
Structure prediction by ZEFSAII (Michael W. Deem and Ramdas Pophale) SiO2 
 PCOD8208681
Probable space group: P M M A
;
_chemical_formula_sum "Si O2"
_cell_formula_units_Z 64
_cell_length_a 17.305442
_cell_length_b 17.430591
_cell_length_c 10.930770
_cell_angle_alpha 90.000000
_cell_angle_beta 90.000000
_cell_angle_gamma 90.000000
_cell_volume 3297.202078
_symmetry_space_group_name_H-M "P M M A"
_symmetry_group_IT_number 51
_symmetry_cell_setting 'orthorhombic'
loop_
_space_group_symop_operation_xyz
x,y,z
1/2-x,-y,z
1/2+x,-y,-z
-x,y,-z
-x,-y,-z
1/2+x,y,-z
1/2-x,y,z
x,-y,z
loop_
_atom_site_type_symbol
_atom_site_label
_atom_site_fract_x
_atom_site_fract_y
_atom_site_fract_z
Si Si1 0.164570 0.704437 0.270675
Si Si2 0.449454 0.412944 0.879128
Si Si3 0.417244 0.787014 0.057072
Si Si4 0.164234 0.144735 0.423131
Si Si5 0.337878 0.722784 0.846537
Si Si6 0.565954 0.798985 0.352607
Si Si7 0.522898 0.356258 0.630539
Si Si8 0.448269 0.086632 0.236292
O O1 0.250000 0.671857 0.232637
O O2 0.108436 0.723189 0.156178
O O3 0.179497 0.779695 0.347228
O O4 0.116580 0.643908 0.353945
O O5 0.419250 0.500000 0.883052
O O6 0.377604 0.356220 0.885998
O O7 0.490580 0.400914 0.747761
O O8 0.500000 0.396473 0.000000
O O9 0.418472 0.872375 0.112576
O O10 0.500000 0.762076 0.000000
O O11 0.353547 0.786823 0.950322
O O12 0.250000 0.113833 0.464207
O O13 0.105320 0.161006 0.532516
O O14 0.120054 0.083889 0.336932
O O15 0.250000 0.702586 0.831603
O O16 0.365845 0.757860 0.719932
O O17 0.503266 0.733046 0.379755
O O18 0.523329 0.866148 0.278885
O O19 0.500000 0.396047 0.500000
O O20 0.473011 0.000000 0.205450
#
# Coordination Sequence:
#
# PCOD8208681 Si02
#       8
#     8   8   8   8   8   8   8   8
#     4  10  19  31  54  86 116 147 191 248 302 345
#     4  10  23  40  60  87 124 161 194 239 300 368
#     4  11  19  37  57  83 111 146 197 252 287 353
#     4  10  20  34  54  81 114 147 191 249 299 343
#     4  11  22  36  62  89 114 148 191 244 299 349
#     4  11  19  37  56  85 115 149 198 248 288 352
#     4  11  18  34  61  88 117 155 205 253 291 344
#     4  11  23  37  58  81 111 156 198 240 298 363
#
# _framework density 19.410397
#
# number of rings (size 3 to 8) (size 9 to 14) (size 15 to 20)
#    0.000    1.375    5.000    3.000    0.000    2.500 
#    0.000    0.000    0.000    3.000    0.000    0.000 
#    0.000    0.000    0.000    0.000    0.000    0.000 
#
# Total GULP energy -793119.552955 kJ/mol
# GULP energy per Si atom -12392.493015 kJ/mol
# Density = 1.936622 g / cm^3
# Si number density = 19.410397 Si / 1000 Ang^3
#
#
#
# Elastic Constant Matrix: (Units=GPa)
#
#
# Indices 1 2 3 4 5 6 
#
# 1 130.9269 41.6240 34.1163 0.0000 0.0000 0.0000
# 2 41.6240 84.9769 35.0500 0.0000 0.0000 0.0000
# 3 34.1163 35.0500 105.8194 0.0000 0.0000 0.0000
# 4 0.0000 0.0000 0.0000 11.3546 0.0000 0.0000
# 5 0.0000 0.0000 0.0000 0.0000 -46.5919 0.0000
# 6 0.0000 0.0000 0.0000 0.0000 0.0000 0.0886
#
#
#
# Elastic Compliance Matrix: (Units=1/GPa)
#
#
# Indices 1 2 3 4 5 6 
#
# 1 0.009311 -0.003849 -0.001727 0.000000 0.000000 0.000000
# 2 -0.003849 0.015221 -0.003801 0.000000 0.000000 0.000000
# 3 -0.001727 -0.003801 0.011266 0.000000 0.000000 0.000000
# 4 0.000000 0.000000 0.000000 0.088070 0.000000 0.000000
# 5 0.000000 0.000000 0.000000 0.000000 -0.021463 0.000000
# 6 0.000000 0.000000 0.000000 0.000000 0.000000 11.290895
#
#
# Mechanical properties :
#
#
# Convention : Reuss Voigt Hill
#
# Bulk Modulus (GPa) = 58.66859 60.36710 59.51785
# Shear Modulus (GPa) = 0.43792 7.03243 3.73517
#
# Velocity S-wave (km/s) = 0.47550 1.90549 1.38870
# Velocity P-wave (km/s) = 5.53104 6.00076 5.77068
#
# Compressibility (1/GPa) = 0.01704489
#
# Stress axis : x y z
#
# Youngs Moduli (GPa) = 107.39443 65.70009 88.76398
#
# Poissons Ratio (x) = 0.25285 0.15332
# Poissons Ratio (y) = 0.41331 0.33736
# Poissons Ratio (z) = 0.18550 0.24971
#
# Static dielectric constant tensor:
#      x y z
#    x 3.772030 0.000000 0.000000 
#    y 0.000000 3.187220 0.000000 
#    z 0.000000 0.000000 3.923030 
# 
# 
# High freq. dielectric constant tensor:
#      x y z
#    x 1.755110 0.000000 0.000000 
#    y 0.000000 1.715970 0.000000 
#    z 0.000000 0.000000 1.770530 
# 
# From -- ./inp_files/17711.got.cif
#   From: 2010.03.12/outbox.cif.g09.slc.cpg/sg51_9_cif.got.tgz:17711.got - 2010.04.16 13:43:02.
