data_PCOD8208803
_publ_section_title
;
Structure prediction by ZEFSAII (Michael W. Deem and Ramdas Pophale) SiO2 
 PCOD8208803
Probable space group: P M M A
;
_chemical_formula_sum "Si O2"
_cell_formula_units_Z 48
_cell_length_a 31.076513
_cell_length_b 8.808808
_cell_length_c 9.701708
_cell_angle_alpha 90.000000
_cell_angle_beta 90.000000
_cell_angle_gamma 90.000000
_cell_volume 2655.813812
_symmetry_space_group_name_H-M "P M M A"
_symmetry_group_IT_number 51
_symmetry_cell_setting 'orthorhombic'
loop_
_space_group_symop_operation_xyz
x,y,z
1/2-x,-y,z
1/2+x,-y,-z
-x,y,-z
-x,-y,-z
1/2+x,y,-z
1/2-x,y,z
x,-y,z
loop_
_atom_site_type_symbol
_atom_site_label
_atom_site_fract_x
_atom_site_fract_y
_atom_site_fract_z
Si Si1 0.703525 0.670928 0.842183
Si Si2 0.956775 0.181281 0.652604
Si Si3 0.297222 0.328713 0.830483
Si Si4 0.881902 0.177554 0.852322
Si Si5 0.547015 0.320005 0.359818
Si Si6 0.882844 0.822434 0.169321
O O1 0.750000 0.737113 0.790704
O O2 0.698820 0.500000 0.788249
O O3 0.662684 0.762972 0.785579
O O4 0.703288 0.676061 0.005912
O O5 0.922008 0.237927 0.764059
O O6 0.941666 0.240935 0.504297
O O7 0.001822 0.256070 0.696452
O O8 0.961624 0.000000 0.648828
O O9 0.250000 0.275746 0.775511
O O10 0.306712 0.500000 0.779565
O O11 0.334742 0.217236 0.776257
O O12 0.879120 0.000000 0.841964
O O13 0.887996 0.228114 0.010351
O O14 0.544066 0.500000 0.379467
O O15 0.583435 0.278144 0.251444
O O16 0.891772 0.000000 0.191721
#
# Coordination Sequence:
#
# PCOD8208803 Si02
#       6
#     8   8   8   8   8   8
#     4   8  14  25  43  68  99 133 164 195 236 285
#     4  10  20  37  56  73  96 128 164 203 248 296
#     4   8  14  26  44  68  99 132 164 199 239 284
#     4   9  19  32  50  76 102 129 163 202 244 289
#     4  11  22  36  53  74  97 127 167 204 244 296
#     4  10  19  32  50  75 104 132 163 201 244 288
#
# _framework density 18.073556
#
# number of rings (size 3 to 8) (size 9 to 14) (size 15 to 20)
#    0.000    2.667    0.000    4.500    0.000    3.333 
#    0.000    6.667    0.000    1.000    0.000    4.667 
#    0.000    0.000    0.000    0.000    0.000    0.000 
#
# Total GULP energy -594933.726422 kJ/mol
# GULP energy per Si atom -12394.452634 kJ/mol
# Density = 1.803242 g / cm^3
# Si number density = 18.073556 Si / 1000 Ang^3
#
#
#
# Elastic Constant Matrix: (Units=GPa)
#
#
# Indices 1 2 3 4 5 6 
#
# 1 158.8702 43.7504 57.7217 0.0000 0.0000 0.0000
# 2 43.7504 56.1778 21.0065 0.0000 0.0000 0.0000
# 3 57.7217 21.0065 43.5818 0.0000 0.0000 0.0000
# 4 0.0000 0.0000 0.0000 17.0282 0.0000 0.0000
# 5 0.0000 0.0000 0.0000 0.0000 -1.1095 0.0000
# 6 0.0000 0.0000 0.0000 0.0000 0.0000 37.3135
#
#
#
# Elastic Compliance Matrix: (Units=1/GPa)
#
#
# Indices 1 2 3 4 5 6 
#
# 1 0.013002 -0.004497 -0.015053 0.000000 0.000000 0.000000
# 2 -0.004497 0.023270 -0.005260 0.000000 0.000000 0.000000
# 3 -0.015053 -0.005260 0.045417 0.000000 0.000000 0.000000
# 4 0.000000 0.000000 0.000000 0.058726 0.000000 0.000000
# 5 0.000000 0.000000 0.000000 0.000000 -0.901270 0.000000
# 6 0.000000 0.000000 0.000000 0.000000 0.000000 0.026800
#
#
# Mechanical properties :
#
#
# Convention : Reuss Voigt Hill
#
# Bulk Modulus (GPa) = 31.18244 55.95412 43.56828
# Shear Modulus (GPa) = -7.42119 19.72316 6.15098
#
# Velocity S-wave (km/s) = -2.02855 3.30702 1.84681
# Velocity P-wave (km/s) = 3.43567 6.75338 5.35780
#
# Compressibility (1/GPa) = 0.03206933
#
# Stress axis : x y z
#
# Youngs Moduli (GPa) = 76.91173 42.97430 22.01809
#
# Poissons Ratio (x) = 0.19326 0.33143
# Poissons Ratio (y) = 0.34588 0.11581
# Poissons Ratio (z) = 1.15773 0.22604
#
# Static dielectric constant tensor:
#      x y z
#    x 3.910770 0.000000 0.000000 
#    y 0.000000 3.337660 0.000000 
#    z 0.000000 0.000000 3.086200 
# 
# 
# High freq. dielectric constant tensor:
#      x y z
#    x 1.720100 0.000000 0.000000 
#    y 0.000000 1.700150 0.000000 
#    z 0.000000 0.000000 1.653920 
# 
# From -- ./inp_files/19015.got.cif
#   From: 2010.03.12/outbox.cif.g09.slc.cpg/sg51_10_cif.got.tgz:19015.got - 2010.04.16 13:43:02.
