data_PCOD8208240
_publ_section_title
;
Structure prediction by ZEFSAII (Michael W. Deem and Ramdas Pophale) SiO2 
 PCOD8208240
Probable space group: P M M A
;
_chemical_formula_sum "Si O2"
_cell_formula_units_Z 52
_cell_length_a 9.206990
_cell_length_b 15.232302
_cell_length_c 22.779844
_cell_angle_alpha 90.000000
_cell_angle_beta 90.000000
_cell_angle_gamma 90.000000
_cell_volume 3194.728519
_symmetry_space_group_name_H-M "P M M A"
_symmetry_group_IT_number 51
_symmetry_cell_setting 'orthorhombic'
loop_
_space_group_symop_operation_xyz
x,y,z
1/2-x,-y,z
1/2+x,-y,-z
-x,y,-z
-x,-y,-z
1/2+x,y,-z
1/2-x,y,z
x,-y,z
loop_
_atom_site_type_symbol
_atom_site_label
_atom_site_fract_x
_atom_site_fract_y
_atom_site_fract_z
Si Si1 0.584684 0.755540 0.766869
Si Si2 0.418978 0.400889 0.814351
Si Si3 0.584938 0.185149 0.897923
Si Si4 0.917339 0.000000 0.940574
Si Si5 0.921544 0.342426 0.057251
Si Si6 0.413123 0.896142 0.555517
Si Si7 0.578500 0.100756 0.673123
O O1 0.750000 0.732061 0.751418
O O2 0.496546 0.663900 0.767871
O O3 0.566895 0.797083 0.830019
O O4 0.525314 0.829203 0.721878
O O5 0.250000 0.378799 0.811392
O O6 0.453612 0.500000 0.794436
O O7 0.470393 0.390575 0.882402
O O8 0.750000 0.203776 0.919138
O O9 0.475606 0.242105 0.937407
O O10 0.538906 0.084548 0.903317
O O11 0.750000 0.000000 0.956510
O O12 0.000000 0.000000 0.000000
O O13 0.750000 0.347509 0.047494
O O14 0.000000 0.385425 0.000000
O O15 0.500000 0.856173 0.500000
O O16 0.250000 0.856822 0.557035
O O17 0.497691 0.869802 0.614229
O O18 0.405163 0.000000 0.549190
O O19 0.750000 0.107080 0.662528
O O20 0.537535 0.000000 0.691158
#
# Coordination Sequence:
#
# PCOD8208240 Si02
#       7
#     8   8   8   4   8   8   8
#     4   9  18  31  48  69  91 116 150 188 225 265
#     4   9  19  35  51  66  87 115 144 179 229 282
#     4   9  18  31  45  61  82 111 144 180 221 263
#     4  10  20  30  42  58  78 106 143 182 217 260
#     4  10  19  31  47  65  85 107 135 173 221 276
#     4   9  16  26  41  62  91 127 165 200 230 261
#     4   9  17  28  44  67  96 129 160 190 224 265
#
# _framework density 16.276814000000002
#
# number of rings (size 3 to 8) (size 9 to 14) (size 15 to 20)
#    0.000    2.769    0.000    1.385    1.077    5.538 
#    0.000    0.000    0.000    0.000    0.000    0.000 
#    0.000    0.615    0.000    2.000    0.000    2.923 
#
# Total GULP energy -644551.215441 kJ/mol
# GULP energy per Si atom -12395.215682 kJ/mol
# Density = 1.623977 g / cm^3
# Si number density = 16.276814 Si / 1000 Ang^3
#
#
#
# Elastic Constant Matrix: (Units=GPa)
#
#
# Indices 1 2 3 4 5 6 
#
# 1 57.3502 33.2673 36.1368 0.0000 0.0000 0.0000
# 2 33.2673 90.4540 36.8921 0.0000 0.0000 0.0000
# 3 36.1368 36.8921 79.4074 0.0000 0.0000 0.0000
# 4 0.0000 0.0000 0.0000 11.3988 0.0000 0.0000
# 5 0.0000 0.0000 0.0000 0.0000 27.2081 0.0000
# 6 0.0000 0.0000 0.0000 0.0000 0.0000 21.3315
#
#
#
# Elastic Compliance Matrix: (Units=1/GPa)
#
#
# Indices 1 2 3 4 5 6 
#
# 1 0.026881 -0.006042 -0.009426 0.000000 0.000000 0.000000
# 2 -0.006042 0.014998 -0.004218 0.000000 0.000000 0.000000
# 3 -0.009426 -0.004218 0.018843 0.000000 0.000000 0.000000
# 4 0.000000 0.000000 0.000000 0.087728 0.000000 0.000000
# 5 0.000000 0.000000 0.000000 0.000000 0.036754 0.000000
# 6 0.000000 0.000000 0.000000 0.000000 0.000000 0.046879
#
#
# Mechanical properties :
#
#
# Convention : Reuss Voigt Hill
#
# Bulk Modulus (GPa) = 46.84051 48.86711 47.85381
# Shear Modulus (GPa) = 17.94874 20.04873 18.99873
#
# Velocity S-wave (km/s) = 3.32432 3.51342 3.42018
# Velocity P-wave (km/s) = 6.60112 6.82250 6.71272
#
# Compressibility (1/GPa) = 0.02134904
#
# Stress axis : x y z
#
# Youngs Moduli (GPa) = 37.20132 66.67597 53.07108
#
# Poissons Ratio (x) = 0.40285 0.50024
# Poissons Ratio (y) = 0.22476 0.22387
# Poissons Ratio (z) = 0.35066 0.28126
#
# Static dielectric constant tensor:
#      x y z
#    x 3.058200 0.000000 0.000000 
#    y 0.000000 3.025570 0.000000 
#    z 0.000000 0.000000 2.996100 
# 
# 
# High freq. dielectric constant tensor:
#      x y z
#    x 1.628140 0.000000 0.000000 
#    y 0.000000 1.602080 0.000000 
#    z 0.000000 0.000000 1.609630 
# 
# From -- ./inp_files/34685.got.cif
#   From: 2010.03.12/outbox.cif.g09.slc.cpg/sg51_18_cif.got.tgz:34685.got - 2010.04.16 13:43:02.
