data_PCOD8208707
_publ_section_title
;
Structure prediction by ZEFSAII (Michael W. Deem and Ramdas Pophale) SiO2 
 PCOD8208707
Probable space group: P M M A
;
_chemical_formula_sum "Si O2"
_cell_formula_units_Z 44
_cell_length_a 9.028879
_cell_length_b 12.350020
_cell_length_c 25.734160
_cell_angle_alpha 90.000000
_cell_angle_beta 90.000000
_cell_angle_gamma 90.000000
_cell_volume 2869.534765
_symmetry_space_group_name_H-M "P M M A"
_symmetry_group_IT_number 51
_symmetry_cell_setting 'orthorhombic'
loop_
_space_group_symop_operation_xyz
x,y,z
1/2-x,-y,z
1/2+x,-y,-z
-x,y,-z
-x,-y,-z
1/2+x,y,-z
1/2-x,y,z
x,-y,z
loop_
_atom_site_type_symbol
_atom_site_label
_atom_site_fract_x
_atom_site_fract_y
_atom_site_fract_z
Si Si1 0.580803 0.000000 0.553422
Si Si2 0.924534 0.765362 0.556086
Si Si3 0.080374 0.371676 0.641820
Si Si4 0.917284 0.370915 0.948975
Si Si5 0.417362 0.629130 0.846847
Si Si6 0.417190 0.628894 0.255028
O O1 0.500000 0.000000 0.500000
O O2 0.544256 0.885502 0.581815
O O3 0.750000 0.000000 0.537626
O O4 0.750000 0.742680 0.550398
O O5 0.000000 0.755256 0.500000
O O6 0.994790 0.676384 0.593040
O O7 0.250000 0.333003 0.641629
O O8 0.068239 0.500000 0.637668
O O9 0.005051 0.328993 0.694669
O O10 0.750000 0.326508 0.948782
O O11 0.917763 0.500000 0.949027
O O12 0.000943 0.326434 0.898119
O O13 0.000000 0.326246 0.000000
O O14 0.250000 0.673442 0.846325
O O15 0.417768 0.500000 0.846669
O O16 0.502282 0.674338 0.796329
O O17 0.250000 0.674136 0.256791
O O18 0.416509 0.500000 0.253682
#
# Coordination Sequence:
#
# PCOD8208707 Si02
#       6
#     4   8   8   8   8   8
#     4   8  16  30  48  68  86 104 128 160 195 232
#     4  10  19  32  49  67  86 107 132 162 198 239
#     4  10  20  32  44  60  83 109 136 166 200 238
#     4   9  15  21  28  39  56  78 106 143 187 231
#     4   9  15  22  32  45  61  83 112 147 187 229
#     4   9  16  26  39  53  69  92 123 157 192 230
#
# _framework density 15.333496
#
# number of rings (size 3 to 8) (size 9 to 14) (size 15 to 20)
#    0.000    2.727    0.000    2.727    0.000    8.727 
#    0.000    0.000    0.000    0.000    0.000    0.000 
#    0.000    0.000    0.000    0.000    0.000    0.000 
#
# Total GULP energy -545329.671955 kJ/mol
# GULP energy per Si atom -12393.856181 kJ/mol
# Density = 1.529860 g / cm^3
# Si number density = 15.333496 Si / 1000 Ang^3
#
#
#
# Elastic Constant Matrix: (Units=GPa)
#
#
# Indices 1 2 3 4 5 6 
#
# 1 144.3657 20.3082 73.2226 0.0000 0.0000 0.0000
# 2 20.3082 15.3150 20.8414 0.0000 0.0000 0.0000
# 3 73.2226 20.8414 131.1646 0.0000 0.0000 0.0000
# 4 0.0000 0.0000 0.0000 0.2270 0.0000 0.0000
# 5 0.0000 0.0000 0.0000 0.0000 34.9790 0.0000
# 6 0.0000 0.0000 0.0000 0.0000 0.0000 9.1580
#
#
#
# Elastic Compliance Matrix: (Units=1/GPa)
#
#
# Indices 1 2 3 4 5 6 
#
# 1 0.010286 -0.007432 -0.004561 0.000000 0.000000 0.000000
# 2 -0.007432 0.088680 -0.009942 0.000000 0.000000 0.000000
# 3 -0.004561 -0.009942 0.011750 0.000000 0.000000 0.000000
# 4 0.000000 0.000000 0.000000 4.405288 0.000000 0.000000
# 5 0.000000 0.000000 0.000000 0.000000 0.028589 0.000000
# 6 0.000000 0.000000 0.000000 0.000000 0.000000 0.109194
#
#
# Mechanical properties :
#
#
# Convention : Reuss Voigt Hill
#
# Bulk Modulus (GPa) = 14.95987 57.73217 36.34602
# Shear Modulus (GPa) = 1.05934 20.63767 10.84850
#
# Velocity S-wave (km/s) = 0.83208 3.67266 2.66278
# Velocity P-wave (km/s) = 3.27119 7.46440 5.76272
#
# Compressibility (1/GPa) = 0.06684550
#
# Stress axis : x y z
#
# Youngs Moduli (GPa) = 97.22184 11.27650 85.10715
#
# Poissons Ratio (x) = 0.08381 0.38818
# Poissons Ratio (y) = 0.72259 0.84611
# Poissons Ratio (z) = 0.44343 0.11211
#
# Static dielectric constant tensor:
#      x y z
#    x 3.222310 0.000000 0.000000 
#    y 0.000000 2.582810 0.000000 
#    z 0.000000 0.000000 3.009360 
# 
# 
# High freq. dielectric constant tensor:
#      x y z
#    x 1.613370 0.000000 0.000000 
#    y 0.000000 1.507550 0.000000 
#    z 0.000000 0.000000 1.591080 
# 
# From -- ./inp_files/34624.got.cif
#   From: 2010.03.12/outbox.cif.g09.slc.cpg/sg51_18_cif.got.tgz:34624.got - 2010.04.16 13:43:02.
