data_PCOD8208290
_publ_section_title
;
Structure prediction by ZEFSAII (Michael W. Deem and Ramdas Pophale) SiO2 
 PCOD8208290
Probable space group: P M M A
;
_chemical_formula_sum "Si O2"
_cell_formula_units_Z 64
_cell_length_a 18.631382
_cell_length_b 9.794472
_cell_length_c 21.541068
_cell_angle_alpha 90.000000
_cell_angle_beta 90.000000
_cell_angle_gamma 90.000000
_cell_volume 3930.912086
_symmetry_space_group_name_H-M "P M M A"
_symmetry_group_IT_number 51
_symmetry_cell_setting 'orthorhombic'
loop_
_space_group_symop_operation_xyz
x,y,z
1/2-x,-y,z
1/2+x,-y,-z
-x,y,-z
-x,-y,-z
1/2+x,y,-z
1/2-x,y,z
x,-y,z
loop_
_atom_site_type_symbol
_atom_site_label
_atom_site_fract_x
_atom_site_fract_y
_atom_site_fract_z
Si Si1 0.169921 0.344925 0.506113
Si Si2 0.329920 0.156770 0.123878
Si Si3 0.535829 0.655344 0.565400
Si Si4 0.962766 0.347363 0.094899
Si Si5 0.387118 0.652321 0.025560
Si Si6 0.526118 0.840268 0.808128
Si Si7 0.169685 0.843750 0.620226
Si Si8 0.022673 0.842684 0.673101
O O1 0.250000 0.309411 0.484429
O O2 0.162909 0.500000 0.530970
O O3 0.120898 0.324349 0.445484
O O4 0.145920 0.248315 0.562351
O O5 0.250000 0.180445 0.152618
O O6 0.334847 0.242560 0.060185
O O7 0.391534 0.198932 0.173608
O O8 0.340867 0.000000 0.104862
O O9 0.500000 0.693600 0.500000
O O10 0.516747 0.500000 0.584464
O O11 0.512660 0.755453 0.619209
O O12 0.948639 0.500000 0.121255
O O13 0.036837 0.345402 0.058645
O O14 0.967442 0.239189 0.150558
O O15 0.899118 0.306270 0.046785
O O16 0.353907 0.500000 0.029453
O O17 0.511664 0.794390 0.737767
O O18 0.511432 0.000000 0.817416
O O19 0.250000 0.803928 0.644480
O O20 0.109562 0.821664 0.673637
O O21 0.169176 0.000000 0.597411
O O22 0.003504 0.000000 0.660409
#
# Coordination Sequence:
#
# PCOD8208290 Si02
#       8
#     8   8   8   8   8   8   8   8
#     4   9  17  30  47  66  90 117 143 177 226 281
#     4   9  17  29  45  65  91 123 159 197 232 267
#     4  10  19  31  47  69  93 117 150 191 237 284
#     4   8  14  26  44  66  90 114 142 180 225 268
#     4   8  14  25  43  67  91 113 142 182 227 270
#     4   9  18  31  45  64  90 122 160 195 228 270
#     4   9  17  29  46  67  88 110 140 181 228 279
#     4  10  20  32  47  68  93 122 157 194 234 280
#
# _framework density 16.281209
#
# number of rings (size 3 to 8) (size 9 to 14) (size 15 to 20)
#    0.000    3.000    1.250    0.750    0.000    2.000 
#    0.000    3.125    0.000    1.500    0.000    1.750 
#    0.000    0.000    0.000    0.000    0.000    0.000 
#
# Total GULP energy -793103.122431 kJ/mol
# GULP energy per Si atom -12392.236288 kJ/mol
# Density = 1.624415 g / cm^3
# Si number density = 16.281209 Si / 1000 Ang^3
#
#
#
# Elastic Constant Matrix: (Units=GPa)
#
#
# Indices 1 2 3 4 5 6 
#
# 1 80.8259 35.7866 53.0383 0.0000 0.0000 0.0000
# 2 35.7866 66.6625 59.6476 0.0000 0.0000 0.0000
# 3 53.0383 59.6476 112.0967 0.0000 0.0000 0.0000
# 4 0.0000 0.0000 0.0000 22.1983 0.0000 0.0000
# 5 0.0000 0.0000 0.0000 0.0000 19.6315 0.0000
# 6 0.0000 0.0000 0.0000 0.0000 0.0000 19.2336
#
#
#
# Elastic Compliance Matrix: (Units=1/GPa)
#
#
# Indices 1 2 3 4 5 6 
#
# 1 0.018487 -0.004004 -0.006616 0.000000 0.000000 0.000000
# 2 -0.004004 0.029501 -0.013803 0.000000 0.000000 0.000000
# 3 -0.006616 -0.013803 0.019396 0.000000 0.000000 0.000000
# 4 0.000000 0.000000 0.000000 0.045048 0.000000 0.000000
# 5 0.000000 0.000000 0.000000 0.000000 0.050939 0.000000
# 6 0.000000 0.000000 0.000000 0.000000 0.000000 0.051992
#
#
# Mechanical properties :
#
#
# Convention : Reuss Voigt Hill
#
# Bulk Modulus (GPa) = 53.94720 61.83667 57.89193
# Shear Modulus (GPa) = 18.49179 19.62019 19.05599
#
# Velocity S-wave (km/s) = 3.37378 3.47520 3.42486
# Velocity P-wave (km/s) = 6.95580 7.35972 7.16061
#
# Compressibility (1/GPa) = 0.01853664
#
# Stress axis : x y z
#
# Youngs Moduli (GPa) = 54.09252 33.89681 51.55657
#
# Poissons Ratio (x) = 0.13573 0.34111
# Poissons Ratio (y) = 0.21660 0.71165
# Poissons Ratio (z) = 0.35789 0.46789
#
# Static dielectric constant tensor:
#      x y z
#    x 3.262740 0.000000 0.000000 
#    y 0.000000 3.195030 0.000000 
#    z 0.000000 0.000000 2.976440 
# 
# 
# High freq. dielectric constant tensor:
#      x y z
#    x 1.621350 0.000000 0.000000 
#    y 0.000000 1.630680 0.000000 
#    z 0.000000 0.000000 1.593850 
# 
# From -- ./inp_files/34105.got.cif
#   From: 2010.03.12/outbox.cif.g09.slc.cpg/sg51_18_cif.got.tgz:34105.got - 2010.04.16 13:43:02.
