data_PCOD8208211
_publ_section_title
;
Structure prediction by ZEFSAII (Michael W. Deem and Ramdas Pophale) SiO2 
 PCOD8208211
Probable space group: P M M A
;
_chemical_formula_sum "Si O2"
_cell_formula_units_Z 64
_cell_length_a 9.103196
_cell_length_b 14.180500
_cell_length_c 30.755678
_cell_angle_alpha 90.000000
_cell_angle_beta 90.000000
_cell_angle_gamma 90.000000
_cell_volume 3970.184990
_symmetry_space_group_name_H-M "P M M A"
_symmetry_group_IT_number 51
_symmetry_cell_setting 'orthorhombic'
loop_
_space_group_symop_operation_xyz
x,y,z
1/2-x,-y,z
1/2+x,-y,-z
-x,y,-z
-x,-y,-z
1/2+x,y,-z
1/2-x,y,z
x,-y,z
loop_
_atom_site_type_symbol
_atom_site_label
_atom_site_fract_x
_atom_site_fract_y
_atom_site_fract_z
Si Si1 0.581588 0.889411 0.797251
Si Si2 0.078138 0.109026 0.628159
Si Si3 0.580441 0.604478 0.164973
Si Si4 0.078578 0.108936 0.044548
Si Si5 0.421504 0.795112 0.876423
Si Si6 0.915827 0.887724 0.542052
Si Si7 0.079797 0.604194 0.252927
Si Si8 0.419568 0.206248 0.293858
O O1 0.750000 0.866239 0.810013
O O2 0.474011 0.849504 0.833684
O O3 0.540523 0.843833 0.751263
O O4 0.555461 0.000000 0.793172
O O5 0.250000 0.124012 0.621253
O O6 0.997153 0.147983 0.585328
O O7 0.024944 0.167669 0.669227
O O8 0.038869 0.000000 0.636277
O O9 0.750000 0.604549 0.177526
O O10 0.531526 0.500000 0.148386
O O11 0.548255 0.682908 0.128385
O O12 0.497809 0.633812 0.208573
O O13 0.250000 0.130274 0.039635
O O14 0.012698 0.172531 0.082234
O O15 0.049424 0.000000 0.056314
O O16 0.000000 0.137140 0.000000
O O17 0.250000 0.817036 0.883519
O O18 0.750000 0.848649 0.542020
O O19 0.000000 0.846802 0.500000
O O20 0.917131 0.000000 0.540460
O O21 0.250000 0.604916 0.241355
O O22 0.029051 0.500000 0.269093
O O23 0.046602 0.681867 0.289772
O O24 0.250000 0.186966 0.306362
#
# Coordination Sequence:
#
# PCOD8208211 Si02
#       8
#     8   8   8   8   8   8   8   8
#     4  10  20  32  45  64  93 128 162 194 229 272
#     4  10  20  31  43  62  90 125 164 201 236 278
#     4   9  18  32  49  70  96 124 154 191 235 278
#     4  10  21  37  56  76  99 126 155 189 230 275
#     4  11  21  32  50  74  98 124 157 194 231 274
#     4   9  16  27  44  64  87 117 155 198 241 282
#     4   9  17  30  49  70  90 116 154 199 241 280
#     4  10  19  31  46  64  91 125 159 194 235 283
#
# _framework density 16.120153999999999
#
# number of rings (size 3 to 8) (size 9 to 14) (size 15 to 20)
#    0.000    2.250    1.250    2.250    0.000    6.750 
#    0.000    0.000    0.000    0.375    0.000    0.000 
#    0.000    0.500    0.000    1.375    0.000    2.000 
#
# Total GULP energy -793595.969538 kJ/mol
# GULP energy per Si atom -12399.937024 kJ/mol
# Density = 1.608346 g / cm^3
# Si number density = 16.120154 Si / 1000 Ang^3
#
#
#
# Elastic Constant Matrix: (Units=GPa)
#
#
# Indices 1 2 3 4 5 6 
#
# 1 86.0843 39.5431 59.7424 0.0000 0.0000 0.0000
# 2 39.5431 76.0614 49.5214 0.0000 0.0000 0.0000
# 3 59.7424 49.5214 110.7103 0.0000 0.0000 0.0000
# 4 0.0000 0.0000 0.0000 2.9545 0.0000 0.0000
# 5 0.0000 0.0000 0.0000 0.0000 34.4934 0.0000
# 6 0.0000 0.0000 0.0000 0.0000 0.0000 19.3495
#
#
#
# Elastic Compliance Matrix: (Units=1/GPa)
#
#
# Indices 1 2 3 4 5 6 
#
# 1 0.019686 -0.004681 -0.008529 0.000000 0.000000 0.000000
# 2 -0.004681 0.019663 -0.006269 0.000000 0.000000 0.000000
# 3 -0.008529 -0.006269 0.016439 0.000000 0.000000 0.000000
# 4 0.000000 0.000000 0.000000 0.338468 0.000000 0.000000
# 5 0.000000 0.000000 0.000000 0.000000 0.028991 0.000000
# 6 0.000000 0.000000 0.000000 0.000000 0.000000 0.051681
#
#
# Mechanical properties :
#
#
# Convention : Reuss Voigt Hill
#
# Bulk Modulus (GPa) = 59.42141 63.38552 61.40347
# Shear Modulus (GPa) = 9.62470 19.62942 14.62706
#
# Velocity S-wave (km/s) = 2.44613 3.49333 3.01554
# Velocity P-wave (km/s) = 6.70221 7.46172 7.09214
#
# Compressibility (1/GPa) = 0.01682895
#
# Stress axis : x y z
#
# Youngs Moduli (GPa) = 50.79703 50.85790 60.82974
#
# Poissons Ratio (x) = 0.23809 0.51883
# Poissons Ratio (y) = 0.23780 0.38134
# Poissons Ratio (z) = 0.43326 0.31883
#
# Static dielectric constant tensor:
#      x y z
#    x 3.131360 0.000000 0.000000 
#    y 0.000000 3.212830 0.000000 
#    z 0.000000 0.000000 2.991170 
# 
# 
# High freq. dielectric constant tensor:
#      x y z
#    x 1.630910 0.000000 0.000000 
#    y 0.000000 1.602970 0.000000 
#    z 0.000000 0.000000 1.605540 
# 
# From -- ./inp_files/37570.got.cif
#   From: 2010.03.12/outbox.cif.g09.slc.cpg/sg51_19_cif.got.tgz:37570.got - 2010.04.16 13:43:02.
