data_PCOD8208758
_publ_section_title
;
Structure prediction by ZEFSAII (Michael W. Deem and Ramdas Pophale) SiO2 
 PCOD8208758
Probable space group: P M M A
;
_chemical_formula_sum "Si O2"
_cell_formula_units_Z 52
_cell_length_a 8.731794
_cell_length_b 15.400188
_cell_length_c 23.180957
_cell_angle_alpha 90.000000
_cell_angle_beta 90.000000
_cell_angle_gamma 90.000000
_cell_volume 3117.172709
_symmetry_space_group_name_H-M "P M M A"
_symmetry_group_IT_number 51
_symmetry_cell_setting 'orthorhombic'
loop_
_space_group_symop_operation_xyz
x,y,z
1/2-x,-y,z
1/2+x,-y,-z
-x,y,-z
-x,-y,-z
1/2+x,y,-z
1/2-x,y,z
x,-y,z
loop_
_atom_site_type_symbol
_atom_site_label
_atom_site_fract_x
_atom_site_fract_y
_atom_site_fract_z
Si Si1 0.568148 0.162907 0.058721
Si Si2 0.432614 0.599603 0.317344
Si Si3 0.583693 0.601918 0.554930
Si Si4 0.430265 0.671286 0.106871
Si Si5 0.429994 0.094073 0.818971
Si Si6 0.569379 0.500000 0.062461
Si Si7 0.069331 0.274945 0.775779
O O1 0.750000 0.163052 0.054899
O O2 0.505227 0.260696 0.062831
O O3 0.507915 0.113552 0.116158
O O4 0.500000 0.120266 0.000000
O O5 0.250000 0.611749 0.313124
O O6 0.474373 0.500000 0.298991
O O7 0.493467 0.617469 0.382551
O O8 0.520273 0.672046 0.280493
O O9 0.500000 0.645369 0.500000
O O10 0.750000 0.645563 0.556225
O O11 0.598861 0.500000 0.544265
O O12 0.250000 0.666638 0.095667
O O13 0.510557 0.580882 0.097645
O O14 0.464988 0.691545 0.172912
O O15 0.250000 0.087140 0.824831
O O16 0.468866 0.170815 0.772954
O O17 0.497014 0.000000 0.798523
O O18 0.750000 0.500000 0.058302
O O19 0.500000 0.500000 0.000000
O O20 0.250000 0.288808 0.787962
#
# Coordination Sequence:
#
# PCOD8208758 Si02
#       7
#     8   8   8   8   8   4   8
#     4  10  19  32  50  71  93 116 144 181 227 281
#     4   9  18  31  46  66  97 135 168 195 229 276
#     4   8  14  25  41  62  90 126 164 199 231 265
#     4  11  22  36  51  66  88 120 152 187 234 279
#     4   8  16  32  51  69  91 119 150 188 238 288
#     4  12  24  38  52  68  88 112 151 194 231 276
#     4  10  20  33  50  72  95 121 156 199 236 274
#
# _framework density 16.681782999999999
#
# number of rings (size 3 to 8) (size 9 to 14) (size 15 to 20)
#    0.000    2.462    0.000    5.308    1.077    1.231 
#    0.000    1.538    0.000   16.154    0.000    0.000 
#    0.000    0.615    0.000    1.385    0.000    2.154 
#
# Total GULP energy -644238.596022 kJ/mol
# GULP energy per Si atom -12389.203770 kJ/mol
# Density = 1.664381 g / cm^3
# Si number density = 16.681783 Si / 1000 Ang^3
#
#
#
# Elastic Constant Matrix: (Units=GPa)
#
#
# Indices 1 2 3 4 5 6 
#
# 1 71.0636 26.2481 23.1616 0.0000 0.0000 0.0000
# 2 26.2481 114.6600 42.3504 0.0000 0.0000 0.0000
# 3 23.1616 42.3504 88.8788 0.0000 0.0000 0.0000
# 4 0.0000 0.0000 0.0000 12.2197 0.0000 0.0000
# 5 0.0000 0.0000 0.0000 0.0000 27.5987 0.0000
# 6 0.0000 0.0000 0.0000 0.0000 0.0000 11.8699
#
#
#
# Elastic Compliance Matrix: (Units=1/GPa)
#
#
# Indices 1 2 3 4 5 6 
#
# 1 0.015980 -0.002573 -0.002938 0.000000 0.000000 0.000000
# 2 -0.002573 0.010998 -0.004570 0.000000 0.000000 0.000000
# 3 -0.002938 -0.004570 0.014195 0.000000 0.000000 0.000000
# 4 0.000000 0.000000 0.000000 0.081835 0.000000 0.000000
# 5 0.000000 0.000000 0.000000 0.000000 0.036234 0.000000
# 6 0.000000 0.000000 0.000000 0.000000 0.000000 0.084246
#
#
# Mechanical properties :
#
#
# Convention : Reuss Voigt Hill
#
# Bulk Modulus (GPa) = 47.59600 50.90250 49.24925
# Shear Modulus (GPa) = 18.47374 22.52716 20.50045
#
# Velocity S-wave (km/s) = 3.33140 3.67877 3.50939
# Velocity P-wave (km/s) = 6.58721 6.97313 6.78291
#
# Compressibility (1/GPa) = 0.02101017
#
# Stress axis : x y z
#
# Youngs Moduli (GPa) = 62.57860 90.92183 70.44878
#
# Poissons Ratio (x) = 0.23393 0.20701
# Poissons Ratio (y) = 0.16100 0.32197
# Poissons Ratio (z) = 0.18388 0.41554
#
# Static dielectric constant tensor:
#      x y z
#    x 3.154690 0.000000 0.000000 
#    y 0.000000 3.283240 0.000000 
#    z 0.000000 0.000000 3.152310 
# 
# 
# High freq. dielectric constant tensor:
#      x y z
#    x 1.639020 0.000000 0.000000 
#    y 0.000000 1.621420 0.000000 
#    z 0.000000 0.000000 1.627770 
# 
# From -- ./inp_files/34720.got.cif
#   From: 2010.03.12/outbox.cif.g09.slc.cpg/sg51_18_cif.got.tgz:34720.got - 2010.04.16 13:43:02.
