data_PCOD8208588
_publ_section_title
;
Structure prediction by ZEFSAII (Michael W. Deem and Ramdas Pophale) SiO2 
 PCOD8208588
Probable space group: P M M A
;
_chemical_formula_sum "Si O2"
_cell_formula_units_Z 56
_cell_length_a 23.522387
_cell_length_b 9.005876
_cell_length_c 13.900899
_cell_angle_alpha 90.000000
_cell_angle_beta 90.000000
_cell_angle_gamma 90.000000
_cell_volume 2944.762281
_symmetry_space_group_name_H-M "P M M A"
_symmetry_group_IT_number 51
_symmetry_cell_setting 'orthorhombic'
loop_
_space_group_symop_operation_xyz
x,y,z
1/2-x,-y,z
1/2+x,-y,-z
-x,y,-z
-x,-y,-z
1/2+x,y,-z
1/2-x,y,z
x,-y,z
loop_
_atom_site_type_symbol
_atom_site_label
_atom_site_fract_x
_atom_site_fract_y
_atom_site_fract_z
Si Si1 0.886916 0.325957 0.059539
Si Si2 0.479485 0.823681 0.822684
Si Si3 0.685616 0.674152 0.879262
Si Si4 0.596823 0.835171 0.357026
Si Si5 0.314336 0.165949 0.793206
Si Si6 0.561421 0.324991 0.533185
Si Si7 0.586625 0.325243 0.746115
O O1 0.900219 0.500000 0.051676
O O2 0.843065 0.293429 0.144463
O O3 0.946051 0.241194 0.084011
O O4 0.855087 0.263977 0.964184
O O5 0.447425 0.775904 0.724019
O O6 0.542565 0.755592 0.818031
O O7 0.481740 0.000000 0.833954
O O8 0.750000 0.744610 0.877788
O O9 0.692776 0.500000 0.894629
O O10 0.651364 0.708842 0.780376
O O11 0.659547 0.834900 0.312960
O O12 0.603111 0.732080 0.450404
O O13 0.578210 0.000000 0.389197
O O14 0.250000 0.211586 0.782291
O O15 0.322675 0.000000 0.838850
O O16 0.500000 0.264965 0.500000
O O17 0.563531 0.500000 0.536603
O O18 0.579153 0.262445 0.637772
O O19 0.573519 0.500000 0.751633
#
# Coordination Sequence:
#
# PCOD8208588 Si02
#       7
#     8   8   8   8   8   8   8
#     4  10  19  32  54  80 105 134 174 219 259 307
#     4  10  20  34  52  79 111 138 168 209 264 320
#     4   9  19  36  56  77 102 137 181 219 254 306
#     4   9  18  31  49  73 101 136 172 206 251 311
#     4   9  18  33  51  74 106 141 175 212 259 314
#     4  10  19  31  50  77 105 132 168 215 264 311
#     4  10  20  35  55  77 104 139 175 217 267 312
#
# _framework density 19.016815000000001
#
# number of rings (size 3 to 8) (size 9 to 14) (size 15 to 20)
#    0.000    2.429    1.429    2.143    0.000    4.571 
#    0.000    5.000    0.000    3.000    0.000    0.000 
#    0.000    0.000    0.000    0.000    0.000    0.000 
#
# Total GULP energy -694042.626069 kJ/mol
# GULP energy per Si atom -12393.618323 kJ/mol
# Density = 1.897353 g / cm^3
# Si number density = 19.016815 Si / 1000 Ang^3
#
#
#
# Elastic Constant Matrix: (Units=GPa)
#
#
# Indices 1 2 3 4 5 6 
#
# 1 97.5590 24.4464 44.6270 0.0000 0.0000 0.0000
# 2 24.4464 38.0247 23.1592 0.0000 0.0000 0.0000
# 3 44.6270 23.1592 106.4359 0.0000 0.0000 0.0000
# 4 0.0000 0.0000 0.0000 14.6946 0.0000 0.0000
# 5 0.0000 0.0000 0.0000 0.0000 21.3424 0.0000
# 6 0.0000 0.0000 0.0000 0.0000 0.0000 20.5146
#
#
#
# Elastic Compliance Matrix: (Units=1/GPa)
#
#
# Indices 1 2 3 4 5 6 
#
# 1 0.013838 -0.006182 -0.004457 0.000000 0.000000 0.000000
# 2 -0.006182 0.033078 -0.004605 0.000000 0.000000 0.000000
# 3 -0.004457 -0.004605 0.012266 0.000000 0.000000 0.000000
# 4 0.000000 0.000000 0.000000 0.068052 0.000000 0.000000
# 5 0.000000 0.000000 0.000000 0.000000 0.046855 0.000000
# 6 0.000000 0.000000 0.000000 0.000000 0.000000 0.048746
#
#
# Mechanical properties :
#
#
# Convention : Reuss Voigt Hill
#
# Bulk Modulus (GPa) = 34.85103 47.38720 41.11911
# Shear Modulus (GPa) = 19.01946 21.29613 20.15780
#
# Velocity S-wave (km/s) = 3.16593 3.35006 3.25929
# Velocity P-wave (km/s) = 5.63297 6.31954 5.98610
#
# Compressibility (1/GPa) = 0.02869356
#
# Stress axis : x y z
#
# Youngs Moduli (GPa) = 72.26431 30.23143 81.52529
#
# Poissons Ratio (x) = 0.18689 0.36335
# Poissons Ratio (y) = 0.44674 0.37545
# Poissons Ratio (z) = 0.32208 0.13923
#
# Static dielectric constant tensor:
#      x y z
#    x 3.567360 0.000000 0.000000 
#    y 0.000000 3.253100 0.000000 
#    z 0.000000 0.000000 3.520270 
# 
# 
# High freq. dielectric constant tensor:
#      x y z
#    x 1.733540 0.000000 0.000000 
#    y 0.000000 1.718710 0.000000 
#    z 0.000000 0.000000 1.731940 
# 
# From -- ./inp_files/25790.got.cif
#   From: 2010.03.12/outbox.cif.g09.slc.cpg/sg51_13_cif.got.tgz:25790.got - 2010.04.16 13:43:02.
