data_PCOD8208315
_publ_section_title
;
Structure prediction by ZEFSAII (Michael W. Deem and Ramdas Pophale) SiO2 
 PCOD8208315
Probable space group: P M M A
;
_chemical_formula_sum "Si O2"
_cell_formula_units_Z 52
_cell_length_a 9.225371
_cell_length_b 15.181718
_cell_length_c 22.642666
_cell_angle_alpha 90.000000
_cell_angle_beta 90.000000
_cell_angle_gamma 90.000000
_cell_volume 3171.263441
_symmetry_space_group_name_H-M "P M M A"
_symmetry_group_IT_number 51
_symmetry_cell_setting 'orthorhombic'
loop_
_space_group_symop_operation_xyz
x,y,z
1/2-x,-y,z
1/2+x,-y,-z
-x,y,-z
-x,-y,-z
1/2+x,y,-z
1/2-x,y,z
x,-y,z
loop_
_atom_site_type_symbol
_atom_site_label
_atom_site_fract_x
_atom_site_fract_y
_atom_site_fract_z
Si Si1 0.417519 0.500000 0.059855
Si Si2 0.913503 0.685758 0.898390
Si Si3 0.417709 0.099944 0.812873
Si Si4 0.084496 0.257562 0.234768
Si Si5 0.077501 0.399070 0.685090
Si Si6 0.420697 0.843584 0.942716
Si Si7 0.591643 0.396443 0.446787
O O1 0.250000 0.500000 0.044480
O O2 0.462330 0.414976 0.097095
O O3 0.500000 0.500000 0.000000
O O4 0.750000 0.702558 0.922069
O O5 0.923769 0.705159 0.830160
O O6 0.024421 0.743187 0.936957
O O7 0.250000 0.127396 0.807829
O O8 0.507568 0.161799 0.767934
O O9 0.465467 0.107330 0.881899
O O10 0.444398 0.000000 0.792316
O O11 0.250000 0.246254 0.256674
O O12 0.002361 0.327200 0.275497
O O13 0.250000 0.387834 0.690761
O O14 0.034659 0.500000 0.702547
O O15 0.025051 0.379196 0.618058
O O16 0.250000 0.847397 0.953743
O O17 0.500000 0.886989 0.000000
O O18 0.500000 0.352983 0.500000
O O19 0.750000 0.352751 0.450207
O O20 0.605074 0.500000 0.457180
#
# Coordination Sequence:
#
# PCOD8208315 Si02
#       7
#     4   8   8   8   8   8   8
#     4  10  20  32  44  58  78 106 143 184 221 266
#     4   9  19  33  46  60  83 114 146 184 230 271
#     4   9  19  36  54  69  89 119 151 185 232 289
#     4  10  20  32  49  71  94 120 153 196 240 277
#     4   9  18  31  46  67  98 135 169 199 230 271
#     4  10  19  31  48  68  89 110 139 177 224 281
#     4   8  14  25  41  62  91 127 165 201 234 265
#
# _framework density 16.397251000000001
#
# number of rings (size 3 to 8) (size 9 to 14) (size 15 to 20)
#    0.000    2.769    0.000    2.308    1.077    4.615 
#    0.000    1.538    0.000    0.000    0.000    0.000 
#    0.000    0.615    0.000    2.000    0.000    2.462 
#
# Total GULP energy -644462.642586 kJ/mol
# GULP energy per Si atom -12393.512357 kJ/mol
# Density = 1.635993 g / cm^3
# Si number density = 16.397251 Si / 1000 Ang^3
#
#
#
# Elastic Constant Matrix: (Units=GPa)
#
#
# Indices 1 2 3 4 5 6 
#
# 1 69.6623 38.9324 36.6090 0.0000 0.0000 0.0000
# 2 38.9324 89.9322 31.2227 0.0000 0.0000 0.0000
# 3 36.6090 31.2227 61.9642 0.0000 0.0000 0.0000
# 4 0.0000 0.0000 0.0000 7.5010 0.0000 0.0000
# 5 0.0000 0.0000 0.0000 0.0000 28.1562 0.0000
# 6 0.0000 0.0000 0.0000 0.0000 0.0000 21.1144
#
#
#
# Elastic Compliance Matrix: (Units=1/GPa)
#
#
# Indices 1 2 3 4 5 6 
#
# 1 0.023597 -0.006515 -0.010659 0.000000 0.000000 0.000000
# 2 -0.006515 0.015276 -0.003848 0.000000 0.000000 0.000000
# 3 -0.010659 -0.003848 0.024375 0.000000 0.000000 0.000000
# 4 0.000000 0.000000 0.000000 0.133315 0.000000 0.000000
# 5 0.000000 0.000000 0.000000 0.000000 0.035516 0.000000
# 6 0.000000 0.000000 0.000000 0.000000 0.000000 0.047361
#
#
# Mechanical properties :
#
#
# Convention : Reuss Voigt Hill
#
# Bulk Modulus (GPa) = 47.16058 48.34300 47.75179
# Shear Modulus (GPa) = 15.21830 19.00730 17.11280
#
# Velocity S-wave (km/s) = 3.04978 3.40836 3.23404
# Velocity P-wave (km/s) = 6.42069 6.71086 6.56738
#
# Compressibility (1/GPa) = 0.02120415
#
# Stress axis : x y z
#
# Youngs Moduli (GPa) = 42.37751 65.46262 41.02626
#
# Poissons Ratio (x) = 0.42649 0.43729
# Poissons Ratio (y) = 0.27609 0.15787
# Poissons Ratio (z) = 0.45169 0.25191
#
# Static dielectric constant tensor:
#      x y z
#    x 3.235800 0.000000 0.000000 
#    y 0.000000 2.986210 0.000000 
#    z 0.000000 0.000000 3.037870 
# 
# 
# High freq. dielectric constant tensor:
#      x y z
#    x 1.634550 0.000000 0.000000 
#    y 0.000000 1.607670 0.000000 
#    z 0.000000 0.000000 1.613580 
# 
# From -- ./inp_files/34683.got.cif
#   From: 2010.03.12/outbox.cif.g09.slc.cpg/sg51_18_cif.got.tgz:34683.got - 2010.04.16 13:43:02.
