data_PCOD8208795
_publ_section_title
;
Structure prediction by ZEFSAII (Michael W. Deem and Ramdas Pophale) SiO2 
 PCOD8208795
Probable space group: P M M A
;
_chemical_formula_sum "Si O2"
_cell_formula_units_Z 52
_cell_length_a 8.627023
_cell_length_b 18.734234
_cell_length_c 18.435121
_cell_angle_alpha 90.000000
_cell_angle_beta 90.000000
_cell_angle_gamma 90.000000
_cell_volume 2979.496563
_symmetry_space_group_name_H-M "P M M A"
_symmetry_group_IT_number 51
_symmetry_cell_setting 'orthorhombic'
loop_
_space_group_symop_operation_xyz
x,y,z
1/2-x,-y,z
1/2+x,-y,-z
-x,y,-z
-x,-y,-z
1/2+x,y,-z
1/2-x,y,z
x,-y,z
loop_
_atom_site_type_symbol
_atom_site_label
_atom_site_fract_x
_atom_site_fract_y
_atom_site_fract_z
Si Si1 0.421209 0.856446 0.204584
Si Si2 0.563854 0.641380 0.850783
Si Si3 0.565154 0.209527 0.578123
Si Si4 0.918997 0.709691 0.710846
Si Si5 0.571533 0.918884 0.338859
Si Si6 0.933395 0.500000 0.080182
Si Si7 0.566931 0.219871 0.076823
O O1 0.250000 0.885105 0.183093
O O2 0.401653 0.783210 0.246806
O O3 0.504399 0.912604 0.257515
O O4 0.523066 0.843009 0.132873
O O5 0.750000 0.638508 0.852006
O O6 0.500046 0.655048 0.767671
O O7 0.491711 0.568212 0.876651
O O8 0.509617 0.704475 0.903209
O O9 0.500000 0.229063 0.500000
O O10 0.750000 0.211524 0.577943
O O11 0.497568 0.270280 0.634436
O O12 0.514145 0.130750 0.602620
O O13 0.750000 0.678201 0.692299
O O14 0.750000 0.895939 0.336930
O O15 0.549793 0.000000 0.365259
O O16 0.750000 0.500000 0.075506
O O17 0.000000 0.500000 0.000000
O O18 0.750000 0.229656 0.073861
O O19 0.500000 0.195369 0.000000
#
# Coordination Sequence:
#
# PCOD8208795 Si02
#       7
#     8   8   8   8   8   4   8
#     4   9  17  31  49  69  92 121 159 201 243 289
#     4  10  19  34  52  71  96 130 168 204 243 290
#     4  10  19  32  50  74 102 130 160 199 245 292
#     4   7  14  29  49  69  91 120 157 197 237 283
#     4  10  20  33  49  70  96 128 164 199 239 292
#     4  12  24  36  48  70 103 138 171 204 245 292
#     4  11  20  31  48  71  97 125 159 202 248 291
#
# _framework density 17.452611999999998
#
# number of rings (size 3 to 8) (size 9 to 14) (size 15 to 20)
#    0.000    2.308    0.000    6.231    0.000    1.538 
#    0.000    2.308    0.000    0.462    0.000    0.538 
#    0.000    0.000    0.000    0.000    0.000    0.000 
#
# Total GULP energy -644364.542950 kJ/mol
# GULP energy per Si atom -12391.625826 kJ/mol
# Density = 1.741289 g / cm^3
# Si number density = 17.452612 Si / 1000 Ang^3
#
#
#
# Elastic Constant Matrix: (Units=GPa)
#
#
# Indices 1 2 3 4 5 6 
#
# 1 106.0711 23.4680 43.3531 0.0000 0.0000 0.0000
# 2 23.4680 49.1012 44.7573 0.0000 0.0000 0.0000
# 3 43.3531 44.7573 148.3091 0.0000 0.0000 0.0000
# 4 0.0000 0.0000 0.0000 22.7086 0.0000 0.0000
# 5 0.0000 0.0000 0.0000 0.0000 29.2940 0.0000
# 6 0.0000 0.0000 0.0000 0.0000 0.0000 22.3767
#
#
#
# Elastic Compliance Matrix: (Units=1/GPa)
#
#
# Indices 1 2 3 4 5 6 
#
# 1 0.011066 -0.003228 -0.002260 0.000000 0.000000 0.000000
# 2 -0.003228 0.029036 -0.007819 0.000000 0.000000 0.000000
# 3 -0.002260 -0.007819 0.009763 0.000000 0.000000 0.000000
# 4 0.000000 0.000000 0.000000 0.044036 0.000000 0.000000
# 5 0.000000 0.000000 0.000000 0.000000 0.034137 0.000000
# 6 0.000000 0.000000 0.000000 0.000000 0.000000 0.044689
#
#
# Mechanical properties :
#
#
# Convention : Reuss Voigt Hill
#
# Bulk Modulus (GPa) = 43.01158 58.51534 50.76346
# Shear Modulus (GPa) = 24.14372 27.66939 25.90656
#
# Velocity S-wave (km/s) = 3.72343 3.98603 3.85696
# Velocity P-wave (km/s) = 6.57141 7.40172 6.99889
#
# Compressibility (1/GPa) = 0.02324956
#
# Stress axis : x y z
#
# Youngs Moduli (GPa) = 90.36858 34.43946 102.42667
#
# Poissons Ratio (x) = 0.11119 0.23153
# Poissons Ratio (y) = 0.29175 0.80088
# Poissons Ratio (z) = 0.20427 0.26928
#
# Static dielectric constant tensor:
#      x y z
#    x 3.327710 0.000000 0.000000 
#    y 0.000000 3.051820 0.000000 
#    z 0.000000 0.000000 3.637040 
# 
# 
# High freq. dielectric constant tensor:
#      x y z
#    x 1.679100 0.000000 0.000000 
#    y 0.000000 1.636120 0.000000 
#    z 0.000000 0.000000 1.678610 
# 
# From -- ./inp_files/27932.got.cif
#   From: 2010.03.12/outbox.cif.g09.slc.cpg/sg51_14_cif.got.tgz:27932.got - 2010.04.16 13:43:02.
