data_PCOD8208774
_publ_section_title
;
Structure prediction by ZEFSAII (Michael W. Deem and Ramdas Pophale) SiO2 
 PCOD8208774
Probable space group: P M M A
;
_chemical_formula_sum "Si O2"
_cell_formula_units_Z 44
_cell_length_a 8.569697
_cell_length_b 15.433188
_cell_length_c 17.670782
_cell_angle_alpha 90.000000
_cell_angle_beta 90.000000
_cell_angle_gamma 90.000000
_cell_volume 2337.097778
_symmetry_space_group_name_H-M "P M M A"
_symmetry_group_IT_number 51
_symmetry_cell_setting 'orthorhombic'
loop_
_space_group_symop_operation_xyz
x,y,z
1/2-x,-y,z
1/2+x,-y,-z
-x,y,-z
-x,-y,-z
1/2+x,y,-z
1/2-x,y,z
x,-y,z
loop_
_atom_site_type_symbol
_atom_site_label
_atom_site_fract_x
_atom_site_fract_y
_atom_site_fract_z
Si Si1 0.433467 0.840040 0.078130
Si Si2 0.566670 0.598234 0.416672
Si Si3 0.068130 0.326857 0.860148
Si Si4 0.933701 0.094007 0.761671
Si Si5 0.433489 0.725626 0.294834
Si Si6 0.933537 0.500000 0.917326
O O1 0.250000 0.848373 0.074601
O O2 0.483242 0.739907 0.083804
O O3 0.501157 0.886876 0.153686
O O4 0.500000 0.880633 0.000000
O O5 0.500000 0.607521 0.500000
O O6 0.750000 0.617012 0.416703
O O7 0.532926 0.500000 0.386392
O O8 0.480178 0.672462 0.368947
O O9 0.250000 0.325806 0.878870
O O10 0.038883 0.308573 0.772585
O O11 0.994846 0.419266 0.871749
O O12 0.750000 0.088565 0.770672
O O13 0.973397 0.170499 0.701174
O O14 0.999500 0.000000 0.733971
O O15 0.250000 0.712593 0.277886
O O16 0.750000 0.500000 0.920569
O O17 0.000000 0.500000 0.000000
#
# Coordination Sequence:
#
# PCOD8208774 Si02
#       6
#     8   8   8   8   8   4
#     4  10  19  32  50  72 100 135 176 224 279 330
#     4  10  21  37  58  85 117 149 181 217 261 315
#     4  11  22  36  52  72 100 136 179 223 268 320
#     4   8  16  32  53  77 105 139 181 226 274 326
#     4  10  20  35  57  83 111 144 179 220 268 319
#     4  12  24  38  52  70  97 132 177 226 274 322
#
# _framework density 18.82677
#
# number of rings (size 3 to 8) (size 9 to 14) (size 15 to 20)
#    0.000    2.000    0.000    5.727    1.273    1.455 
#    0.000    0.000    0.000   19.636    0.000    0.000 
#    0.000    0.000    0.000    0.000    0.000    0.000 
#
# Total GULP energy -545313.183619 kJ/mol
# GULP energy per Si atom -12393.481446 kJ/mol
# Density = 1.878392 g / cm^3
# Si number density = 18.826770 Si / 1000 Ang^3
#
#
#
# Elastic Constant Matrix: (Units=GPa)
#
#
# Indices 1 2 3 4 5 6 
#
# 1 68.0949 27.5026 18.9805 0.0000 0.0000 0.0000
# 2 27.5026 156.1572 48.0210 0.0000 0.0000 0.0000
# 3 18.9805 48.0210 68.3197 0.0000 0.0000 0.0000
# 4 0.0000 0.0000 0.0000 24.5547 0.0000 0.0000
# 5 0.0000 0.0000 0.0000 0.0000 32.8858 0.0000
# 6 0.0000 0.0000 0.0000 0.0000 0.0000 16.1808
#
#
#
# Elastic Compliance Matrix: (Units=1/GPa)
#
#
# Indices 1 2 3 4 5 6 
#
# 1 0.016344 -0.001891 -0.003212 0.000000 0.000000 0.000000
# 2 -0.001891 0.008388 -0.005371 0.000000 0.000000 0.000000
# 3 -0.003212 -0.005371 0.019304 0.000000 0.000000 0.000000
# 4 0.000000 0.000000 0.000000 0.040725 0.000000 0.000000
# 5 0.000000 0.000000 0.000000 0.000000 0.030408 0.000000
# 6 0.000000 0.000000 0.000000 0.000000 0.000000 0.061802
#
#
# Mechanical properties :
#
#
# Convention : Reuss Voigt Hill
#
# Bulk Modulus (GPa) = 43.30806 53.50889 48.40847
# Shear Modulus (GPa) = 24.31718 27.92877 26.12298
#
# Velocity S-wave (km/s) = 3.59782 3.85575 3.72902
# Velocity P-wave (km/s) = 6.34921 6.95024 6.65651
#
# Compressibility (1/GPa) = 0.02309039
#
# Stress axis : x y z
#
# Youngs Moduli (GPa) = 61.18336 119.21163 51.80177
#
# Poissons Ratio (x) = 0.22542 0.16637
# Poissons Ratio (y) = 0.11569 0.27822
# Poissons Ratio (z) = 0.19650 0.64026
#
# Static dielectric constant tensor:
#      x y z
#    x 3.414820 0.000000 0.000000 
#    y 0.000000 3.891240 0.000000 
#    z 0.000000 0.000000 3.304310 
# 
# 
# High freq. dielectric constant tensor:
#      x y z
#    x 1.729460 0.000000 0.000000 
#    y 0.000000 1.739150 0.000000 
#    z 0.000000 0.000000 1.708100 
# 
# From -- ./inp_files/27349.got.cif
#   From: 2010.03.12/outbox.cif.g09.slc.cpg/sg51_14_cif.got.tgz:27349.got - 2010.04.16 13:43:02.
