data_PCOD8208559
_publ_section_title
;
Structure prediction by ZEFSAII (Michael W. Deem and Ramdas Pophale) SiO2 
 PCOD8208559
Probable space group: P M M A
;
_chemical_formula_sum "Si O2"
_cell_formula_units_Z 64
_cell_length_a 9.429115
_cell_length_b 13.936012
_cell_length_c 28.785656
_cell_angle_alpha 90.000000
_cell_angle_beta 90.000000
_cell_angle_gamma 90.000000
_cell_volume 3782.557819
_symmetry_space_group_name_H-M "P M M A"
_symmetry_group_IT_number 51
_symmetry_cell_setting 'orthorhombic'
loop_
_space_group_symop_operation_xyz
x,y,z
1/2-x,-y,z
1/2+x,-y,-z
-x,y,-z
-x,-y,-z
1/2+x,y,-z
1/2-x,y,z
x,-y,z
loop_
_atom_site_type_symbol
_atom_site_label
_atom_site_fract_x
_atom_site_fract_y
_atom_site_fract_z
Si Si1 0.917525 0.781447 0.179389
Si Si2 0.413294 0.890485 0.103241
Si Si3 0.588376 0.400099 0.545888
Si Si4 0.593220 0.111132 0.641636
Si Si5 0.413904 0.109983 0.726879
Si Si6 0.583861 0.389082 0.860340
Si Si7 0.915550 0.191936 0.547453
Si Si8 0.088423 0.711410 0.044751
O O1 0.750000 0.772135 0.169836
O O2 0.950303 0.820905 0.230443
O O3 0.983182 0.859164 0.144413
O O4 0.991700 0.677378 0.174166
O O5 0.250000 0.878131 0.119843
O O6 0.441391 0.822049 0.059021
O O7 0.446297 0.000000 0.088912
O O8 0.500000 0.406982 0.500000
O O9 0.750000 0.396971 0.529791
O O10 0.560287 0.500000 0.575395
O O11 0.552786 0.298360 0.569429
O O12 0.750000 0.159023 0.644282
O O13 0.495203 0.153963 0.682241
O O14 0.530769 0.125128 0.589562
O O15 0.604363 0.000000 0.651524
O O16 0.250000 0.113901 0.714050
O O17 0.458142 0.000000 0.738789
O O18 0.750000 0.371079 0.850442
O O19 0.542501 0.500000 0.852454
O O20 0.546798 0.358994 0.913014
O O21 0.750000 0.174940 0.536164
O O22 0.000000 0.170394 0.500000
O O23 0.250000 0.696262 0.030592
O O24 0.000000 0.682008 0.000000
#
# Coordination Sequence:
#
# PCOD8208559 Si02
#       8
#     8   8   8   8   8   8   8   8
#     4  10  19  31  50  76 100 119 147 193 243 288
#     4   9  18  32  48  67  95 130 163 194 233 285
#     4   8  13  22  37  56  77 101 130 166 208 250
#     4   9  18  31  45  63  88 118 154 191 221 257
#     4   9  18  32  49  70  96 123 149 181 227 280
#     4   9  19  36  54  71  95 127 161 197 237 283
#     4   9  17  28  42  62  87 115 148 186 225 264
#     4   9  18  31  46  67  95 127 163 201 239 279
#
# _framework density 16.919768999999999
#
# number of rings (size 3 to 8) (size 9 to 14) (size 15 to 20)
#    0.000    3.000    0.000    1.500    0.000    5.250 
#    0.000    1.250    0.000    0.750    0.000    1.750 
#    0.000    0.000    0.000    0.000    0.000    0.000 
#
# Total GULP energy -792879.099074 kJ/mol
# GULP energy per Si atom -12388.735923 kJ/mol
# Density = 1.688126 g / cm^3
# Si number density = 16.919769 Si / 1000 Ang^3
#
#
#
# Elastic Constant Matrix: (Units=GPa)
#
#
# Indices 1 2 3 4 5 6 
#
# 1 67.4622 35.6731 57.6598 0.0000 0.0000 0.0000
# 2 35.6731 82.7835 37.6366 0.0000 0.0000 0.0000
# 3 57.6598 37.6366 109.6948 0.0000 0.0000 0.0000
# 4 0.0000 0.0000 0.0000 -8.7543 0.0000 0.0000
# 5 0.0000 0.0000 0.0000 0.0000 29.9702 0.0000
# 6 0.0000 0.0000 0.0000 0.0000 0.0000 21.0861
#
#
#
# Elastic Compliance Matrix: (Units=1/GPa)
#
#
# Indices 1 2 3 4 5 6 
#
# 1 0.029815 -0.006780 -0.013345 0.000000 0.000000 0.000000
# 2 -0.006780 0.015854 -0.001876 0.000000 0.000000 0.000000
# 3 -0.013345 -0.001876 0.016775 0.000000 0.000000 0.000000
# 4 0.000000 0.000000 0.000000 -0.114229 0.000000 0.000000
# 5 0.000000 0.000000 0.000000 0.000000 0.033366 0.000000
# 6 0.000000 0.000000 0.000000 0.000000 0.000000 0.047425
#
#
# Mechanical properties :
#
#
# Convention : Reuss Voigt Hill
#
# Bulk Modulus (GPa) = 54.22775 57.98662 56.10719
# Shear Modulus (GPa) = 63.16669 17.05846 40.11258
#
# Velocity S-wave (km/s) = 6.11671 3.17866 4.87432
# Velocity P-wave (km/s) = 9.05566 6.91504 8.05676
#
# Compressibility (1/GPa) = 0.01844074
#
# Stress axis : x y z
#
# Youngs Moduli (GPa) = 33.54030 63.07459 59.61395
#
# Poissons Ratio (x) = 0.42768 0.79558
# Poissons Ratio (y) = 0.22742 0.11181
# Poissons Ratio (z) = 0.44761 0.11830
#
# Static dielectric constant tensor:
#      x y z
#    x 3.247460 0.000000 0.000000 
#    y 0.000000 3.698510 0.000000 
#    z 0.000000 0.000000 2.885570 
# 
# 
# High freq. dielectric constant tensor:
#      x y z
#    x 1.653220 0.000000 0.000000 
#    y 0.000000 1.653400 0.000000 
#    z 0.000000 0.000000 1.624310 
# 
# From -- ./inp_files/37572.got.cif
#   From: 2010.03.12/outbox.cif.g09.slc.cpg/sg51_19_cif.got.tgz:37572.got - 2010.04.16 13:43:02.
