data_PCOD8208063
_publ_section_title
;
Structure prediction by ZEFSAII (Michael W. Deem and Ramdas Pophale) SiO2 
 PCOD8208063
Probable space group: P M M A
;
_chemical_formula_sum "Si O2"
_cell_formula_units_Z 64
_cell_length_a 9.421089
_cell_length_b 15.104055
_cell_length_c 30.160639
_cell_angle_alpha 90.000000
_cell_angle_beta 90.000000
_cell_angle_gamma 90.000000
_cell_volume 4291.757783
_symmetry_space_group_name_H-M "P M M A"
_symmetry_group_IT_number 51
_symmetry_cell_setting 'orthorhombic'
loop_
_space_group_symop_operation_xyz
x,y,z
1/2-x,-y,z
1/2+x,-y,-z
-x,y,-z
-x,-y,-z
1/2+x,y,-z
1/2-x,y,z
x,-y,z
loop_
_atom_site_type_symbol
_atom_site_label
_atom_site_fract_x
_atom_site_fract_y
_atom_site_fract_z
Si Si1 0.086714 0.240427 0.791306
Si Si2 0.909590 0.105342 0.540066
Si Si3 0.590298 0.894764 0.637283
Si Si4 0.084058 0.899212 0.719830
Si Si5 0.908989 0.596575 0.790479
Si Si6 0.915815 0.896508 0.955568
Si Si7 0.409823 0.598321 0.104206
Si Si8 0.082680 0.233892 0.894692
O O1 0.250000 0.261510 0.784130
O O2 0.038325 0.155007 0.763409
O O3 0.053184 0.222717 0.842586
O O4 0.006957 0.325897 0.771630
O O5 0.750000 0.138998 0.533578
O O6 0.965346 0.136767 0.588668
O O7 0.000000 0.147822 0.500000
O O8 0.915900 0.000000 0.537650
O O9 0.750000 0.860148 0.645053
O O10 0.491392 0.857661 0.676484
O O11 0.587503 0.000000 0.638349
O O12 0.250000 0.892884 0.710691
O O13 0.036053 0.000000 0.728571
O O14 0.750000 0.613184 0.773290
O O15 0.963028 0.500000 0.773941
O O16 0.912443 0.597790 0.843216
O O17 0.750000 0.868912 0.959763
O O18 0.994055 0.845265 0.916228
O O19 0.929407 0.000000 0.944953
O O20 0.000000 0.871439 0.000000
O O21 0.250000 0.621324 0.087665
O O22 0.453898 0.500000 0.086721
O O23 0.521332 0.672193 0.087108
O O24 0.250000 0.228057 0.906063
#
# Coordination Sequence:
#
# PCOD8208063 Si02
#       8
#     8   8   8   8   8   8   8   8
#     4   9  18  29  41  61  86 111 139 169 201 236
#     4   8  13  20  30  45  64  84 111 153 201 243
#     4   8  14  24  35  47  65  91 125 164 203 240
#     4   9  17  28  39  51  72 105 142 174 201 233
#     4   8  14  25  41  60  81 105 133 166 203 240
#     4  10  21  37  55  72  89 110 138 171 206 246
#     4   8  14  26  44  65  90 118 143 167 197 234
#     4  10  19  30  47  70  93 115 138 168 205 243
#
# _framework density 14.912304000000001
#
# number of rings (size 3 to 8) (size 9 to 14) (size 15 to 20)
#    0.000    3.250    0.000    2.250    0.000    3.250 
#    0.000    6.250    0.000    1.875    0.000    0.000 
#    0.000    0.000    0.000    0.000    0.000    0.625 
#
# Total GULP energy -793078.498920 kJ/mol
# GULP energy per Si atom -12391.851546 kJ/mol
# Density = 1.487836 g / cm^3
# Si number density = 14.912304 Si / 1000 Ang^3
#
#
#
# Elastic Constant Matrix: (Units=GPa)
#
#
# Indices 1 2 3 4 5 6 
#
# 1 82.3672 47.8276 48.1185 0.0000 0.0000 0.0000
# 2 47.8276 71.5855 43.5435 0.0000 0.0000 0.0000
# 3 48.1185 43.5435 70.4945 0.0000 0.0000 0.0000
# 4 0.0000 0.0000 0.0000 1.3539 0.0000 0.0000
# 5 0.0000 0.0000 0.0000 0.0000 24.5298 0.0000
# 6 0.0000 0.0000 0.0000 0.0000 0.0000 23.6934
#
#
#
# Elastic Compliance Matrix: (Units=1/GPa)
#
#
# Indices 1 2 3 4 5 6 
#
# 1 0.023704 -0.009603 -0.010248 0.000000 0.000000 0.000000
# 2 -0.009603 0.026267 -0.009670 0.000000 0.000000 0.000000
# 3 -0.010248 -0.009670 0.027154 0.000000 0.000000 0.000000
# 4 0.000000 0.000000 0.000000 0.738596 0.000000 0.000000
# 5 0.000000 0.000000 0.000000 0.000000 0.040767 0.000000
# 6 0.000000 0.000000 0.000000 0.000000 0.000000 0.042206
#
#
# Mechanical properties :
#
#
# Convention : Reuss Voigt Hill
#
# Bulk Modulus (GPa) = 55.30275 55.93627 55.61951
# Shear Modulus (GPa) = 5.18799 15.57927 10.38363
#
# Velocity S-wave (km/s) = 1.86723 3.23573 2.64164
# Velocity P-wave (km/s) = 6.46642 7.17994 6.83250
#
# Compressibility (1/GPa) = 0.01808228
#
# Stress axis : x y z
#
# Youngs Moduli (GPa) = 42.18700 38.06989 36.82744
#
# Poissons Ratio (x) = 0.36560 0.37741
# Poissons Ratio (y) = 0.40514 0.35612
# Poissons Ratio (z) = 0.43234 0.36813
#
# Static dielectric constant tensor:
#      x y z
#    x 3.036070 0.000000 0.000000 
#    y 0.000000 2.859580 0.000000 
#    z 0.000000 0.000000 2.895710 
# 
# 
# High freq. dielectric constant tensor:
#      x y z
#    x 1.577070 0.000000 0.000000 
#    y 0.000000 1.539570 0.000000 
#    z 0.000000 0.000000 1.546440 
# 
# From -- ./inp_files/37534.got.cif
#   From: 2010.03.12/outbox.cif.g09.slc.cpg/sg51_19_cif.got.tgz:37534.got - 2010.04.16 13:43:02.
