data_PCOD8208814
_publ_section_title
;
Structure prediction by ZEFSAII (Michael W. Deem and Ramdas Pophale) SiO2 
 PCOD8208814
Probable space group: P M M A
;
_chemical_formula_sum "Si O2"
_cell_formula_units_Z 64
_cell_length_a 9.075048
_cell_length_b 24.048108
_cell_length_c 15.324715
_cell_angle_alpha 90.000000
_cell_angle_beta 90.000000
_cell_angle_gamma 90.000000
_cell_volume 3344.431082
_symmetry_space_group_name_H-M "P M M A"
_symmetry_group_IT_number 51
_symmetry_cell_setting 'orthorhombic'
loop_
_space_group_symop_operation_xyz
x,y,z
1/2-x,-y,z
1/2+x,-y,-z
-x,y,-z
-x,-y,-z
1/2+x,y,-z
1/2-x,y,z
x,-y,z
loop_
_atom_site_type_symbol
_atom_site_label
_atom_site_fract_x
_atom_site_fract_y
_atom_site_fract_z
Si Si1 0.426458 0.365118 0.767357
Si Si2 0.924190 0.341866 0.587740
Si Si3 0.418484 0.936291 0.755821
Si Si4 0.918975 0.434061 0.912501
Si Si5 0.081713 0.900791 0.415969
Si Si6 0.584558 0.219867 0.639390
Si Si7 0.921323 0.757125 0.193681
Si Si8 0.077679 0.859008 0.911986
O O1 0.250000 0.371586 0.760557
O O2 0.498184 0.370286 0.671391
O O3 0.493914 0.412605 0.828054
O O4 0.476470 0.306528 0.811822
O O5 0.750000 0.355454 0.588007
O O6 0.957547 0.275869 0.587765
O O7 0.000000 0.366129 0.500000
O O8 0.250000 0.920241 0.734259
O O9 0.514602 0.926249 0.670777
O O10 0.479749 0.898603 0.834614
O O11 0.432495 0.000000 0.785402
O O12 0.750000 0.412622 0.912943
O O13 0.924110 0.500000 0.908142
O O14 0.000000 0.412381 0.000000
O O15 0.250000 0.919643 0.420272
O O16 0.065416 0.833873 0.420992
O O17 0.000000 0.926049 0.500000
O O18 0.750000 0.225502 0.674833
O O19 0.483855 0.210981 0.723059
O O20 0.750000 0.756550 0.209513
O O21 0.962321 0.794230 0.109290
O O22 0.250000 0.867154 0.925406
O O23 0.000000 0.877479 0.000000
#
# Coordination Sequence:
#
# PCOD8208814 Si02
#       8
#     8   8   8   8   8   8   8   8
#     4  10  20  34  55  84 116 151 191 232 278 332
#     4  10  19  32  50  77 114 153 192 232 275 325
#     4  10  22  41  61  78 101 136 178 226 276 326
#     4  10  21  38  60  85 114 150 192 238 285 332
#     4  11  22  35  55  82 109 139 176 218 270 327
#     4   9  18  31  50  77 107 141 180 220 266 319
#     4   9  18  33  53  78 110 146 180 217 269 324
#     4  10  21  37  57  81 108 139 175 219 271 328
#
# _framework density 19.136291
#
# number of rings (size 3 to 8) (size 9 to 14) (size 15 to 20)
#    0.000    2.125    1.250    1.875    0.000    4.500 
#    0.000    1.250    0.000    0.375    0.000    0.000 
#    0.000    0.000    0.000    0.000    0.000    0.000 
#
# Total GULP energy -793531.265707 kJ/mol
# GULP energy per Si atom -12398.926027 kJ/mol
# Density = 1.909274 g / cm^3
# Si number density = 19.136291 Si / 1000 Ang^3
#
#
#
# Elastic Constant Matrix: (Units=GPa)
#
#
# Indices 1 2 3 4 5 6 
#
# 1 84.6185 27.9921 61.9095 0.0000 0.0000 0.0000
# 2 27.9921 34.5682 34.4278 0.0000 0.0000 0.0000
# 3 61.9095 34.4278 143.9733 0.0000 0.0000 0.0000
# 4 0.0000 0.0000 0.0000 18.2193 0.0000 0.0000
# 5 0.0000 0.0000 0.0000 0.0000 39.9941 0.0000
# 6 0.0000 0.0000 0.0000 0.0000 0.0000 20.9447
#
#
#
# Elastic Compliance Matrix: (Units=1/GPa)
#
#
# Indices 1 2 3 4 5 6 
#
# 1 0.019458 -0.009744 -0.006037 0.000000 0.000000 0.000000
# 2 -0.009744 0.042851 -0.006057 0.000000 0.000000 0.000000
# 3 -0.006037 -0.006057 0.010990 0.000000 0.000000 0.000000
# 4 0.000000 0.000000 0.000000 0.054887 0.000000 0.000000
# 5 0.000000 0.000000 0.000000 0.000000 0.025004 0.000000
# 6 0.000000 0.000000 0.000000 0.000000 0.000000 0.047745
#
#
# Mechanical properties :
#
#
# Convention : Reuss Voigt Hill
#
# Bulk Modulus (GPa) = 33.75713 56.86875 45.31294
# Shear Modulus (GPa) = 19.64759 25.08697 22.36728
#
# Velocity S-wave (km/s) = 3.20772 3.62465 3.42254
# Velocity P-wave (km/s) = 5.60339 6.87748 6.27287
#
# Compressibility (1/GPa) = 0.02962337
#
# Stress axis : x y z
#
# Youngs Moduli (GPa) = 51.39293 23.33679 90.99140
#
# Poissons Ratio (x) = 0.22739 0.54932
# Poissons Ratio (y) = 0.50076 0.55112
# Poissons Ratio (z) = 0.31026 0.14135
#
# Static dielectric constant tensor:
#      x y z
#    x 3.521190 0.000000 0.000000 
#    y 0.000000 3.441030 0.000000 
#    z 0.000000 0.000000 3.391760 
# 
# 
# High freq. dielectric constant tensor:
#      x y z
#    x 1.750190 0.000000 0.000000 
#    y 0.000000 1.726630 0.000000 
#    z 0.000000 0.000000 1.740990 
# 
# From -- ./inp_files/22300.got.cif
#   From: 2010.03.12/outbox.cif.g09.slc.cpg/sg51_12_cif.got.tgz:22300.got - 2010.04.16 13:43:02.
