data_PCOD8208317
_publ_section_title
;
Structure prediction by ZEFSAII (Michael W. Deem and Ramdas Pophale) SiO2 
 PCOD8208317
Probable space group: P M M A
;
_chemical_formula_sum "Si O2"
_cell_formula_units_Z 64
_cell_length_a 13.904752
_cell_length_b 9.022079
_cell_length_c 30.852650
_cell_angle_alpha 90.000000
_cell_angle_beta 90.000000
_cell_angle_gamma 90.000000
_cell_volume 3870.457878
_symmetry_space_group_name_H-M "P M M A"
_symmetry_group_IT_number 51
_symmetry_cell_setting 'orthorhombic'
loop_
_space_group_symop_operation_xyz
x,y,z
1/2-x,-y,z
1/2+x,-y,-z
-x,y,-z
-x,-y,-z
1/2+x,y,-z
1/2-x,y,z
x,-y,z
loop_
_atom_site_type_symbol
_atom_site_label
_atom_site_fract_x
_atom_site_fract_y
_atom_site_fract_z
Si Si1 0.358341 0.166290 0.102392
Si Si2 0.856534 0.323979 0.649427
Si Si3 0.536389 0.323611 0.567004
Si Si4 0.860583 0.675094 0.746991
Si Si5 0.861375 0.675792 0.124754
Si Si6 0.003231 0.325943 0.951849
Si Si7 0.990003 0.168968 0.816186
Si Si8 0.144261 0.676518 0.517586
O O1 0.250000 0.215467 0.109632
O O2 0.402257 0.282274 0.068945
O O3 0.407693 0.177855 0.148384
O O4 0.367736 0.000000 0.083504
O O5 0.750000 0.264163 0.638310
O O6 0.855564 0.500000 0.647297
O O7 0.930507 0.258467 0.613608
O O8 0.885232 0.275420 0.697873
O O9 0.538751 0.500000 0.568437
O O10 0.428510 0.268521 0.555368
O O11 0.608296 0.267458 0.529360
O O12 0.750000 0.722793 0.758496
O O13 0.870459 0.500000 0.753480
O O14 0.943552 0.753467 0.774633
O O15 0.750000 0.724628 0.124355
O O16 0.872596 0.500000 0.129233
O O17 0.909934 0.732030 0.079351
O O18 0.914147 0.749306 0.166092
O O19 0.012225 0.500000 0.955785
O O20 0.000000 0.254743 0.000000
O O21 0.017770 0.000000 0.804948
O O22 0.250000 0.742677 0.526938
O O23 0.146981 0.500000 0.517203
#
# Coordination Sequence:
#
# PCOD8208317 Si02
#       8
#     8   8   8   8   8   8   8   8
#     4   9  18  31  45  63  88 116 143 171 207 251
#     4   8  13  21  33  49  70  98 132 167 202 246
#     4   8  12  17  26  40  60  90 126 163 202 243
#     4   9  17  28  43  64  88 114 144 177 216 265
#     4   9  18  33  51  69  91 120 152 185 218 250
#     4   9  18  31  47  69  94 118 145 176 210 249
#     4  10  19  31  48  68  90 114 142 179 220 262
#     4   8  12  16  23  38  60  87 122 162 202 245
#
# _framework density 16.535511
#
# number of rings (size 3 to 8) (size 9 to 14) (size 15 to 20)
#    0.000    3.250    0.000    2.625    0.000    4.000 
#    0.000    1.250    0.000    0.750    0.000    3.500 
#    0.000    0.000    0.000    2.250    0.000    7.000 
#
# Total GULP energy -792988.708716 kJ/mol
# GULP energy per Si atom -12390.448574 kJ/mol
# Density = 1.649787 g / cm^3
# Si number density = 16.535511 Si / 1000 Ang^3
#
#
#
# Elastic Constant Matrix: (Units=GPa)
#
#
# Indices 1 2 3 4 5 6 
#
# 1 140.3021 24.1052 68.5894 0.0000 0.0000 0.0000
# 2 24.1052 19.5534 25.0314 0.0000 0.0000 0.0000
# 3 68.5894 25.0314 119.4351 0.0000 0.0000 0.0000
# 4 0.0000 0.0000 0.0000 5.5830 0.0000 0.0000
# 5 0.0000 0.0000 0.0000 0.0000 21.6882 0.0000
# 6 0.0000 0.0000 0.0000 0.0000 0.0000 11.5781
#
#
#
# Elastic Compliance Matrix: (Units=1/GPa)
#
#
# Indices 1 2 3 4 5 6 
#
# 1 0.010605 -0.007212 -0.004579 0.000000 0.000000 0.000000
# 2 -0.007212 0.074800 -0.011535 0.000000 0.000000 0.000000
# 3 -0.004579 -0.011535 0.013420 0.000000 0.000000 0.000000
# 4 0.000000 0.000000 0.000000 0.179114 0.000000 0.000000
# 5 0.000000 0.000000 0.000000 0.000000 0.046108 0.000000
# 6 0.000000 0.000000 0.000000 0.000000 0.000000 0.086370
#
#
# Mechanical properties :
#
#
# Convention : Reuss Voigt Hill
#
# Bulk Modulus (GPa) = 19.16705 57.19364 38.18034
# Shear Modulus (GPa) = 10.53831 18.54082 14.53957
#
# Velocity S-wave (km/s) = 2.52725 3.35217 2.96851
# Velocity P-wave (km/s) = 4.48693 7.04601 5.90672
#
# Compressibility (1/GPa) = 0.05217286
#
# Stress axis : x y z
#
# Youngs Moduli (GPa) = 94.29521 13.36904 74.51737
#
# Poissons Ratio (x) = 0.09642 0.34119
# Poissons Ratio (y) = 0.68008 0.85954
# Poissons Ratio (z) = 0.43175 0.15421
#
# Static dielectric constant tensor:
#      x y z
#    x 3.282820 0.000000 0.000000 
#    y 0.000000 2.733220 0.000000 
#    z 0.000000 0.000000 3.297540 
# 
# 
# High freq. dielectric constant tensor:
#      x y z
#    x 1.632170 0.000000 0.000000 
#    y 0.000000 1.593970 0.000000 
#    z 0.000000 0.000000 1.632550 
# 
# From -- ./inp_files/37826.got.cif
#   From: 2010.03.12/outbox.cif.g09.slc.cpg/sg51_19_cif.got.tgz:37826.got - 2010.04.16 13:43:02.
