data_PCOD8208534
_publ_section_title
;
Structure prediction by ZEFSAII (Michael W. Deem and Ramdas Pophale) SiO2 
 PCOD8208534
Probable space group: P M M A
;
_chemical_formula_sum "Si O2"
_cell_formula_units_Z 56
_cell_length_a 8.949287
_cell_length_b 18.711150
_cell_length_c 18.774012
_cell_angle_alpha 90.000000
_cell_angle_beta 90.000000
_cell_angle_gamma 90.000000
_cell_volume 3143.735559
_symmetry_space_group_name_H-M "P M M A"
_symmetry_group_IT_number 51
_symmetry_cell_setting 'orthorhombic'
loop_
_space_group_symop_operation_xyz
x,y,z
1/2-x,-y,z
1/2+x,-y,-z
-x,y,-z
-x,-y,-z
1/2+x,y,-z
1/2-x,y,z
x,-y,z
loop_
_atom_site_type_symbol
_atom_site_label
_atom_site_fract_x
_atom_site_fract_y
_atom_site_fract_z
Si Si1 0.074950 0.298233 0.338428
Si Si2 0.576511 0.284955 0.075119
Si Si3 0.925021 0.577031 0.923437
Si Si4 0.077738 0.783822 0.782323
Si Si5 0.923230 0.079972 0.302083
Si Si6 0.424721 0.417404 0.574323
Si Si7 0.424491 0.841654 0.424858
O O1 0.250000 0.313657 0.334388
O O2 0.034414 0.236338 0.394675
O O3 0.019612 0.273937 0.260714
O O4 0.992609 0.370602 0.361944
O O5 0.750000 0.297808 0.060098
O O6 0.506447 0.355918 0.113404
O O7 0.548674 0.222560 0.132850
O O8 0.500000 0.264902 0.000000
O O9 0.750000 0.592979 0.930867
O O10 0.950918 0.500000 0.884302
O O11 0.000000 0.572904 0.000000
O O12 0.250000 0.767602 0.764253
O O13 0.033535 0.864690 0.760746
O O14 0.750000 0.087098 0.322247
O O15 0.016925 0.097065 0.372417
O O16 0.962318 0.000000 0.275717
O O17 0.500000 0.395137 0.500000
O O18 0.250000 0.401877 0.567259
O O19 0.457715 0.500000 0.592395
O O20 0.500000 0.852393 0.500000
O O21 0.250000 0.851624 0.433964
#
# Coordination Sequence:
#
# PCOD8208534 Si02
#       7
#     8   8   8   8   8   8   8
#     4  10  20  33  51  73  97 129 167 207 251 296
#     4  10  19  31  50  74  99 128 161 200 244 290
#     4   9  16  26  42  65  93 123 154 189 229 274
#     4   9  19  35  53  74  99 127 161 200 244 296
#     4   9  18  34  55  75  96 126 162 199 240 286
#     4  10  20  33  50  72  99 133 173 216 258 296
#     4  10  20  32  48  73 102 131 163 198 238 285
#
# _framework density 17.813202
#
# number of rings (size 3 to 8) (size 9 to 14) (size 15 to 20)
#    0.000    2.429    0.000    3.429    0.000    6.286 
#    0.000    0.714    0.000    1.286    0.000    0.000 
#    0.000    0.000    0.000    0.000    0.000    0.571 
#
# Total GULP energy -694192.420681 kJ/mol
# GULP energy per Si atom -12396.293226 kJ/mol
# Density = 1.777266 g / cm^3
# Si number density = 17.813202 Si / 1000 Ang^3
#
#
#
# Elastic Constant Matrix: (Units=GPa)
#
#
# Indices 1 2 3 4 5 6 
#
# 1 90.8754 48.4086 45.2587 0.0000 0.0000 0.0000
# 2 48.4086 104.9563 59.4068 0.0000 0.0000 0.0000
# 3 45.2587 59.4068 100.1467 0.0000 0.0000 0.0000
# 4 0.0000 0.0000 0.0000 16.0314 0.0000 0.0000
# 5 0.0000 0.0000 0.0000 0.0000 24.8187 0.0000
# 6 0.0000 0.0000 0.0000 0.0000 0.0000 23.7714
#
#
#
# Elastic Compliance Matrix: (Units=1/GPa)
#
#
# Indices 1 2 3 4 5 6 
#
# 1 0.015685 -0.004851 -0.004211 0.000000 0.000000 0.000000
# 2 -0.004851 0.015844 -0.007206 0.000000 0.000000 0.000000
# 3 -0.004211 -0.007206 0.016163 0.000000 0.000000 0.000000
# 4 0.000000 0.000000 0.000000 0.062378 0.000000 0.000000
# 5 0.000000 0.000000 0.000000 0.000000 0.040292 0.000000
# 6 0.000000 0.000000 0.000000 0.000000 0.000000 0.042067
#
#
# Mechanical properties :
#
#
# Convention : Reuss Voigt Hill
#
# Bulk Modulus (GPa) = 65.98093 66.90296 66.44195
# Shear Modulus (GPa) = 21.73736 22.45126 22.09431
#
# Velocity S-wave (km/s) = 3.49706 3.55402 3.52566
# Velocity P-wave (km/s) = 7.30936 7.38113 7.34533
#
# Compressibility (1/GPa) = 0.01515589
#
# Stress axis : x y z
#
# Youngs Moduli (GPa) = 63.75365 63.11481 61.86891
#
# Poissons Ratio (x) = 0.30617 0.26053
# Poissons Ratio (y) = 0.30927 0.44585
# Poissons Ratio (z) = 0.26846 0.45483
#
# Static dielectric constant tensor:
#      x y z
#    x 3.424440 0.000000 0.000000 
#    y 0.000000 3.613790 0.000000 
#    z 0.000000 0.000000 3.107220 
# 
# 
# High freq. dielectric constant tensor:
#      x y z
#    x 1.702150 0.000000 0.000000 
#    y 0.000000 1.685000 0.000000 
#    z 0.000000 0.000000 1.662510 
# 
# From -- ./inp_files/32257.got.cif
#   From: 2010.03.12/outbox.cif.g09.slc.cpg/sg51_17_cif.got.tgz:32257.got - 2010.04.16 13:43:02.
