data_PCOD8208182
_publ_section_title
;
Structure prediction by ZEFSAII (Michael W. Deem and Ramdas Pophale) SiO2 
 PCOD8208182
Probable space group: P M M A
;
_chemical_formula_sum "Si O2"
_cell_formula_units_Z 40
_cell_length_a 8.990997
_cell_length_b 7.804690
_cell_length_c 29.151704
_cell_angle_alpha 90.000000
_cell_angle_beta 90.000000
_cell_angle_gamma 90.000000
_cell_volume 2045.631752
_symmetry_space_group_name_H-M "P M M A"
_symmetry_group_IT_number 51
_symmetry_cell_setting 'orthorhombic'
loop_
_space_group_symop_operation_xyz
x,y,z
1/2-x,-y,z
1/2+x,-y,-z
-x,y,-z
-x,-y,-z
1/2+x,y,-z
1/2-x,y,z
x,-y,z
loop_
_atom_site_type_symbol
_atom_site_label
_atom_site_fract_x
_atom_site_fract_y
_atom_site_fract_z
Si Si1 0.074791 0.297898 0.393575
Si Si2 0.572212 0.000000 0.450513
Si Si3 0.579108 0.310452 0.110657
Si Si4 0.926354 0.689638 0.707901
Si Si5 0.573055 0.000000 0.049192
Si Si6 0.919822 0.192370 0.803532
O O1 0.250000 0.263574 0.400844
O O2 0.040227 0.500000 0.402659
O O3 0.022178 0.243720 0.342014
O O4 0.981029 0.175318 0.426429
O O5 0.500000 0.000000 0.500000
O O6 0.750000 0.000000 0.453519
O O7 0.750000 0.267607 0.119158
O O8 0.555888 0.500000 0.089180
O O9 0.513955 0.168775 0.075925
O O10 0.504393 0.310717 0.160555
O O11 0.750000 0.689532 0.706458
O O12 0.988893 0.500000 0.715717
O O13 0.985128 0.798193 0.751517
O O14 0.750000 0.000000 0.043548
O O15 0.500000 0.000000 0.000000
O O16 0.750000 0.254904 0.802672
O O17 0.935921 0.000000 0.821418
#
# Coordination Sequence:
#
# PCOD8208182 Si02
#       6
#     8   4   8   8   4   8
#     4   9  19  38  64  90 117 152 193 238 288 342
#     4  12  26  42  61  86 115 151 192 241 295 350
#     4  10  21  38  58  79 108 148 185 220 271 329
#     4   8  15  29  51  81 114 147 184 226 272 321
#     4  10  22  40  59  80 107 135 174 229 279 336
#     4  10  19  30  51  85 118 150 188 229 269 313
#
# _framework density 19.553861000000001
#
# number of rings (size 3 to 8) (size 9 to 14) (size 15 to 20)
#    0.000    2.400    1.000    2.700    1.400    3.200 
#    0.000    1.000    0.000    1.200    0.000    0.000 
#    0.000    0.000    0.000    0.000    0.000    0.000 
#
# Total GULP energy -495697.982763 kJ/mol
# GULP energy per Si atom -12392.449569 kJ/mol
# Density = 1.950936 g / cm^3
# Si number density = 19.553861 Si / 1000 Ang^3
#
#
#
# Elastic Constant Matrix: (Units=GPa)
#
#
# Indices 1 2 3 4 5 6 
#
# 1 58.0102 43.4726 48.5425 0.0000 0.0000 0.0000
# 2 43.4726 116.8993 73.4022 0.0000 0.0000 0.0000
# 3 48.5425 73.4022 160.6997 0.0000 0.0000 0.0000
# 4 0.0000 0.0000 0.0000 27.6588 0.0000 0.0000
# 5 0.0000 0.0000 0.0000 0.0000 27.7310 0.0000
# 6 0.0000 0.0000 0.0000 0.0000 0.0000 23.5813
#
#
#
# Elastic Compliance Matrix: (Units=1/GPa)
#
#
# Indices 1 2 3 4 5 6 
#
# 1 0.026382 -0.006740 -0.004890 0.000000 0.000000 0.000000
# 2 -0.006740 0.013716 -0.004229 0.000000 0.000000 0.000000
# 3 -0.004890 -0.004229 0.009632 0.000000 0.000000 0.000000
# 4 0.000000 0.000000 0.000000 0.036155 0.000000 0.000000
# 5 0.000000 0.000000 0.000000 0.000000 0.036061 0.000000
# 6 0.000000 0.000000 0.000000 0.000000 0.000000 0.042407
#
#
# Mechanical properties :
#
#
# Convention : Reuss Voigt Hill
#
# Bulk Modulus (GPa) = 55.52356 74.04930 64.78643
# Shear Modulus (GPa) = 24.74330 27.14034 25.94182
#
# Velocity S-wave (km/s) = 3.56109 3.72960 3.64632
# Velocity P-wave (km/s) = 6.73538 7.51653 7.13665
#
# Compressibility (1/GPa) = 0.01801037
#
# Stress axis : x y z
#
# Youngs Moduli (GPa) = 37.90524 72.90518 103.82254
#
# Poissons Ratio (x) = 0.49138 0.50774
# Poissons Ratio (y) = 0.25548 0.43909
# Poissons Ratio (z) = 0.18537 0.30833
#
# Static dielectric constant tensor:
#      x y z
#    x 3.206680 0.000000 0.000000 
#    y 0.000000 3.728380 0.000000 
#    z 0.000000 0.000000 3.720620 
# 
# 
# High freq. dielectric constant tensor:
#      x y z
#    x 1.721610 0.000000 0.000000 
#    y 0.000000 1.771220 0.000000 
#    z 0.000000 0.000000 1.767170 
# 
# From -- ./inp_files/36027.got.cif
#   From: 2010.03.12/outbox.cif.g09.slc.cpg/sg51_19_cif.got.tgz:36027.got - 2010.04.16 13:43:02.
