data_PCOD8208952
_publ_section_title
;
Structure prediction by ZEFSAII (Michael W. Deem and Ramdas Pophale) SiO2 
 PCOD8208952
Probable space group: P M M A
;
_chemical_formula_sum "Si O2"
_cell_formula_units_Z 64
_cell_length_a 9.156329
_cell_length_b 17.343301
_cell_length_c 20.659688
_cell_angle_alpha 90.000000
_cell_angle_beta 90.000000
_cell_angle_gamma 90.000000
_cell_volume 3280.778492
_symmetry_space_group_name_H-M "P M M A"
_symmetry_group_IT_number 51
_symmetry_cell_setting 'orthorhombic'
loop_
_space_group_symop_operation_xyz
x,y,z
1/2-x,-y,z
1/2+x,-y,-z
-x,y,-z
-x,-y,-z
1/2+x,y,-z
1/2-x,y,z
x,-y,z
loop_
_atom_site_type_symbol
_atom_site_label
_atom_site_fract_x
_atom_site_fract_y
_atom_site_fract_z
Si Si1 0.584576 0.415766 0.153615
Si Si2 0.084009 0.689859 0.061907
Si Si3 0.420292 0.260370 0.561302
Si Si4 0.579134 0.781189 0.295296
Si Si5 0.083473 0.087102 0.804866
Si Si6 0.913960 0.413437 0.587422
Si Si7 0.418988 0.129073 0.065263
Si Si8 0.414324 0.629096 0.267049
O O1 0.750000 0.385404 0.154240
O O2 0.575771 0.500000 0.119785
O O3 0.482754 0.351497 0.123114
O O4 0.520970 0.424747 0.225386
O O5 0.250000 0.665531 0.053230
O O6 0.062505 0.779980 0.070761
O O7 0.000000 0.657872 0.000000
O O8 0.500000 0.219390 0.500000
O O9 0.250000 0.260184 0.547673
O O10 0.457177 0.213545 0.627490
O O11 0.473037 0.349620 0.562328
O O12 0.750000 0.760923 0.286702
O O13 0.536663 0.858573 0.255577
O O14 0.479486 0.715015 0.265786
O O15 0.250000 0.105687 0.824979
O O16 0.986699 0.094816 0.869407
O O17 0.066975 0.000000 0.779011
O O18 0.750000 0.395280 0.561723
O O19 0.962585 0.500000 0.565997
O O20 0.912402 0.410814 0.664254
O O21 0.250000 0.104141 0.060465
O O22 0.500000 0.098814 0.000000
O O23 0.250000 0.633316 0.238427
#
# Coordination Sequence:
#
# PCOD8208952 Si02
#       8
#     8   8   8   8   8   8   8   8
#     4  11  23  35  48  69  98 133 173 218 267 316
#     4  10  21  37  56  75  96 127 169 215 263 314
#     4  10  20  34  53  77 104 138 180 224 269 317
#     4   9  19  36  57  80 107 140 178 219 264 319
#     4  10  21  37  58  84 113 144 176 213 260 313
#     4   9  18  32  49  71 102 138 174 215 263 313
#     4  10  21  37  58  84 112 144 180 216 257 309
#     4  10  19  32  52  76 101 132 172 216 263 314
#
# _framework density 19.507565
#
# number of rings (size 3 to 8) (size 9 to 14) (size 15 to 20)
#    0.000    2.125    0.000    3.000    0.000    7.750 
#    0.000    0.000    0.000    0.375    0.000    0.000 
#    0.000    0.000    0.000    0.000    0.000    0.375 
#
# Total GULP energy -793329.703419 kJ/mol
# GULP energy per Si atom -12395.776616 kJ/mol
# Density = 1.946317 g / cm^3
# Si number density = 19.507565 Si / 1000 Ang^3
#
#
#
# Elastic Constant Matrix: (Units=GPa)
#
#
# Indices 1 2 3 4 5 6 
#
# 1 100.8773 47.2090 40.7086 0.0000 0.0000 0.0000
# 2 47.2090 66.0398 47.1737 0.0000 0.0000 0.0000
# 3 40.7086 47.1737 103.4627 0.0000 0.0000 0.0000
# 4 0.0000 0.0000 0.0000 9.7701 0.0000 0.0000
# 5 0.0000 0.0000 0.0000 0.0000 36.7775 0.0000
# 6 0.0000 0.0000 0.0000 0.0000 0.0000 15.3098
#
#
#
# Elastic Compliance Matrix: (Units=1/GPa)
#
#
# Indices 1 2 3 4 5 6 
#
# 1 0.015053 -0.009684 -0.001507 0.000000 0.000000 0.000000
# 2 -0.009684 0.028686 -0.009269 0.000000 0.000000 0.000000
# 3 -0.001507 -0.009269 0.014485 0.000000 0.000000 0.000000
# 4 0.000000 0.000000 0.000000 0.102353 0.000000 0.000000
# 5 0.000000 0.000000 0.000000 0.000000 0.027191 0.000000
# 6 0.000000 0.000000 0.000000 0.000000 0.000000 0.065318
#
#
# Mechanical properties :
#
#
# Convention : Reuss Voigt Hill
#
# Bulk Modulus (GPa) = 57.79388 60.06246 58.92817
# Shear Modulus (GPa) = 16.67920 21.39073 19.03497
#
# Velocity S-wave (km/s) = 2.92723 3.31499 3.12713
# Velocity P-wave (km/s) = 6.41215 6.74599 6.58118
#
# Compressibility (1/GPa) = 0.01730287
#
# Stress axis : x y z
#
# Youngs Moduli (GPa) = 66.43011 34.85969 69.03837
#
# Poissons Ratio (x) = 0.33759 0.10407
# Poissons Ratio (y) = 0.64333 0.63993
# Poissons Ratio (z) = 0.10014 0.32312
#
# Static dielectric constant tensor:
#      x y z
#    x 3.738150 0.000000 0.000000 
#    y 0.000000 3.343250 0.000000 
#    z 0.000000 0.000000 3.806770 
# 
# 
# High freq. dielectric constant tensor:
#      x y z
#    x 1.768530 0.000000 0.000000 
#    y 0.000000 1.735600 0.000000 
#    z 0.000000 0.000000 1.765990 
# 
# From -- ./inp_files/32401.got.cif
#   From: 2010.03.12/outbox.cif.g09.slc.cpg/sg51_17_cif.got.tgz:32401.got - 2010.04.16 13:43:02.
