data_PCOD8208995
_publ_section_title
;
Structure prediction by ZEFSAII (Michael W. Deem and Ramdas Pophale) SiO2 
 PCOD8208995
Probable space group: P M M A
;
_chemical_formula_sum "Si O2"
_cell_formula_units_Z 48
_cell_length_a 8.874770
_cell_length_b 30.671924
_cell_length_c 9.629345
_cell_angle_alpha 90.000000
_cell_angle_beta 90.000000
_cell_angle_gamma 90.000000
_cell_volume 2621.168094
_symmetry_space_group_name_H-M "P M M A"
_symmetry_group_IT_number 51
_symmetry_cell_setting 'orthorhombic'
loop_
_space_group_symop_operation_xyz
x,y,z
1/2-x,-y,z
1/2+x,-y,-z
-x,y,-z
-x,-y,-z
1/2+x,y,-z
1/2-x,y,z
x,-y,z
loop_
_atom_site_type_symbol
_atom_site_label
_atom_site_fract_x
_atom_site_fract_y
_atom_site_fract_z
Si Si1 0.574713 0.545943 0.352518
Si Si2 0.074114 0.787318 0.358129
Si Si3 0.571511 0.287544 0.848732
Si Si4 0.576712 0.048825 0.147690
Si Si5 0.571004 0.640988 0.347286
Si Si6 0.927677 0.113884 0.642852
O O1 0.500000 0.544049 0.500000
O O2 0.750000 0.546703 0.380718
O O3 0.531697 0.500000 0.271186
O O4 0.531525 0.592489 0.284156
O O5 0.250000 0.785103 0.385156
O O6 0.026714 0.757177 0.229248
O O7 0.021899 0.836534 0.323784
O O8 0.000000 0.769888 0.500000
O O9 0.750000 0.293359 0.861275
O O10 0.503798 0.327085 0.762074
O O11 0.500000 0.286099 0.000000
O O12 0.750000 0.063182 0.135065
O O13 0.487711 0.082859 0.239131
O O14 0.563695 0.000000 0.210659
O O15 0.500000 0.050084 0.000000
O O16 0.500000 0.647733 0.500000
O O17 0.750000 0.649255 0.356935
O O18 0.750000 0.109449 0.631638
O O19 0.000000 0.097926 0.500000
#
# Coordination Sequence:
#
# PCOD8208995 Si02
#       6
#     8   8   8   8   8   8
#     4   8  14  25  43  69 100 131 164 205 251 298
#     4   9  20  37  57  80 105 135 171 212 258 310
#     4  11  23  38  54  75 104 137 174 215 261 310
#     4  10  21  37  56  79 108 143 181 219 261 309
#     4  10  19  32  52  78 106 137 173 212 256 306
#     4  10  20  36  57  82 110 139 174 215 260 308
#
# _framework density 18.312446000000001
#
# number of rings (size 3 to 8) (size 9 to 14) (size 15 to 20)
#    0.000    2.333    0.000    2.500    0.000    6.000 
#    0.000    1.667    0.000    0.500    0.000    0.000 
#    0.000    0.000    0.000    0.000    0.000    0.000 
#
# Total GULP energy -594797.598730 kJ/mol
# GULP energy per Si atom -12391.616640 kJ/mol
# Density = 1.827077 g / cm^3
# Si number density = 18.312446 Si / 1000 Ang^3
#
#
#
# Elastic Constant Matrix: (Units=GPa)
#
#
# Indices 1 2 3 4 5 6 
#
# 1 77.0063 50.5805 45.1433 0.0000 0.0000 0.0000
# 2 50.5805 126.1981 72.3927 0.0000 0.0000 0.0000
# 3 45.1433 72.3927 108.3595 0.0000 0.0000 0.0000
# 4 0.0000 0.0000 0.0000 -334.8850 0.0000 0.0000
# 5 0.0000 0.0000 0.0000 0.0000 33.0396 0.0000
# 6 0.0000 0.0000 0.0000 0.0000 0.0000 26.0443
#
#
#
# Elastic Compliance Matrix: (Units=1/GPa)
#
#
# Indices 1 2 3 4 5 6 
#
# 1 0.018925 -0.004965 -0.004567 0.000000 0.000000 0.000000
# 2 -0.004965 0.014151 -0.007385 0.000000 0.000000 0.000000
# 3 -0.004567 -0.007385 0.016065 0.000000 0.000000 0.000000
# 4 0.000000 0.000000 0.000000 -0.002986 0.000000 0.000000
# 5 0.000000 0.000000 0.000000 0.000000 0.030267 0.000000
# 6 0.000000 0.000000 0.000000 0.000000 0.000000 0.038396
#
#
# Mechanical properties :
#
#
# Convention : Reuss Voigt Hill
#
# Bulk Modulus (GPa) = 65.33588 71.97744 68.65666
# Shear Modulus (GPa) = 32.51963 -45.59706 -6.53872
#
# Velocity S-wave (km/s) = 4.21862 -4.99535 -1.89166
# Velocity P-wave (km/s) = 7.71264 2.47369 5.72730
#
# Compressibility (1/GPa) = 0.01530553
#
# Stress axis : x y z
#
# Youngs Moduli (GPa) = 52.84141 70.66862 62.24702
#
# Poissons Ratio (x) = 0.35088 0.28428
# Poissons Ratio (y) = 0.26237 0.45970
# Poissons Ratio (z) = 0.24132 0.52190
#
# Static dielectric constant tensor:
#      x y z
#    x 3.480760 0.000000 0.000000 
#    y 0.000000 4.085760 0.000000 
#    z 0.000000 0.000000 3.127190 
# 
# 
# High freq. dielectric constant tensor:
#      x y z
#    x 1.722760 0.000000 0.000000 
#    y 0.000000 1.733990 0.000000 
#    z 0.000000 0.000000 1.678900 
# 
# From -- ./inp_files/6005.got.cif
#   From: 2010.03.12/outbox.cif.g09.slc.cpg/sg51_4_cif.got.tgz:6005.got - 2010.04.16 13:43:02.
