data_PCOD8208729
_publ_section_title
;
Structure prediction by ZEFSAII (Michael W. Deem and Ramdas Pophale) SiO2 
 PCOD8208729
Probable space group: P M M A
;
_chemical_formula_sum "Si O2"
_cell_formula_units_Z 64
_cell_length_a 30.791487
_cell_length_b 9.654328
_cell_length_c 11.977075
_cell_angle_alpha 90.000000
_cell_angle_beta 90.000000
_cell_angle_gamma 90.000000
_cell_volume 3560.438441
_symmetry_space_group_name_H-M "P M M A"
_symmetry_group_IT_number 51
_symmetry_cell_setting 'orthorhombic'
loop_
_space_group_symop_operation_xyz
x,y,z
1/2-x,-y,z
1/2+x,-y,-z
-x,y,-z
-x,-y,-z
1/2+x,y,-z
1/2-x,y,z
x,-y,z
loop_
_atom_site_type_symbol
_atom_site_label
_atom_site_fract_x
_atom_site_fract_y
_atom_site_fract_z
Si Si1 0.446696 0.659085 0.237069
Si Si2 0.200234 0.342707 0.248827
Si Si3 0.386735 0.844022 0.865240
Si Si4 0.869989 0.339169 0.926618
Si Si5 0.988404 0.842913 0.121820
Si Si6 0.378138 0.838087 0.614969
Si Si7 0.200561 0.160860 0.457910
Si Si8 0.449571 0.340095 0.491211
O O1 0.458821 0.500000 0.214695
O O2 0.408936 0.710204 0.153994
O O3 0.489160 0.750188 0.215714
O O4 0.432336 0.680100 0.364903
O O5 0.250000 0.320440 0.217483
O O6 0.190079 0.500000 0.286418
O O7 0.174333 0.305281 0.137367
O O8 0.185818 0.244502 0.349201
O O9 0.438008 0.831790 0.857613
O O10 0.368788 0.801402 0.743992
O O11 0.372709 0.000000 0.896697
O O12 0.367866 0.743032 0.958262
O O13 0.874866 0.500000 0.955917
O O14 0.005602 0.000000 0.132627
O O15 0.000000 0.782934 0.000000
O O16 0.333062 0.798711 0.554723
O O17 0.419190 0.752357 0.569886
O O18 0.389778 0.000000 0.600688
O O19 0.250000 0.200264 0.494237
O O20 0.197521 0.000000 0.427535
O O21 0.500000 0.293235 0.500000
O O22 0.445345 0.500000 0.529048
#
# Coordination Sequence:
#
# PCOD8208729 Si02
#       8
#     8   8   8   8   8   8   8   8
#     4  10  20  32  49  74 101 129 165 209 254 301
#     4   9  18  34  56  80 106 134 164 205 257 308
#     4  10  21  36  51  71 102 136 174 215 252 299
#     4  10  20  33  50  74 101 130 166 205 249 299
#     4  10  19  32  49  70  97 133 174 213 252 293
#     4  10  21  36  54  76 103 139 177 217 265 313
#     4   9  18  34  56  81 106 132 168 213 261 314
#     4  10  21  36  53  76 107 139 172 214 262 313
#
# _framework density 17.975314000000001
#
# number of rings (size 3 to 8) (size 9 to 14) (size 15 to 20)
#    0.000    2.250    1.250    1.500    0.000    4.000 
#    0.000    0.625    0.000    0.750    0.000    0.000 
#    0.000    0.000    0.000    0.000    0.000    0.000 
#
# Total GULP energy -793700.227339 kJ/mol
# GULP energy per Si atom -12401.566052 kJ/mol
# Density = 1.793440 g / cm^3
# Si number density = 17.975314 Si / 1000 Ang^3
#
#
#
# Elastic Constant Matrix: (Units=GPa)
#
#
# Indices 1 2 3 4 5 6 
#
# 1 85.5231 48.2186 62.9739 0.0000 0.0000 0.0000
# 2 48.2186 68.2899 64.5752 0.0000 0.0000 0.0000
# 3 62.9739 64.5752 132.0697 0.0000 0.0000 0.0000
# 4 0.0000 0.0000 0.0000 33.6608 0.0000 0.0000
# 5 0.0000 0.0000 0.0000 0.0000 31.9584 0.0000
# 6 0.0000 0.0000 0.0000 0.0000 0.0000 17.6810
#
#
#
# Elastic Compliance Matrix: (Units=1/GPa)
#
#
# Indices 1 2 3 4 5 6 
#
# 1 0.021176 -0.010051 -0.005183 0.000000 0.000000 0.000000
# 2 -0.010051 0.032007 -0.010857 0.000000 0.000000 0.000000
# 3 -0.005183 -0.010857 0.015351 0.000000 0.000000 0.000000
# 4 0.000000 0.000000 0.000000 0.029708 0.000000 0.000000
# 5 0.000000 0.000000 0.000000 0.000000 0.031291 0.000000
# 6 0.000000 0.000000 0.000000 0.000000 0.000000 0.056558
#
#
# Mechanical properties :
#
#
# Convention : Reuss Voigt Hill
#
# Bulk Modulus (GPa) = 61.15294 70.82424 65.98859
# Shear Modulus (GPa) = 20.51500 24.00104 22.25802
#
# Velocity S-wave (km/s) = 3.38196 3.65803 3.52270
# Velocity P-wave (km/s) = 7.02457 7.57152 7.30317
#
# Compressibility (1/GPa) = 0.01635244
#
# Stress axis : x y z
#
# Youngs Moduli (GPa) = 47.22351 31.24304 65.14030
#
# Poissons Ratio (x) = 0.31404 0.33759
# Poissons Ratio (y) = 0.47466 0.70723
# Poissons Ratio (z) = 0.24474 0.33921
#
# Static dielectric constant tensor:
#      x y z
#    x 3.024590 0.000000 0.000000 
#    y 0.000000 3.333560 0.000000 
#    z 0.000000 0.000000 3.841420 
# 
# 
# High freq. dielectric constant tensor:
#      x y z
#    x 1.691210 0.000000 0.000000 
#    y 0.000000 1.693170 0.000000 
#    z 0.000000 0.000000 1.696100 
# 
# From -- ./inp_files/19568.got.cif
#   From: 2010.03.12/outbox.cif.g09.slc.cpg/sg51_10_cif.got.tgz:19568.got - 2010.04.16 13:43:02.
