data_PCOD8208773
_publ_section_title
;
Structure prediction by ZEFSAII (Michael W. Deem and Ramdas Pophale) SiO2 
 PCOD8208773
Probable space group: P M M A
;
_chemical_formula_sum "Si O2"
_cell_formula_units_Z 64
_cell_length_a 30.965174
_cell_length_b 9.385147
_cell_length_c 11.939429
_cell_angle_alpha 90.000000
_cell_angle_beta 90.000000
_cell_angle_gamma 90.000000
_cell_volume 3469.749816
_symmetry_space_group_name_H-M "P M M A"
_symmetry_group_IT_number 51
_symmetry_cell_setting 'orthorhombic'
loop_
_space_group_symop_operation_xyz
x,y,z
1/2-x,-y,z
1/2+x,-y,-z
-x,y,-z
-x,-y,-z
1/2+x,y,-z
1/2-x,y,z
x,-y,z
loop_
_atom_site_type_symbol
_atom_site_label
_atom_site_fract_x
_atom_site_fract_y
_atom_site_fract_z
Si Si1 0.442615 0.663753 0.241720
Si Si2 0.199765 0.160126 0.219856
Si Si3 0.388683 0.838957 0.868408
Si Si4 0.865060 0.331221 0.917416
Si Si5 0.989122 0.837228 0.122236
Si Si6 0.377260 0.833261 0.617313
Si Si7 0.202253 0.169294 0.471936
Si Si8 0.450268 0.335246 0.495525
O O1 0.452627 0.500000 0.216202
O O2 0.404021 0.719415 0.162971
O O3 0.485825 0.750201 0.216341
O O4 0.430786 0.687247 0.371325
O O5 0.250000 0.159019 0.192542
O O6 0.178509 0.267422 0.132545
O O7 0.191285 0.217245 0.345517
O O8 0.180939 0.000000 0.205718
O O9 0.439333 0.819497 0.851666
O O10 0.367481 0.806566 0.748153
O O11 0.378022 0.000000 0.908218
O O12 0.370883 0.727928 0.957915
O O13 0.861218 0.500000 0.923306
O O14 0.004802 0.000000 0.128439
O O15 0.000000 0.773566 0.000000
O O16 0.335209 0.771293 0.552939
O O17 0.420856 0.754134 0.580155
O O18 0.384266 0.000000 0.592328
O O19 0.250000 0.228043 0.506997
O O20 0.203825 0.000000 0.477069
O O21 0.500000 0.282171 0.500000
O O22 0.448184 0.500000 0.532180
#
# Coordination Sequence:
#
# PCOD8208773 Si02
#       8
#     8   8   8   8   8   8   8   8
#     4  10  21  34  50  75 103 133 173 216 259 312
#     4   9  18  34  57  81 104 131 162 201 252 310
#     4  10  21  36  51  73 106 139 179 223 260 309
#     4  11  22  34  51  76 104 135 171 211 256 303
#     4  10  19  32  50  71  98 138 180 220 265 303
#     4  10  20  34  55  80 104 136 177 224 268 309
#     4   8  15  31  56  84 108 130 163 208 262 320
#     4  10  21  36  52  73 106 143 174 212 266 324
#
# _framework density 18.445133999999999
#
# number of rings (size 3 to 8) (size 9 to 14) (size 15 to 20)
#    0.000    2.250    1.250    2.625    0.000    2.750 
#    0.000    0.625    0.000    3.375    0.000    0.000 
#    0.000    0.000    0.000    0.000    0.000    0.000 
#
# Total GULP energy -793683.282212 kJ/mol
# GULP energy per Si atom -12401.301285 kJ/mol
# Density = 1.840315 g / cm^3
# Si number density = 18.445134 Si / 1000 Ang^3
#
#
#
# Elastic Constant Matrix: (Units=GPa)
#
#
# Indices 1 2 3 4 5 6 
#
# 1 88.1181 40.7606 50.5515 0.0000 0.0000 0.0000
# 2 40.7606 61.6177 44.9828 0.0000 0.0000 0.0000
# 3 50.5515 44.9828 98.4220 0.0000 0.0000 0.0000
# 4 0.0000 0.0000 0.0000 18.7788 0.0000 0.0000
# 5 0.0000 0.0000 0.0000 0.0000 33.2407 0.0000
# 6 0.0000 0.0000 0.0000 0.0000 0.0000 14.1404
#
#
#
# Elastic Compliance Matrix: (Units=1/GPa)
#
#
# Indices 1 2 3 4 5 6 
#
# 1 0.018328 -0.007882 -0.005811 0.000000 0.000000 0.000000
# 2 -0.007882 0.027745 -0.008632 0.000000 0.000000 0.000000
# 3 -0.005811 -0.008632 0.017091 0.000000 0.000000 0.000000
# 4 0.000000 0.000000 0.000000 0.053252 0.000000 0.000000
# 5 0.000000 0.000000 0.000000 0.000000 0.030084 0.000000
# 6 0.000000 0.000000 0.000000 0.000000 0.000000 0.070719
#
#
# Mechanical properties :
#
#
# Convention : Reuss Voigt Hill
#
# Bulk Modulus (GPa) = 54.01735 57.86083 55.93909
# Shear Modulus (GPa) = 18.65397 20.68949 19.67173
#
# Velocity S-wave (km/s) = 3.18358 3.35278 3.26927
# Velocity P-wave (km/s) = 6.54695 6.81362 6.68162
#
# Compressibility (1/GPa) = 0.01851257
#
# Stress axis : x y z
#
# Youngs Moduli (GPa) = 54.56097 36.04293 58.51196
#
# Poissons Ratio (x) = 0.28408 0.34004
# Poissons Ratio (y) = 0.43003 0.50509
# Poissons Ratio (z) = 0.31708 0.31113
#
# Static dielectric constant tensor:
#      x y z
#    x 3.424040 0.000000 0.000000 
#    y 0.000000 3.224690 0.000000 
#    z 0.000000 0.000000 3.472750 
# 
# 
# High freq. dielectric constant tensor:
#      x y z
#    x 1.709960 0.000000 0.000000 
#    y 0.000000 1.696300 0.000000 
#    z 0.000000 0.000000 1.719030 
# 
# From -- ./inp_files/19569.got.cif
#   From: 2010.03.12/outbox.cif.g09.slc.cpg/sg51_10_cif.got.tgz:19569.got - 2010.04.16 13:43:02.
