data_PCOD8208781
_publ_section_title
;
Structure prediction by ZEFSAII (Michael W. Deem and Ramdas Pophale) SiO2 
 PCOD8208781
Probable space group: P M M A
;
_chemical_formula_sum "Si O2"
_cell_formula_units_Z 64
_cell_length_a 18.597651
_cell_length_b 9.235954
_cell_length_c 20.244640
_cell_angle_alpha 90.000000
_cell_angle_beta 90.000000
_cell_angle_gamma 90.000000
_cell_volume 3477.362074
_symmetry_space_group_name_H-M "P M M A"
_symmetry_group_IT_number 51
_symmetry_cell_setting 'orthorhombic'
loop_
_space_group_symop_operation_xyz
x,y,z
1/2-x,-y,z
1/2+x,-y,-z
-x,y,-z
-x,-y,-z
1/2+x,y,-z
1/2-x,y,z
x,-y,z
loop_
_atom_site_type_symbol
_atom_site_label
_atom_site_fract_x
_atom_site_fract_y
_atom_site_fract_z
Si Si1 0.414940 0.170490 0.059714
Si Si2 0.927220 0.671955 0.467312
Si Si3 0.418600 0.668714 0.291530
Si Si4 0.669475 0.170574 0.816508
Si Si5 0.333471 0.829365 0.792396
Si Si6 0.082472 0.330492 0.681333
Si Si7 0.329865 0.328060 0.416261
Si Si8 0.926775 0.171883 0.085357
O O1 0.350282 0.213717 0.108319
O O2 0.490712 0.227730 0.090035
O O3 0.424001 0.000000 0.053463
O O4 0.397691 0.229330 0.986004
O O5 0.935193 0.500000 0.463270
O O6 0.913264 0.730665 0.393570
O O7 0.860968 0.721982 0.513149
O O8 0.000000 0.735534 0.500000
O O9 0.402051 0.500000 0.283269
O O10 0.386365 0.752374 0.230329
O O11 0.502786 0.700895 0.292241
O O12 0.381497 0.729016 0.358161
O O13 0.750000 0.225236 0.802114
O O14 0.662563 0.000000 0.805801
O O15 0.250000 0.791861 0.803820
O O16 0.360137 0.753786 0.725494
O O17 0.378534 0.765214 0.854794
O O18 0.345420 0.000000 0.784271
O O19 0.100948 0.500000 0.683866
O O20 0.250000 0.262385 0.407488
O O21 0.327374 0.500000 0.413944
O O22 0.921359 0.000000 0.089577
#
# Coordination Sequence:
#
# PCOD8208781 Si02
#       8
#     8   8   8   8   8   8   8   8
#     4   8  14  26  46  71  96 123 162 210 251 289
#     4   9  15  28  48  71  99 125 156 204 252 294
#     4  10  19  32  50  72  98 130 165 202 245 296
#     4  10  20  31  45  70 103 134 162 198 246 294
#     4  10  21  35  51  74 105 139 171 204 247 300
#     4  10  20  33  54  78 100 129 165 208 255 298
#     4   9  16  26  44  70  96 124 159 199 244 290
#     4   8  14  27  48  71  94 125 166 208 248 291
#
# _framework density 18.404755999999999
#
# number of rings (size 3 to 8) (size 9 to 14) (size 15 to 20)
#    0.000    2.750    1.250    1.875    0.000    3.500 
#    0.000    3.750    0.000    1.875    0.000    7.000 
#    0.000    0.000    0.000    0.000    0.000    0.000 
#
# Total GULP energy -793288.998917 kJ/mol
# GULP energy per Si atom -12395.140608 kJ/mol
# Density = 1.836287 g / cm^3
# Si number density = 18.404756 Si / 1000 Ang^3
#
#
#
# Elastic Constant Matrix: (Units=GPa)
#
#
# Indices 1 2 3 4 5 6 
#
# 1 84.8093 21.1166 44.1897 0.0000 0.0000 0.0000
# 2 21.1166 17.0152 22.4687 0.0000 0.0000 0.0000
# 3 44.1897 22.4687 126.9305 0.0000 0.0000 0.0000
# 4 0.0000 0.0000 0.0000 21.2111 0.0000 0.0000
# 5 0.0000 0.0000 0.0000 0.0000 30.9907 0.0000
# 6 0.0000 0.0000 0.0000 0.0000 0.0000 19.2875
#
#
#
# Elastic Compliance Matrix: (Units=1/GPa)
#
#
# Indices 1 2 3 4 5 6 
#
# 1 0.017899 -0.018251 -0.003001 0.000000 0.000000 0.000000
# 2 -0.018251 0.095310 -0.010517 0.000000 0.000000 0.000000
# 3 -0.003001 -0.010517 0.010785 0.000000 0.000000 0.000000
# 4 0.000000 0.000000 0.000000 0.047145 0.000000 0.000000
# 5 0.000000 0.000000 0.000000 0.000000 0.032268 0.000000
# 6 0.000000 0.000000 0.000000 0.000000 0.000000 0.051847
#
#
# Mechanical properties :
#
#
# Convention : Reuss Voigt Hill
#
# Bulk Modulus (GPa) = 16.54114 44.92278 30.73196
# Shear Modulus (GPa) = 14.75173 23.69652 19.22412
#
# Velocity S-wave (km/s) = 2.83418 3.59210 3.23541
# Velocity P-wave (km/s) = 4.44039 6.45488 5.53997
#
# Compressibility (1/GPa) = 0.06045534
#
# Stress axis : x y z
#
# Youngs Moduli (GPa) = 55.86926 10.49210 92.72376
#
# Poissons Ratio (x) = 0.19149 0.27823
# Poissons Ratio (y) = 1.01967 0.97521
# Poissons Ratio (z) = 0.16764 0.11035
#
# Static dielectric constant tensor:
#      x y z
#    x 3.509420 0.000000 0.000000 
#    y 0.000000 2.792310 0.000000 
#    z 0.000000 0.000000 3.689440 
# 
# 
# High freq. dielectric constant tensor:
#      x y z
#    x 1.718510 0.000000 0.000000 
#    y 0.000000 1.646060 0.000000 
#    z 0.000000 0.000000 1.731010 
# 
# From -- ./inp_files/33883.got.cif
#   From: 2010.03.12/outbox.cif.g09.slc.cpg/sg51_17_cif.got.tgz:33883.got - 2010.04.16 13:43:02.
