data_PCOD8208220
_publ_section_title
;
Structure prediction by ZEFSAII (Michael W. Deem and Ramdas Pophale) SiO2 
 PCOD8208220
Probable space group: P M M A
;
_chemical_formula_sum "Si O2"
_cell_formula_units_Z 44
_cell_length_a 9.185339
_cell_length_b 14.343990
_cell_length_c 19.210103
_cell_angle_alpha 90.000000
_cell_angle_beta 90.000000
_cell_angle_gamma 90.000000
_cell_volume 2531.015801
_symmetry_space_group_name_H-M "P M M A"
_symmetry_group_IT_number 51
_symmetry_cell_setting 'orthorhombic'
loop_
_space_group_symop_operation_xyz
x,y,z
1/2-x,-y,z
1/2+x,-y,-z
-x,y,-z
-x,-y,-z
1/2+x,y,-z
1/2-x,y,z
x,-y,z
loop_
_atom_site_type_symbol
_atom_site_label
_atom_site_fract_x
_atom_site_fract_y
_atom_site_fract_z
Si Si1 0.077761 0.260292 0.427038
Si Si2 0.079211 0.297138 0.925969
Si Si3 0.085880 0.500000 0.930735
Si Si4 0.421901 0.238801 0.203272
Si Si5 0.577609 0.603706 0.692346
Si Si6 0.077495 0.103527 0.323452
O O1 0.250000 0.258144 0.438421
O O2 0.030312 0.348866 0.380350
O O3 0.023488 0.166135 0.388222
O O4 0.000000 0.269141 0.500000
O O5 0.250000 0.274883 0.935185
O O6 0.052332 0.401647 0.892887
O O7 0.007421 0.228446 0.869553
O O8 0.000000 0.284259 0.000000
O O9 0.250000 0.500000 0.955927
O O10 0.000000 0.500000 0.000000
O O11 0.250000 0.240669 0.188445
O O12 0.473439 0.332511 0.243277
O O13 0.467330 0.150293 0.250214
O O14 0.750000 0.597432 0.694137
O O15 0.508184 0.500000 0.698149
O O16 0.250000 0.098614 0.326518
O O17 0.008514 0.000000 0.328580
#
# Coordination Sequence:
#
# PCOD8208220 Si02
#       6
#     8   8   4   8   8   8
#     4   9  17  29  46  68  93 120 153 189 227 271
#     4  10  19  31  46  66  95 126 155 189 228 270
#     4   8  16  28  40  58  86 120 151 176 211 258
#     4   9  17  29  48  71  89 115 156 195 232 274
#     4   8  15  28  44  63  89 123 158 188 221 269
#     4   8  15  30  50  69  91 120 153 188 230 283
#
# _framework density 17.384325
#
# number of rings (size 3 to 8) (size 9 to 14) (size 15 to 20)
#    0.000    3.273    0.000    2.727    1.273    1.455 
#    0.000    3.636    0.000    3.273    0.000    0.000 
#    0.000    0.000    0.000    0.000    0.000    0.000 
#
# Total GULP energy -545099.081994 kJ/mol
# GULP energy per Si atom -12388.615500 kJ/mol
# Density = 1.734476 g / cm^3
# Si number density = 17.384325 Si / 1000 Ang^3
#
#
#
# Elastic Constant Matrix: (Units=GPa)
#
#
# Indices 1 2 3 4 5 6 
#
# 1 41.5913 11.7841 35.2531 0.0000 0.0000 0.0000
# 2 11.7841 98.3211 32.0823 0.0000 0.0000 0.0000
# 3 35.2531 32.0823 114.7758 0.0000 0.0000 0.0000
# 4 0.0000 0.0000 0.0000 16.3453 0.0000 0.0000
# 5 0.0000 0.0000 0.0000 0.0000 32.6439 0.0000
# 6 0.0000 0.0000 0.0000 0.0000 0.0000 11.6033
#
#
#
# Elastic Compliance Matrix: (Units=1/GPa)
#
#
# Indices 1 2 3 4 5 6 
#
# 1 0.032550 -0.000703 -0.009801 0.000000 0.000000 0.000000
# 2 -0.000703 0.011207 -0.002917 0.000000 0.000000 0.000000
# 3 -0.009801 -0.002917 0.012538 0.000000 0.000000 0.000000
# 4 0.000000 0.000000 0.000000 0.061180 0.000000 0.000000
# 5 0.000000 0.000000 0.000000 0.000000 0.030634 0.000000
# 6 0.000000 0.000000 0.000000 0.000000 0.000000 0.086182
#
#
# Mechanical properties :
#
#
# Convention : Reuss Voigt Hill
#
# Bulk Modulus (GPa) = 33.95175 45.88081 39.91628
# Shear Modulus (GPa) = 18.45356 23.82308 21.13832
#
# Velocity S-wave (km/s) = 3.26161 3.70588 3.49082
# Velocity P-wave (km/s) = 5.81005 6.69034 6.26567
#
# Compressibility (1/GPa) = 0.02945356
#
# Stress axis : x y z
#
# Youngs Moduli (GPa) = 30.72165 89.23226 79.75563
#
# Poissons Ratio (x) = 0.06274 0.78170
# Poissons Ratio (y) = 0.02160 0.23261
# Poissons Ratio (z) = 0.30111 0.26025
#
# Static dielectric constant tensor:
#      x y z
#    x 2.826220 0.000000 0.000000 
#    y 0.000000 3.727840 0.000000 
#    z 0.000000 0.000000 3.096430 
# 
# 
# High freq. dielectric constant tensor:
#      x y z
#    x 1.635900 0.000000 0.000000 
#    y 0.000000 1.661540 0.000000 
#    z 0.000000 0.000000 1.668840 
# 
# From -- ./inp_files/27344.got.cif
#   From: 2010.03.12/outbox.cif.g09.slc.cpg/sg51_14_cif.got.tgz:27344.got - 2010.04.16 13:43:02.
