data_PCOD8208292
_publ_section_title
;
Structure prediction by ZEFSAII (Michael W. Deem and Ramdas Pophale) SiO2 
 PCOD8208292
Probable space group: P M M A
;
_chemical_formula_sum "Si O2"
_cell_formula_units_Z 64
_cell_length_a 18.833738
_cell_length_b 9.903032
_cell_length_c 21.553750
_cell_angle_alpha 90.000000
_cell_angle_beta 90.000000
_cell_angle_gamma 90.000000
_cell_volume 4020.013839
_symmetry_space_group_name_H-M "P M M A"
_symmetry_group_IT_number 51
_symmetry_cell_setting 'orthorhombic'
loop_
_space_group_symop_operation_xyz
x,y,z
1/2-x,-y,z
1/2+x,-y,-z
-x,y,-z
-x,-y,-z
1/2+x,y,-z
1/2-x,y,z
x,-y,z
loop_
_atom_site_type_symbol
_atom_site_label
_atom_site_fract_x
_atom_site_fract_y
_atom_site_fract_z
Si Si1 0.669054 0.844643 0.976809
Si Si2 0.032566 0.848985 0.402957
Si Si3 0.331110 0.847209 0.879292
Si Si4 0.944906 0.654872 0.171340
Si Si5 0.952716 0.343249 0.940904
Si Si6 0.328861 0.654214 0.614928
Si Si7 0.532450 0.344851 0.311885
Si Si8 0.887998 0.151142 0.478652
O O1 0.750000 0.819283 0.955504
O O2 0.618192 0.746300 0.938133
O O3 0.647750 0.000000 0.964557
O O4 0.660587 0.808639 0.048909
O O5 0.097414 0.810293 0.449214
O O6 0.027334 0.744233 0.346214
O O7 0.961157 0.842835 0.441988
O O8 0.044032 0.000000 0.376300
O O9 0.250000 0.832036 0.858250
O O10 0.376262 0.746579 0.837701
O O11 0.357471 0.000000 0.868087
O O12 0.920328 0.500000 0.164356
O O13 0.975953 0.683719 0.239188
O O14 0.004957 0.690796 0.121524
O O15 0.930877 0.500000 0.944760
O O16 0.000000 0.301610 0.000000
O O17 0.250000 0.675758 0.643573
O O18 0.340076 0.500000 0.594178
O O19 0.387542 0.694896 0.666351
O O20 0.334307 0.743596 0.552551
O O21 0.516528 0.500000 0.327926
O O22 0.855868 0.000000 0.474719
#
# Coordination Sequence:
#
# PCOD8208292 Si02
#       8
#     8   8   8   8   8   8   8   8
#     4   9  18  32  49  69  91 115 146 185 233 288
#     4   8  14  26  43  62  84 107 136 176 217 254
#     4   9  18  31  45  63  88 117 151 190 229 274
#     4  10  20  32  45  65  92 123 159 195 232 278
#     4  10  19  31  47  69  95 120 151 194 240 285
#     4   9  17  28  41  60  88 120 152 182 210 247
#     4   9  18  30  43  60  86 120 154 185 218 260
#     4   8  14  25  42  63  84 108 138 174 215 253
#
# _framework density 15.920342
#
# number of rings (size 3 to 8) (size 9 to 14) (size 15 to 20)
#    0.000    3.000    1.250    1.500    0.000    3.000 
#    0.000    5.000    0.000    0.000    0.000    0.875 
#    0.000    1.000    0.000    0.000    0.000    0.000 
#
# Total GULP energy -793388.165335 kJ/mol
# GULP energy per Si atom -12396.690083 kJ/mol
# Density = 1.588411 g / cm^3
# Si number density = 15.920342 Si / 1000 Ang^3
#
#
#
# Elastic Constant Matrix: (Units=GPa)
#
#
# Indices 1 2 3 4 5 6 
#
# 1 46.3502 35.1939 32.6124 0.0000 0.0000 0.0000
# 2 35.1939 73.4568 49.0044 0.0000 0.0000 0.0000
# 3 32.6124 49.0044 95.4045 0.0000 0.0000 0.0000
# 4 0.0000 0.0000 0.0000 23.7337 0.0000 0.0000
# 5 0.0000 0.0000 0.0000 0.0000 17.7579 0.0000
# 6 0.0000 0.0000 0.0000 0.0000 0.0000 27.8381
#
#
#
# Elastic Compliance Matrix: (Units=1/GPa)
#
#
# Indices 1 2 3 4 5 6 
#
# 1 0.035514 -0.013564 -0.005172 0.000000 0.000000 0.000000
# 2 -0.013564 0.025891 -0.008662 0.000000 0.000000 0.000000
# 3 -0.005172 -0.008662 0.016699 0.000000 0.000000 0.000000
# 4 0.000000 0.000000 0.000000 0.042134 0.000000 0.000000
# 5 0.000000 0.000000 0.000000 0.000000 0.056313 0.000000
# 6 0.000000 0.000000 0.000000 0.000000 0.000000 0.035922
#
#
# Mechanical properties :
#
#
# Convention : Reuss Voigt Hill
#
# Bulk Modulus (GPa) = 42.90756 49.87032 46.38894
# Shear Modulus (GPa) = 18.17922 20.42599 19.30261
#
# Velocity S-wave (km/s) = 3.38285 3.58580 3.48580
# Velocity P-wave (km/s) = 6.50139 6.96684 6.73814
#
# Compressibility (1/GPa) = 0.02330592
#
# Stress axis : x y z
#
# Youngs Moduli (GPa) = 28.15810 38.62359 59.88355
#
# Poissons Ratio (x) = 0.52390 0.30975
# Poissons Ratio (y) = 0.38195 0.51872
# Poissons Ratio (z) = 0.14565 0.33456
#
# Static dielectric constant tensor:
#      x y z
#    x 2.856360 0.000000 0.000000 
#    y 0.000000 3.127350 0.000000 
#    z 0.000000 0.000000 2.970970 
# 
# 
# High freq. dielectric constant tensor:
#      x y z
#    x 1.584740 0.000000 0.000000 
#    y 0.000000 1.618360 0.000000 
#    z 0.000000 0.000000 1.590710 
# 
# From -- ./inp_files/34142.got.cif
#   From: 2010.03.12/outbox.cif.g09.slc.cpg/sg51_18_cif.got.tgz:34142.got - 2010.04.16 13:43:02.
