data_PCOD8208495
_publ_section_title
;
Structure prediction by ZEFSAII (Michael W. Deem and Ramdas Pophale) SiO2 
 PCOD8208495
Probable space group: P M M A
;
_chemical_formula_sum "Si O2"
_cell_formula_units_Z 40
_cell_length_a 9.529797
_cell_length_b 7.878797
_cell_length_c 28.953317
_cell_angle_alpha 90.000000
_cell_angle_beta 90.000000
_cell_angle_gamma 90.000000
_cell_volume 2173.911629
_symmetry_space_group_name_H-M "P M M A"
_symmetry_group_IT_number 51
_symmetry_cell_setting 'orthorhombic'
loop_
_space_group_symop_operation_xyz
x,y,z
1/2-x,-y,z
1/2+x,-y,-z
-x,y,-z
-x,-y,-z
1/2+x,y,-z
1/2-x,y,z
x,-y,z
loop_
_atom_site_type_symbol
_atom_site_label
_atom_site_fract_x
_atom_site_fract_y
_atom_site_fract_z
Si Si1 0.083900 0.812837 0.108929
Si Si2 0.583392 0.812032 0.390152
Si Si3 0.905551 0.306621 0.794945
Si Si4 0.591864 0.802216 0.287189
Si Si5 0.082618 0.500000 0.547330
Si Si6 0.917851 0.500000 0.952565
O O1 0.250000 0.794528 0.112206
O O2 0.025740 0.790690 0.161264
O O3 0.028755 0.667632 0.074572
O O4 0.038799 0.000000 0.090682
O O5 0.750000 0.817014 0.388286
O O6 0.530111 0.767907 0.338530
O O7 0.531868 0.667801 0.425338
O O8 0.528080 0.000000 0.405418
O O9 0.750000 0.234800 0.783484
O O10 0.894801 0.500000 0.810732
O O11 0.998566 0.295203 0.749478
O O12 0.750000 0.731584 0.283604
O O13 0.588208 0.000000 0.275828
O O14 0.250000 0.500000 0.539210
O O15 0.000000 0.500000 0.500000
O O16 0.750000 0.500000 0.960531
O O17 0.000000 0.500000 0.000000
#
# Coordination Sequence:
#
# PCOD8208495 Si02
#       6
#     8   8   8   8   4   4
#     4   9  17  32  54  75  99 134 170 203 243 296
#     4   8  16  32  52  73  98 130 168 203 240 297
#     4  10  19  31  49  76 106 136 171 207 244 294
#     4   9  18  32  50  74 102 133 171 209 245 294
#     4  10  20  34  53  74  96 126 163 206 255 298
#     4  10  20  36  55  76 100 126 165 210 253 302
#
# _framework density 18.400012
#
# number of rings (size 3 to 8) (size 9 to 14) (size 15 to 20)
#    0.000    2.800    1.000    1.800    1.400    2.400 
#    0.000    2.000    0.000    2.400    0.000    0.000 
#    0.000    0.000    0.000    0.000    0.000    0.000 
#
# Total GULP energy -495773.647387 kJ/mol
# GULP energy per Si atom -12394.341185 kJ/mol
# Density = 1.835813 g / cm^3
# Si number density = 18.400012 Si / 1000 Ang^3
#
#
#
# Elastic Constant Matrix: (Units=GPa)
#
#
# Indices 1 2 3 4 5 6 
#
# 1 37.4635 24.0485 37.1081 0.0000 0.0000 0.0000
# 2 24.0485 136.0734 79.9533 0.0000 0.0000 0.0000
# 3 37.1081 79.9533 144.2598 0.0000 0.0000 0.0000
# 4 0.0000 0.0000 0.0000 27.1712 0.0000 0.0000
# 5 0.0000 0.0000 0.0000 0.0000 32.5259 0.0000
# 6 0.0000 0.0000 0.0000 0.0000 0.0000 13.9482
#
#
#
# Elastic Compliance Matrix: (Units=1/GPa)
#
#
# Indices 1 2 3 4 5 6 
#
# 1 0.035989 -0.001366 -0.008501 0.000000 0.000000 0.000000
# 2 -0.001366 0.010950 -0.005717 0.000000 0.000000 0.000000
# 3 -0.008501 -0.005717 0.012287 0.000000 0.000000 0.000000
# 4 0.000000 0.000000 0.000000 0.036804 0.000000 0.000000
# 5 0.000000 0.000000 0.000000 0.000000 0.030745 0.000000
# 6 0.000000 0.000000 0.000000 0.000000 0.000000 0.071694
#
#
# Mechanical properties :
#
#
# Convention : Reuss Voigt Hill
#
# Bulk Modulus (GPa) = 35.63930 66.66850 51.15390
# Shear Modulus (GPa) = 20.92146 26.50818 23.71482
#
# Velocity S-wave (km/s) = 3.37565 3.79972 3.59395
# Velocity P-wave (km/s) = 5.88257 7.45399 6.71441
#
# Compressibility (1/GPa) = 0.02805891
#
# Stress axis : x y z
#
# Youngs Moduli (GPa) = 27.78600 91.32645 81.38459
#
# Poissons Ratio (x) = 0.12472 0.69182
# Poissons Ratio (y) = 0.03795 0.46531
# Poissons Ratio (z) = 0.23620 0.52215
#
# Static dielectric constant tensor:
#      x y z
#    x 2.941450 0.000000 0.000000 
#    y 0.000000 3.712990 0.000000 
#    z 0.000000 0.000000 3.355790 
# 
# 
# High freq. dielectric constant tensor:
#      x y z
#    x 1.658910 0.000000 0.000000 
#    y 0.000000 1.728660 0.000000 
#    z 0.000000 0.000000 1.713290 
# 
# From -- ./inp_files/36077.got.cif
#   From: 2010.03.12/outbox.cif.g09.slc.cpg/sg51_19_cif.got.tgz:36077.got - 2010.04.16 13:43:02.
