data_PCOD8208409
_publ_section_title
;
Structure prediction by ZEFSAII (Michael W. Deem and Ramdas Pophale) SiO2 
 PCOD8208409
Probable space group: P M M A
;
_chemical_formula_sum "Si O2"
_cell_formula_units_Z 64
_cell_length_a 9.373889
_cell_length_b 14.173724
_cell_length_c 30.867744
_cell_angle_alpha 90.000000
_cell_angle_beta 90.000000
_cell_angle_gamma 90.000000
_cell_volume 4101.178463
_symmetry_space_group_name_H-M "P M M A"
_symmetry_group_IT_number 51
_symmetry_cell_setting 'orthorhombic'
loop_
_space_group_symop_operation_xyz
x,y,z
1/2-x,-y,z
1/2+x,-y,-z
-x,y,-z
-x,-y,-z
1/2+x,y,-z
1/2-x,y,z
x,-y,z
loop_
_atom_site_type_symbol
_atom_site_label
_atom_site_fract_x
_atom_site_fract_y
_atom_site_fract_z
Si Si1 0.416188 0.391127 0.958272
Si Si2 0.906812 0.388262 0.461404
Si Si3 0.584965 0.106960 0.845844
Si Si4 0.917600 0.722964 0.125530
Si Si5 0.583103 0.390351 0.364649
Si Si6 0.085818 0.609874 0.789033
Si Si7 0.920228 0.297845 0.711693
Si Si8 0.418836 0.102179 0.251787
O O1 0.250000 0.375876 0.967008
O O2 0.452898 0.500000 0.949687
O O3 0.468677 0.334748 0.916264
O O4 0.500000 0.352435 0.000000
O O5 0.750000 0.344409 0.466413
O O6 0.898852 0.500000 0.466689
O O7 0.966155 0.364592 0.413557
O O8 0.000000 0.343011 0.500000
O O9 0.750000 0.136085 0.848227
O O10 0.495212 0.176263 0.876264
O O11 0.524884 0.117946 0.796962
O O12 0.562912 0.000000 0.862220
O O13 0.750000 0.740070 0.124676
O O14 0.963228 0.665690 0.168331
O O15 0.750000 0.367073 0.357809
O O16 0.555528 0.500000 0.354611
O O17 0.484503 0.328055 0.334024
O O18 0.250000 0.632462 0.776761
O O19 0.066198 0.500000 0.798975
O O20 0.984687 0.637887 0.749432
O O21 0.750000 0.309908 0.711513
O O22 0.968290 0.188757 0.718225
O O23 0.250000 0.098388 0.249313
O O24 0.475272 0.000000 0.269466
#
# Coordination Sequence:
#
# PCOD8208409 Si02
#       8
#     8   8   8   8   8   8   8   8
#     4   9  18  33  51  71  95 122 151 183 222 267
#     4   8  14  25  41  59  79 108 147 187 223 259
#     4   9  17  31  50  69  91 119 148 181 226 274
#     4  10  19  31  49  71  93 117 149 187 222 260
#     4   9  18  31  43  57  86 127 157 177 217 273
#     4  10  20  32  44  60  88 125 153 174 211 262
#     4  11  20  29  44  65  87 114 152 191 219 252
#     4   8  15  29  46  62  84 114 145 181 227 269
#
# _framework density 15.605270000000001
#
# number of rings (size 3 to 8) (size 9 to 14) (size 15 to 20)
#    0.000    2.750    1.250    2.625    0.000    4.750 
#    0.000    1.250    0.000    4.125    0.000    0.000 
#    0.000    0.500    0.000    1.125    0.000    1.750 
#
# Total GULP energy -793376.822200 kJ/mol
# GULP energy per Si atom -12396.512847 kJ/mol
# Density = 1.556975 g / cm^3
# Si number density = 15.605270 Si / 1000 Ang^3
#
#
#
# Elastic Constant Matrix: (Units=GPa)
#
#
# Indices 1 2 3 4 5 6 
#
# 1 49.7549 35.8500 46.7765 0.0000 0.0000 0.0000
# 2 35.8500 84.4864 47.8639 0.0000 0.0000 0.0000
# 3 46.7765 47.8639 113.0837 0.0000 0.0000 0.0000
# 4 0.0000 0.0000 0.0000 11.4639 0.0000 0.0000
# 5 0.0000 0.0000 0.0000 0.0000 28.2859 0.0000
# 6 0.0000 0.0000 0.0000 0.0000 0.0000 22.3187
#
#
#
# Elastic Compliance Matrix: (Units=1/GPa)
#
#
# Indices 1 2 3 4 5 6 
#
# 1 0.037887 -0.009468 -0.011664 0.000000 0.000000 0.000000
# 2 -0.009468 0.017936 -0.003675 0.000000 0.000000 0.000000
# 3 -0.011664 -0.003675 0.015223 0.000000 0.000000 0.000000
# 4 0.000000 0.000000 0.000000 0.087231 0.000000 0.000000
# 5 0.000000 0.000000 0.000000 0.000000 0.035353 0.000000
# 6 0.000000 0.000000 0.000000 0.000000 0.000000 0.044805
#
#
# Mechanical properties :
#
#
# Convention : Reuss Voigt Hill
#
# Bulk Modulus (GPa) = 46.66147 56.47839 51.56993
# Shear Modulus (GPa) = 16.93805 20.20268 18.57037
#
# Velocity S-wave (km/s) = 3.29812 3.60197 3.45339
# Velocity P-wave (km/s) = 6.66855 7.31911 7.00139
#
# Compressibility (1/GPa) = 0.02143096
#
# Stress axis : x y z
#
# Youngs Moduli (GPa) = 26.39462 55.75406 65.68900
#
# Poissons Ratio (x) = 0.52790 0.76620
# Poissons Ratio (y) = 0.24991 0.24141
# Poissons Ratio (z) = 0.30787 0.20490
#
# Static dielectric constant tensor:
#      x y z
#    x 2.927910 0.000000 0.000000 
#    y 0.000000 3.029340 0.000000 
#    z 0.000000 0.000000 2.997920 
# 
# 
# High freq. dielectric constant tensor:
#      x y z
#    x 1.590220 0.000000 0.000000 
#    y 0.000000 1.580710 0.000000 
#    z 0.000000 0.000000 1.588630 
# 
# From -- ./inp_files/37588.got.cif
#   From: 2010.03.12/outbox.cif.g09.slc.cpg/sg51_19_cif.got.tgz:37588.got - 2010.04.16 13:43:02.
