data_PCOD8208858
_publ_section_title
;
Structure prediction by ZEFSAII (Michael W. Deem and Ramdas Pophale) SiO2 
 PCOD8208858
Probable space group: P M M A
;
_chemical_formula_sum "Si O2"
_cell_formula_units_Z 52
_cell_length_a 8.870652
_cell_length_b 10.567444
_cell_length_c 29.728507
_cell_angle_alpha 90.000000
_cell_angle_beta 90.000000
_cell_angle_gamma 90.000000
_cell_volume 2786.753762
_symmetry_space_group_name_H-M "P M M A"
_symmetry_group_IT_number 51
_symmetry_cell_setting 'orthorhombic'
loop_
_space_group_symop_operation_xyz
x,y,z
1/2-x,-y,z
1/2+x,-y,-z
-x,y,-z
-x,-y,-z
1/2+x,y,-z
1/2-x,y,z
x,-y,z
loop_
_atom_site_type_symbol
_atom_site_label
_atom_site_fract_x
_atom_site_fract_y
_atom_site_fract_z
Si Si1 0.583676 0.144982 0.042655
Si Si2 0.081372 0.350200 0.289745
Si Si3 0.928466 0.500000 0.048960
Si Si4 0.927043 0.713188 0.890322
Si Si5 0.428092 0.354961 0.617867
Si Si6 0.578516 0.650448 0.200454
Si Si7 0.427503 0.857023 0.547698
O O1 0.750000 0.207808 0.048831
O O2 0.479181 0.154475 0.087636
O O3 0.607230 0.000000 0.031441
O O4 0.500000 0.210884 0.000000
O O5 0.250000 0.293390 0.288744
O O6 0.087178 0.500000 0.286518
O O7 0.000759 0.309460 0.335598
O O8 0.987311 0.297247 0.247467
O O9 0.750000 0.500000 0.044633
O O10 0.981785 0.619094 0.077668
O O11 0.000000 0.500000 0.000000
O O12 0.750000 0.688108 0.892748
O O13 0.977546 0.708170 0.838854
O O14 0.250000 0.348539 0.623744
O O15 0.476663 0.500000 0.605040
O O16 0.485783 0.252737 0.581334
O O17 0.750000 0.697323 0.195803
O O18 0.568994 0.500000 0.197892
O O19 0.500000 0.826886 0.500000
O O20 0.250000 0.846805 0.542063
O O21 0.472130 0.000000 0.564060
#
# Coordination Sequence:
#
# PCOD8208858 Si02
#       7
#     8   8   4   8   8   8   8
#     4  10  21  38  58  77  98 127 166 208 250 300
#     4   9  17  29  47  72 101 130 163 206 253 300
#     4  12  24  38  52  72 104 138 170 204 249 306
#     4  12  23  35  53  77 105 134 166 207 253 302
#     4   9  17  30  48  71  99 131 169 212 259 308
#     4  10  19  32  51  74 103 137 170 205 248 306
#     4   9  18  32  49  70  99 136 175 213 255 307
#
# _framework density 18.659704000000001
#
# number of rings (size 3 to 8) (size 9 to 14) (size 15 to 20)
#    0.000    2.000    0.769    3.923    0.000    4.308 
#    0.000    0.000    0.000    0.923    0.000    2.154 
#    0.000    0.000    0.000    0.000    0.000    0.000 
#
# Total GULP energy -644559.014804 kJ/mol
# GULP energy per Si atom -12395.365669 kJ/mol
# Density = 1.861723 g / cm^3
# Si number density = 18.659704 Si / 1000 Ang^3
#
#
#
# Elastic Constant Matrix: (Units=GPa)
#
#
# Indices 1 2 3 4 5 6 
#
# 1 124.2092 30.4698 66.6156 0.0000 0.0000 0.0000
# 2 30.4698 57.3289 53.1990 0.0000 0.0000 0.0000
# 3 66.6156 53.1990 161.3040 0.0000 0.0000 0.0000
# 4 0.0000 0.0000 0.0000 15.2294 0.0000 0.0000
# 5 0.0000 0.0000 0.0000 0.0000 39.5712 0.0000
# 6 0.0000 0.0000 0.0000 0.0000 0.0000 16.2515
#
#
#
# Elastic Compliance Matrix: (Units=1/GPa)
#
#
# Indices 1 2 3 4 5 6 
#
# 1 0.010539 -0.002252 -0.003610 0.000000 0.000000 0.000000
# 2 -0.002252 0.025617 -0.007519 0.000000 0.000000 0.000000
# 3 -0.003610 -0.007519 0.010170 0.000000 0.000000 0.000000
# 4 0.000000 0.000000 0.000000 0.065663 0.000000 0.000000
# 5 0.000000 0.000000 0.000000 0.000000 0.025271 0.000000
# 6 0.000000 0.000000 0.000000 0.000000 0.000000 0.061533
#
#
# Mechanical properties :
#
#
# Convention : Reuss Voigt Hill
#
# Bulk Modulus (GPa) = 51.10982 71.49010 61.29996
# Shear Modulus (GPa) = 21.54471 27.04759 24.29615
#
# Velocity S-wave (km/s) = 3.40164 3.81138 3.61233
# Velocity P-wave (km/s) = 6.54814 7.60030 7.09376
#
# Compressibility (1/GPa) = 0.01956571
#
# Stress axis : x y z
#
# Youngs Moduli (GPa) = 94.88232 39.03646 98.32793
#
# Poissons Ratio (x) = 0.08790 0.35496
# Poissons Ratio (y) = 0.21365 0.73930
# Poissons Ratio (z) = 0.34252 0.29351
#
# Static dielectric constant tensor:
#      x y z
#    x 3.663480 0.000000 0.000000 
#    y 0.000000 -0.116480 0.000000 
#    z 0.000000 0.000000 3.524060 
# 
# 
# High freq. dielectric constant tensor:
#      x y z
#    x 1.737600 0.000000 0.000000 
#    y 0.000000 1.692040 0.000000 
#    z 0.000000 0.000000 1.726860 
# 
# From -- ./inp_files/36254.got.cif
#   From: 2010.03.12/outbox.cif.g09.slc.cpg/sg51_19_cif.got.tgz:36254.got - 2010.04.16 13:43:02.
