data_PCOD8208751
_publ_section_title
;
Structure prediction by ZEFSAII (Michael W. Deem and Ramdas Pophale) SiO2 
 PCOD8208751
Probable space group: P M M A
;
_chemical_formula_sum "Si O2"
_cell_formula_units_Z 48
_cell_length_a 9.086185
_cell_length_b 17.493134
_cell_length_c 17.366571
_cell_angle_alpha 90.000000
_cell_angle_beta 90.000000
_cell_angle_gamma 90.000000
_cell_volume 2760.344420
_symmetry_space_group_name_H-M "P M M A"
_symmetry_group_IT_number 51
_symmetry_cell_setting 'orthorhombic'
loop_
_space_group_symop_operation_xyz
x,y,z
1/2-x,-y,z
1/2+x,-y,-z
-x,y,-z
-x,-y,-z
1/2+x,y,-z
1/2-x,y,z
x,-y,z
loop_
_atom_site_type_symbol
_atom_site_label
_atom_site_fract_x
_atom_site_fract_y
_atom_site_fract_z
Si Si1 0.580831 0.090294 0.578913
Si Si2 0.580851 0.696347 0.799485
Si Si3 0.915325 0.189962 0.299974
Si Si4 0.076393 0.586642 0.918196
Si Si5 0.585638 0.583546 0.657834
Si Si6 0.408587 0.309219 0.566678
O O1 0.500000 0.116125 0.500000
O O2 0.750000 0.118774 0.574305
O O3 0.504686 0.123457 0.656043
O O4 0.572412 0.000000 0.587905
O O5 0.750000 0.713245 0.824310
O O6 0.502686 0.777016 0.774942
O O7 0.492550 0.653732 0.866647
O O8 0.575609 0.639554 0.728880
O O9 0.750000 0.161683 0.276327
O O10 0.898509 0.258701 0.358466
O O11 0.250000 0.601567 0.925860
O O12 0.047560 0.500000 0.885996
O O13 0.000000 0.594522 0.000000
O O14 0.750000 0.581061 0.625470
O O15 0.532214 0.500000 0.684929
O O16 0.484762 0.610852 0.587645
O O17 0.500000 0.266075 0.500000
O O18 0.250000 0.327420 0.532308
#
# Coordination Sequence:
#
# PCOD8208751 Si02
#       6
#     8   8   8   8   8   8
#     4  10  20  33  50  73 100 130 164 202 246 295
#     4  10  19  32  50  70  94 123 156 195 239 288
#     4  10  20  33  49  69  93 122 157 195 237 287
#     4  10  20  33  50  73 101 132 166 204 246 293
#     4   9  18  31  45  60  79 107 144 185 229 275
#     4  10  20  31  43  59  79 107 144 186 230 274
#
# _framework density 17.389133999999999
#
# number of rings (size 3 to 8) (size 9 to 14) (size 15 to 20)
#    0.000    2.167    0.000    3.500    0.000    7.333 
#    0.000    0.000    0.000    0.000    0.000    0.000 
#    0.000    0.667    0.000    2.500    0.000    3.833 
#
# Total GULP energy -594818.684540 kJ/mol
# GULP energy per Si atom -12392.055928 kJ/mol
# Density = 1.734956 g / cm^3
# Si number density = 17.389134 Si / 1000 Ang^3
#
#
#
# Elastic Constant Matrix: (Units=GPa)
#
#
# Indices 1 2 3 4 5 6 
#
# 1 149.7259 36.3918 46.6672 0.0000 0.0000 0.0000
# 2 36.3918 52.5853 20.6877 0.0000 0.0000 0.0000
# 3 46.6672 20.6877 59.6956 0.0000 0.0000 0.0000
# 4 0.0000 0.0000 0.0000 27.0120 0.0000 0.0000
# 5 0.0000 0.0000 0.0000 0.0000 31.3295 0.0000
# 6 0.0000 0.0000 0.0000 0.0000 0.0000 48.9224
#
#
#
# Elastic Compliance Matrix: (Units=1/GPa)
#
#
# Indices 1 2 3 4 5 6 
#
# 1 0.009593 -0.004271 -0.006019 0.000000 0.000000 0.000000
# 2 -0.004271 0.023920 -0.004951 0.000000 0.000000 0.000000
# 3 -0.006019 -0.004951 0.023173 0.000000 0.000000 0.000000
# 4 0.000000 0.000000 0.000000 0.037021 0.000000 0.000000
# 5 0.000000 0.000000 0.000000 0.000000 0.031919 0.000000
# 6 0.000000 0.000000 0.000000 0.000000 0.000000 0.020441
#
#
# Mechanical properties :
#
#
# Convention : Reuss Voigt Hill
#
# Bulk Modulus (GPa) = 38.16189 52.16667 45.16428
# Shear Modulus (GPa) = 26.98580 32.00346 29.49463
#
# Velocity S-wave (km/s) = 3.94366 4.29468 4.12291
# Velocity P-wave (km/s) = 6.53683 7.39304 6.97808
#
# Compressibility (1/GPa) = 0.02620415
#
# Stress axis : x y z
#
# Youngs Moduli (GPa) = 104.24214 41.80593 43.15367
#
# Poissons Ratio (x) = 0.17855 0.25976
# Poissons Ratio (y) = 0.44520 0.21365
# Poissons Ratio (z) = 0.62747 0.20697
#
# Static dielectric constant tensor:
#      x y z
#    x 3.790450 0.000000 0.000000 
#    y 0.000000 3.142050 0.000000 
#    z 0.000000 0.000000 3.053010 
# 
# 
# High freq. dielectric constant tensor:
#      x y z
#    x 1.694950 0.000000 0.000000 
#    y 0.000000 1.649650 0.000000 
#    z 0.000000 0.000000 1.638530 
# 
# From -- ./inp_files/27834.got.cif
#   From: 2010.03.12/outbox.cif.g09.slc.cpg/sg51_14_cif.got.tgz:27834.got - 2010.04.16 13:43:02.
