data_PCOD8208693
_publ_section_title
;
Structure prediction by ZEFSAII (Michael W. Deem and Ramdas Pophale) SiO2 
 PCOD8208693
Probable space group: P M M A
;
_chemical_formula_sum "Si O2"
_cell_formula_units_Z 48
_cell_length_a 21.354155
_cell_length_b 9.005105
_cell_length_c 15.005915
_cell_angle_alpha 90.000000
_cell_angle_beta 90.000000
_cell_angle_gamma 90.000000
_cell_volume 2885.583553
_symmetry_space_group_name_H-M "P M M A"
_symmetry_group_IT_number 51
_symmetry_cell_setting 'orthorhombic'
loop_
_space_group_symop_operation_xyz
x,y,z
1/2-x,-y,z
1/2+x,-y,-z
-x,y,-z
-x,-y,-z
1/2+x,y,-z
1/2-x,y,z
x,-y,z
loop_
_atom_site_type_symbol
_atom_site_label
_atom_site_fract_x
_atom_site_fract_y
_atom_site_fract_z
Si Si1 0.428802 0.164178 0.531477
Si Si2 0.545970 0.828761 0.128881
Si Si3 0.034923 0.325500 0.696897
Si Si4 0.677013 0.328007 0.803623
Si Si5 0.407803 0.828475 0.060842
Si Si6 0.096575 0.824258 0.339975
O O1 0.500000 0.159934 0.500000
O O2 0.420993 0.277122 0.613781
O O3 0.389242 0.214193 0.444153
O O4 0.407973 0.000000 0.563294
O O5 0.567614 0.726184 0.211267
O O6 0.474376 0.793208 0.104936
O O7 0.553472 0.000000 0.156094
O O8 0.589771 0.791477 0.044305
O O9 0.026397 0.500000 0.694772
O O10 0.967518 0.248936 0.692808
O O11 0.750000 0.297846 0.814572
O O12 0.661603 0.500000 0.788471
O O13 0.644262 0.273927 0.894184
O O14 0.653530 0.236960 0.718015
O O15 0.390260 0.000000 0.076148
O O16 0.089534 0.000000 0.326398
#
# Coordination Sequence:
#
# PCOD8208693 Si02
#       6
#     8   8   8   8   8   8
#     4   8  16  29  44  63  90 124 157 190 227 269
#     4   9  17  30  48  70  96 125 159 198 240 285
#     4  11  19  26  43  72 100 127 154 186 236 292
#     4  11  23  35  48  70  99 128 159 199 244 287
#     4   9  18  32  50  69  91 125 164 200 238 283
#     4  10  19  32  48  65  90 126 165 199 231 274
#
# _framework density 16.634418
#
# number of rings (size 3 to 8) (size 9 to 14) (size 15 to 20)
#    0.000    2.333    1.667    4.500    0.000    5.667 
#    0.000    1.667    0.000    0.000    0.000    1.167 
#    0.000    9.333    0.000    0.000    0.000    0.000 
#
# Total GULP energy -595077.704878 kJ/mol
# GULP energy per Si atom -12397.452185 kJ/mol
# Density = 1.659656 g / cm^3
# Si number density = 16.634418 Si / 1000 Ang^3
#
#
#
# Elastic Constant Matrix: (Units=GPa)
#
#
# Indices 1 2 3 4 5 6 
#
# 1 50.7090 36.9204 40.2408 0.0000 0.0000 0.0000
# 2 36.9204 105.4289 70.0114 0.0000 0.0000 0.0000
# 3 40.2408 70.0114 143.5469 0.0000 0.0000 0.0000
# 4 0.0000 0.0000 0.0000 18.3923 0.0000 0.0000
# 5 0.0000 0.0000 0.0000 0.0000 17.7048 0.0000
# 6 0.0000 0.0000 0.0000 0.0000 0.0000 18.0808
#
#
#
# Elastic Compliance Matrix: (Units=1/GPa)
#
#
# Indices 1 2 3 4 5 6 
#
# 1 0.028383 -0.006886 -0.004598 0.000000 0.000000 0.000000
# 2 -0.006886 0.015699 -0.005727 0.000000 0.000000 0.000000
# 3 -0.004598 -0.005727 0.011048 0.000000 0.000000 0.000000
# 4 0.000000 0.000000 0.000000 0.054370 0.000000 0.000000
# 5 0.000000 0.000000 0.000000 0.000000 0.056482 0.000000
# 6 0.000000 0.000000 0.000000 0.000000 0.000000 0.055307
#
#
# Mechanical properties :
#
#
# Convention : Reuss Voigt Hill
#
# Bulk Modulus (GPa) = 48.28798 66.00332 57.14565
# Shear Modulus (GPa) = 19.03929 21.00305 20.02117
#
# Velocity S-wave (km/s) = 3.38682 3.55720 3.47306
# Velocity P-wave (km/s) = 6.66229 7.52572 7.10713
#
# Compressibility (1/GPa) = 0.02070909
#
# Stress axis : x y z
#
# Youngs Moduli (GPa) = 35.23252 63.69715 90.51110
#
# Poissons Ratio (x) = 0.43862 0.41618
# Poissons Ratio (y) = 0.24261 0.51832
# Poissons Ratio (z) = 0.16200 0.36477
#
# Static dielectric constant tensor:
#      x y z
#    x 2.652680 0.000000 0.000000 
#    y 0.000000 3.127510 0.000000 
#    z 0.000000 0.000000 3.571160 
# 
# 
# High freq. dielectric constant tensor:
#      x y z
#    x 1.574360 0.000000 0.000000 
#    y 0.000000 1.644590 0.000000 
#    z 0.000000 0.000000 1.660520 
# 
# From -- ./inp_files/25464.got.cif
#   From: 2010.03.12/outbox.cif.g09.slc.cpg/sg51_13_cif.got.tgz:25464.got - 2010.04.16 13:43:02.
