data_PCOD8208541
_publ_section_title
;
Structure prediction by ZEFSAII (Michael W. Deem and Ramdas Pophale) SiO2 
 PCOD8208541
Probable space group: P M M A
;
_chemical_formula_sum "Si O2"
_cell_formula_units_Z 40
_cell_length_a 18.164002
_cell_length_b 8.923073
_cell_length_c 13.796756
_cell_angle_alpha 90.000000
_cell_angle_beta 90.000000
_cell_angle_gamma 90.000000
_cell_volume 2236.160495
_symmetry_space_group_name_H-M "P M M A"
_symmetry_group_IT_number 51
_symmetry_cell_setting 'orthorhombic'
loop_
_space_group_symop_operation_xyz
x,y,z
1/2-x,-y,z
1/2+x,-y,-z
-x,y,-z
-x,-y,-z
1/2+x,y,-z
1/2-x,y,z
x,-y,z
loop_
_atom_site_type_symbol
_atom_site_label
_atom_site_fract_x
_atom_site_fract_y
_atom_site_fract_z
Si Si1 0.537022 0.827130 0.790317
Si Si2 0.829669 0.676111 0.305030
Si Si3 0.477660 0.321605 0.605692
Si Si4 0.834143 0.828257 0.928122
Si Si5 0.094491 0.324724 0.890907
O O1 0.531833 0.744381 0.687001
O O2 0.620127 0.806014 0.828982
O O3 0.482152 0.759463 0.871020
O O4 0.516714 0.000000 0.775340
O O5 0.750000 0.748931 0.331011
O O6 0.824332 0.500000 0.318805
O O7 0.894377 0.736973 0.374721
O O8 0.848431 0.715492 0.194263
O O9 0.500000 0.262420 0.500000
O O10 0.482870 0.500000 0.613078
O O11 0.750000 0.780831 0.907450
O O12 0.839259 0.000000 0.963428
O O13 0.868720 0.723748 0.009663
O O14 0.076523 0.500000 0.894125
#
# Coordination Sequence:
#
# PCOD8208541 Si02
#       5
#     8   8   8   8   8
#     4  10  20  34  52  72  96 130 169 204 244 298
#     4   8  14  26  45  69  95 122 153 192 241 293
#     4   9  18  33  52  73  97 124 159 207 257 300
#     4  10  21  35  49  69 101 138 171 202 237 283
#     4  10  19  31  50  75 101 129 164 207 251 294
#
# _framework density 17.887803999999999
#
# number of rings (size 3 to 8) (size 9 to 14) (size 15 to 20)
#    0.000    2.600    0.000    3.600    0.000    5.600 
#    0.000    1.000    0.000    6.600    0.000    0.000 
#    0.000    0.000    0.000    0.000    0.000    0.000 
#
# Total GULP energy -495894.048913 kJ/mol
# GULP energy per Si atom -12397.351223 kJ/mol
# Density = 1.784709 g / cm^3
# Si number density = 17.887804 Si / 1000 Ang^3
#
#
#
# Elastic Constant Matrix: (Units=GPa)
#
#
# Indices 1 2 3 4 5 6 
#
# 1 116.0513 31.1916 69.9431 0.0000 0.0000 0.0000
# 2 31.1916 50.3374 33.1068 0.0000 0.0000 0.0000
# 3 69.9431 33.1068 118.3414 0.0000 0.0000 0.0000
# 4 0.0000 0.0000 0.0000 23.4181 0.0000 0.0000
# 5 0.0000 0.0000 0.0000 0.0000 20.1844 0.0000
# 6 0.0000 0.0000 0.0000 0.0000 0.0000 19.6949
#
#
#
# Elastic Compliance Matrix: (Units=1/GPa)
#
#
# Indices 1 2 3 4 5 6 
#
# 1 0.014001 -0.003962 -0.007167 0.000000 0.000000 0.000000
# 2 -0.003962 0.025467 -0.004783 0.000000 0.000000 0.000000
# 3 -0.007167 -0.004783 0.014024 0.000000 0.000000 0.000000
# 4 0.000000 0.000000 0.000000 0.042702 0.000000 0.000000
# 5 0.000000 0.000000 0.000000 0.000000 0.049543 0.000000
# 6 0.000000 0.000000 0.000000 0.000000 0.000000 0.050775
#
#
# Mechanical properties :
#
#
# Convention : Reuss Voigt Hill
#
# Bulk Modulus (GPa) = 46.14996 61.46813 53.80904
# Shear Modulus (GPa) = 21.22628 22.69206 21.95917
#
# Velocity S-wave (km/s) = 3.44849 3.56557 3.50752
# Velocity P-wave (km/s) = 6.45847 7.16860 6.82278
#
# Compressibility (1/GPa) = 0.02166849
#
# Stress axis : x y z
#
# Youngs Moduli (GPa) = 71.42312 39.26690 71.30769
#
# Poissons Ratio (x) = 0.15559 0.51103
# Poissons Ratio (y) = 0.28300 0.34104
# Poissons Ratio (z) = 0.51186 0.18780
#
# Static dielectric constant tensor:
#      x y z
#    x 3.655880 0.000000 0.000000 
#    y 0.000000 3.161550 0.000000 
#    z 0.000000 0.000000 3.224380 
# 
# 
# High freq. dielectric constant tensor:
#      x y z
#    x 1.697690 0.000000 0.000000 
#    y 0.000000 1.677690 0.000000 
#    z 0.000000 0.000000 1.676970 
# 
# From -- ./inp_files/24537.got.cif
#   From: 2010.03.12/outbox.cif.g09.slc.cpg/sg51_13_cif.got.tgz:24537.got - 2010.04.16 13:43:02.
