data_PCOD8208083
_publ_section_title
;
Structure prediction by ZEFSAII (Michael W. Deem and Ramdas Pophale) SiO2 
 PCOD8208083
Probable space group: P M M A
;
_chemical_formula_sum "Si O2"
_cell_formula_units_Z 48
_cell_length_a 14.535417
_cell_length_b 9.235939
_cell_length_c 19.456295
_cell_angle_alpha 90.000000
_cell_angle_beta 90.000000
_cell_angle_gamma 90.000000
_cell_volume 2611.973064
_symmetry_space_group_name_H-M "P M M A"
_symmetry_group_IT_number 51
_symmetry_cell_setting 'orthorhombic'
loop_
_space_group_symop_operation_xyz
x,y,z
1/2-x,-y,z
1/2+x,-y,-z
-x,y,-z
-x,-y,-z
1/2+x,y,-z
1/2-x,y,z
x,-y,z
loop_
_atom_site_type_symbol
_atom_site_label
_atom_site_fract_x
_atom_site_fract_y
_atom_site_fract_z
Si Si1 0.994231 0.171829 0.892890
Si Si2 0.352152 0.171837 0.366691
Si Si3 0.359174 0.160646 0.517652
Si Si4 0.147073 0.172381 0.995687
Si Si5 0.494618 0.172534 0.738169
Si Si6 0.858707 0.334477 0.351688
O O1 0.905005 0.226807 0.935289
O O2 0.989038 0.230343 0.815344
O O3 0.993923 0.000000 0.892826
O O4 0.088360 0.225795 0.929617
O O5 0.250000 0.237299 0.353571
O O6 0.390799 0.216961 0.442250
O O7 0.420454 0.229405 0.307993
O O8 0.345676 0.000000 0.364047
O O9 0.250000 0.151930 0.516867
O O10 0.394768 0.269236 0.576078
O O11 0.399511 0.000000 0.533101
O O12 0.250000 0.239136 0.992973
O O13 0.152608 0.000000 0.995969
O O14 0.401381 0.244472 0.710934
O O15 0.483881 0.000000 0.735270
O O16 0.750000 0.318763 0.345030
O O17 0.890817 0.500000 0.348049
#
# Coordination Sequence:
#
# PCOD8208083 Si02
#       6
#     8   8   8   8   8   8
#     4   8  15  25  37  61  93 119 148 183 219 265
#     4   8  15  28  46  69  95 121 152 193 238 278
#     4   8  14  28  49  67  85 115 156 198 235 274
#     4   8  13  23  39  59  88 123 151 180 221 262
#     4  10  19  30  47  71  97 124 154 190 231 277
#     4  10  21  35  48  64  90 123 157 195 238 280
#
# _framework density 18.376912999999998
#
# number of rings (size 3 to 8) (size 9 to 14) (size 15 to 20)
#    0.000    3.333    0.000    2.500    0.000    3.000 
#    0.000    9.167    0.000    1.500    0.000    2.333 
#    0.000    1.333    0.000    0.000    0.000    0.000 
#
# Total GULP energy -594889.896077 kJ/mol
# GULP energy per Si atom -12393.539502 kJ/mol
# Density = 1.833509 g / cm^3
# Si number density = 18.376913 Si / 1000 Ang^3
#
#
#
# Elastic Constant Matrix: (Units=GPa)
#
#
# Indices 1 2 3 4 5 6 
#
# 1 91.6528 20.3163 50.9328 0.0000 0.0000 0.0000
# 2 20.3163 35.6426 30.1063 0.0000 0.0000 0.0000
# 3 50.9328 30.1063 157.3056 0.0000 0.0000 0.0000
# 4 0.0000 0.0000 0.0000 -0.6730 0.0000 0.0000
# 5 0.0000 0.0000 0.0000 0.0000 24.6491 0.0000
# 6 0.0000 0.0000 0.0000 0.0000 0.0000 11.0936
#
#
#
# Elastic Compliance Matrix: (Units=1/GPa)
#
#
# Indices 1 2 3 4 5 6 
#
# 1 0.014001 -0.004952 -0.003586 0.000000 0.000000 0.000000
# 2 -0.004952 0.035218 -0.005137 0.000000 0.000000 0.000000
# 3 -0.003586 -0.005137 0.008501 0.000000 0.000000 0.000000
# 4 0.000000 0.000000 0.000000 -1.485990 0.000000 0.000000
# 5 0.000000 0.000000 0.000000 0.000000 0.040569 0.000000
# 6 0.000000 0.000000 0.000000 0.000000 0.000000 0.090142
#
#
# Mechanical properties :
#
#
# Convention : Reuss Voigt Hill
#
# Bulk Modulus (GPa) = 32.92591 54.14574 43.53583
# Shear Modulus (GPa) = -3.96798 19.23032 7.63117
#
# Velocity S-wave (km/s) = -1.47102 3.23838 2.04000
# Velocity P-wave (km/s) = 3.88210 6.59627 5.41209
#
# Compressibility (1/GPa) = 0.03037122
#
# Stress axis : x y z
#
# Youngs Moduli (GPa) = 71.42377 28.39463 117.63164
#
# Poissons Ratio (x) = 0.14061 0.42177
# Poissons Ratio (y) = 0.35369 0.60426
# Poissons Ratio (z) = 0.25609 0.14586
#
# Static dielectric constant tensor:
#      x y z
#    x 3.552990 0.000000 0.000000 
#    y 0.000000 2.841880 0.000000 
#    z 0.000000 0.000000 3.724500 
# 
# 
# High freq. dielectric constant tensor:
#      x y z
#    x 1.715550 0.000000 0.000000 
#    y 0.000000 1.644790 0.000000 
#    z 0.000000 0.000000 1.716850 
# 
# From -- ./inp_files/29404.got.cif
#   From: 2010.03.12/outbox.cif.g09.slc.cpg/sg51_15_cif.got.tgz:29404.got - 2010.04.16 13:43:02.
