data_PCOD8208188
_publ_section_title
;
Structure prediction by ZEFSAII (Michael W. Deem and Ramdas Pophale) SiO2 
 PCOD8208188
Probable space group: P M M A
;
_chemical_formula_sum "Si O2"
_cell_formula_units_Z 56
_cell_length_a 9.418479
_cell_length_b 15.397481
_cell_length_c 29.949058
_cell_angle_alpha 90.000000
_cell_angle_beta 90.000000
_cell_angle_gamma 90.000000
_cell_volume 4343.237891
_symmetry_space_group_name_H-M "P M M A"
_symmetry_group_IT_number 51
_symmetry_cell_setting 'orthorhombic'
loop_
_space_group_symop_operation_xyz
x,y,z
1/2-x,-y,z
1/2+x,-y,-z
-x,y,-z
-x,-y,-z
1/2+x,y,-z
1/2-x,y,z
x,-y,z
loop_
_atom_site_type_symbol
_atom_site_label
_atom_site_fract_x
_atom_site_fract_y
_atom_site_fract_z
Si Si1 0.410430 0.896400 0.542079
Si Si2 0.909831 0.103077 0.722894
Si Si3 0.417029 0.689005 0.046849
Si Si4 0.590823 0.500000 0.956812
Si Si5 0.585281 0.099127 0.194756
Si Si6 0.085904 0.000000 0.954918
Si Si7 0.090059 0.103394 0.375520
Si Si8 0.084912 0.828925 0.900252
O O1 0.500000 0.861551 0.500000
O O2 0.250000 0.860483 0.539171
O O3 0.483046 0.859567 0.587198
O O4 0.409781 0.000000 0.542301
O O5 0.750000 0.134341 0.731850
O O6 0.959436 0.135824 0.673741
O O7 0.006862 0.141200 0.762449
O O8 0.920135 0.000000 0.723611
O O9 0.250000 0.710266 0.039346
O O10 0.437654 0.591665 0.068343
O O11 0.483828 0.752702 0.082994
O O12 0.500000 0.699387 0.000000
O O13 0.750000 0.500000 0.974654
O O14 0.500000 0.500000 0.000000
O O15 0.750000 0.101263 0.205902
O O16 0.549634 0.156742 0.151669
O O17 0.536213 0.000000 0.185595
O O18 0.045385 0.084059 0.926545
O O19 0.250000 0.000000 0.967667
O O20 0.000000 0.000000 0.000000
O O21 0.250000 0.136258 0.385627
O O22 0.089449 0.000000 0.376855
O O23 0.250000 0.804535 0.907228
#
# Coordination Sequence:
#
# PCOD8208188 Si02
#       8
#     8   8   8   4   8   4   8   8
#     4   9  15  20  26  36  50  68  90 116 149 192
#     4   8  14  23  34  47  61  77 100 133 167 197
#     4  10  19  31  46  63  79  96 116 140 170 205
#     4   8  16  30  46  62  80  96 112 136 168 204
#     4   9  16  27  40  51  66  90 115 139 169 200
#     4  10  20  32  42  52  72  98 122 144 169 198
#     4   8  13  21  30  39  53  71  91 119 156 193
#     4  10  19  31  43  56  76  99 121 146 172 203
#
# _framework density 12.893606
#
# number of rings (size 3 to 8) (size 9 to 14) (size 15 to 20)
#    0.000    3.000    0.714    2.143    0.000    5.143 
#    0.000    2.857    0.000    0.000    0.000    0.000 
#    0.000    0.000    0.000    0.000    0.000    0.000 
#
# Total GULP energy -693889.742737 kJ/mol
# GULP energy per Si atom -12390.888263 kJ/mol
# Density = 1.286426 g / cm^3
# Si number density = 12.893606 Si / 1000 Ang^3
#
#
#
# Elastic Constant Matrix: (Units=GPa)
#
#
# Indices 1 2 3 4 5 6 
#
# 1 81.0052 31.0356 63.1739 0.0000 0.0000 0.0000
# 2 31.0356 48.8927 28.2889 0.0000 0.0000 0.0000
# 3 63.1739 28.2889 113.8012 0.0000 0.0000 0.0000
# 4 0.0000 0.0000 0.0000 0.5216 0.0000 0.0000
# 5 0.0000 0.0000 0.0000 0.0000 27.8814 0.0000
# 6 0.0000 0.0000 0.0000 0.0000 0.0000 11.8673
#
#
#
# Elastic Compliance Matrix: (Units=1/GPa)
#
#
# Indices 1 2 3 4 5 6 
#
# 1 0.024801 -0.009084 -0.011510 0.000000 0.000000 0.000000
# 2 -0.009084 0.027216 -0.001723 0.000000 0.000000 0.000000
# 3 -0.011510 -0.001723 0.015605 0.000000 0.000000 0.000000
# 4 0.000000 0.000000 0.000000 1.917283 0.000000 0.000000
# 5 0.000000 0.000000 0.000000 0.000000 0.035866 0.000000
# 6 0.000000 0.000000 0.000000 0.000000 0.000000 0.084265
#
#
# Mechanical properties :
#
#
# Convention : Reuss Voigt Hill
#
# Bulk Modulus (GPa) = 43.49812 54.29954 48.89883
# Shear Modulus (GPa) = 2.31768 16.13411 9.22590
#
# Velocity S-wave (km/s) = 1.34218 3.54125 2.67786
# Velocity P-wave (km/s) = 6.01759 7.67630 6.89699
#
# Compressibility (1/GPa) = 0.02298950
#
# Stress axis : x y z
#
# Youngs Moduli (GPa) = 40.32049 36.74349 64.08250
#
# Poissons Ratio (x) = 0.33376 0.73758
# Poissons Ratio (y) = 0.36626 0.11040
# Poissons Ratio (z) = 0.46408 0.06330
#
# Static dielectric constant tensor:
#      x y z
#    x 2.744750 0.000000 0.000000 
#    y 0.000000 2.435950 0.000000 
#    z 0.000000 0.000000 2.838650 
# 
# 
# High freq. dielectric constant tensor:
#      x y z
#    x 1.501410 0.000000 0.000000 
#    y 0.000000 1.423250 0.000000 
#    z 0.000000 0.000000 1.489160 
# 
# From -- ./inp_files/37507.got.cif
#   From: 2010.03.12/outbox.cif.g09.slc.cpg/sg51_19_cif.got.tgz:37507.got - 2010.04.16 13:43:02.
