data_PCOD8208266
_publ_section_title
;
Structure prediction by ZEFSAII (Michael W. Deem and Ramdas Pophale) SiO2 
 PCOD8208266
Probable space group: P M M A
;
_chemical_formula_sum "Si O2"
_cell_formula_units_Z 64
_cell_length_a 9.175207
_cell_length_b 23.420580
_cell_length_c 15.458220
_cell_angle_alpha 90.000000
_cell_angle_beta 90.000000
_cell_angle_gamma 90.000000
_cell_volume 3321.796330
_symmetry_space_group_name_H-M "P M M A"
_symmetry_group_IT_number 51
_symmetry_cell_setting 'orthorhombic'
loop_
_space_group_symop_operation_xyz
x,y,z
1/2-x,-y,z
1/2+x,-y,-z
-x,y,-z
-x,-y,-z
1/2+x,y,-z
1/2-x,y,z
x,-y,z
loop_
_atom_site_type_symbol
_atom_site_label
_atom_site_fract_x
_atom_site_fract_y
_atom_site_fract_z
Si Si1 0.915988 0.061745 0.753599
Si Si2 0.584948 0.661978 0.157762
Si Si3 0.583400 0.814924 0.729620
Si Si4 0.909049 0.280840 0.343613
Si Si5 0.918144 0.565059 0.757250
Si Si6 0.906625 0.065178 0.074324
Si Si7 0.076182 0.233978 0.085633
Si Si8 0.575291 0.601925 0.413301
O O1 0.750000 0.062975 0.786739
O O2 0.945325 0.119230 0.698396
O O3 0.017472 0.067874 0.834713
O O4 0.946568 0.000000 0.705992
O O5 0.750000 0.651770 0.121983
O O6 0.595141 0.691538 0.249894
O O7 0.498407 0.602432 0.169035
O O8 0.491863 0.702599 0.094940
O O9 0.750000 0.797799 0.724329
O O10 0.508249 0.775304 0.657974
O O11 0.532984 0.804316 0.829671
O O12 0.750000 0.259628 0.371960
O O13 0.963592 0.330347 0.408148
O O14 0.750000 0.585492 0.745490
O O15 0.923464 0.500000 0.789316
O O16 0.003524 0.569009 0.666568
O O17 0.750000 0.096194 0.080834
O O18 0.882589 0.000000 0.045872
O O19 0.000000 0.096832 0.000000
O O20 0.250000 0.237572 0.073557
O O21 0.000000 0.206830 0.000000
O O22 0.500000 0.577800 0.500000
O O23 0.750000 0.591787 0.413183
#
# Coordination Sequence:
#
# PCOD8208266 Si02
#       8
#     8   8   8   8   8   8   8   8
#     4   9  17  29  42  57  81 111 143 180 221 267
#     4   9  17  31  50  70  92 120 156 196 239 283
#     4   9  18  30  45  65  87 116 152 189 231 279
#     4   8  16  30  47  67  90 118 151 188 229 272
#     4  10  20  33  50  73 101 134 168 196 224 264
#     4   9  16  25  36  49  66  93 130 168 208 255
#     4  10  19  31  47  67  90 115 150 197 247 294
#     4  10  20  33  50  73 101 132 163 193 228 266
#
# _framework density 19.266683
#
# number of rings (size 3 to 8) (size 9 to 14) (size 15 to 20)
#    0.000    2.750    0.000    2.625    0.000    7.750 
#    0.000    1.250    0.000    0.375    0.000    0.000 
#    0.000    0.500    0.000    1.125    0.000    1.750 
#
# Total GULP energy -792888.186030 kJ/mol
# GULP energy per Si atom -12388.877907 kJ/mol
# Density = 1.922283 g / cm^3
# Si number density = 19.266683 Si / 1000 Ang^3
#
#
#
# Elastic Constant Matrix: (Units=GPa)
#
#
# Indices 1 2 3 4 5 6 
#
# 1 95.7740 41.0678 4.0342 0.0000 0.0000 0.0000
# 2 41.0678 105.8071 1.4067 0.0000 0.0000 0.0000
# 3 4.0342 1.4067 14.1731 0.0000 0.0000 0.0000
# 4 0.0000 0.0000 0.0000 11.3388 0.0000 0.0000
# 5 0.0000 0.0000 0.0000 0.0000 21.8339 0.0000
# 6 0.0000 0.0000 0.0000 0.0000 0.0000 20.8573
#
#
#
# Elastic Compliance Matrix: (Units=1/GPa)
#
#
# Indices 1 2 3 4 5 6 
#
# 1 0.012662 -0.004873 -0.003121 0.000000 0.000000 0.000000
# 2 -0.004873 0.011339 0.000262 0.000000 0.000000 0.000000
# 3 -0.003121 0.000262 0.071418 0.000000 0.000000 0.000000
# 4 0.000000 0.000000 0.000000 0.088193 0.000000 0.000000
# 5 0.000000 0.000000 0.000000 0.000000 0.045800 0.000000
# 6 0.000000 0.000000 0.000000 0.000000 0.000000 0.047945
#
#
# Mechanical properties :
#
#
# Convention : Reuss Voigt Hill
#
# Bulk Modulus (GPa) = 12.50694 34.30797 23.40746
# Shear Modulus (GPa) = 15.65076 22.08906 18.86991
#
# Velocity S-wave (km/s) = 2.85322 3.38966 3.13294
# Velocity P-wave (km/s) = 4.16654 5.75893 5.02620
#
# Compressibility (1/GPa) = 0.07995561
#
# Stress axis : x y z
#
# Youngs Moduli (GPa) = 78.97442 88.18985 14.00202
#
# Poissons Ratio (x) = 0.42977 0.04369
# Poissons Ratio (y) = 0.38486 -0.00366
# Poissons Ratio (z) = 0.24644 -0.02308
#
# Static dielectric constant tensor:
#      x y z
#    x 3.789480 0.000000 0.000000 
#    y 0.000000 3.729680 0.000000 
#    z 0.000000 0.000000 3.089630 
# 
# 
# High freq. dielectric constant tensor:
#      x y z
#    x 1.763880 0.000000 0.000000 
#    y 0.000000 1.749280 0.000000 
#    z 0.000000 0.000000 1.686100 
# 
# From -- ./inp_files/28640.got.cif
#   From: 2010.03.12/outbox.cif.g09.slc.cpg/sg51_15_cif.got.tgz:28640.got - 2010.04.16 13:43:02.
