data_PCOD8208614
_publ_section_title
;
Structure prediction by ZEFSAII (Michael W. Deem and Ramdas Pophale) SiO2 
 PCOD8208614
Probable space group: P M M A
;
_chemical_formula_sum "Si O2"
_cell_formula_units_Z 40
_cell_length_a 8.776822
_cell_length_b 13.727262
_cell_length_c 18.877898
_cell_angle_alpha 90.000000
_cell_angle_beta 90.000000
_cell_angle_gamma 90.000000
_cell_volume 2274.441906
_symmetry_space_group_name_H-M "P M M A"
_symmetry_group_IT_number 51
_symmetry_cell_setting 'orthorhombic'
loop_
_space_group_symop_operation_xyz
x,y,z
1/2-x,-y,z
1/2+x,-y,-z
-x,y,-z
-x,-y,-z
1/2+x,y,-z
1/2-x,y,z
x,-y,z
loop_
_atom_site_type_symbol
_atom_site_label
_atom_site_fract_x
_atom_site_fract_y
_atom_site_fract_z
Si Si1 0.070706 0.388300 0.074459
Si Si2 0.430079 0.107070 0.710439
Si Si3 0.574191 0.612079 0.658337
Si Si4 0.930324 0.222369 0.426050
Si Si5 0.569199 0.705590 0.208808
O O1 0.250000 0.373619 0.071130
O O2 0.027336 0.500000 0.092085
O O3 0.001303 0.317672 0.133083
O O4 0.000000 0.356295 0.000000
O O5 0.250000 0.099633 0.711896
O O6 0.481355 0.143975 0.632953
O O7 0.482903 0.184686 0.769803
O O8 0.502105 0.000000 0.725139
O O9 0.750000 0.642336 0.665906
O O10 0.555798 0.500000 0.637621
O O11 0.496352 0.672526 0.595376
O O12 0.492230 0.630168 0.733189
O O13 0.750000 0.231074 0.432189
O O14 0.000000 0.187248 0.500000
O O15 0.750000 0.695833 0.205676
#
# Coordination Sequence:
#
# PCOD8208614 Si02
#       5
#     8   8   8   8   8
#     4  10  20  33  50  74 105 138 168 199 236 280
#     4   8  16  32  52  73  96 124 160 200 244 292
#     4  10  20  33  49  69  95 129 166 202 240 285
#     4  10  20  33  50  71  96 126 159 200 248 295
#     4  10  19  31  51  76 101 130 162 200 243 287
#
# _framework density 17.586729999999999
#
# number of rings (size 3 to 8) (size 9 to 14) (size 15 to 20)
#    0.000    2.400    0.000    4.200    0.000    6.000 
#    0.000    0.000    0.000   21.600    0.000    0.000 
#    0.000    0.000    0.000    0.000    0.000    0.000 
#
# Total GULP energy -496001.141584 kJ/mol
# GULP energy per Si atom -12400.028540 kJ/mol
# Density = 1.754670 g / cm^3
# Si number density = 17.586730 Si / 1000 Ang^3
#
#
#
# Elastic Constant Matrix: (Units=GPa)
#
#
# Indices 1 2 3 4 5 6 
#
# 1 76.5661 38.8141 45.4740 0.0000 0.0000 0.0000
# 2 38.8141 115.3635 62.9204 0.0000 0.0000 0.0000
# 3 45.4740 62.9204 137.1269 0.0000 0.0000 0.0000
# 4 0.0000 0.0000 0.0000 18.2199 0.0000 0.0000
# 5 0.0000 0.0000 0.0000 0.0000 36.0494 0.0000
# 6 0.0000 0.0000 0.0000 0.0000 0.0000 15.4923
#
#
#
# Elastic Compliance Matrix: (Units=1/GPa)
#
#
# Indices 1 2 3 4 5 6 
#
# 1 0.017313 -0.003593 -0.004093 0.000000 0.000000 0.000000
# 2 -0.003593 0.012307 -0.004456 0.000000 0.000000 0.000000
# 3 -0.004093 -0.004456 0.010694 0.000000 0.000000 0.000000
# 4 0.000000 0.000000 0.000000 0.054885 0.000000 0.000000
# 5 0.000000 0.000000 0.000000 0.000000 0.027740 0.000000
# 6 0.000000 0.000000 0.000000 0.000000 0.000000 0.064548
#
#
# Mechanical properties :
#
#
# Convention : Reuss Voigt Hill
#
# Bulk Modulus (GPa) = 62.37584 69.27483 65.82533
# Shear Modulus (GPa) = 23.02946 26.07551 24.55249
#
# Velocity S-wave (km/s) = 3.62260 3.85474 3.74047
# Velocity P-wave (km/s) = 7.28301 7.69986 7.49433
#
# Compressibility (1/GPa) = 0.01603185
#
# Stress axis : x y z
#
# Youngs Moduli (GPa) = 57.76151 81.25328 93.50807
#
# Poissons Ratio (x) = 0.29191 0.38270
# Poissons Ratio (y) = 0.20751 0.41665
# Poissons Ratio (z) = 0.23640 0.36204
#
# Static dielectric constant tensor:
#      x y z
#    x 3.258300 0.000000 0.000000 
#    y 0.000000 3.480910 0.000000 
#    z 0.000000 0.000000 3.235870 
# 
# 
# High freq. dielectric constant tensor:
#      x y z
#    x 1.681380 0.000000 0.000000 
#    y 0.000000 1.670120 0.000000 
#    z 0.000000 0.000000 1.674850 
# 
# From -- ./inp_files/27025.got.cif
#   From: 2010.03.12/outbox.cif.g09.slc.cpg/sg51_14_cif.got.tgz:27025.got - 2010.04.16 13:43:02.
