data_PCOD8208884
_publ_section_title
;
Structure prediction by ZEFSAII (Michael W. Deem and Ramdas Pophale) SiO2 
 PCOD8208884
Probable space group: P M M A
;
_chemical_formula_sum "Si O2"
_cell_formula_units_Z 44
_cell_length_a 8.880962
_cell_length_b 28.424518
_cell_length_c 9.234142
_cell_angle_alpha 90.000000
_cell_angle_beta 90.000000
_cell_angle_gamma 90.000000
_cell_volume 2331.039697
_symmetry_space_group_name_H-M "P M M A"
_symmetry_group_IT_number 51
_symmetry_cell_setting 'orthorhombic'
loop_
_space_group_symop_operation_xyz
x,y,z
1/2-x,-y,z
1/2+x,-y,-z
-x,y,-z
-x,-y,-z
1/2+x,y,-z
1/2-x,y,z
x,-y,z
loop_
_atom_site_type_symbol
_atom_site_label
_atom_site_fract_x
_atom_site_fract_y
_atom_site_fract_z
Si Si1 0.074310 0.900657 0.154167
Si Si2 0.927279 0.000000 0.843167
Si Si3 0.428217 0.798310 0.158144
Si Si4 0.924723 0.445114 0.649451
Si Si5 0.925356 0.281665 0.346345
Si Si6 0.424969 0.371989 0.848416
O O1 0.250000 0.900805 0.126864
O O2 0.027003 0.950078 0.237250
O O3 0.031912 0.850379 0.226053
O O4 0.000000 0.901771 0.000000
O O5 0.750000 0.000000 0.865371
O O6 0.000000 0.000000 0.000000
O O7 0.250000 0.790142 0.144317
O O8 0.497180 0.762147 0.269858
O O9 0.500000 0.791282 0.000000
O O10 0.750000 0.432245 0.640275
O O11 0.952223 0.500000 0.676754
O O12 0.000000 0.428520 0.500000
O O13 0.999803 0.418475 0.782957
O O14 0.750000 0.270746 0.365071
O O15 0.954940 0.328251 0.255093
O O16 0.000000 0.290311 0.500000
O O17 0.250000 0.382132 0.871823
O O18 0.500000 0.359484 0.000000
#
# Coordination Sequence:
#
# PCOD8208884 Si02
#       6
#     8   4   8   8   8   8
#     4   8  14  23  38  62  93 129 166 205 251 302
#     4   8  12  20  34  56  89 126 163 202 246 298
#     4  10  19  32  51  76 106 139 175 216 263 314
#     4  10  21  38  61  88 118 152 188 225 266 313
#     4  11  24  40  58  80 105 137 176 219 268 321
#     4  11  24  40  60  85 113 145 181 222 268 317
#
# _framework density 18.875698
#
# number of rings (size 3 to 8) (size 9 to 14) (size 15 to 20)
#    0.000    2.182    0.000    3.273    0.000    8.000 
#    0.000    0.000    0.000    0.000    0.000    0.636 
#    0.000    0.000    0.000    0.000    0.000    0.000 
#
# Total GULP energy -545131.435575 kJ/mol
# GULP energy per Si atom -12389.350809 kJ/mol
# Density = 1.883274 g / cm^3
# Si number density = 18.875698 Si / 1000 Ang^3
#
#
#
# Elastic Constant Matrix: (Units=GPa)
#
#
# Indices 1 2 3 4 5 6 
#
# 1 106.2272 71.2055 60.3488 0.0000 0.0000 0.0000
# 2 71.2055 119.5282 51.4363 0.0000 0.0000 0.0000
# 3 60.3488 51.4363 97.0987 0.0000 0.0000 0.0000
# 4 0.0000 0.0000 0.0000 -15.8584 0.0000 0.0000
# 5 0.0000 0.0000 0.0000 0.0000 30.0364 0.0000
# 6 0.0000 0.0000 0.0000 0.0000 0.0000 26.0616
#
#
#
# Elastic Compliance Matrix: (Units=1/GPa)
#
#
# Indices 1 2 3 4 5 6 
#
# 1 0.019217 -0.008171 -0.007616 0.000000 0.000000 0.000000
# 2 -0.008171 0.014311 -0.002502 0.000000 0.000000 0.000000
# 3 -0.007616 -0.002502 0.016358 0.000000 0.000000 0.000000
# 4 0.000000 0.000000 0.000000 -0.063058 0.000000 0.000000
# 5 0.000000 0.000000 0.000000 0.000000 0.033293 0.000000
# 6 0.000000 0.000000 0.000000 0.000000 0.000000 0.038371
#
#
# Mechanical properties :
#
#
# Convention : Reuss Voigt Hill
#
# Bulk Modulus (GPa) = 75.14386 76.53725 75.84056
# Shear Modulus (GPa) = 50.24853 17.37214 33.81033
#
# Velocity S-wave (km/s) = 5.16513 3.03701 4.23686
# Velocity P-wave (km/s) = 8.68721 7.27557 8.01254
#
# Compressibility (1/GPa) = 0.01330781
#
# Stress axis : x y z
#
# Youngs Moduli (GPa) = 52.03607 69.87753 61.13362
#
# Poissons Ratio (x) = 0.57097 0.46557
# Poissons Ratio (y) = 0.42519 0.15298
# Poissons Ratio (z) = 0.39628 0.17486
#
# Static dielectric constant tensor:
#      x y z
#    x 3.609410 0.000000 0.000000 
#    y 0.000000 4.247220 0.000000 
#    z 0.000000 0.000000 3.070420 
# 
# 
# High freq. dielectric constant tensor:
#      x y z
#    x 1.746930 0.000000 0.000000 
#    y 0.000000 1.766710 0.000000 
#    z 0.000000 0.000000 1.689010 
# 
# From -- ./inp_files/5804.got.cif
#   From: 2010.03.12/outbox.cif.g09.slc.cpg/sg51_3_cif.got.tgz:5804.got - 2010.04.16 13:43:02.
