data_PCOD8208929
_publ_section_title
;
Structure prediction by ZEFSAII (Michael W. Deem and Ramdas Pophale) SiO2 
 PCOD8208929
Probable space group: P M M A
;
_chemical_formula_sum "Si O2"
_cell_formula_units_Z 64
_cell_length_a 19.001284
_cell_length_b 8.944167
_cell_length_c 19.814639
_cell_angle_alpha 90.000000
_cell_angle_beta 90.000000
_cell_angle_gamma 90.000000
_cell_volume 3367.510922
_symmetry_space_group_name_H-M "P M M A"
_symmetry_group_IT_number 51
_symmetry_cell_setting 'orthorhombic'
loop_
_space_group_symop_operation_xyz
x,y,z
1/2-x,-y,z
1/2+x,-y,-z
-x,y,-z
-x,-y,-z
1/2+x,y,-z
1/2-x,y,z
x,-y,z
loop_
_atom_site_type_symbol
_atom_site_label
_atom_site_fract_x
_atom_site_fract_y
_atom_site_fract_z
Si Si1 0.592184 0.825857 0.157286
Si Si2 0.830474 0.827535 0.290815
Si Si3 0.671082 0.178001 0.029623
Si Si4 0.051370 0.174028 0.370527
Si Si5 0.448311 0.821220 0.217668
Si Si6 0.171453 0.822166 0.120247
Si Si7 0.330634 0.172885 0.474436
Si Si8 0.587406 0.675896 0.406264
O O1 0.652588 0.797781 0.212659
O O2 0.618492 0.754239 0.086410
O O3 0.518533 0.755429 0.182359
O O4 0.579010 0.000000 0.146141
O O5 0.750000 0.785071 0.304827
O O6 0.880474 0.723746 0.334850
O O7 0.845696 0.000000 0.309565
O O8 0.750000 0.237429 0.043212
O O9 0.671337 0.000000 0.034965
O O10 0.646662 0.228521 0.954761
O O11 0.056174 0.237565 0.294417
O O12 0.126164 0.204027 0.406017
O O13 0.990806 0.256873 0.413073
O O14 0.031822 0.000000 0.370099
O O15 0.381912 0.757173 0.175921
O O16 0.448588 0.000000 0.217841
O O17 0.250000 0.761233 0.135544
O O18 0.172126 0.000000 0.123288
O O19 0.250000 0.220267 0.461264
O O20 0.361877 0.268805 0.534853
O O21 0.335834 0.000000 0.495655
O O22 0.581435 0.500000 0.410416
#
# Coordination Sequence:
#
# PCOD8208929 Si02
#       8
#     8   8   8   8   8   8   8   8
#     4   9  15  24  40  63  92 127 169 207 245 297
#     4  10  19  32  52  75 101 136 175 212 253 303
#     4   8  13  21  33  54  90 132 167 200 244 300
#     4  10  20  37  58  78 105 138 174 214 256 305
#     4   9  16  26  43  65  91 126 167 208 247 292
#     4   8  14  23  35  57  93 133 166 200 251 307
#     4  10  22  39  59  82 105 133 171 213 257 307
#     4  12  24  37  55  79 107 138 170 209 258 311
#
# _framework density 19.005134999999999
#
# number of rings (size 3 to 8) (size 9 to 14) (size 15 to 20)
#    0.000    2.500    1.250    3.000    0.000    6.500 
#    0.000    5.000    0.000    0.000    0.000    0.000 
#    0.000    2.000    0.000    2.875    0.000    2.625 
#
# Total GULP energy -793432.328892 kJ/mol
# GULP energy per Si atom -12397.380139 kJ/mol
# Density = 1.896188 g / cm^3
# Si number density = 19.005135 Si / 1000 Ang^3
#
#
#
# Elastic Constant Matrix: (Units=GPa)
#
#
# Indices 1 2 3 4 5 6 
#
# 1 144.1288 35.1022 71.5539 0.0000 0.0000 0.0000
# 2 35.1022 39.8750 26.0093 0.0000 0.0000 0.0000
# 3 71.5539 26.0093 107.0332 0.0000 0.0000 0.0000
# 4 0.0000 0.0000 0.0000 0.1464 0.0000 0.0000
# 5 0.0000 0.0000 0.0000 0.0000 40.8260 0.0000
# 6 0.0000 0.0000 0.0000 0.0000 0.0000 4.2044
#
#
#
# Elastic Compliance Matrix: (Units=1/GPa)
#
#
# Indices 1 2 3 4 5 6 
#
# 1 0.011502 -0.006072 -0.006214 0.000000 0.000000 0.000000
# 2 -0.006072 0.033008 -0.003962 0.000000 0.000000 0.000000
# 3 -0.006214 -0.003962 0.014460 0.000000 0.000000 0.000000
# 4 0.000000 0.000000 0.000000 6.831309 0.000000 0.000000
# 5 0.000000 0.000000 0.000000 0.000000 0.024494 0.000000
# 6 0.000000 0.000000 0.000000 0.000000 0.000000 0.237847
#
#
# Mechanical properties :
#
#
# Convention : Reuss Voigt Hill
#
# Bulk Modulus (GPa) = 37.77250 61.81863 49.79557
# Shear Modulus (GPa) = 0.69503 19.59346 10.14424
#
# Velocity S-wave (km/s) = 0.60539 3.21433 2.31284
# Velocity P-wave (km/s) = 4.51738 6.80984 5.77843
#
# Compressibility (1/GPa) = 0.02647429
#
# Stress axis : x y z
#
# Youngs Moduli (GPa) = 86.94158 30.29589 69.15828
#
# Poissons Ratio (x) = 0.18396 0.42973
# Poissons Ratio (y) = 0.52793 0.27398
# Poissons Ratio (z) = 0.54023 0.12002
#
# Static dielectric constant tensor:
#      x y z
#    x 3.746290 0.000000 0.000000 
#    y 0.000000 2.840220 0.000000 
#    z 0.000000 0.000000 3.716940 
# 
# 
# High freq. dielectric constant tensor:
#      x y z
#    x 1.748610 0.000000 0.000000 
#    y 0.000000 1.664350 0.000000 
#    z 0.000000 0.000000 1.749830 
# 
# From -- ./inp_files/34081.got.cif
#   From: 2010.03.12/outbox.cif.g09.slc.cpg/sg51_18_cif.got.tgz:34081.got - 2010.04.16 13:43:02.
