data_PCOD8208384
_publ_section_title
;
Structure prediction by ZEFSAII (Michael W. Deem and Ramdas Pophale) SiO2 
 PCOD8208384
Probable space group: P M M A
;
_chemical_formula_sum "Si O2"
_cell_formula_units_Z 64
_cell_length_a 19.614975
_cell_length_b 9.142064
_cell_length_c 19.622859
_cell_angle_alpha 90.000000
_cell_angle_beta 90.000000
_cell_angle_gamma 90.000000
_cell_volume 3518.797700
_symmetry_space_group_name_H-M "P M M A"
_symmetry_group_IT_number 51
_symmetry_cell_setting 'orthorhombic'
loop_
_space_group_symop_operation_xyz
x,y,z
1/2-x,-y,z
1/2+x,-y,-z
-x,y,-z
-x,-y,-z
1/2+x,y,-z
1/2-x,y,z
x,-y,z
loop_
_atom_site_type_symbol
_atom_site_label
_atom_site_fract_x
_atom_site_fract_y
_atom_site_fract_z
Si Si1 0.827588 0.332039 0.397178
Si Si2 0.577201 0.334566 0.025058
Si Si3 0.112943 0.169029 0.102836
Si Si4 0.910851 0.329966 0.650013
Si Si5 0.039203 0.169774 0.846913
Si Si6 0.327760 0.172418 0.464622
Si Si7 0.326915 0.665150 0.221131
Si Si8 0.944182 0.330985 0.293545
O O1 0.750000 0.304747 0.373186
O O2 0.839125 0.500000 0.419016
O O3 0.846489 0.231817 0.461036
O O4 0.876310 0.289657 0.334740
O O5 0.603797 0.500000 0.032784
O O6 0.585163 0.253699 0.097431
O O7 0.500000 0.330324 0.000000
O O8 0.622314 0.250746 0.969072
O O9 0.167753 0.233205 0.155086
O O10 0.039438 0.196639 0.135904
O O11 0.127711 0.000000 0.089831
O O12 0.894659 0.500000 0.637097
O O13 0.881557 0.238770 0.587656
O O14 0.874877 0.274668 0.719050
O O15 0.991238 0.299514 0.657554
O O16 0.054977 0.230841 0.772656
O O17 0.058472 0.000000 0.849582
O O18 0.250000 0.216971 0.445220
O O19 0.336784 0.000000 0.465025
O O20 0.250000 0.670374 0.248385
O O21 0.348750 0.500000 0.201183
O O22 0.944910 0.500000 0.270231
#
# Coordination Sequence:
#
# PCOD8208384 Si02
#       8
#     8   8   8   8   8   8   8   8
#     4   9  19  37  59  80 102 132 172 215 261 316
#     4   9  17  29  49  73  99 133 172 213 255 303
#     4  10  19  31  48  72 103 136 172 216 263 309
#     4  10  20  34  53  76 105 138 176 219 261 309
#     4  10  19  31  49  76 108 137 167 210 264 314
#     4  10  21  36  54  76 104 139 177 216 259 310
#     4  10  20  33  50  72 101 141 183 218 258 311
#     4  10  20  34  55  80 106 137 173 216 264 315
#
# _framework density 18.188030999999999
#
# number of rings (size 3 to 8) (size 9 to 14) (size 15 to 20)
#    0.000    2.250    1.250    1.875    0.000    6.000 
#    0.000    2.500    0.000    0.750    0.000    1.750 
#    0.000    0.000    0.000    0.000    0.000    0.000 
#
# Total GULP energy -793771.715957 kJ/mol
# GULP energy per Si atom -12402.683062 kJ/mol
# Density = 1.814663 g / cm^3
# Si number density = 18.188031 Si / 1000 Ang^3
#
#
#
# Elastic Constant Matrix: (Units=GPa)
#
#
# Indices 1 2 3 4 5 6 
#
# 1 68.9811 37.2973 46.1516 0.0000 0.0000 0.0000
# 2 37.2973 102.2306 70.1302 0.0000 0.0000 0.0000
# 3 46.1516 70.1302 116.2023 0.0000 0.0000 0.0000
# 4 0.0000 0.0000 0.0000 25.7620 0.0000 0.0000
# 5 0.0000 0.0000 0.0000 0.0000 23.5523 0.0000
# 6 0.0000 0.0000 0.0000 0.0000 0.0000 16.8319
#
#
#
# Elastic Compliance Matrix: (Units=1/GPa)
#
#
# Indices 1 2 3 4 5 6 
#
# 1 0.020341 -0.003207 -0.006143 0.000000 0.000000 0.000000
# 2 -0.003207 0.017198 -0.009106 0.000000 0.000000 0.000000
# 3 -0.006143 -0.009106 0.016541 0.000000 0.000000 0.000000
# 4 0.000000 0.000000 0.000000 0.038817 0.000000 0.000000
# 5 0.000000 0.000000 0.000000 0.000000 0.042459 0.000000
# 6 0.000000 0.000000 0.000000 0.000000 0.000000 0.059411
#
#
# Mechanical properties :
#
#
# Convention : Reuss Voigt Hill
#
# Bulk Modulus (GPa) = 58.24666 66.06357 62.15512
# Shear Modulus (GPa) = 21.06137 22.15159 21.60648
#
# Velocity S-wave (km/s) = 3.40660 3.49366 3.45041
# Velocity P-wave (km/s) = 6.89692 7.25780 7.07966
#
# Compressibility (1/GPa) = 0.01716837
#
# Stress axis : x y z
#
# Youngs Moduli (GPa) = 49.16244 58.14493 60.45497
#
# Poissons Ratio (x) = 0.18645 0.37140
# Poissons Ratio (y) = 0.15765 0.55050
# Poissons Ratio (z) = 0.30202 0.52947
#
# Static dielectric constant tensor:
#      x y z
#    x 3.182970 0.000000 0.000000 
#    y 0.000000 3.375900 0.000000 
#    z 0.000000 0.000000 3.306690 
# 
# 
# High freq. dielectric constant tensor:
#      x y z
#    x 1.678450 0.000000 0.000000 
#    y 0.000000 1.708800 0.000000 
#    z 0.000000 0.000000 1.705430 
# 
# From -- ./inp_files/30543.got.cif
#   From: 2010.03.12/outbox.cif.g09.slc.cpg/sg51_16_cif.got.tgz:30543.got - 2010.04.16 13:43:02.
