data_PCOD8208416
_publ_section_title
;
Structure prediction by ZEFSAII (Michael W. Deem and Ramdas Pophale) SiO2 
 PCOD8208416
Probable space group: P M M A
;
_chemical_formula_sum "Si O2"
_cell_formula_units_Z 64
_cell_length_a 9.196327
_cell_length_b 19.106858
_cell_length_c 20.866103
_cell_angle_alpha 90.000000
_cell_angle_beta 90.000000
_cell_angle_gamma 90.000000
_cell_volume 3666.443764
_symmetry_space_group_name_H-M "P M M A"
_symmetry_group_IT_number 51
_symmetry_cell_setting 'orthorhombic'
loop_
_space_group_symop_operation_xyz
x,y,z
1/2-x,-y,z
1/2+x,-y,-z
-x,y,-z
-x,-y,-z
1/2+x,y,-z
1/2-x,y,z
x,-y,z
loop_
_atom_site_type_symbol
_atom_site_label
_atom_site_fract_x
_atom_site_fract_y
_atom_site_fract_z
Si Si1 0.590043 0.341825 0.058062
Si Si2 0.581183 0.816472 0.675020
Si Si3 0.584317 0.174683 0.061774
Si Si4 0.583908 0.320627 0.192531
Si Si5 0.580060 0.920321 0.563127
Si Si6 0.582915 0.818806 0.816466
Si Si7 0.082741 0.671436 0.666613
Si Si8 0.418740 0.418112 0.436170
O O1 0.750000 0.363772 0.038545
O O2 0.570249 0.258314 0.062323
O O3 0.551702 0.370242 0.130092
O O4 0.500000 0.375389 0.000000
O O5 0.750000 0.793914 0.666649
O O6 0.533123 0.874332 0.623806
O O7 0.558977 0.851865 0.745569
O O8 0.478320 0.749943 0.664086
O O9 0.750000 0.149110 0.058429
O O10 0.512218 0.144719 0.127469
O O11 0.500000 0.144181 0.000000
O O12 0.750000 0.290068 0.184317
O O13 0.462700 0.261284 0.192378
O O14 0.572855 0.359775 0.260743
O O15 0.500000 0.891361 0.500000
O O16 0.750000 0.914515 0.549911
O O17 0.532632 0.000000 0.577417
O O18 0.750000 0.822674 0.838285
O O19 0.250000 0.672087 0.643097
O O20 0.986851 0.620967 0.623796
O O21 0.500000 0.392431 0.500000
O O22 0.250000 0.398604 0.442632
O O23 0.442769 0.500000 0.425138
#
# Coordination Sequence:
#
# PCOD8208416 Si02
#       8
#     8   8   8   8   8   8   8   8
#     4   8  13  20  30  46  71 104 141 176 209 249
#     4   9  18  31  46  66  94 125 156 191 231 277
#     4   9  15  22  32  48  73 106 143 180 217 262
#     4   8  15  26  37  53  81 115 147 180 219 262
#     4   9  18  33  51  69  90 118 152 190 231 274
#     4   9  15  23  36  54  78 110 145 181 222 265
#     4  10  19  31  49  71  95 124 156 190 229 273
#     4  10  21  37  55  73  94 120 150 186 228 274
#
# _framework density 17.455606
#
# number of rings (size 3 to 8) (size 9 to 14) (size 15 to 20)
#    0.000    3.000    0.000    2.250    0.000    5.750 
#    0.000    1.250    0.000    0.000    0.000    0.000 
#    0.000    1.000    0.000    2.000    0.000    8.750 
#
# Total GULP energy -792973.283130 kJ/mol
# GULP energy per Si atom -12390.207549 kJ/mol
# Density = 1.741588 g / cm^3
# Si number density = 17.455606 Si / 1000 Ang^3
#
#
#
# Elastic Constant Matrix: (Units=GPa)
#
#
# Indices 1 2 3 4 5 6 
#
# 1 106.3769 26.7076 78.8852 0.0000 0.0000 0.0000
# 2 26.7076 25.8180 39.5050 0.0000 0.0000 0.0000
# 3 78.8852 39.5050 179.0952 0.0000 0.0000 0.0000
# 4 0.0000 0.0000 0.0000 -1.0511 0.0000 0.0000
# 5 0.0000 0.0000 0.0000 0.0000 35.4038 0.0000
# 6 0.0000 0.0000 0.0000 0.0000 0.0000 13.0298
#
#
#
# Elastic Compliance Matrix: (Units=1/GPa)
#
#
# Indices 1 2 3 4 5 6 
#
# 1 0.015023 -0.008174 -0.004814 0.000000 0.000000 0.000000
# 2 -0.008174 0.062914 -0.010277 0.000000 0.000000 0.000000
# 3 -0.004814 -0.010277 0.009971 0.000000 0.000000 0.000000
# 4 0.000000 0.000000 0.000000 -0.951363 0.000000 0.000000
# 5 0.000000 0.000000 0.000000 0.000000 0.028246 0.000000
# 6 0.000000 0.000000 0.000000 0.000000 0.000000 0.076747
#
#
# Mechanical properties :
#
#
# Convention : Reuss Voigt Hill
#
# Bulk Modulus (GPa) = 24.16807 66.83175 45.49991
# Shear Modulus (GPa) = -7.16190 20.55598 6.69704
#
# Velocity S-wave (km/s) = -2.02776 3.43536 1.96085
# Velocity P-wave (km/s) = 2.89708 7.35564 5.59010
#
# Compressibility (1/GPa) = 0.04137691
#
# Stress axis : x y z
#
# Youngs Moduli (GPa) = 66.56640 15.89467 100.29211
#
# Poissons Ratio (x) = 0.12993 0.48279
# Poissons Ratio (y) = 0.54414 1.03071
# Poissons Ratio (z) = 0.32044 0.16335
#
# Static dielectric constant tensor:
#      x y z
#    x 3.353370 0.000000 0.000000 
#    y 0.000000 2.609280 0.000000 
#    z 0.000000 0.000000 3.793710 
# 
# 
# High freq. dielectric constant tensor:
#      x y z
#    x 1.685630 0.000000 0.000000 
#    y 0.000000 1.592060 0.000000 
#    z 0.000000 0.000000 1.703300 
# 
# From -- ./inp_files/32310.got.cif
#   From: 2010.03.12/outbox.cif.g09.slc.cpg/sg51_17_cif.got.tgz:32310.got - 2010.04.16 13:43:02.
