data_PCOD8208278
_publ_section_title
;
Structure prediction by ZEFSAII (Michael W. Deem and Ramdas Pophale) SiO2 
 PCOD8208278
Probable space group: P M M A
;
_chemical_formula_sum "Si O2"
_cell_formula_units_Z 40
_cell_length_a 13.659811
_cell_length_b 8.593857
_cell_length_c 18.650205
_cell_angle_alpha 90.000000
_cell_angle_beta 90.000000
_cell_angle_gamma 90.000000
_cell_volume 2189.356188
_symmetry_space_group_name_H-M "P M M A"
_symmetry_group_IT_number 51
_symmetry_cell_setting 'orthorhombic'
loop_
_space_group_symop_operation_xyz
x,y,z
1/2-x,-y,z
1/2+x,-y,-z
-x,y,-z
-x,-y,-z
1/2+x,y,-z
1/2-x,y,z
x,-y,z
loop_
_atom_site_type_symbol
_atom_site_label
_atom_site_fract_x
_atom_site_fract_y
_atom_site_fract_z
Si Si1 0.536512 0.182265 0.105506
Si Si2 0.639153 0.681484 0.971633
Si Si3 0.857232 0.685202 0.538619
Si Si4 0.863364 0.316008 0.243313
Si Si5 0.051408 0.315212 0.607683
O O1 0.432334 0.265809 0.092230
O O2 0.576449 0.230909 0.182127
O O3 0.518731 0.000000 0.102708
O O4 0.614236 0.228930 0.044747
O O5 0.750000 0.720521 0.948773
O O6 0.624813 0.500000 0.987019
O O7 0.750000 0.750394 0.560341
O O8 0.856162 0.500000 0.536439
O O9 0.884450 0.746883 0.459115
O O10 0.938627 0.740765 0.596275
O O11 0.750000 0.270263 0.237450
O O12 0.878101 0.500000 0.236091
O O13 0.905389 0.249738 0.318311
O O14 0.056832 0.500000 0.609560
#
# Coordination Sequence:
#
# PCOD8208278 Si02
#       5
#     8   8   8   8   8
#     4  11  22  34  51  75 103 132 162 199 241 289
#     4  10  20  36  58  79  99 126 161 201 242 286
#     4   8  12  20  36  59  87 117 151 196 248 296
#     4  10  19  31  47  67  95 130 165 203 247 294
#     4   8  14  23  37  60  89 120 155 196 245 299
#
# _framework density 18.270212000000001
#
# number of rings (size 3 to 8) (size 9 to 14) (size 15 to 20)
#    0.000    2.600    0.000    6.000    0.000    6.800 
#    0.000    1.000    0.000    3.600    0.000    2.800 
#    0.000    1.600    0.000    0.000    0.000    0.000 
#
# Total GULP energy -495852.503430 kJ/mol
# GULP energy per Si atom -12396.312586 kJ/mol
# Density = 1.822863 g / cm^3
# Si number density = 18.270212 Si / 1000 Ang^3
#
#
#
# Elastic Constant Matrix: (Units=GPa)
#
#
# Indices 1 2 3 4 5 6 
#
# 1 151.1248 23.1110 51.3909 0.0000 0.0000 0.0000
# 2 23.1110 30.4592 15.5377 0.0000 0.0000 0.0000
# 3 51.3909 15.5377 104.5069 0.0000 0.0000 0.0000
# 4 0.0000 0.0000 0.0000 -3.8276 0.0000 0.0000
# 5 0.0000 0.0000 0.0000 0.0000 24.3427 0.0000
# 6 0.0000 0.0000 0.0000 0.0000 0.0000 4.9609
#
#
#
# Elastic Compliance Matrix: (Units=1/GPa)
#
#
# Indices 1 2 3 4 5 6 
#
# 1 0.008521 -0.004683 -0.003494 0.000000 0.000000 0.000000
# 2 -0.004683 0.038099 -0.003361 0.000000 0.000000 0.000000
# 3 -0.003494 -0.003361 0.011787 0.000000 0.000000 0.000000
# 4 0.000000 0.000000 0.000000 -0.261258 0.000000 0.000000
# 5 0.000000 0.000000 0.000000 0.000000 0.041080 0.000000
# 6 0.000000 0.000000 0.000000 0.000000 0.000000 0.201578
#
#
# Mechanical properties :
#
#
# Convention : Reuss Voigt Hill
#
# Bulk Modulus (GPa) = 28.30495 51.79668 40.05082
# Shear Modulus (GPa) = 66.96960 18.16528 42.56744
#
# Velocity S-wave (km/s) = 6.06091 3.15660 4.83212
# Velocity P-wave (km/s) = 8.03154 6.45735 7.28708
#
# Compressibility (1/GPa) = 0.03532951
#
# Stress axis : x y z
#
# Youngs Moduli (GPa) = 117.35119 26.24743 84.84124
#
# Poissons Ratio (x) = 0.12292 0.29644
# Poissons Ratio (y) = 0.54959 0.28519
# Poissons Ratio (z) = 0.41004 0.08823
#
# Static dielectric constant tensor:
#      x y z
#    x 3.726780 0.000000 0.000000 
#    y 0.000000 2.996660 0.000000 
#    z 0.000000 0.000000 3.416090 
# 
# 
# High freq. dielectric constant tensor:
#      x y z
#    x 1.721750 0.000000 0.000000 
#    y 0.000000 1.669540 0.000000 
#    z 0.000000 0.000000 1.696390 
# 
# From -- ./inp_files/29250.got.cif
#   From: 2010.03.12/outbox.cif.g09.slc.cpg/sg51_15_cif.got.tgz:29250.got - 2010.04.16 13:43:02.
