data_PCOD8208742
_publ_section_title
;
Structure prediction by ZEFSAII (Michael W. Deem and Ramdas Pophale) SiO2 
 PCOD8208742
Probable space group: P M M A
;
_chemical_formula_sum "Si O2"
_cell_formula_units_Z 64
_cell_length_a 9.140343
_cell_length_b 23.057982
_cell_length_c 19.167477
_cell_angle_alpha 90.000000
_cell_angle_beta 90.000000
_cell_angle_gamma 90.000000
_cell_volume 4039.696518
_symmetry_space_group_name_H-M "P M M A"
_symmetry_group_IT_number 51
_symmetry_cell_setting 'orthorhombic'
loop_
_space_group_symop_operation_xyz
x,y,z
1/2-x,-y,z
1/2+x,-y,-z
-x,y,-z
-x,-y,-z
1/2+x,y,-z
1/2-x,y,z
x,-y,z
loop_
_atom_site_type_symbol
_atom_site_label
_atom_site_fract_x
_atom_site_fract_y
_atom_site_fract_z
Si Si1 0.079939 0.433053 0.071025
Si Si2 0.417916 0.932624 0.295288
Si Si3 0.082038 0.751331 0.567412
Si Si4 0.080704 0.223647 0.928922
Si Si5 0.578430 0.156140 0.206862
Si Si6 0.079487 0.887765 0.569677
Si Si7 0.077578 0.338529 0.847513
Si Si8 0.576693 0.270100 0.282929
O O1 0.250000 0.418970 0.061933
O O2 0.052302 0.500000 0.089438
O O3 0.012403 0.395754 0.133480
O O4 0.000000 0.415144 0.000000
O O5 0.250000 0.913437 0.306375
O O6 0.486443 0.900115 0.228414
O O7 0.508969 0.919138 0.364579
O O8 0.429525 0.000000 0.277900
O O9 0.250000 0.736658 0.555415
O O10 0.055269 0.819344 0.577454
O O11 0.021575 0.719807 0.637691
O O12 0.000000 0.726332 0.500000
O O13 0.250000 0.227085 0.946408
O O14 0.048903 0.172198 0.873887
O O15 0.030658 0.285559 0.897672
O O16 0.000000 0.208806 0.000000
O O17 0.750000 0.144587 0.220109
O O18 0.517781 0.208980 0.254065
O O19 0.250000 0.903882 0.565484
O O20 0.000000 0.910743 0.500000
O O21 0.250000 0.351029 0.853035
O O22 0.030804 0.322654 0.768022
O O23 0.750000 0.264164 0.281945
#
# Coordination Sequence:
#
# PCOD8208742 Si02
#       8
#     8   8   8   8   8   8   8   8
#     4  10  20  32  45  63  92 129 165 197 226 259
#     4  11  23  35  47  66  90 114 145 187 229 270
#     4   9  16  27  44  65  90 119 148 179 216 263
#     4   9  18  30  48  72  96 118 144 181 227 273
#     4   9  17  33  51  66  86 116 149 179 219 274
#     4  10  19  32  50  68  89 118 150 184 220 264
#     4   9  17  29  47  69  94 123 155 190 223 263
#     4   8  14  28  47  66  90 119 148 182 226 267
#
# _framework density 15.842774
#
# number of rings (size 3 to 8) (size 9 to 14) (size 15 to 20)
#    0.000    2.625    1.250    3.000    0.000    4.500 
#    0.000    2.500    0.000    0.375    0.000    0.000 
#    0.000    0.500    0.000    1.125    0.000    2.000 
#
# Total GULP energy -793437.689074 kJ/mol
# GULP energy per Si atom -12397.463892 kJ/mol
# Density = 1.580672 g / cm^3
# Si number density = 15.842774 Si / 1000 Ang^3
#
#
#
# Elastic Constant Matrix: (Units=GPa)
#
#
# Indices 1 2 3 4 5 6 
#
# 1 76.4605 42.3177 53.1715 0.0000 0.0000 0.0000
# 2 42.3177 63.6416 50.8681 0.0000 0.0000 0.0000
# 3 53.1715 50.8681 133.6352 0.0000 0.0000 0.0000
# 4 0.0000 0.0000 0.0000 24.5398 0.0000 0.0000
# 5 0.0000 0.0000 0.0000 0.0000 29.6777 0.0000
# 6 0.0000 0.0000 0.0000 0.0000 0.0000 23.0003
#
#
#
# Elastic Compliance Matrix: (Units=1/GPa)
#
#
# Indices 1 2 3 4 5 6 
#
# 1 0.022575 -0.011256 -0.004698 0.000000 0.000000 0.000000
# 2 -0.011256 0.028197 -0.006254 0.000000 0.000000 0.000000
# 3 -0.004698 -0.006254 0.011733 0.000000 0.000000 0.000000
# 4 0.000000 0.000000 0.000000 0.040750 0.000000 0.000000
# 5 0.000000 0.000000 0.000000 0.000000 0.033695 0.000000
# 6 0.000000 0.000000 0.000000 0.000000 0.000000 0.043478
#
#
# Mechanical properties :
#
#
# Convention : Reuss Voigt Hill
#
# Bulk Modulus (GPa) = 55.28442 62.93910 59.11176
# Shear Modulus (GPa) = 21.65679 23.93558 22.79618
#
# Velocity S-wave (km/s) = 3.70128 3.89114 3.79740
# Velocity P-wave (km/s) = 7.29640 7.74607 7.52459
#
# Compressibility (1/GPa) = 0.01808828
#
# Stress axis : x y z
#
# Youngs Moduli (GPa) = 44.29593 35.46498 85.23034
#
# Poissons Ratio (x) = 0.39921 0.40039
# Poissons Ratio (y) = 0.49861 0.53306
# Poissons Ratio (z) = 0.20809 0.22181
#
# Static dielectric constant tensor:
#      x y z
#    x 2.967930 0.000000 0.000000 
#    y 0.000000 2.773120 0.000000 
#    z 0.000000 0.000000 3.228570 
# 
# 
# High freq. dielectric constant tensor:
#      x y z
#    x 1.604030 0.000000 0.000000 
#    y 0.000000 1.573150 0.000000 
#    z 0.000000 0.000000 1.610840 
# 
# From -- ./inp_files/32605.got.cif
#   From: 2010.03.12/outbox.cif.g09.slc.cpg/sg51_17_cif.got.tgz:32605.got - 2010.04.16 13:43:02.
