data_PCOD8208608
_publ_section_title
;
Structure prediction by ZEFSAII (Michael W. Deem and Ramdas Pophale) SiO2 
 PCOD8208608
Probable space group: P M M A
;
_chemical_formula_sum "Si O2"
_cell_formula_units_Z 48
_cell_length_a 19.181165
_cell_length_b 7.954525
_cell_length_c 14.871960
_cell_angle_alpha 90.000000
_cell_angle_beta 90.000000
_cell_angle_gamma 90.000000
_cell_volume 2269.119882
_symmetry_space_group_name_H-M "P M M A"
_symmetry_group_IT_number 51
_symmetry_cell_setting 'orthorhombic'
loop_
_space_group_symop_operation_xyz
x,y,z
1/2-x,-y,z
1/2+x,-y,-z
-x,y,-z
-x,-y,-z
1/2+x,y,-z
1/2-x,y,z
x,-y,z
loop_
_atom_site_type_symbol
_atom_site_label
_atom_site_fract_x
_atom_site_fract_y
_atom_site_fract_z
Si Si1 0.670778 0.500000 0.692876
Si Si2 0.420177 0.699398 0.010491
Si Si3 0.673410 0.699282 0.149993
Si Si4 0.170719 0.190860 0.175073
Si Si5 0.032903 0.500000 0.399370
Si Si6 0.672232 0.698533 0.352141
Si Si7 0.466920 0.821134 0.597356
O O1 0.750000 0.500000 0.655395
O O2 0.655760 0.669189 0.749171
O O3 0.617059 0.500000 0.608092
O O4 0.412792 0.500000 0.021965
O O5 0.382425 0.768110 0.920854
O O6 0.500000 0.755292 0.000000
O O7 0.384286 0.786829 0.095242
O O8 0.750000 0.769087 0.124209
O O9 0.675185 0.500000 0.147665
O O10 0.654152 0.757242 0.250593
O O11 0.250000 0.218011 0.139318
O O12 0.162493 0.000000 0.213677
O O13 0.000000 0.500000 0.500000
O O14 0.002886 0.333651 0.348664
O O15 0.750000 0.757579 0.379241
O O16 0.665693 0.500000 0.362565
O O17 0.615804 0.788604 0.415462
O O18 0.500000 0.830704 0.500000
O O19 0.479627 0.000000 0.647036
#
# Coordination Sequence:
#
# PCOD8208608 Si02
#       7
#     4   8   8   8   4   8   8
#     4  10  22  42  67  91 118 157 204 255 311 364
#     4  10  19  31  50  83 122 161 204 249 300 355
#     4   8  15  28  48  73 108 154 197 240 290 342
#     4  10  21  38  61  88 118 158 210 261 305 354
#     4  10  22  42  64  89 122 151 188 241 295 366
#     4   9  17  32  55  85 116 155 206 252 295 351
#     4  10  21  38  60  87 120 156 191 235 301 371
#
# _framework density 21.153575
#
# number of rings (size 3 to 8) (size 9 to 14) (size 15 to 20)
#    0.000    2.500    1.667    1.500    0.000    3.333 
#    0.000    4.167    0.000    2.000    0.000    0.000 
#    0.000    0.000    0.000    0.000    0.000    0.000 
#
# Total GULP energy -594721.254497 kJ/mol
# GULP energy per Si atom -12390.026135 kJ/mol
# Density = 2.110543 g / cm^3
# Si number density = 21.153575 Si / 1000 Ang^3
#
#
#
# Elastic Constant Matrix: (Units=GPa)
#
#
# Indices 1 2 3 4 5 6 
#
# 1 185.6219 52.6436 68.8549 0.0000 0.0000 0.0000
# 2 52.6436 134.3044 20.3320 0.0000 0.0000 0.0000
# 3 68.8549 20.3320 66.6829 0.0000 0.0000 0.0000
# 4 0.0000 0.0000 0.0000 0.2385 0.0000 0.0000
# 5 0.0000 0.0000 0.0000 0.0000 39.8986 0.0000
# 6 0.0000 0.0000 0.0000 0.0000 0.0000 10.1283
#
#
#
# Elastic Compliance Matrix: (Units=1/GPa)
#
#
# Indices 1 2 3 4 5 6 
#
# 1 0.009372 -0.002315 -0.008971 0.000000 0.000000 0.000000
# 2 -0.002315 0.008378 -0.000164 0.000000 0.000000 0.000000
# 3 -0.008971 -0.000164 0.024309 0.000000 0.000000 0.000000
# 4 0.000000 0.000000 0.000000 4.193181 0.000000 0.000000
# 5 0.000000 0.000000 0.000000 0.000000 0.025064 0.000000
# 6 0.000000 0.000000 0.000000 0.000000 0.000000 0.098733
#
#
# Mechanical properties :
#
#
# Convention : Reuss Voigt Hill
#
# Bulk Modulus (GPa) = 52.19463 74.47448 63.33455
# Shear Modulus (GPa) = 1.13939 26.37166 13.75553
#
# Velocity S-wave (km/s) = 0.73471 3.53466 2.55280
# Velocity P-wave (km/s) = 5.04454 7.20704 6.22049
#
# Compressibility (1/GPa) = 0.01915906
#
# Stress axis : x y z
#
# Youngs Moduli (GPa) = 106.70510 119.35855 41.13635
#
# Poissons Ratio (x) = 0.27635 0.36903
# Poissons Ratio (y) = 0.24706 0.00674
# Poissons Ratio (z) = 0.95724 0.01955
#
# Static dielectric constant tensor:
#      x y z
#    x 4.596420 0.000000 0.000000 
#    y 0.000000 4.956830 0.000000 
#    z 0.000000 0.000000 3.458130 
# 
# 
# High freq. dielectric constant tensor:
#      x y z
#    x 1.841850 0.000000 0.000000 
#    y 0.000000 1.827730 0.000000 
#    z 0.000000 0.000000 1.786140 
# 
# From -- ./inp_files/24967.got.cif
#   From: 2010.03.12/outbox.cif.g09.slc.cpg/sg51_13_cif.got.tgz:24967.got - 2010.04.16 13:43:02.
