data_PCOD8208252
_publ_section_title
;
Structure prediction by ZEFSAII (Michael W. Deem and Ramdas Pophale) SiO2 
 PCOD8208252
Probable space group: P M M A
;
_chemical_formula_sum "Si O2"
_cell_formula_units_Z 64
_cell_length_a 28.500873
_cell_length_b 8.926530
_cell_length_c 15.545637
_cell_angle_alpha 90.000000
_cell_angle_beta 90.000000
_cell_angle_gamma 90.000000
_cell_volume 3955.026104
_symmetry_space_group_name_H-M "P M M A"
_symmetry_group_IT_number 51
_symmetry_cell_setting 'orthorhombic'
loop_
_space_group_symop_operation_xyz
x,y,z
1/2-x,-y,z
1/2+x,-y,-z
-x,y,-z
-x,-y,-z
1/2+x,y,-z
1/2-x,y,z
x,-y,z
loop_
_atom_site_type_symbol
_atom_site_label
_atom_site_fract_x
_atom_site_fract_y
_atom_site_fract_z
Si Si1 0.305329 0.826630 0.315978
Si Si2 0.353293 0.177731 0.830921
Si Si3 0.948336 0.822608 0.093987
Si Si4 0.194246 0.668710 0.488329
Si Si5 0.304672 0.825590 0.004462
Si Si6 0.357906 0.676986 0.159665
Si Si7 0.695501 0.175867 0.339615
Si Si8 0.947962 0.177377 0.898413
O O1 0.250000 0.801890 0.305411
O O2 0.323646 0.764181 0.407176
O O3 0.330612 0.736364 0.241746
O O4 0.318863 0.000000 0.309505
O O5 0.406353 0.239226 0.845762
O O6 0.332804 0.242328 0.742002
O O7 0.352937 0.000000 0.824888
O O8 0.320326 0.227826 0.909877
O O9 0.999295 0.772293 0.129369
O O10 0.947075 0.000000 0.091374
O O11 0.939834 0.768350 0.996436
O O12 0.250000 0.670922 0.490274
O O13 0.174850 0.500000 0.480983
O O14 0.175234 0.742973 0.575884
O O15 0.250000 0.794143 0.015534
O O16 0.332445 0.730339 0.073715
O O17 0.316855 0.000000 0.019053
O O18 0.358498 0.500000 0.162772
O O19 0.411100 0.738290 0.162299
O O20 0.750000 0.212318 0.324426
O O21 0.687522 0.000000 0.351881
O O22 0.940977 0.000000 0.888636
#
# Coordination Sequence:
#
# PCOD8208252 Si02
#       8
#     8   8   8   8   8   8   8   8
#     4  10  20  34  52  71  91 119 157 197 232 272
#     4   9  15  26  46  71  94 119 158 200 233 268
#     4   8  14  26  49  72  88 114 156 206 246 271
#     4   9  17  30  47  67  93 123 153 189 232 274
#     4  10  19  31  47  65  90 127 166 198 227 265
#     4  12  23  32  44  66  96 128 156 189 235 284
#     4   9  16  26  43  68  96 125 157 191 225 267
#     4   9  16  30  50  68  87 117 159 202 241 280
#
# _framework density 16.181941999999999
#
# number of rings (size 3 to 8) (size 9 to 14) (size 15 to 20)
#    0.000    2.500    1.250    3.375    0.000    5.500 
#    0.000    1.875    0.000    1.500    0.000    0.875 
#    0.000    7.000    0.000    0.000    0.000    0.000 
#
# Total GULP energy -793431.868898 kJ/mol
# GULP energy per Si atom -12397.372952 kJ/mol
# Density = 1.614511 g / cm^3
# Si number density = 16.181942 Si / 1000 Ang^3
#
#
#
# Elastic Constant Matrix: (Units=GPa)
#
#
# Indices 1 2 3 4 5 6 
#
# 1 75.0033 39.0944 36.0340 0.0000 0.0000 0.0000
# 2 39.0944 73.0317 43.3193 0.0000 0.0000 0.0000
# 3 36.0340 43.3193 101.9315 0.0000 0.0000 0.0000
# 4 0.0000 0.0000 0.0000 2.1693 0.0000 0.0000
# 5 0.0000 0.0000 0.0000 0.0000 7.2079 0.0000
# 6 0.0000 0.0000 0.0000 0.0000 0.0000 10.0657
#
#
#
# Elastic Compliance Matrix: (Units=1/GPa)
#
#
# Indices 1 2 3 4 5 6 
#
# 1 0.019264 -0.008387 -0.003246 0.000000 0.000000 0.000000
# 2 -0.008387 0.021959 -0.006367 0.000000 0.000000 0.000000
# 3 -0.003246 -0.006367 0.013664 0.000000 0.000000 0.000000
# 4 0.000000 0.000000 0.000000 0.460971 0.000000 0.000000
# 5 0.000000 0.000000 0.000000 0.000000 0.138737 0.000000
# 6 0.000000 0.000000 0.000000 0.000000 0.000000 0.099347
#
#
# Mechanical properties :
#
#
# Convention : Reuss Voigt Hill
#
# Bulk Modulus (GPa) = 52.94681 54.09576 53.52128
# Shear Modulus (GPa) = 6.27953 12.65650 9.46802
#
# Velocity S-wave (km/s) = 1.97206 2.79971 2.42150
# Velocity P-wave (km/s) = 6.16247 6.62974 6.40037
#
# Compressibility (1/GPa) = 0.01888688
#
# Stress axis : x y z
#
# Youngs Moduli (GPa) = 51.91156 45.53925 73.18526
#
# Poissons Ratio (x) = 0.38193 0.23753
# Poissons Ratio (y) = 0.43537 0.46600
# Poissons Ratio (z) = 0.16849 0.28997
#
# Static dielectric constant tensor:
#      x y z
#    x 3.219360 0.000000 0.000000 
#    y 0.000000 2.894470 0.000000 
#    z 0.000000 0.000000 3.186530 
# 
# 
# High freq. dielectric constant tensor:
#      x y z
#    x 1.607040 0.000000 0.000000 
#    y 0.000000 1.601430 0.000000 
#    z 0.000000 0.000000 1.614030 
# 
# From -- ./inp_files/26590.got.cif
#   From: 2010.03.12/outbox.cif.g09.slc.cpg/sg51_14_cif.got.tgz:26590.got - 2010.04.16 13:43:02.
