data_PCOD8208128
_publ_section_title
;
Structure prediction by ZEFSAII (Michael W. Deem and Ramdas Pophale) SiO2 
 PCOD8208128
Probable space group: P M M A
;
_chemical_formula_sum "Si O2"
_cell_formula_units_Z 64
_cell_length_a 18.715411
_cell_length_b 9.121233
_cell_length_c 21.390647
_cell_angle_alpha 90.000000
_cell_angle_beta 90.000000
_cell_angle_gamma 90.000000
_cell_volume 3651.546534
_symmetry_space_group_name_H-M "P M M A"
_symmetry_group_IT_number 51
_symmetry_cell_setting 'orthorhombic'
loop_
_space_group_symop_operation_xyz
x,y,z
1/2-x,-y,z
1/2+x,-y,-z
-x,y,-z
-x,-y,-z
1/2+x,y,-z
1/2-x,y,z
x,-y,z
loop_
_atom_site_type_symbol
_atom_site_label
_atom_site_fract_x
_atom_site_fract_y
_atom_site_fract_z
Si Si1 0.072327 0.670040 0.802991
Si Si2 0.420411 0.171109 0.020235
Si Si3 0.415089 0.328337 0.147565
Si Si4 0.472532 0.838926 0.690052
Si Si5 0.167006 0.830379 0.899678
Si Si6 0.037575 0.173546 0.436150
Si Si7 0.170126 0.669298 0.382927
Si Si8 0.631713 0.163457 0.737815
O O1 0.087450 0.500000 0.798472
O O2 0.075304 0.731149 0.731941
O O3 0.135558 0.741723 0.841951
O O4 0.997447 0.705863 0.836275
O O5 0.397337 0.265234 0.079738
O O6 0.413821 0.000000 0.037092
O O7 0.500000 0.212615 0.000000
O O8 0.368169 0.219027 0.964628
O O9 0.398980 0.500000 0.149291
O O10 0.362186 0.249409 0.196623
O O11 0.483173 0.779240 0.619381
O O12 0.549647 0.850492 0.720493
O O13 0.436354 0.000000 0.689157
O O14 0.250000 0.795609 0.904417
O O15 0.150511 0.000000 0.887148
O O16 0.113785 0.254117 0.429571
O O17 0.000000 0.222190 0.500000
O O18 0.052501 0.000000 0.433107
O O19 0.250000 0.682665 0.411787
O O20 0.147891 0.500000 0.374194
O O21 0.172318 0.745846 0.315323
O O22 0.665105 0.000000 0.744097
#
# Coordination Sequence:
#
# PCOD8208128 Si02
#       8
#     8   8   8   8   8   8   8   8
#     4  10  19  30  48  73  98 124 158 202 248 298
#     4  10  19  32  51  72  94 126 170 214 253 305
#     4  10  19  30  48  74 101 127 161 207 256 303
#     4   8  15  28  48  73 100 127 158 201 246 289
#     4  10  21  36  52  70  94 125 162 207 260 312
#     4   9  18  33  54  81 110 141 180 221 257 299
#     4  10  20  33  50  75 108 143 178 216 262 316
#     4   9  17  30  49  72  98 130 168 208 250 296
#
# _framework density 17.526820000000001
#
# number of rings (size 3 to 8) (size 9 to 14) (size 15 to 20)
#    0.000    2.500    1.250    2.250    0.000    6.250 
#    0.000    0.625    0.000    3.000    0.000    1.750 
#    0.000    0.000    0.000    0.000    0.000    0.000 
#
# Total GULP energy -793540.149282 kJ/mol
# GULP energy per Si atom -12399.064833 kJ/mol
# Density = 1.748693 g / cm^3
# Si number density = 17.526820 Si / 1000 Ang^3
#
#
#
# Elastic Constant Matrix: (Units=GPa)
#
#
# Indices 1 2 3 4 5 6 
#
# 1 74.8625 47.7807 54.6510 0.0000 0.0000 0.0000
# 2 47.7807 92.3276 62.4222 0.0000 0.0000 0.0000
# 3 54.6510 62.4222 146.1149 0.0000 0.0000 0.0000
# 4 0.0000 0.0000 0.0000 18.6540 0.0000 0.0000
# 5 0.0000 0.0000 0.0000 0.0000 17.6046 0.0000
# 6 0.0000 0.0000 0.0000 0.0000 0.0000 20.0703
#
#
#
# Elastic Compliance Matrix: (Units=1/GPa)
#
#
# Indices 1 2 3 4 5 6 
#
# 1 0.022061 -0.008209 -0.004744 0.000000 0.000000 0.000000
# 2 -0.008209 0.018285 -0.004741 0.000000 0.000000 0.000000
# 3 -0.004744 -0.004741 0.010644 0.000000 0.000000 0.000000
# 4 0.000000 0.000000 0.000000 0.053608 0.000000 0.000000
# 5 0.000000 0.000000 0.000000 0.000000 0.056803 0.000000
# 6 0.000000 0.000000 0.000000 0.000000 0.000000 0.049825
#
#
# Mechanical properties :
#
#
# Convention : Reuss Voigt Hill
#
# Bulk Modulus (GPa) = 64.10090 71.44588 67.77339
# Shear Modulus (GPa) = 19.85591 21.16251 20.50921
#
# Velocity S-wave (km/s) = 3.36949 3.47859 3.42447
# Velocity P-wave (km/s) = 7.19655 7.54893 7.37485
#
# Compressibility (1/GPa) = 0.01560041
#
# Stress axis : x y z
#
# Youngs Moduli (GPa) = 45.32960 54.69051 93.95103
#
# Poissons Ratio (x) = 0.44896 0.44573
# Poissons Ratio (y) = 0.37212 0.44542
# Poissons Ratio (z) = 0.21506 0.25929
#
# Static dielectric constant tensor:
#      x y z
#    x 2.972460 0.000000 0.000000 
#    y 0.000000 3.335180 0.000000 
#    z 0.000000 0.000000 3.361590 
# 
# 
# High freq. dielectric constant tensor:
#      x y z
#    x 1.644170 0.000000 0.000000 
#    y 0.000000 1.683330 0.000000 
#    z 0.000000 0.000000 1.673750 
# 
# From -- ./inp_files/33816.got.cif
#   From: 2010.03.12/outbox.cif.g09.slc.cpg/sg51_17_cif.got.tgz:33816.got - 2010.04.16 13:43:02.
