data_PCOD8208210
_publ_section_title
;
Structure prediction by ZEFSAII (Michael W. Deem and Ramdas Pophale) SiO2 
 PCOD8208210
Probable space group: P M M A
;
_chemical_formula_sum "Si O2"
_cell_formula_units_Z 56
_cell_length_a 14.111443
_cell_length_b 15.555700
_cell_length_c 14.429271
_cell_angle_alpha 90.000000
_cell_angle_beta 90.000000
_cell_angle_gamma 90.000000
_cell_volume 3167.417960
_symmetry_space_group_name_H-M "P M M A"
_symmetry_group_IT_number 51
_symmetry_cell_setting 'orthorhombic'
loop_
_space_group_symop_operation_xyz
x,y,z
1/2-x,-y,z
1/2+x,-y,-z
-x,y,-z
-x,-y,-z
1/2+x,y,-z
1/2-x,y,z
x,-y,z
loop_
_atom_site_type_symbol
_atom_site_label
_atom_site_fract_x
_atom_site_fract_y
_atom_site_fract_z
Si Si1 0.144827 0.897764 0.148186
Si Si2 0.637629 0.095376 0.050861
Si Si3 0.539345 0.901335 0.669134
Si Si4 0.646248 0.683722 0.360047
Si Si5 0.144082 0.845677 0.753205
Si Si6 0.031537 0.593408 0.395016
Si Si7 0.359752 0.244724 0.439087
O O1 0.250000 0.858688 0.161497
O O2 0.082888 0.866402 0.234463
O O3 0.150222 0.000000 0.146785
O O4 0.098562 0.868479 0.048577
O O5 0.750000 0.091706 0.037678
O O6 0.608495 0.151289 0.140061
O O7 0.597206 0.000000 0.070705
O O8 0.425907 0.895780 0.682957
O O9 0.578228 0.838622 0.588927
O O10 0.567502 0.000000 0.645191
O O11 0.750000 0.639696 0.372334
O O12 0.647305 0.745946 0.272295
O O13 0.565445 0.613800 0.339280
O O14 0.621949 0.739503 0.452100
O O15 0.250000 0.886623 0.743726
O O16 0.071723 0.500000 0.361916
O O17 0.000000 0.586284 0.500000
O O18 0.108149 0.669627 0.382048
O O19 0.250000 0.226525 0.417204
#
# Coordination Sequence:
#
# PCOD8208210 Si02
#       7
#     8   8   8   8   8   8   8
#     4   8  15  28  44  63  88 117 154 199 240 276
#     4   8  14  26  43  62  87 118 153 198 242 276
#     4  11  21  31  47  67  91 130 170 200 232 274
#     4   9  18  33  51  69  97 128 153 191 236 277
#     4  10  19  31  46  64  90 124 161 198 239 282
#     4   9  17  31  53  76  96 119 151 190 237 290
#     4  10  20  34  50  69  98 128 158 198 236 273
#
# _framework density 17.680015999999998
#
# number of rings (size 3 to 8) (size 9 to 14) (size 15 to 20)
#    0.000    2.714    1.429    1.714    0.000    2.857 
#    0.000    7.143    0.000    5.143    0.000    0.000 
#    0.000    2.286    0.000    7.286    0.000    0.286 
#
# Total GULP energy -693828.839201 kJ/mol
# GULP energy per Si atom -12389.800700 kJ/mol
# Density = 1.763978 g / cm^3
# Si number density = 17.680016 Si / 1000 Ang^3
#
#
#
# Elastic Constant Matrix: (Units=GPa)
#
#
# Indices 1 2 3 4 5 6 
#
# 1 55.6323 18.0920 10.6418 0.0000 0.0000 0.0000
# 2 18.0920 75.7404 16.4087 0.0000 0.0000 0.0000
# 3 10.6418 16.4087 45.5620 0.0000 0.0000 0.0000
# 4 0.0000 0.0000 0.0000 2.4602 0.0000 0.0000
# 5 0.0000 0.0000 0.0000 0.0000 21.3881 0.0000
# 6 0.0000 0.0000 0.0000 0.0000 0.0000 17.5699
#
#
#
# Elastic Compliance Matrix: (Units=1/GPa)
#
#
# Indices 1 2 3 4 5 6 
#
# 1 0.019906 -0.004065 -0.003186 0.000000 0.000000 0.000000
# 2 -0.004065 0.015150 -0.004507 0.000000 0.000000 0.000000
# 3 -0.003186 -0.004507 0.024315 0.000000 0.000000 0.000000
# 4 0.000000 0.000000 0.000000 0.406475 0.000000 0.000000
# 5 0.000000 0.000000 0.000000 0.000000 0.046755 0.000000
# 6 0.000000 0.000000 0.000000 0.000000 0.000000 0.056916
#
#
# Mechanical properties :
#
#
# Convention : Reuss Voigt Hill
#
# Bulk Modulus (GPa) = 27.88819 29.69110 28.78965
# Shear Modulus (GPa) = 8.26468 17.06978 12.66723
#
# Velocity S-wave (km/s) = 2.16442 3.11060 2.67960
# Velocity P-wave (km/s) = 4.69621 5.45263 5.08849
#
# Compressibility (1/GPa) = 0.03585747
#
# Stress axis : x y z
#
# Youngs Moduli (GPa) = 50.23496 66.00514 41.12644
#
# Poissons Ratio (x) = 0.26830 0.13101
# Poissons Ratio (y) = 0.20420 0.18535
# Poissons Ratio (z) = 0.16003 0.29747
#
# Static dielectric constant tensor:
#      x y z
#    x 3.554010 0.000000 0.000000 
#    y 0.000000 3.113370 0.000000 
#    z 0.000000 0.000000 3.321520 
# 
# 
# High freq. dielectric constant tensor:
#      x y z
#    x 1.699660 0.000000 0.000000 
#    y 0.000000 1.632930 0.000000 
#    z 0.000000 0.000000 1.662020 
# 
# From -- ./inp_files/24260.got.cif
#   From: 2010.03.12/outbox.cif.g09.slc.cpg/sg51_13_cif.got.tgz:24260.got - 2010.04.16 13:43:02.
