data_PCOD8208189
_publ_section_title
;
Structure prediction by ZEFSAII (Michael W. Deem and Ramdas Pophale) SiO2 
 PCOD8208189
Probable space group: P M M A
;
_chemical_formula_sum "Si O2"
_cell_formula_units_Z 40
_cell_length_a 9.243311
_cell_length_b 15.505024
_cell_length_c 19.391842
_cell_angle_alpha 90.000000
_cell_angle_beta 90.000000
_cell_angle_gamma 90.000000
_cell_volume 2779.195336
_symmetry_space_group_name_H-M "P M M A"
_symmetry_group_IT_number 51
_symmetry_cell_setting 'orthorhombic'
loop_
_space_group_symop_operation_xyz
x,y,z
1/2-x,-y,z
1/2+x,-y,-z
-x,y,-z
-x,-y,-z
1/2+x,y,-z
1/2-x,y,z
x,-y,z
loop_
_atom_site_type_symbol
_atom_site_label
_atom_site_fract_x
_atom_site_fract_y
_atom_site_fract_z
Si Si1 0.919961 0.687474 0.073259
Si Si2 0.083553 0.099210 0.301729
Si Si3 0.580727 0.000000 0.928490
Si Si4 0.418147 0.830622 0.154193
Si Si5 0.086381 0.500000 0.931379
Si Si6 0.086728 0.102764 0.565576
O O1 0.750000 0.706406 0.062144
O O2 0.946181 0.591222 0.106617
O O3 0.984382 0.752187 0.128933
O O4 0.000000 0.698834 0.000000
O O5 0.250000 0.106881 0.324273
O O6 0.050392 0.156534 0.234926
O O7 0.987293 0.135736 0.364168
O O8 0.045957 0.000000 0.284378
O O9 0.533937 0.083741 0.885912
O O10 0.750000 0.000000 0.943086
O O11 0.500000 0.000000 0.000000
O O12 0.250000 0.810063 0.140973
O O13 0.250000 0.500000 0.955940
O O14 0.000000 0.500000 0.000000
O O15 0.250000 0.137958 0.562741
O O16 0.000000 0.140128 0.500000
O O17 0.083073 0.000000 0.563879
#
# Coordination Sequence:
#
# PCOD8208189 Si02
#       6
#     8   8   4   8   4   8
#     4  10  19  31  46  63  81 103 133 171 213 256
#     4   9  16  28  43  56  76 108 139 169 204 241
#     4  10  20  32  42  54  75 106 141 174 207 240
#     4  10  19  31  44  59  81 109 140 172 208 247
#     4   8  16  30  46  62  80 100 125 162 211 260
#     4   9  16  25  38  57  78 101 133 171 205 240
#
# _framework density 14.392655
#
# number of rings (size 3 to 8) (size 9 to 14) (size 15 to 20)
#    0.000    2.600    1.000    1.800    0.000    6.400 
#    0.000    0.000    0.000    0.000    0.000    0.000 
#    0.000    0.000    0.000    0.900    0.000   11.600 
#
# Total GULP energy -495775.606346 kJ/mol
# GULP energy per Si atom -12394.390159 kJ/mol
# Density = 1.435990 g / cm^3
# Si number density = 14.392655 Si / 1000 Ang^3
#
#
#
# Elastic Constant Matrix: (Units=GPa)
#
#
# Indices 1 2 3 4 5 6 
#
# 1 86.1925 46.1355 57.9521 0.0000 0.0000 0.0000
# 2 46.1355 85.8001 41.7697 0.0000 0.0000 0.0000
# 3 57.9521 41.7697 99.2473 0.0000 0.0000 0.0000
# 4 0.0000 0.0000 0.0000 3.8840 0.0000 0.0000
# 5 0.0000 0.0000 0.0000 0.0000 28.4086 0.0000
# 6 0.0000 0.0000 0.0000 0.0000 0.0000 18.3589
#
#
#
# Elastic Compliance Matrix: (Units=1/GPa)
#
#
# Indices 1 2 3 4 5 6 
#
# 1 0.022016 -0.007018 -0.009902 0.000000 0.000000 0.000000
# 2 -0.007018 0.016895 -0.003013 0.000000 0.000000 0.000000
# 3 -0.009902 -0.003013 0.017126 0.000000 0.000000 0.000000
# 4 0.000000 0.000000 0.000000 0.257469 0.000000 0.000000
# 5 0.000000 0.000000 0.000000 0.000000 0.035201 0.000000
# 6 0.000000 0.000000 0.000000 0.000000 0.000000 0.054469
#
#
# Mechanical properties :
#
#
# Convention : Reuss Voigt Hill
#
# Bulk Modulus (GPa) = 61.83562 62.55050 62.19306
# Shear Modulus (GPa) = 11.14997 18.48915 14.81956
#
# Velocity S-wave (km/s) = 2.78636 3.58805 3.21232
# Velocity P-wave (km/s) = 7.30810 7.79230 7.55408
#
# Compressibility (1/GPa) = 0.01617191
#
# Stress axis : x y z
#
# Youngs Moduli (GPa) = 45.42191 59.18858 58.39149
#
# Poissons Ratio (x) = 0.41536 0.57819
# Poissons Ratio (y) = 0.31875 0.17593
# Poissons Ratio (z) = 0.44977 0.17833
#
# Static dielectric constant tensor:
#      x y z
#    x 2.912890 0.000000 0.000000 
#    y 0.000000 3.102160 0.000000 
#    z 0.000000 0.000000 2.425730 
# 
# 
# High freq. dielectric constant tensor:
#      x y z
#    x 1.561660 0.000000 0.000000 
#    y 0.000000 1.513980 0.000000 
#    z 0.000000 0.000000 1.536410 
# 
# From -- ./inp_files/27785.got.cif
#   From: 2010.03.12/outbox.cif.g09.slc.cpg/sg51_14_cif.got.tgz:27785.got - 2010.04.16 13:43:02.
