data_PCOD8208671
_publ_section_title
;
Structure prediction by ZEFSAII (Michael W. Deem and Ramdas Pophale) SiO2 
 PCOD8208671
Probable space group: P M M A
;
_chemical_formula_sum "Si O2"
_cell_formula_units_Z 48
_cell_length_a 25.279492
_cell_length_b 9.277003
_cell_length_c 11.631614
_cell_angle_alpha 90.000000
_cell_angle_beta 90.000000
_cell_angle_gamma 90.000000
_cell_volume 2727.821958
_symmetry_space_group_name_H-M "P M M A"
_symmetry_group_IT_number 51
_symmetry_cell_setting 'orthorhombic'
loop_
_space_group_symop_operation_xyz
x,y,z
1/2-x,-y,z
1/2+x,-y,-z
-x,y,-z
-x,-y,-z
1/2+x,y,-z
1/2-x,y,z
x,-y,z
loop_
_atom_site_type_symbol
_atom_site_label
_atom_site_fract_x
_atom_site_fract_y
_atom_site_fract_z
Si Si1 0.399746 0.668290 0.746068
Si Si2 0.992236 0.166102 0.133635
Si Si3 0.904629 0.829774 0.724339
Si Si4 0.060299 0.667675 0.493931
Si Si5 0.691550 0.171418 0.876811
Si Si6 0.311295 0.834776 0.864316
O O1 0.398263 0.500000 0.771947
O O2 0.444336 0.736609 0.825635
O O3 0.411339 0.700463 0.613466
O O4 0.343339 0.737158 0.775312
O O5 0.045032 0.213737 0.199612
O O6 0.978455 0.000000 0.158691
O O7 0.000000 0.194245 0.000000
O O8 0.907444 0.754539 0.601373
O O9 0.852320 0.769795 0.788650
O O10 0.901210 0.000000 0.705786
O O11 0.061114 0.500000 0.461041
O O12 0.000000 0.723904 0.500000
O O13 0.750000 0.227788 0.840052
O O14 0.691549 0.000000 0.877836
O O15 0.678191 0.222619 0.006216
O O16 0.250000 0.820290 0.832160
O O17 0.330150 0.000000 0.852793
#
# Coordination Sequence:
#
# PCOD8208671 Si02
#       6
#     8   8   8   8   8   8
#     4  11  22  35  53  76 104 141 179 218 262 310
#     4  10  20  33  51  77 108 136 167 215 270 321
#     4  10  19  31  53  81 103 131 175 220 257 301
#     4  10  21  38  53  68 101 146 181 213 261 313
#     4   8  15  31  55  81 108 136 166 206 262 318
#     4   9  18  35  59  82 107 140 173 211 262 316
#
# _framework density 17.596456
#
# number of rings (size 3 to 8) (size 9 to 14) (size 15 to 20)
#    0.000    2.333    1.667    2.500    0.000    5.000 
#    0.000    3.333    0.000    4.500    0.000    0.000 
#    0.000    0.000    0.000    0.000    0.000    0.000 
#
# Total GULP energy -595280.658531 kJ/mol
# GULP energy per Si atom -12401.680386 kJ/mol
# Density = 1.755641 g / cm^3
# Si number density = 17.596456 Si / 1000 Ang^3
#
#
#
# Elastic Constant Matrix: (Units=GPa)
#
#
# Indices 1 2 3 4 5 6 
#
# 1 117.6283 45.5613 66.1784 0.0000 0.0000 0.0000
# 2 45.5613 56.6797 50.7187 0.0000 0.0000 0.0000
# 3 66.1784 50.7187 105.7122 0.0000 0.0000 0.0000
# 4 0.0000 0.0000 0.0000 21.6354 0.0000 0.0000
# 5 0.0000 0.0000 0.0000 0.0000 26.6566 0.0000
# 6 0.0000 0.0000 0.0000 0.0000 0.0000 12.1775
#
#
#
# Elastic Compliance Matrix: (Units=1/GPa)
#
#
# Indices 1 2 3 4 5 6 
#
# 1 0.014224 -0.006073 -0.005991 0.000000 0.000000 0.000000
# 2 -0.006073 0.033509 -0.012275 0.000000 0.000000 0.000000
# 3 -0.005991 -0.012275 0.019099 0.000000 0.000000 0.000000
# 4 0.000000 0.000000 0.000000 0.046220 0.000000 0.000000
# 5 0.000000 0.000000 0.000000 0.000000 0.037514 0.000000
# 6 0.000000 0.000000 0.000000 0.000000 0.000000 0.082118
#
#
# Mechanical properties :
#
#
# Convention : Reuss Voigt Hill
#
# Bulk Modulus (GPa) = 55.08302 67.21521 61.14912
# Shear Modulus (GPa) = 17.39644 19.93137 18.66390
#
# Velocity S-wave (km/s) = 3.14766 3.36920 3.26031
# Velocity P-wave (km/s) = 6.67696 7.30865 6.99994
#
# Compressibility (1/GPa) = 0.01815441
#
# Stress axis : x y z
#
# Youngs Moduli (GPa) = 70.30271 29.84282 52.35749
#
# Poissons Ratio (x) = 0.18124 0.31367
# Poissons Ratio (y) = 0.42695 0.64269
# Poissons Ratio (z) = 0.42118 0.36632
#
# Static dielectric constant tensor:
#      x y z
#    x 3.443880 0.000000 0.000000 
#    y 0.000000 3.078710 0.000000 
#    z 0.000000 0.000000 3.251940 
# 
# 
# High freq. dielectric constant tensor:
#      x y z
#    x 1.686340 0.000000 0.000000 
#    y 0.000000 1.659000 0.000000 
#    z 0.000000 0.000000 1.680730 
# 
# From -- ./inp_files/18581.got.cif
#   From: 2010.03.12/outbox.cif.g09.slc.cpg/sg51_10_cif.got.tgz:18581.got - 2010.04.16 13:43:02.
