data_PCOD8208914
_publ_section_title
;
Structure prediction by ZEFSAII (Michael W. Deem and Ramdas Pophale) SiO2 
 PCOD8208914
Probable space group: P M M A
;
_chemical_formula_sum "Si O2"
_cell_formula_units_Z 64
_cell_length_a 18.795283
_cell_length_b 9.148686
_cell_length_c 21.320713
_cell_angle_alpha 90.000000
_cell_angle_beta 90.000000
_cell_angle_gamma 90.000000
_cell_volume 3666.142279
_symmetry_space_group_name_H-M "P M M A"
_symmetry_group_IT_number 51
_symmetry_cell_setting 'orthorhombic'
loop_
_space_group_symop_operation_xyz
x,y,z
1/2-x,-y,z
1/2+x,-y,-z
-x,y,-z
-x,-y,-z
1/2+x,y,-z
1/2-x,y,z
x,-y,z
loop_
_atom_site_type_symbol
_atom_site_label
_atom_site_fract_x
_atom_site_fract_y
_atom_site_fract_z
Si Si1 0.865160 0.837633 0.265637
Si Si2 0.666482 0.831911 0.898979
Si Si3 0.831873 0.668577 0.024579
Si Si4 0.434513 0.672258 0.194742
Si Si5 0.475341 0.835278 0.313723
Si Si6 0.826715 0.333191 0.381851
Si Si7 0.091494 0.669489 0.849256
Si Si8 0.023810 0.672361 0.568349
O O1 0.945684 0.839554 0.288020
O O2 0.819391 0.756279 0.317827
O O3 0.859101 0.756411 0.199348
O O4 0.834600 0.000000 0.257219
O O5 0.750000 0.815033 0.887606
O O6 0.628671 0.739328 0.845452
O O7 0.641977 0.000000 0.895720
O O8 0.645057 0.768452 0.966549
O O9 0.750000 0.696462 0.044054
O O10 0.843440 0.500000 0.005484
O O11 0.883651 0.713764 0.081313
O O12 0.423646 0.500000 0.202286
O O13 0.429091 0.744202 0.263766
O O14 0.508657 0.709163 0.159804
O O15 0.474719 0.754527 0.380909
O O16 0.444902 0.000000 0.321138
O O17 0.750000 0.315169 0.417215
O O18 0.840289 0.500000 0.362380
O O19 0.892825 0.281911 0.424793
O O20 0.105241 0.500000 0.836315
O O21 0.012194 0.500000 0.577197
O O22 0.000000 0.725418 0.500000
#
# Coordination Sequence:
#
# PCOD8208914 Si02
#       8
#     8   8   8   8   8   8   8   8
#     4   9  17  28  43  65  93 123 154 190 231 276
#     4  10  21  36  52  70  93 121 156 201 252 301
#     4   9  18  33  50  66  89 124 163 199 237 288
#     4  10  19  32  52  74  97 125 158 199 242 285
#     4   9  17  30  48  71  98 124 153 190 233 281
#     4   9  17  29  45  65  91 124 160 196 233 275
#     4   9  18  31  47  70  98 127 160 197 237 282
#     4   9  17  30  49  72  97 127 163 199 236 282
#
# _framework density 17.457042000000001
#
# number of rings (size 3 to 8) (size 9 to 14) (size 15 to 20)
#    0.000    2.750    0.000    1.500    0.000    6.250 
#    0.000    3.750    0.000    0.750    0.000    1.750 
#    0.000    0.000    0.000    0.000    0.000    0.000 
#
# Total GULP energy -793468.132180 kJ/mol
# GULP energy per Si atom -12397.939565 kJ/mol
# Density = 1.741731 g / cm^3
# Si number density = 17.457042 Si / 1000 Ang^3
#
#
#
# Elastic Constant Matrix: (Units=GPa)
#
#
# Indices 1 2 3 4 5 6 
#
# 1 55.0631 34.2478 52.3905 0.0000 0.0000 0.0000
# 2 34.2478 91.9633 65.4538 0.0000 0.0000 0.0000
# 3 52.3905 65.4538 140.2435 0.0000 0.0000 0.0000
# 4 0.0000 0.0000 0.0000 16.7700 0.0000 0.0000
# 5 0.0000 0.0000 0.0000 0.0000 19.5880 0.0000
# 6 0.0000 0.0000 0.0000 0.0000 0.0000 18.2726
#
#
#
# Elastic Compliance Matrix: (Units=1/GPa)
#
#
# Indices 1 2 3 4 5 6 
#
# 1 0.029473 -0.004701 -0.008816 0.000000 0.000000 0.000000
# 2 -0.004701 0.017033 -0.006193 0.000000 0.000000 0.000000
# 3 -0.008816 -0.006193 0.013314 0.000000 0.000000 0.000000
# 4 0.000000 0.000000 0.000000 0.059630 0.000000 0.000000
# 5 0.000000 0.000000 0.000000 0.000000 0.051052 0.000000
# 6 0.000000 0.000000 0.000000 0.000000 0.000000 0.054727
#
#
# Mechanical properties :
#
#
# Convention : Reuss Voigt Hill
#
# Bulk Modulus (GPa) = 49.02175 65.71711 57.36943
# Shear Modulus (GPa) = 18.41961 19.93795 19.17878
#
# Velocity S-wave (km/s) = 3.25181 3.38319 3.31815
# Velocity P-wave (km/s) = 6.49934 7.27929 6.90034
#
# Compressibility (1/GPa) = 0.02039911
#
# Stress axis : x y z
#
# Youngs Moduli (GPa) = 33.92907 58.71098 75.10725
#
# Poissons Ratio (x) = 0.27602 0.66215
# Poissons Ratio (y) = 0.15951 0.46515
# Poissons Ratio (z) = 0.29912 0.36360
#
# Static dielectric constant tensor:
#      x y z
#    x 3.099640 0.000000 0.000000 
#    y 0.000000 3.405070 0.000000 
#    z 0.000000 0.000000 3.199910 
# 
# 
# High freq. dielectric constant tensor:
#      x y z
#    x 1.652950 0.000000 0.000000 
#    y 0.000000 1.681470 0.000000 
#    z 0.000000 0.000000 1.663130 
# 
# From -- ./inp_files/33932.got.cif
#   From: 2010.03.12/outbox.cif.g09.slc.cpg/sg51_17_cif.got.tgz:33932.got - 2010.04.16 13:43:02.
