data_PCOD8208306
_publ_section_title
;
Structure prediction by ZEFSAII (Michael W. Deem and Ramdas Pophale) SiO2 
 PCOD8208306
Probable space group: P M M A
;
_chemical_formula_sum "Si O2"
_cell_formula_units_Z 36
_cell_length_a 9.699041
_cell_length_b 16.923573
_cell_length_c 13.634343
_cell_angle_alpha 90.000000
_cell_angle_beta 90.000000
_cell_angle_gamma 90.000000
_cell_volume 2237.974170
_symmetry_space_group_name_H-M "P M M A"
_symmetry_group_IT_number 51
_symmetry_cell_setting 'orthorhombic'
loop_
_space_group_symop_operation_xyz
x,y,z
1/2-x,-y,z
1/2+x,-y,-z
-x,y,-z
-x,-y,-z
1/2+x,y,-z
1/2-x,y,z
x,-y,z
loop_
_atom_site_type_symbol
_atom_site_label
_atom_site_fract_x
_atom_site_fract_y
_atom_site_fract_z
Si Si1 0.412010 0.908201 0.402866
Si Si2 0.912903 0.848674 0.226500
Si Si3 0.503758 0.307613 0.116126
Si Si4 0.250000 0.410395 0.123638
Si Si5 0.094064 0.000000 0.905812
Si Si6 0.750000 0.586519 0.108608
O O1 0.500000 0.891793 0.500000
O O2 0.250000 0.882909 0.414200
O O3 0.491189 0.857252 0.321454
O O4 0.419735 0.000000 0.374144
O O5 0.750000 0.839153 0.253185
O O6 0.974040 0.774885 0.168703
O O7 0.936724 0.923761 0.158575
O O8 0.375055 0.355785 0.157656
O O9 0.621621 0.366587 0.148147
O O10 0.500000 0.291142 0.000000
O O11 0.250000 0.500000 0.169429
O O12 0.250000 0.420667 0.007785
O O13 0.250000 0.000000 0.944177
O O14 0.000000 0.000000 0.000000
O O15 0.750000 0.500000 0.156266
#
# Coordination Sequence:
#
# PCOD8208306 Si02
#       6
#     8   8   8   4   4   4
#     4  10  21  37  58  80 100 128 167 215 268 314
#     4  11  21  35  51  73 104 140 179 215 258 302
#     4  10  19  31  47  72 104 140 178 217 256 301
#     4   9  18  30  48  71  98 135 176 219 264 305
#     4  10  22  36  49  68 101 146 185 216 246 292
#     4   9  16  30  48  67  96 135 176 215 260 309
#
# _framework density 16.085977
#
# number of rings (size 3 to 8) (size 9 to 14) (size 15 to 20)
#    0.000    2.000    2.222    2.000    1.556    4.444 
#    0.000    0.000    0.000    0.000    0.000    0.000 
#    0.000    5.333    0.000    0.000    0.000    0.000 
#
# Total GULP energy -446125.836826 kJ/mol
# GULP energy per Si atom -12392.384356 kJ/mol
# Density = 1.604936 g / cm^3
# Si number density = 16.085977 Si / 1000 Ang^3
#
#
#
# Elastic Constant Matrix: (Units=GPa)
#
#
# Indices 1 2 3 4 5 6 
#
# 1 156.2597 72.3385 54.6098 0.0000 0.0000 0.0000
# 2 72.3385 147.4009 47.2781 0.0000 0.0000 0.0000
# 3 54.6098 47.2781 68.0836 0.0000 0.0000 0.0000
# 4 0.0000 0.0000 0.0000 -66.1988 0.0000 0.0000
# 5 0.0000 0.0000 0.0000 0.0000 30.1421 0.0000
# 6 0.0000 0.0000 0.0000 0.0000 0.0000 50.4660
#
#
#
# Elastic Compliance Matrix: (Units=1/GPa)
#
#
# Indices 1 2 3 4 5 6 
#
# 1 0.009793 -0.002942 -0.005812 0.000000 0.000000 0.000000
# 2 -0.002942 0.009612 -0.004315 0.000000 0.000000 0.000000
# 3 -0.005812 -0.004315 0.022346 0.000000 0.000000 0.000000
# 4 0.000000 0.000000 0.000000 -0.015106 0.000000 0.000000
# 5 0.000000 0.000000 0.000000 0.000000 0.033176 0.000000
# 6 0.000000 0.000000 0.000000 0.000000 0.000000 0.019815
#
#
# Mechanical properties :
#
#
# Convention : Reuss Voigt Hill
#
# Bulk Modulus (GPa) = 64.04861 80.02189 72.03525
# Shear Modulus (GPa) = 45.05409 16.04971 30.55190
#
# Velocity S-wave (km/s) = 5.29803 3.16214 4.36281
# Velocity P-wave (km/s) = 8.79365 7.94899 8.38197
#
# Compressibility (1/GPa) = 0.01561314
#
# Stress axis : x y z
#
# Youngs Moduli (GPa) = 102.11841 104.03739 44.75071
#
# Poissons Ratio (x) = 0.30604 0.26009
# Poissons Ratio (y) = 0.30040 0.19311
# Poissons Ratio (z) = 0.59350 0.44894
#
# Static dielectric constant tensor:
#      x y z
#    x 3.399220 0.000000 0.000000 
#    y 0.000000 3.142840 0.000000 
#    z 0.000000 0.000000 2.711920 
# 
# 
# High freq. dielectric constant tensor:
#      x y z
#    x 1.641930 0.000000 0.000000 
#    y 0.000000 1.621790 0.000000 
#    z 0.000000 0.000000 1.575990 
# 
# From -- ./inp_files/20383.got.cif
#   From: 2010.03.12/outbox.cif.g09.slc.cpg/sg51_11_cif.got.tgz:20383.got - 2010.04.16 13:43:02.
