data_PCOD8208343
_publ_section_title
;
Structure prediction by ZEFSAII (Michael W. Deem and Ramdas Pophale) SiO2 
 PCOD8208343
Probable space group: P M M A
;
_chemical_formula_sum "Si O2"
_cell_formula_units_Z 64
_cell_length_a 8.706558
_cell_length_b 18.998888
_cell_length_c 23.816862
_cell_angle_alpha 90.000000
_cell_angle_beta 90.000000
_cell_angle_gamma 90.000000
_cell_volume 3939.664330
_symmetry_space_group_name_H-M "P M M A"
_symmetry_group_IT_number 51
_symmetry_cell_setting 'orthorhombic'
loop_
_space_group_symop_operation_xyz
x,y,z
1/2-x,-y,z
1/2+x,-y,-z
-x,y,-z
-x,-y,-z
1/2+x,y,-z
1/2-x,y,z
x,-y,z
loop_
_atom_site_type_symbol
_atom_site_label
_atom_site_fract_x
_atom_site_fract_y
_atom_site_fract_z
Si Si1 0.928943 0.419335 0.730105
Si Si2 0.931614 0.340243 0.167707
Si Si3 0.067482 0.923381 0.615661
Si Si4 0.929976 0.921123 0.256714
Si Si5 0.069169 0.215395 0.558767
Si Si6 0.568434 0.420283 0.057944
Si Si7 0.431310 0.299111 0.667351
Si Si8 0.069274 0.217213 0.230223
O O1 0.750000 0.405581 0.741325
O O2 0.964258 0.500000 0.716207
O O3 0.022885 0.396342 0.784812
O O4 0.985125 0.373737 0.676872
O O5 0.750000 0.329506 0.168868
O O6 0.989393 0.370504 0.108245
O O7 0.013274 0.265277 0.178257
O O8 0.250000 0.919785 0.616759
O O9 0.010204 0.913848 0.679384
O O10 0.000986 0.861196 0.576568
O O11 0.012701 0.000000 0.592664
O O12 0.750000 0.905167 0.252572
O O13 0.021198 0.863882 0.219312
O O14 0.965918 0.000000 0.234385
O O15 0.250000 0.210284 0.552582
O O16 0.022954 0.272455 0.605575
O O17 0.000000 0.240072 0.500000
O O18 0.750000 0.419135 0.054006
O O19 0.509263 0.500000 0.068677
O O20 0.500000 0.390428 0.000000
O O21 0.250000 0.308323 0.673916
O O22 0.486716 0.242636 0.713003
O O23 0.250000 0.224673 0.236953
#
# Coordination Sequence:
#
# PCOD8208343 Si02
#       8
#     8   8   8   8   8   8   8   8
#     4  10  20  32  48  72  97 118 143 184 238 282
#     4  10  19  31  48  69  96 129 166 197 223 268
#     4   8  14  27  46  64  85 114 147 181 216 260
#     4   9  16  29  49  67  88 122 158 189 226 278
#     4  10  20  32  47  66  87 113 148 185 225 271
#     4   9  18  31  47  68  95 130 168 202 233 266
#     4  10  19  33  50  66  87 117 153 185 221 278
#     4  11  20  29  45  69  97 123 151 194 241 276
#
# _framework density 16.245038000000001
#
# number of rings (size 3 to 8) (size 9 to 14) (size 15 to 20)
#    0.000    2.375    1.250    4.875    0.000    4.000 
#    0.000    1.250    0.000    0.375    0.000    0.000 
#    0.000    0.500    0.000    1.625    0.000    2.000 
#
# Total GULP energy -793446.132649 kJ/mol
# GULP energy per Si atom -12397.595823 kJ/mol
# Density = 1.620806 g / cm^3
# Si number density = 16.245038 Si / 1000 Ang^3
#
#
#
# Elastic Constant Matrix: (Units=GPa)
#
#
# Indices 1 2 3 4 5 6 
#
# 1 23.5733 24.1276 14.7882 0.0000 0.0000 0.0000
# 2 24.1276 118.9786 55.5170 0.0000 0.0000 0.0000
# 3 14.7882 55.5170 98.9273 0.0000 0.0000 0.0000
# 4 0.0000 0.0000 0.0000 24.4986 0.0000 0.0000
# 5 0.0000 0.0000 0.0000 0.0000 22.0538 0.0000
# 6 0.0000 0.0000 0.0000 0.0000 0.0000 21.5177
#
#
#
# Elastic Compliance Matrix: (Units=1/GPa)
#
#
# Indices 1 2 3 4 5 6 
#
# 1 0.054025 -0.009737 -0.002612 0.000000 0.000000 0.000000
# 2 -0.009737 0.013142 -0.005919 0.000000 0.000000 0.000000
# 3 -0.002612 -0.005919 0.013821 0.000000 0.000000 0.000000
# 4 0.000000 0.000000 0.000000 0.040819 0.000000 0.000000
# 5 0.000000 0.000000 0.000000 0.000000 0.045344 0.000000
# 6 0.000000 0.000000 0.000000 0.000000 0.000000 0.046473
#
#
# Mechanical properties :
#
#
# Convention : Reuss Voigt Hill
#
# Bulk Modulus (GPa) = 22.49649 47.81610 35.15629
# Shear Modulus (GPa) = 18.86960 23.41712 21.14336
#
# Velocity S-wave (km/s) = 3.41187 3.80082 3.61158
# Velocity P-wave (km/s) = 5.42212 6.98282 6.25137
#
# Compressibility (1/GPa) = 0.04445138
#
# Stress axis : x y z
#
# Youngs Moduli (GPa) = 18.50983 76.09479 72.35529
#
# Poissons Ratio (x) = 0.74095 0.18896
# Poissons Ratio (y) = 0.18023 0.42829
# Poissons Ratio (z) = 0.04834 0.45043
#
# Static dielectric constant tensor:
#      x y z
#    x 2.941210 0.000000 0.000000 
#    y 0.000000 3.295890 0.000000 
#    z 0.000000 0.000000 2.954070 
# 
# 
# High freq. dielectric constant tensor:
#      x y z
#    x 1.620910 0.000000 0.000000 
#    y 0.000000 1.626420 0.000000 
#    z 0.000000 0.000000 1.589760 
# 
# From -- ./inp_files/35197.got.cif
#   From: 2010.03.12/outbox.cif.g09.slc.cpg/sg51_18_cif.got.tgz:35197.got - 2010.04.16 13:43:02.
