data_PCOD8208556
_publ_section_title
;
Structure prediction by ZEFSAII (Michael W. Deem and Ramdas Pophale) SiO2 
 PCOD8208556
Probable space group: P M M A
;
_chemical_formula_sum "Si O2"
_cell_formula_units_Z 64
_cell_length_a 17.608104
_cell_length_b 9.121407
_cell_length_c 22.214095
_cell_angle_alpha 90.000000
_cell_angle_beta 90.000000
_cell_angle_gamma 90.000000
_cell_volume 3567.820972
_symmetry_space_group_name_H-M "P M M A"
_symmetry_group_IT_number 51
_symmetry_cell_setting 'orthorhombic'
loop_
_space_group_symop_operation_xyz
x,y,z
1/2-x,-y,z
1/2+x,-y,-z
-x,y,-z
-x,-y,-z
1/2+x,y,-z
1/2-x,y,z
x,-y,z
loop_
_atom_site_type_symbol
_atom_site_label
_atom_site_fract_x
_atom_site_fract_y
_atom_site_fract_z
Si Si1 0.929819 0.835300 0.044639
Si Si2 0.614883 0.670926 0.424246
Si Si3 0.472334 0.327169 0.136149
Si Si4 0.833924 0.166011 0.538186
Si Si5 0.836845 0.669999 0.951758
Si Si6 0.020081 0.172444 0.748281
Si Si7 0.472783 0.170091 0.383989
Si Si8 0.664280 0.330047 0.291800
O O1 0.954509 0.738665 0.101708
O O2 0.907828 0.000000 0.065204
O O3 0.858096 0.761880 0.011320
O O4 0.000000 0.839392 0.000000
O O5 0.606200 0.500000 0.433791
O O6 0.662123 0.733832 0.479482
O O7 0.531588 0.740602 0.424425
O O8 0.658000 0.709353 0.362346
O O9 0.483870 0.500000 0.142018
O O10 0.392755 0.288273 0.103301
O O11 0.469973 0.252814 0.201358
O O12 0.750000 0.180529 0.565772
O O13 0.890062 0.214335 0.591685
O O14 0.851967 0.000000 0.517977
O O15 0.750000 0.705967 0.933107
O O16 0.847085 0.500000 0.968302
O O17 0.106524 0.232308 0.747220
O O18 0.978493 0.213095 0.685967
O O19 0.021994 0.000000 0.761159
O O20 0.491590 0.000000 0.392467
O O21 0.750000 0.295052 0.270544
O O22 0.643926 0.500000 0.281180
#
# Coordination Sequence:
#
# PCOD8208556 Si02
#       8
#     8   8   8   8   8   8   8   8
#     4   9  17  30  50  76 104 131 160 197 240 284
#     4  10  19  31  50  75  99 123 155 198 250 306
#     4  10  19  33  54  76 101 136 173 205 242 292
#     4  10  20  33  49  69  95 128 164 202 247 300
#     4   9  18  33  53  78 107 137 169 205 245 289
#     4  10  20  34  52  73  98 130 170 212 248 287
#     4   9  19  35  51  68  94 129 167 205 247 297
#     4   9  18  33  51  71  97 127 158 197 249 306
#
# _framework density 17.938119
#
# number of rings (size 3 to 8) (size 9 to 14) (size 15 to 20)
#    0.000    2.500    0.000    2.250    0.000    6.250 
#    0.000    1.250    0.000    4.500    0.000    0.000 
#    0.000    0.000    0.000    0.000    0.000    0.000 
#
# Total GULP energy -793643.274000 kJ/mol
# GULP energy per Si atom -12400.676156 kJ/mol
# Density = 1.789729 g / cm^3
# Si number density = 17.938119 Si / 1000 Ang^3
#
#
#
# Elastic Constant Matrix: (Units=GPa)
#
#
# Indices 1 2 3 4 5 6 
#
# 1 109.0395 41.0068 41.9649 0.0000 0.0000 0.0000
# 2 41.0068 78.1359 36.3038 0.0000 0.0000 0.0000
# 3 41.9649 36.3038 73.3724 0.0000 0.0000 0.0000
# 4 0.0000 0.0000 0.0000 31.6442 0.0000 0.0000
# 5 0.0000 0.0000 0.0000 0.0000 21.2360 0.0000
# 6 0.0000 0.0000 0.0000 0.0000 0.0000 20.7295
#
#
#
# Elastic Compliance Matrix: (Units=1/GPa)
#
#
# Indices 1 2 3 4 5 6 
#
# 1 0.012783 -0.004300 -0.005183 0.000000 0.000000 0.000000
# 2 -0.004300 0.018065 -0.006479 0.000000 0.000000 0.000000
# 3 -0.005183 -0.006479 0.019799 0.000000 0.000000 0.000000
# 4 0.000000 0.000000 0.000000 0.031601 0.000000 0.000000
# 5 0.000000 0.000000 0.000000 0.000000 0.047090 0.000000
# 6 0.000000 0.000000 0.000000 0.000000 0.000000 0.048241
#
#
# Mechanical properties :
#
#
# Convention : Reuss Voigt Hill
#
# Bulk Modulus (GPa) = 53.41205 55.45543 54.43374
# Shear Modulus (GPa) = 23.17538 24.14009 23.65773
#
# Velocity S-wave (km/s) = 3.59829 3.67242 3.63554
# Velocity P-wave (km/s) = 6.86323 6.99744 6.93066
#
# Compressibility (1/GPa) = 0.01872237
#
# Stress axis : x y z
#
# Youngs Moduli (GPa) = 78.22792 55.35437 50.50644
#
# Poissons Ratio (x) = 0.23805 0.26180
# Poissons Ratio (y) = 0.33641 0.32723
# Poissons Ratio (z) = 0.40549 0.35864
#
# Static dielectric constant tensor:
#      x y z
#    x 3.309500 0.000000 0.000000 
#    y 0.000000 3.402900 0.000000 
#    z 0.000000 0.000000 3.229060 
# 
# 
# High freq. dielectric constant tensor:
#      x y z
#    x 1.685760 0.000000 0.000000 
#    y 0.000000 1.700800 0.000000 
#    z 0.000000 0.000000 1.679500 
# 
# From -- ./inp_files/33930.got.cif
#   From: 2010.03.12/outbox.cif.g09.slc.cpg/sg51_17_cif.got.tgz:33930.got - 2010.04.16 13:43:02.
