data_PCOD8208647
_publ_section_title
;
Structure prediction by ZEFSAII (Michael W. Deem and Ramdas Pophale) SiO2 
 PCOD8208647
Probable space group: P M M A
;
_chemical_formula_sum "Si O2"
_cell_formula_units_Z 64
_cell_length_a 23.934679
_cell_length_b 9.003133
_cell_length_c 16.096458
_cell_angle_alpha 90.000000
_cell_angle_beta 90.000000
_cell_angle_gamma 90.000000
_cell_volume 3468.579028
_symmetry_space_group_name_H-M "P M M A"
_symmetry_group_IT_number 51
_symmetry_cell_setting 'orthorhombic'
loop_
_space_group_symop_operation_xyz
x,y,z
1/2-x,-y,z
1/2+x,-y,-z
-x,y,-z
-x,-y,-z
1/2+x,y,-z
1/2-x,y,z
x,-y,z
loop_
_atom_site_type_symbol
_atom_site_label
_atom_site_fract_x
_atom_site_fract_y
_atom_site_fract_z
Si Si1 0.523949 0.176469 0.275646
Si Si2 0.889817 0.670201 0.387437
Si Si3 0.939228 0.674867 0.973060
Si Si4 0.916359 0.675673 0.786024
Si Si5 0.313327 0.332687 0.768501
Si Si6 0.813617 0.170370 0.708373
Si Si7 0.186948 0.171964 0.485957
Si Si8 0.104082 0.172775 0.873248
O O1 0.555111 0.241480 0.356972
O O2 0.461813 0.243310 0.272195
O O3 0.555932 0.226455 0.191186
O O4 0.521480 0.000000 0.284401
O O5 0.906956 0.500000 0.403797
O O6 0.842352 0.686529 0.319251
O O7 0.862595 0.737206 0.470319
O O8 0.933995 0.500000 0.980677
O O9 0.924990 0.729241 0.880710
O O10 0.897226 0.747209 0.038305
O O11 0.000000 0.732130 0.000000
O O12 0.924273 0.500000 0.777368
O O13 0.854441 0.721820 0.758880
O O14 0.250000 0.290646 0.753109
O O15 0.321447 0.500000 0.802669
O O16 0.336573 0.216045 0.834717
O O17 0.750000 0.209206 0.733841
O O18 0.822277 0.197177 0.611216
O O19 0.827167 0.000000 0.731080
O O20 0.250000 0.225683 0.510165
O O21 0.180538 0.000000 0.509987
O O22 0.100037 0.000000 0.888784
#
# Coordination Sequence:
#
# PCOD8208647 Si02
#       8
#     8   8   8   8   8   8   8   8
#     4  10  20  34  52  77 111 147 179 215 266 323
#     4  10  19  31  51  80 112 142 180 226 269 313
#     4  10  20  35  55  78 107 140 175 214 264 322
#     4  11  22  36  58  85 109 138 178 224 271 320
#     4   9  18  32  49  70 103 146 181 211 259 319
#     4   9  20  40  62  82 108 143 179 219 271 325
#     4   9  18  34  56  80 107 142 183 223 267 322
#     4  10  20  32  50  77 105 135 176 223 263 304
#
# _framework density 18.451359
#
# number of rings (size 3 to 8) (size 9 to 14) (size 15 to 20)
#    0.000    2.250    1.250    2.625    0.000    4.500 
#    0.000    2.500    0.000    4.500    0.000    0.000 
#    0.000    0.000    0.000    0.000    0.000    0.000 
#
# Total GULP energy -793646.503459 kJ/mol
# GULP energy per Si atom -12400.726617 kJ/mol
# Density = 1.840936 g / cm^3
# Si number density = 18.451359 Si / 1000 Ang^3
#
#
#
# Elastic Constant Matrix: (Units=GPa)
#
#
# Indices 1 2 3 4 5 6 
#
# 1 98.5487 37.8276 39.8760 0.0000 0.0000 0.0000
# 2 37.8276 65.8597 36.0121 0.0000 0.0000 0.0000
# 3 39.8760 36.0121 70.9586 0.0000 0.0000 0.0000
# 4 0.0000 0.0000 0.0000 29.3238 0.0000 0.0000
# 5 0.0000 0.0000 0.0000 0.0000 27.2170 0.0000
# 6 0.0000 0.0000 0.0000 0.0000 0.0000 32.7888
#
#
#
# Elastic Compliance Matrix: (Units=1/GPa)
#
#
# Indices 1 2 3 4 5 6 
#
# 1 0.014360 -0.005309 -0.005376 0.000000 0.000000 0.000000
# 2 -0.005309 0.022978 -0.008678 0.000000 0.000000 0.000000
# 3 -0.005376 -0.008678 0.021518 0.000000 0.000000 0.000000
# 4 0.000000 0.000000 0.000000 0.034102 0.000000 0.000000
# 5 0.000000 0.000000 0.000000 0.000000 0.036742 0.000000
# 6 0.000000 0.000000 0.000000 0.000000 0.000000 0.030498
#
#
# Mechanical properties :
#
#
# Convention : Reuss Voigt Hill
#
# Bulk Modulus (GPa) = 49.67462 51.42205 50.54833
# Shear Modulus (GPa) = 24.31503 25.97600 25.14552
#
# Velocity S-wave (km/s) = 3.63408 3.75615 3.69562
# Velocity P-wave (km/s) = 6.67750 6.83674 6.75759
#
# Compressibility (1/GPa) = 0.02013100
#
# Stress axis : x y z
#
# Youngs Moduli (GPa) = 69.63738 43.51945 46.47252
#
# Poissons Ratio (x) = 0.23102 0.24982
# Poissons Ratio (y) = 0.36967 0.40331
# Poissons Ratio (z) = 0.37435 0.37768
#
# Static dielectric constant tensor:
#      x y z
#    x 3.346820 0.000000 0.000000 
#    y 0.000000 3.338170 0.000000 
#    z 0.000000 0.000000 3.286650 
# 
# 
# High freq. dielectric constant tensor:
#      x y z
#    x 1.709720 0.000000 0.000000 
#    y 0.000000 1.717130 0.000000 
#    z 0.000000 0.000000 1.703930 
# 
# From -- ./inp_files/26305.got.cif
#   From: 2010.03.12/outbox.cif.g09.slc.cpg/sg51_14_cif.got.tgz:26305.got - 2010.04.16 13:43:02.
