data_PCOD8208506
_publ_section_title
;
Structure prediction by ZEFSAII (Michael W. Deem and Ramdas Pophale) SiO2 
 PCOD8208506
Probable space group: P M M A
;
_chemical_formula_sum "Si O2"
_cell_formula_units_Z 64
_cell_length_a 23.890624
_cell_length_b 9.453188
_cell_length_c 16.768906
_cell_angle_alpha 90.000000
_cell_angle_beta 90.000000
_cell_angle_gamma 90.000000
_cell_volume 3787.132661
_symmetry_space_group_name_H-M "P M M A"
_symmetry_group_IT_number 51
_symmetry_cell_setting 'orthorhombic'
loop_
_space_group_symop_operation_xyz
x,y,z
1/2-x,-y,z
1/2+x,-y,-z
-x,y,-z
-x,-y,-z
1/2+x,y,-z
1/2-x,y,z
x,-y,z
loop_
_atom_site_type_symbol
_atom_site_label
_atom_site_fract_x
_atom_site_fract_y
_atom_site_fract_z
Si Si1 0.581724 0.166208 0.652673
Si Si2 0.685318 0.664669 0.074008
Si Si3 0.311913 0.159987 0.630410
Si Si4 0.683765 0.843605 0.926309
Si Si5 0.524055 0.333036 0.332989
Si Si6 0.417368 0.836931 0.532319
Si Si7 0.366450 0.336043 0.761844
Si Si8 0.812154 0.831942 0.750775
O O1 0.533112 0.257527 0.695402
O O2 0.579293 0.203070 0.559666
O O3 0.641636 0.217846 0.686850
O O4 0.572362 0.000000 0.669252
O O5 0.750000 0.704944 0.092441
O O6 0.679813 0.500000 0.056138
O O7 0.645747 0.711124 0.147615
O O8 0.660895 0.743547 0.996386
O O9 0.250000 0.189049 0.596874
O O10 0.353624 0.191560 0.557910
O O11 0.322696 0.257427 0.705933
O O12 0.319031 0.000000 0.660741
O O13 0.750000 0.853317 0.932269
O O14 0.668528 0.780299 0.839035
O O15 0.657501 0.000000 0.937629
O O16 0.515189 0.500000 0.345326
O O17 0.541993 0.263561 0.417141
O O18 0.569974 0.300912 0.264418
O O19 0.435418 0.000000 0.547172
O O20 0.353259 0.500000 0.751097
O O21 0.750000 0.771631 0.728549
O O22 0.808144 0.000000 0.753108
#
# Coordination Sequence:
#
# PCOD8208506 Si02
#       8
#     8   8   8   8   8   8   8   8
#     4  10  19  31  50  71  89 114 149 187 224 264
#     4   9  16  26  43  67  91 114 144 181 218 259
#     4   9  17  28  42  63  92 121 147 180 223 266
#     4   8  14  26  44  66  92 118 143 174 214 261
#     4  10  20  33  48  65  88 119 154 190 226 263
#     4   9  18  31  46  66  91 118 150 188 226 263
#     4   9  18  31  45  62  87 121 156 186 218 261
#     4   8  15  29  49  72  95 118 145 178 219 269
#
# _framework density 16.899328000000001
#
# number of rings (size 3 to 8) (size 9 to 14) (size 15 to 20)
#    0.000    3.000    0.000    1.875    0.000    4.250 
#    0.000    4.375    0.000    1.875    0.000    7.000 
#    0.000    0.000    0.000    0.000    0.000    0.000 
#
# Total GULP energy -793312.423713 kJ/mol
# GULP energy per Si atom -12395.506621 kJ/mol
# Density = 1.686086 g / cm^3
# Si number density = 16.899328 Si / 1000 Ang^3
#
#
#
# Elastic Constant Matrix: (Units=GPa)
#
#
# Indices 1 2 3 4 5 6 
#
# 1 107.7188 38.1285 51.4469 0.0000 0.0000 0.0000
# 2 38.1285 48.3474 35.0971 0.0000 0.0000 0.0000
# 3 51.4469 35.0971 86.8584 0.0000 0.0000 0.0000
# 4 0.0000 0.0000 0.0000 13.2631 0.0000 0.0000
# 5 0.0000 0.0000 0.0000 0.0000 16.3307 0.0000
# 6 0.0000 0.0000 0.0000 0.0000 0.0000 19.2841
#
#
#
# Elastic Compliance Matrix: (Units=1/GPa)
#
#
# Indices 1 2 3 4 5 6 
#
# 1 0.014610 -0.007415 -0.005657 0.000000 0.000000 0.000000
# 2 -0.007415 0.033033 -0.008956 0.000000 0.000000 0.000000
# 3 -0.005657 -0.008956 0.018483 0.000000 0.000000 0.000000
# 4 0.000000 0.000000 0.000000 0.075397 0.000000 0.000000
# 5 0.000000 0.000000 0.000000 0.000000 0.061235 0.000000
# 6 0.000000 0.000000 0.000000 0.000000 0.000000 0.051856
#
#
# Mechanical properties :
#
#
# Convention : Reuss Voigt Hill
#
# Bulk Modulus (GPa) = 45.31213 54.69665 50.00439
# Shear Modulus (GPa) = 16.33846 17.65902 16.99874
#
# Velocity S-wave (km/s) = 3.11273 3.23608 3.17501
# Velocity P-wave (km/s) = 6.30793 6.81171 6.56465
#
# Compressibility (1/GPa) = 0.02206915
#
# Stress axis : x y z
#
# Youngs Moduli (GPa) = 68.44559 30.27308 54.10483
#
# Poissons Ratio (x) = 0.22448 0.30610
# Poissons Ratio (y) = 0.50753 0.48454
# Poissons Ratio (z) = 0.38723 0.27111
#
# Static dielectric constant tensor:
#      x y z
#    x 3.261010 0.000000 0.000000 
#    y 0.000000 3.116450 0.000000 
#    z 0.000000 0.000000 3.241750 
# 
# 
# High freq. dielectric constant tensor:
#      x y z
#    x 1.639620 0.000000 0.000000 
#    y 0.000000 1.636750 0.000000 
#    z 0.000000 0.000000 1.642390 
# 
# From -- ./inp_files/30549.got.cif
#   From: 2010.03.12/outbox.cif.g09.slc.cpg/sg51_16_cif.got.tgz:30549.got - 2010.04.16 13:43:02.
