data_PCOD8208348
_publ_section_title
;
Structure prediction by ZEFSAII (Michael W. Deem and Ramdas Pophale) SiO2 
 PCOD8208348
Probable space group: P M M A
;
_chemical_formula_sum "Si O2"
_cell_formula_units_Z 44
_cell_length_a 10.119743
_cell_length_b 16.067806
_cell_length_c 15.743715
_cell_angle_alpha 90.000000
_cell_angle_beta 90.000000
_cell_angle_gamma 90.000000
_cell_volume 2559.960606
_symmetry_space_group_name_H-M "P M M A"
_symmetry_group_IT_number 51
_symmetry_cell_setting 'orthorhombic'
loop_
_space_group_symop_operation_xyz
x,y,z
1/2-x,-y,z
1/2+x,-y,-z
-x,y,-z
-x,-y,-z
1/2+x,y,-z
1/2-x,y,z
x,-y,z
loop_
_atom_site_type_symbol
_atom_site_label
_atom_site_fract_x
_atom_site_fract_y
_atom_site_fract_z
Si Si1 0.902861 0.000000 0.673585
Si Si2 0.395966 0.820450 0.865265
Si Si3 0.000000 0.701584 0.000000
Si Si4 0.402025 0.409391 0.149804
Si Si5 0.602017 0.000000 0.170574
Si Si6 0.902876 0.739590 0.743287
Si Si7 0.400664 0.830929 0.424303
O O1 0.934368 0.919366 0.617250
O O2 0.750000 0.000000 0.703642
O O3 0.996100 0.000000 0.754428
O O4 0.250000 0.805537 0.825814
O O5 0.415108 0.918064 0.888471
O O6 0.507492 0.802879 0.795796
O O7 0.403359 0.762400 0.948199
O O8 0.921941 0.641773 0.936511
O O9 0.250000 0.428335 0.159041
O O10 0.475797 0.500000 0.148947
O O11 0.448227 0.354303 0.231135
O O12 0.750000 0.000000 0.211033
O O13 0.750000 0.754904 0.770037
O O14 0.921599 0.756574 0.643734
O O15 0.500000 0.811990 0.500000
O O16 0.250000 0.830329 0.458193
#
# Coordination Sequence:
#
# PCOD8208348 Si02
#       7
#     4   8   4   8   4   8   8
#     4  10  19  33  50  71  99 129 165 207 246 287
#     4  10  20  33  49  70  97 132 171 209 247 290
#     4  10  19  31  48  70 102 130 162 203 249 294
#     4   9  17  30  50  74  97 124 160 201 245 295
#     4  10  20  32  48  69  96 132 173 210 245 286
#     4   9  18  33  52  73  99 130 164 201 245 298
#     4  10  20  32  49  74 101 130 164 201 244 289
#
# _framework density 17.187764000000001
#
# number of rings (size 3 to 8) (size 9 to 14) (size 15 to 20)
#    0.000    2.364    1.818    1.091    0.000    2.545 
#    0.000    0.000    0.000    5.455    0.000    0.000 
#    0.000    0.000    0.000    0.000    0.000    0.000 
#
# Total GULP energy -545206.316665 kJ/mol
# GULP energy per Si atom -12391.052651 kJ/mol
# Density = 1.714864 g / cm^3
# Si number density = 17.187764 Si / 1000 Ang^3
#
#
#
# Elastic Constant Matrix: (Units=GPa)
#
#
# Indices 1 2 3 4 5 6 
#
# 1 64.7525 39.8300 35.2852 0.0000 0.0000 0.0000
# 2 39.8300 143.8953 61.4534 0.0000 0.0000 0.0000
# 3 35.2852 61.4534 88.2090 0.0000 0.0000 0.0000
# 4 0.0000 0.0000 0.0000 27.8575 0.0000 0.0000
# 5 0.0000 0.0000 0.0000 0.0000 27.4954 0.0000
# 6 0.0000 0.0000 0.0000 0.0000 0.0000 10.8925
#
#
#
# Elastic Compliance Matrix: (Units=1/GPa)
#
#
# Indices 1 2 3 4 5 6 
#
# 1 0.020688 -0.003121 -0.006101 0.000000 0.000000 0.000000
# 2 -0.003121 0.010364 -0.005972 0.000000 0.000000 0.000000
# 3 -0.006101 -0.005972 0.017938 0.000000 0.000000 0.000000
# 4 0.000000 0.000000 0.000000 0.035897 0.000000 0.000000
# 5 0.000000 0.000000 0.000000 0.000000 0.036370 0.000000
# 6 0.000000 0.000000 0.000000 0.000000 0.000000 0.091807
#
#
# Mechanical properties :
#
#
# Convention : Reuss Voigt Hill
#
# Bulk Modulus (GPa) = 53.75901 63.33265 58.54583
# Shear Modulus (GPa) = 20.02798 23.93495 21.98146
#
# Velocity S-wave (km/s) = 3.41727 3.73575 3.58005
# Velocity P-wave (km/s) = 6.84951 7.45220 7.15720
#
# Compressibility (1/GPa) = 0.01860153
#
# Stress axis : x y z
#
# Youngs Moduli (GPa) = 48.33778 96.49079 55.74808
#
# Poissons Ratio (x) = 0.30111 0.34014
# Poissons Ratio (y) = 0.15084 0.33292
# Poissons Ratio (z) = 0.29493 0.57623
#
# Static dielectric constant tensor:
#      x y z
#    x 3.195380 0.000000 0.000000 
#    y 0.000000 3.705580 0.000000 
#    z 0.000000 0.000000 3.000690 
# 
# 
# High freq. dielectric constant tensor:
#      x y z
#    x 1.660830 0.000000 0.000000 
#    y 0.000000 1.672350 0.000000 
#    z 0.000000 0.000000 1.635620 
# 
# From -- ./inp_files/20990.got.cif
#   From: 2010.03.12/outbox.cif.g09.slc.cpg/sg51_11_cif.got.tgz:20990.got - 2010.04.16 13:43:02.
