data_PCOD8208930
_publ_section_title
;
Structure prediction by ZEFSAII (Michael W. Deem and Ramdas Pophale) SiO2 
 PCOD8208930
Probable space group: P M M A
;
_chemical_formula_sum "Si O2"
_cell_formula_units_Z 56
_cell_length_a 15.823362
_cell_length_b 9.672456
_cell_length_c 19.374306
_cell_angle_alpha 90.000000
_cell_angle_beta 90.000000
_cell_angle_gamma 90.000000
_cell_volume 2965.252504
_symmetry_space_group_name_H-M "P M M A"
_symmetry_group_IT_number 51
_symmetry_cell_setting 'orthorhombic'
loop_
_space_group_symop_operation_xyz
x,y,z
1/2-x,-y,z
1/2+x,-y,-z
-x,y,-z
-x,-y,-z
1/2+x,y,-z
1/2-x,y,z
x,-y,z
loop_
_atom_site_type_symbol
_atom_site_label
_atom_site_fract_x
_atom_site_fract_y
_atom_site_fract_z
Si Si1 0.992185 0.339545 0.918928
Si Si2 0.077822 0.341065 0.704061
Si Si3 0.849894 0.156150 0.564424
Si Si4 0.845758 0.158603 0.854077
Si Si5 0.650407 0.658166 0.440956
Si Si6 0.920450 0.158453 0.710067
Si Si7 0.158251 0.340183 0.844535
O O1 0.980465 0.500000 0.897468
O O2 0.910364 0.256802 0.893938
O O3 0.077889 0.275280 0.884835
O O4 0.000000 0.321667 0.000000
O O5 0.049325 0.500000 0.698885
O O6 0.111339 0.287277 0.630536
O O7 0.149491 0.322337 0.762020
O O8 0.999700 0.251396 0.729396
O O9 0.750000 0.165565 0.564798
O O10 0.887586 0.251722 0.503645
O O11 0.881304 0.211456 0.638175
O O12 0.880421 0.000000 0.550747
O O13 0.750000 0.199213 0.874764
O O14 0.853144 0.176296 0.771375
O O15 0.865072 0.000000 0.874784
O O16 0.750000 0.676736 0.435064
O O17 0.625668 0.500000 0.455114
O O18 0.949651 0.000000 0.703265
O O19 0.250000 0.273856 0.865262
O O20 0.160541 0.500000 0.865225
#
# Coordination Sequence:
#
# PCOD8208930 Si02
#       7
#     8   8   8   8   8   8   8
#     4  10  21  37  59  89 120 147 181 228 276 326
#     4  10  19  32  52  75 101 136 181 227 272 324
#     4   9  18  33  51  70  96 134 178 222 269 324
#     4  10  21  38  60  84 113 152 192 229 275 329
#     4   9  18  32  49  71  99 132 174 224 273 322
#     4  10  20  34  53  76 104 138 181 229 273 320
#     4   9  17  32  55  80 108 145 185 222 268 327
#
# _framework density 18.885407000000001
#
# number of rings (size 3 to 8) (size 9 to 14) (size 15 to 20)
#    0.000    2.429    1.429    0.857    0.000    6.286 
#    0.000    4.286    0.000    5.143    0.000    0.000 
#    0.000    0.000    0.000    0.000    0.000    0.000 
#
# Total GULP energy -694254.848325 kJ/mol
# GULP energy per Si atom -12397.408006 kJ/mol
# Density = 1.884242 g / cm^3
# Si number density = 18.885407 Si / 1000 Ang^3
#
#
#
# Elastic Constant Matrix: (Units=GPa)
#
#
# Indices 1 2 3 4 5 6 
#
# 1 115.2502 49.8318 52.0398 0.0000 0.0000 0.0000
# 2 49.8318 57.3005 39.0674 0.0000 0.0000 0.0000
# 3 52.0398 39.0674 103.0414 0.0000 0.0000 0.0000
# 4 0.0000 0.0000 0.0000 23.2083 0.0000 0.0000
# 5 0.0000 0.0000 0.0000 0.0000 26.3102 0.0000
# 6 0.0000 0.0000 0.0000 0.0000 0.0000 25.4848
#
#
#
# Elastic Compliance Matrix: (Units=1/GPa)
#
#
# Indices 1 2 3 4 5 6 
#
# 1 0.014784 -0.010474 -0.003495 0.000000 0.000000 0.000000
# 2 -0.010474 0.030956 -0.006447 0.000000 0.000000 0.000000
# 3 -0.003495 -0.006447 0.013914 0.000000 0.000000 0.000000
# 4 0.000000 0.000000 0.000000 0.043088 0.000000 0.000000
# 5 0.000000 0.000000 0.000000 0.000000 0.038008 0.000000
# 6 0.000000 0.000000 0.000000 0.000000 0.000000 0.039239
#
#
# Mechanical properties :
#
#
# Convention : Reuss Voigt Hill
#
# Bulk Modulus (GPa) = 53.12945 61.94112 57.53528
# Shear Modulus (GPa) = 22.01720 23.97753 22.99736
#
# Velocity S-wave (km/s) = 3.41813 3.56706 3.49339
# Velocity P-wave (km/s) = 6.61602 7.05938 6.84129
#
# Compressibility (1/GPa) = 0.01882195
#
# Stress axis : x y z
#
# Youngs Moduli (GPa) = 67.64265 32.30401 71.86760
#
# Poissons Ratio (x) = 0.33834 0.25120
# Poissons Ratio (y) = 0.70846 0.46334
# Poissons Ratio (z) = 0.23643 0.20827
#
# Static dielectric constant tensor:
#      x y z
#    x 3.462010 0.000000 0.000000 
#    y 0.000000 3.341370 0.000000 
#    z 0.000000 0.000000 3.564050 
# 
# 
# High freq. dielectric constant tensor:
#      x y z
#    x 1.732560 0.000000 0.000000 
#    y 0.000000 1.708050 0.000000 
#    z 0.000000 0.000000 1.740890 
# 
# From -- ./inp_files/33329.got.cif
#   From: 2010.03.12/outbox.cif.g09.slc.cpg/sg51_17_cif.got.tgz:33329.got - 2010.04.16 13:43:02.
