data_PCOD8208207
_publ_section_title
;
Structure prediction by ZEFSAII (Michael W. Deem and Ramdas Pophale) SiO2 
 PCOD8208207
Probable space group: P M M A
;
_chemical_formula_sum "Si O2"
_cell_formula_units_Z 52
_cell_length_a 9.427167
_cell_length_b 22.627701
_cell_length_c 15.320218
_cell_angle_alpha 90.000000
_cell_angle_beta 90.000000
_cell_angle_gamma 90.000000
_cell_volume 3268.034082
_symmetry_space_group_name_H-M "P M M A"
_symmetry_group_IT_number 51
_symmetry_cell_setting 'orthorhombic'
loop_
_space_group_symop_operation_xyz
x,y,z
1/2-x,-y,z
1/2+x,-y,-z
-x,y,-z
-x,-y,-z
1/2+x,y,-z
1/2-x,y,z
x,-y,z
loop_
_atom_site_type_symbol
_atom_site_label
_atom_site_fract_x
_atom_site_fract_y
_atom_site_fract_z
Si Si1 0.917552 0.871366 0.591918
Si Si2 0.918228 0.344156 0.267095
Si Si3 0.908940 0.000000 0.584273
Si Si4 0.405863 0.791730 0.922102
Si Si5 0.915281 0.567631 0.413983
Si Si6 0.081658 0.789849 0.725672
Si Si7 0.593022 0.348464 0.077428
O O1 0.750000 0.856562 0.578997
O O2 0.937248 0.937737 0.633789
O O3 0.000000 0.865340 0.500000
O O4 0.988092 0.827765 0.660411
O O5 0.750000 0.346299 0.259210
O O6 0.975535 0.390612 0.337724
O O7 0.963145 0.277922 0.292946
O O8 0.977626 0.362923 0.171669
O O9 0.000000 0.000000 0.500000
O O10 0.750000 0.000000 0.549131
O O11 0.250000 0.819112 0.934118
O O12 0.461530 0.807550 0.824885
O O13 0.398069 0.721687 0.931904
O O14 0.500000 0.819447 0.000000
O O15 0.750000 0.579335 0.431694
O O16 0.943453 0.500000 0.386762
O O17 0.000000 0.585023 0.500000
O O18 0.250000 0.799415 0.710433
O O19 0.750000 0.376039 0.069492
O O20 0.500000 0.376598 0.000000
#
# Coordination Sequence:
#
# PCOD8208207 Si02
#       7
#     8   8   4   8   8   8   8
#     4  10  19  31  46  64  87 115 145 176 209 248
#     4   8  15  28  44  61  85 114 139 168 210 255
#     4   8  16  30  46  62  81 108 143 178 209 242
#     4   8  14  24  39  58  82 111 140 171 206 245
#     4   9  17  30  47  63  78 103 142 181 212 246
#     4   9  17  29  43  63  91 117 140 171 214 258
#     4   8  13  23  39  58  80 107 136 165 200 243
#
# _framework density 15.911707
#
# number of rings (size 3 to 8) (size 9 to 14) (size 15 to 20)
#    0.000    3.385    0.000    2.308    0.000    1.846 
#    0.000    5.385    0.000    0.462    0.000    0.538 
#    0.000    0.000    0.000    0.000    0.000    0.000 
#
# Total GULP energy -644180.244838 kJ/mol
# GULP energy per Si atom -12388.081631 kJ/mol
# Density = 1.587549 g / cm^3
# Si number density = 15.911707 Si / 1000 Ang^3
#
#
#
# Elastic Constant Matrix: (Units=GPa)
#
#
# Indices 1 2 3 4 5 6 
#
# 1 65.3350 37.3935 60.3561 0.0000 0.0000 0.0000
# 2 37.3935 75.1703 70.7527 0.0000 0.0000 0.0000
# 3 60.3561 70.7527 140.4216 0.0000 0.0000 0.0000
# 4 0.0000 0.0000 0.0000 -0.3929 0.0000 0.0000
# 5 0.0000 0.0000 0.0000 0.0000 30.4290 0.0000
# 6 0.0000 0.0000 0.0000 0.0000 0.0000 15.4136
#
#
#
# Elastic Compliance Matrix: (Units=1/GPa)
#
#
# Indices 1 2 3 4 5 6 
#
# 1 0.026206 -0.004630 -0.008931 0.000000 0.000000 0.000000
# 2 -0.004630 0.026121 -0.011171 0.000000 0.000000 0.000000
# 3 -0.008931 -0.011171 0.016589 0.000000 0.000000 0.000000
# 4 0.000000 0.000000 0.000000 -2.545327 0.000000 0.000000
# 5 0.000000 0.000000 0.000000 0.000000 0.032863 0.000000
# 6 0.000000 0.000000 0.000000 0.000000 0.000000 0.064878
#
#
# Mechanical properties :
#
#
# Convention : Reuss Voigt Hill
#
# Bulk Modulus (GPa) = 51.41018 68.65905 60.03462
# Shear Modulus (GPa) = -2.15265 16.58491 7.21613
#
# Velocity S-wave (km/s) = -1.16439 3.23198 2.13189
# Velocity P-wave (km/s) = 5.52920 7.56117 6.62357
#
# Compressibility (1/GPa) = 0.01945140
#
# Stress axis : x y z
#
# Youngs Moduli (GPa) = 38.15903 38.28326 60.28128
#
# Poissons Ratio (x) = 0.17725 0.53837
# Poissons Ratio (y) = 0.17668 0.67342
# Poissons Ratio (z) = 0.34080 0.42767
#
# Static dielectric constant tensor:
#      x y z
#    x 3.097820 0.000000 0.000000 
#    y 0.000000 3.063940 0.000000 
#    z 0.000000 0.000000 3.170600 
# 
# 
# High freq. dielectric constant tensor:
#      x y z
#    x 1.601370 0.000000 0.000000 
#    y 0.000000 1.578740 0.000000 
#    z 0.000000 0.000000 1.609970 
# 
# From -- ./inp_files/21561.got.cif
#   From: 2010.03.12/outbox.cif.g09.slc.cpg/sg51_11_cif.got.tgz:21561.got - 2010.04.16 13:43:02.
