data_PCOD8208145
_publ_section_title
;
Structure prediction by ZEFSAII (Michael W. Deem and Ramdas Pophale) SiO2 
 PCOD8208145
Probable space group: P M M A
;
_chemical_formula_sum "Si O2"
_cell_formula_units_Z 64
_cell_length_a 19.819457
_cell_length_b 13.989104
_cell_length_c 14.524420
_cell_angle_alpha 90.000000
_cell_angle_beta 90.000000
_cell_angle_gamma 90.000000
_cell_volume 4026.989058
_symmetry_space_group_name_H-M "P M M A"
_symmetry_group_IT_number 51
_symmetry_cell_setting 'orthorhombic'
loop_
_space_group_symop_operation_xyz
x,y,z
1/2-x,-y,z
1/2+x,-y,-z
-x,y,-z
-x,-y,-z
1/2+x,y,-z
1/2-x,y,z
x,-y,z
loop_
_atom_site_type_symbol
_atom_site_label
_atom_site_fract_x
_atom_site_fract_y
_atom_site_fract_z
Si Si1 0.868492 0.207800 0.756549
Si Si2 0.077554 0.397257 0.974393
Si Si3 0.565486 0.805127 0.064762
Si Si4 0.439942 0.112768 0.561166
Si Si5 0.673480 0.890528 0.572075
Si Si6 0.325917 0.893236 0.064786
Si Si7 0.488534 0.887987 0.756463
Si Si8 0.828791 0.391429 0.849040
O O1 0.839323 0.176695 0.658809
O O2 0.826539 0.158351 0.837255
O O3 0.857380 0.321734 0.768889
O O4 0.946231 0.178460 0.765064
O O5 0.100600 0.500000 0.930203
O O6 0.081647 0.305489 0.906941
O O7 0.125381 0.374032 0.061267
O O8 0.000000 0.408584 0.000000
O O9 0.557690 0.869173 0.155182
O O10 0.500000 0.811914 0.000000
O O11 0.629413 0.842574 0.010776
O O12 0.500000 0.157681 0.500000
O O13 0.369771 0.145865 0.515337
O O14 0.446702 0.146199 0.666764
O O15 0.445396 0.000000 0.558830
O O16 0.750000 0.882582 0.539766
O O17 0.654361 0.000000 0.598955
O O18 0.250000 0.892855 0.026948
O O19 0.353483 0.000000 0.079679
O O20 0.508545 0.000000 0.751101
O O21 0.750000 0.369754 0.871937
O O22 0.837151 0.500000 0.813331
#
# Coordination Sequence:
#
# PCOD8208145 Si02
#       8
#     8   8   8   8   8   8   8   8
#     4  12  19  30  50  74 100 126 159 202 246 296
#     4   9  17  31  48  66  90 124 167 208 243 278
#     4  11  20  32  48  69  96 131 167 202 236 289
#     4   9  17  32  49  67  95 130 167 206 242 286
#     4  10  19  30  48  75 102 127 159 203 251 294
#     4  11  22  32  43  65 101 136 162 194 236 283
#     4  11  21  32  50  74  99 131 171 204 239 291
#     4  10  20  33  49  70  99 132 163 200 249 301
#
# _framework density 15.892766999999999
#
# number of rings (size 3 to 8) (size 9 to 14) (size 15 to 20)
#    0.000    1.625    3.750    3.375    0.000    1.500 
#    0.000    0.625    0.000    2.250    0.000    2.625 
#    0.000    0.000    0.000    0.000    0.000    0.000 
#
# Total GULP energy -793234.200019 kJ/mol
# GULP energy per Si atom -12394.284375 kJ/mol
# Density = 1.585659 g / cm^3
# Si number density = 15.892767 Si / 1000 Ang^3
#
#
#
# Elastic Constant Matrix: (Units=GPa)
#
#
# Indices 1 2 3 4 5 6 
#
# 1 87.4613 34.0548 38.4587 0.0000 0.0000 0.0000
# 2 34.0548 88.1651 30.8537 0.0000 0.0000 0.0000
# 3 38.4587 30.8537 83.5841 0.0000 0.0000 0.0000
# 4 0.0000 0.0000 0.0000 8.6238 0.0000 0.0000
# 5 0.0000 0.0000 0.0000 0.0000 11.5358 0.0000
# 6 0.0000 0.0000 0.0000 0.0000 0.0000 21.2113
#
#
#
# Elastic Compliance Matrix: (Units=1/GPa)
#
#
# Indices 1 2 3 4 5 6 
#
# 1 0.015473 -0.004002 -0.005642 0.000000 0.000000 0.000000
# 2 -0.004002 0.014060 -0.003349 0.000000 0.000000 0.000000
# 3 -0.005642 -0.003349 0.015796 0.000000 0.000000 0.000000
# 4 0.000000 0.000000 0.000000 0.115958 0.000000 0.000000
# 5 0.000000 0.000000 0.000000 0.000000 0.086687 0.000000
# 6 0.000000 0.000000 0.000000 0.000000 0.000000 0.047145
#
#
# Mechanical properties :
#
#
# Convention : Reuss Voigt Hill
#
# Bulk Modulus (GPa) = 51.69693 51.77165 51.73429
# Shear Modulus (GPa) = 15.26476 18.66374 16.96425
#
# Velocity S-wave (km/s) = 3.10253 3.43060 3.27068
# Velocity P-wave (km/s) = 6.74044 6.95258 6.84733
#
# Compressibility (1/GPa) = 0.01934351
#
# Stress axis : x y z
#
# Youngs Moduli (GPa) = 64.62919 71.12339 63.30673
#
# Poissons Ratio (x) = 0.28464 0.35718
# Poissons Ratio (y) = 0.25865 0.21199
# Poissons Ratio (z) = 0.36464 0.23816
#
# Static dielectric constant tensor:
#      x y z
#    x 3.054970 0.000000 0.000000 
#    y 0.000000 3.283020 0.000000 
#    z 0.000000 0.000000 3.005310 
# 
# 
# High freq. dielectric constant tensor:
#      x y z
#    x 1.619260 0.000000 0.000000 
#    y 0.000000 1.602720 0.000000 
#    z 0.000000 0.000000 1.580090 
# 
# From -- ./inp_files/25391.got.cif
#   From: 2010.03.12/outbox.cif.g09.slc.cpg/sg51_13_cif.got.tgz:25391.got - 2010.04.16 13:43:02.
