data_PCOD8208398
_publ_section_title
;
Structure prediction by ZEFSAII (Michael W. Deem and Ramdas Pophale) SiO2 
 PCOD8208398
Probable space group: P M M A
;
_chemical_formula_sum "Si O2"
_cell_formula_units_Z 64
_cell_length_a 9.345086
_cell_length_b 24.437074
_cell_length_c 15.199750
_cell_angle_alpha 90.000000
_cell_angle_beta 90.000000
_cell_angle_gamma 90.000000
_cell_volume 3471.114592
_symmetry_space_group_name_H-M "P M M A"
_symmetry_group_IT_number 51
_symmetry_cell_setting 'orthorhombic'
loop_
_space_group_symop_operation_xyz
x,y,z
1/2-x,-y,z
1/2+x,-y,-z
-x,y,-z
-x,-y,-z
1/2+x,y,-z
1/2-x,y,z
x,-y,z
loop_
_atom_site_type_symbol
_atom_site_label
_atom_site_fract_x
_atom_site_fract_y
_atom_site_fract_z
Si Si1 0.084469 0.862744 0.413957
Si Si2 0.914539 0.235301 0.698154
Si Si3 0.418444 0.356092 0.260869
Si Si4 0.080716 0.335256 0.913962
Si Si5 0.916320 0.436962 0.585892
Si Si6 0.913139 0.937068 0.748205
Si Si7 0.413766 0.096705 0.917286
Si Si8 0.409680 0.215247 0.861286
O O1 0.250000 0.871683 0.434518
O O2 0.050877 0.798905 0.390164
O O3 0.034520 0.901226 0.334168
O O4 0.000000 0.880098 0.500000
O O5 0.750000 0.229982 0.722131
O O6 0.958575 0.298897 0.690721
O O7 0.991096 0.205050 0.778072
O O8 0.250000 0.359065 0.237201
O O9 0.511248 0.363264 0.172385
O O10 0.464646 0.403451 0.328221
O O11 0.250000 0.348594 0.918183
O O12 0.047976 0.270371 0.912929
O O13 0.000000 0.359148 0.000000
O O14 0.750000 0.427619 0.566523
O O15 0.952927 0.500000 0.605290
O O16 0.000000 0.415816 0.500000
O O17 0.750000 0.921546 0.774437
O O18 0.017501 0.926044 0.828986
O O19 0.924147 0.000000 0.719897
O O20 0.250000 0.076613 0.921998
O O21 0.422422 0.162708 0.923638
O O22 0.500000 0.072261 0.000000
O O23 0.250000 0.222221 0.824181
#
# Coordination Sequence:
#
# PCOD8208398 Si02
#       8
#     8   8   8   8   8   8   8   8
#     4  10  21  36  55  79 104 133 167 207 257 310
#     4   9  17  31  51  74 103 137 170 205 252 306
#     4   9  18  32  51  76 106 141 178 216 260 308
#     4  10  19  31  48  74 108 143 178 215 257 305
#     4   9  18  33  53  77 106 140 179 222 266 312
#     4  10  22  41  60  76  99 132 171 216 260 305
#     4  11  22  35  55  81 107 135 169 208 255 309
#     4   9  18  31  49  75 104 135 170 207 249 300
#
# _framework density 18.437881000000001
#
# number of rings (size 3 to 8) (size 9 to 14) (size 15 to 20)
#    0.000    2.375    1.250    1.125    0.000    3.750 
#    0.000    0.000    0.000    0.375    0.000    0.000 
#    0.000    0.000    0.000    0.000    0.000    0.000 
#
# Total GULP energy -793529.649423 kJ/mol
# GULP energy per Si atom -12398.900772 kJ/mol
# Density = 1.839592 g / cm^3
# Si number density = 18.437881 Si / 1000 Ang^3
#
#
#
# Elastic Constant Matrix: (Units=GPa)
#
#
# Indices 1 2 3 4 5 6 
#
# 1 85.3710 31.4036 75.5429 0.0000 0.0000 0.0000
# 2 31.4036 65.3735 51.5091 0.0000 0.0000 0.0000
# 3 75.5429 51.5091 149.5402 0.0000 0.0000 0.0000
# 4 0.0000 0.0000 0.0000 17.2217 0.0000 0.0000
# 5 0.0000 0.0000 0.0000 0.0000 39.0327 0.0000
# 6 0.0000 0.0000 0.0000 0.0000 0.0000 19.3475
#
#
#
# Elastic Compliance Matrix: (Units=1/GPa)
#
#
# Indices 1 2 3 4 5 6 
#
# 1 0.021459 -0.002425 -0.010005 0.000000 0.000000 0.000000
# 2 -0.002425 0.021269 -0.006101 0.000000 0.000000 0.000000
# 3 -0.010005 -0.006101 0.013843 0.000000 0.000000 0.000000
# 4 0.000000 0.000000 0.000000 0.058066 0.000000 0.000000
# 5 0.000000 0.000000 0.000000 0.000000 0.025620 0.000000
# 6 0.000000 0.000000 0.000000 0.000000 0.000000 0.051686
#
#
# Mechanical properties :
#
#
# Convention : Reuss Voigt Hill
#
# Bulk Modulus (GPa) = 51.26006 68.57730 59.91868
# Shear Modulus (GPa) = 21.23075 24.57565 22.90320
#
# Velocity S-wave (km/s) = 3.39702 3.65484 3.52828
# Velocity P-wave (km/s) = 6.57633 7.42192 7.01188
#
# Compressibility (1/GPa) = 0.01950837
#
# Stress axis : x y z
#
# Youngs Moduli (GPa) = 46.60080 47.01742 72.23961
#
# Poissons Ratio (x) = 0.11402 0.72276
# Poissons Ratio (y) = 0.11301 0.44073
# Poissons Ratio (z) = 0.46624 0.28685
#
# Static dielectric constant tensor:
#      x y z
#    x 3.299710 0.000000 0.000000 
#    y 0.000000 3.366640 0.000000 
#    z 0.000000 0.000000 3.238110 
# 
# 
# High freq. dielectric constant tensor:
#      x y z
#    x 1.716880 0.000000 0.000000 
#    y 0.000000 1.699900 0.000000 
#    z 0.000000 0.000000 1.706770 
# 
# From -- ./inp_files/22308.got.cif
#   From: 2010.03.12/outbox.cif.g09.slc.cpg/sg51_12_cif.got.tgz:22308.got - 2010.04.16 13:43:02.
