data_PCOD8208307
_publ_section_title
;
Structure prediction by ZEFSAII (Michael W. Deem and Ramdas Pophale) SiO2 
 PCOD8208307
Probable space group: P M M A
;
_chemical_formula_sum "Si O2"
_cell_formula_units_Z 64
_cell_length_a 9.526744
_cell_length_b 22.345971
_cell_length_c 17.539175
_cell_angle_alpha 90.000000
_cell_angle_beta 90.000000
_cell_angle_gamma 90.000000
_cell_volume 3733.815784
_symmetry_space_group_name_H-M "P M M A"
_symmetry_group_IT_number 51
_symmetry_cell_setting 'orthorhombic'
loop_
_space_group_symop_operation_xyz
x,y,z
1/2-x,-y,z
1/2+x,-y,-z
-x,y,-z
-x,-y,-z
1/2+x,y,-z
1/2-x,y,z
x,-y,z
loop_
_atom_site_type_symbol
_atom_site_label
_atom_site_fract_x
_atom_site_fract_y
_atom_site_fract_z
Si Si1 0.994500 0.360048 0.694448
Si Si2 0.409219 0.725055 0.571651
Si Si3 0.587989 0.181910 0.660258
Si Si4 0.410537 0.566160 0.832291
Si Si5 0.080837 0.680785 0.922249
Si Si6 0.093498 0.742296 0.200698
Si Si7 0.911462 0.067063 0.573174
Si Si8 0.597037 0.566371 0.563113
O O1 0.100012 0.324285 0.638926
O O2 0.077609 0.406219 0.748064
O O3 0.901195 0.314446 0.742901
O O4 0.891336 0.398000 0.641649
O O5 0.500000 0.701468 0.500000
O O6 0.250000 0.740089 0.546272
O O7 0.485609 0.784064 0.602749
O O8 0.750000 0.199706 0.643125
O O9 0.554146 0.198945 0.748744
O O10 0.562143 0.111383 0.644916
O O11 0.250000 0.556121 0.851188
O O12 0.485049 0.500000 0.838954
O O13 0.468167 0.614794 0.893292
O O14 0.250000 0.686463 0.929780
O O15 0.025058 0.731606 0.863560
O O16 0.000000 0.693121 0.000000
O O17 0.250000 0.748873 0.164581
O O18 0.750000 0.069388 0.547750
O O19 0.000000 0.087824 0.500000
O O20 0.954613 0.000000 0.599194
O O21 0.500000 0.598262 0.500000
O O22 0.750000 0.563941 0.526017
O O23 0.538529 0.500000 0.580890
#
# Coordination Sequence:
#
# PCOD8208307 Si02
#       8
#     8   8   8   8   8   8   8   8
#     4  10  19  31  48  64  84 112 147 186 230 278
#     4  11  22  32  44  63  87 118 157 201 246 289
#     4   9  18  32  49  69  95 127 161 199 241 281
#     4   9  18  32  49  69  91 114 142 178 222 273
#     4  10  20  34  53  75  98 122 147 177 218 270
#     4   9  18  32  50  71  94 119 148 183 225 272
#     4   9  17  29  45  67  97 134 175 213 245 277
#     4  10  21  34  46  61  81 107 142 185 232 279
#
# _framework density 17.140640999999999
#
# number of rings (size 3 to 8) (size 9 to 14) (size 15 to 20)
#    0.000    2.375    0.000    2.625    0.000    8.250 
#    0.000    1.250    0.000    7.125    0.000    0.000 
#    0.000    0.500    0.000    0.875    0.000    1.250 
#
# Total GULP energy -793029.932760 kJ/mol
# GULP energy per Si atom -12391.092699 kJ/mol
# Density = 1.710163 g / cm^3
# Si number density = 17.140641 Si / 1000 Ang^3
#
#
#
# Elastic Constant Matrix: (Units=GPa)
#
#
# Indices 1 2 3 4 5 6 
#
# 1 87.6027 30.2905 42.8974 0.0000 0.0000 0.0000
# 2 30.2905 93.7606 48.0731 0.0000 0.0000 0.0000
# 3 42.8974 48.0731 103.5790 0.0000 0.0000 0.0000
# 4 0.0000 0.0000 0.0000 14.1910 0.0000 0.0000
# 5 0.0000 0.0000 0.0000 0.0000 25.6745 0.0000
# 6 0.0000 0.0000 0.0000 0.0000 0.0000 6.5873
#
#
#
# Elastic Compliance Matrix: (Units=1/GPa)
#
#
# Indices 1 2 3 4 5 6 
#
# 1 0.014635 -0.002126 -0.005074 0.000000 0.000000 0.000000
# 2 -0.002126 0.014305 -0.005759 0.000000 0.000000 0.000000
# 3 -0.005074 -0.005759 0.014429 0.000000 0.000000 0.000000
# 4 0.000000 0.000000 0.000000 0.070467 0.000000 0.000000
# 5 0.000000 0.000000 0.000000 0.000000 0.038949 0.000000
# 6 0.000000 0.000000 0.000000 0.000000 0.000000 0.151807
#
#
# Mechanical properties :
#
#
# Convention : Reuss Voigt Hill
#
# Bulk Modulus (GPa) = 57.30552 58.60714 57.95633
# Shear Modulus (GPa) = 14.86644 20.20264 17.53454
#
# Velocity S-wave (km/s) = 2.94823 3.43686 3.20188
# Velocity P-wave (km/s) = 6.71524 7.07216 6.89601
#
# Compressibility (1/GPa) = 0.01745032
#
# Stress axis : x y z
#
# Youngs Moduli (GPa) = 68.32843 69.90581 69.30646
#
# Poissons Ratio (x) = 0.14865 0.35168
# Poissons Ratio (y) = 0.14529 0.39911
# Poissons Ratio (z) = 0.34672 0.40256
#
# Static dielectric constant tensor:
#      x y z
#    x 3.092100 0.000000 0.000000 
#    y 0.000000 3.287680 0.000000 
#    z 0.000000 0.000000 3.089960 
# 
# 
# High freq. dielectric constant tensor:
#      x y z
#    x 1.658040 0.000000 0.000000 
#    y 0.000000 1.644050 0.000000 
#    z 0.000000 0.000000 1.639370 
# 
# From -- ./inp_files/28638.got.cif
#   From: 2010.03.12/outbox.cif.g09.slc.cpg/sg51_15_cif.got.tgz:28638.got - 2010.04.16 13:43:02.
