data_PCOD8208834
_publ_section_title
;
Structure prediction by ZEFSAII (Michael W. Deem and Ramdas Pophale) SiO2 
 PCOD8208834
Probable space group: P M M A
;
_chemical_formula_sum "Si O2"
_cell_formula_units_Z 64
_cell_length_a 9.069839
_cell_length_b 14.072615
_cell_length_c 31.040532
_cell_angle_alpha 90.000000
_cell_angle_beta 90.000000
_cell_angle_gamma 90.000000
_cell_volume 3961.900280
_symmetry_space_group_name_H-M "P M M A"
_symmetry_group_IT_number 51
_symmetry_cell_setting 'orthorhombic'
loop_
_space_group_symop_operation_xyz
x,y,z
1/2-x,-y,z
1/2+x,-y,-z
-x,y,-z
-x,-y,-z
1/2+x,y,-z
1/2-x,y,z
x,-y,z
loop_
_atom_site_type_symbol
_atom_site_label
_atom_site_fract_x
_atom_site_fract_y
_atom_site_fract_z
Si Si1 0.422283 0.107857 0.245499
Si Si2 0.577880 0.390922 0.126591
Si Si3 0.079602 0.389539 0.288256
Si Si4 0.583736 0.613217 0.958278
Si Si5 0.079156 0.108076 0.664497
Si Si6 0.575774 0.718577 0.212042
Si Si7 0.422248 0.724601 0.374083
Si Si8 0.923383 0.391601 0.543002
O O1 0.250000 0.130818 0.248207
O O2 0.489699 0.128196 0.292104
O O3 0.500237 0.177718 0.211666
O O4 0.452265 0.000000 0.230558
O O5 0.750000 0.380911 0.117127
O O6 0.534450 0.500000 0.135457
O O7 0.493577 0.349468 0.085116
O O8 0.527813 0.331473 0.167906
O O9 0.250000 0.372939 0.276061
O O10 0.041475 0.500000 0.292129
O O11 0.040701 0.342197 0.333699
O O12 0.978847 0.344238 0.251700
O O13 0.750000 0.651494 0.959239
O O14 0.578222 0.500000 0.959197
O O15 0.500000 0.654647 0.000000
O O16 0.250000 0.130151 0.673312
O O17 0.014191 0.177564 0.628220
O O18 0.056479 0.000000 0.648746
O O19 0.750000 0.730194 0.215446
O O20 0.250000 0.749174 0.376191
O O21 0.476358 0.670983 0.416793
O O22 0.750000 0.384329 0.536606
O O23 0.972291 0.500000 0.551780
O O24 0.000000 0.351717 0.500000
#
# Coordination Sequence:
#
# PCOD8208834 Si02
#       8
#     8   8   8   8   8   8   8   8
#     4  10  20  34  51  69  91 122 160 200 241 286
#     4   9  18  31  44  61  91 129 163 195 234 280
#     4  10  20  32  46  66  94 129 164 195 229 274
#     4   9  16  26  42  63  86 116 157 202 243 281
#     4  10  20  33  50  73  98 122 152 194 241 285
#     4  11  21  32  47  68  96 128 161 199 241 282
#     4  10  19  32  51  73  97 126 159 195 235 280
#     4   9  18  33  52  74 100 128 158 192 232 278
#
# _framework density 16.153866000000001
#
# number of rings (size 3 to 8) (size 9 to 14) (size 15 to 20)
#    0.000    2.250    1.250    2.250    0.000    6.750 
#    0.000    1.250    0.000    2.625    0.000    0.000 
#    0.000    0.500    0.000    1.625    0.000    2.375 
#
# Total GULP energy -793732.218875 kJ/mol
# GULP energy per Si atom -12402.065920 kJ/mol
# Density = 1.611710 g / cm^3
# Si number density = 16.153866 Si / 1000 Ang^3
#
#
#
# Elastic Constant Matrix: (Units=GPa)
#
#
# Indices 1 2 3 4 5 6 
#
# 1 80.5019 46.9630 63.1560 0.0000 0.0000 0.0000
# 2 46.9630 95.5339 60.6146 0.0000 0.0000 0.0000
# 3 63.1560 60.6146 136.7857 0.0000 0.0000 0.0000
# 4 0.0000 0.0000 0.0000 10.1578 0.0000 0.0000
# 5 0.0000 0.0000 0.0000 0.0000 29.9105 0.0000
# 6 0.0000 0.0000 0.0000 0.0000 0.0000 25.3319
#
#
#
# Elastic Compliance Matrix: (Units=1/GPa)
#
#
# Indices 1 2 3 4 5 6 
#
# 1 0.021693 -0.005994 -0.007360 0.000000 0.000000 0.000000
# 2 -0.005994 0.016218 -0.004419 0.000000 0.000000 0.000000
# 3 -0.007360 -0.004419 0.012667 0.000000 0.000000 0.000000
# 4 0.000000 0.000000 0.000000 0.098447 0.000000 0.000000
# 5 0.000000 0.000000 0.000000 0.000000 0.033433 0.000000
# 6 0.000000 0.000000 0.000000 0.000000 0.000000 0.039476
#
#
# Mechanical properties :
#
#
# Convention : Reuss Voigt Hill
#
# Bulk Modulus (GPa) = 66.52565 72.69875 69.61220
# Shear Modulus (GPa) = 19.04832 22.55257 20.80044
#
# Velocity S-wave (km/s) = 3.43764 3.74051 3.59227
# Velocity P-wave (km/s) = 7.55172 7.98479 7.77127
#
# Compressibility (1/GPa) = 0.01503180
#
# Stress axis : x y z
#
# Youngs Moduli (GPa) = 46.09818 61.65967 78.94519
#
# Poissons Ratio (x) = 0.36961 0.58101
# Poissons Ratio (y) = 0.27633 0.34887
# Poissons Ratio (z) = 0.33926 0.27248
#
# Static dielectric constant tensor:
#      x y z
#    x 3.105270 0.000000 0.000000 
#    y 0.000000 3.051230 0.000000 
#    z 0.000000 0.000000 3.045010 
# 
# 
# High freq. dielectric constant tensor:
#      x y z
#    x 1.629720 0.000000 0.000000 
#    y 0.000000 1.602820 0.000000 
#    z 0.000000 0.000000 1.608890 
# 
# From -- ./inp_files/37639.got.cif
#   From: 2010.03.12/outbox.cif.g09.slc.cpg/sg51_19_cif.got.tgz:37639.got - 2010.04.16 13:43:02.
