data_PCOD8208866
_publ_section_title
;
Structure prediction by ZEFSAII (Michael W. Deem and Ramdas Pophale) SiO2 
 PCOD8208866
Probable space group: P M M A
;
_chemical_formula_sum "Si O2"
_cell_formula_units_Z 52
_cell_length_a 9.679565
_cell_length_b 8.263706
_cell_length_c 35.247256
_cell_angle_alpha 90.000000
_cell_angle_beta 90.000000
_cell_angle_gamma 90.000000
_cell_volume 2819.395558
_symmetry_space_group_name_H-M "P M M A"
_symmetry_group_IT_number 51
_symmetry_cell_setting 'orthorhombic'
loop_
_space_group_symop_operation_xyz
x,y,z
1/2-x,-y,z
1/2+x,-y,-z
-x,y,-z
-x,-y,-z
1/2+x,y,-z
1/2-x,y,z
x,-y,z
loop_
_atom_site_type_symbol
_atom_site_label
_atom_site_fract_x
_atom_site_fract_y
_atom_site_fract_z
Si Si1 0.415704 0.000000 0.961541
Si Si2 0.086991 0.819947 0.390020
Si Si3 0.903245 0.688038 0.532325
Si Si4 0.414396 0.320576 0.313177
Si Si5 0.406480 0.813510 0.836485
Si Si6 0.586369 0.318712 0.084730
Si Si7 0.091081 0.691395 0.229964
O O1 0.464847 0.166537 0.940595
O O2 0.250000 0.000000 0.967933
O O3 0.500000 0.000000 0.000000
O O4 0.250000 0.797646 0.386033
O O5 0.033117 0.713740 0.425504
O O6 0.021252 0.774297 0.349159
O O7 0.042131 0.000000 0.399816
O O8 0.750000 0.767809 0.529920
O O9 0.890868 0.500000 0.524119
O O10 0.000000 0.768418 0.500000
O O11 0.250000 0.324397 0.315037
O O12 0.474772 0.500000 0.316381
O O13 0.455460 0.247228 0.272059
O O14 0.250000 0.762432 0.826396
O O15 0.463250 0.709390 0.871979
O O16 0.499563 0.785335 0.800030
O O17 0.412341 0.000000 0.848837
O O18 0.750000 0.316172 0.083733
O O19 0.533563 0.500000 0.071559
O O20 0.250000 0.736251 0.222295
O O21 0.068337 0.500000 0.226670
#
# Coordination Sequence:
#
# PCOD8208866 Si02
#       7
#     4   8   8   8   8   8   8
#     4  10  20  36  56  80 108 136 172 214 256 308
#     4   9  16  25  40  63  87 112 145 183 220 265
#     4   9  17  29  45  64  85 109 139 176 218 264
#     4   8  14  26  43  62  88 121 154 189 230 277
#     4  10  19  32  51  75 101 132 174 216 250 294
#     4   9  17  32  55  78 102 136 175 214 254 299
#     4   9  18  31  47  71 101 130 162 203 252 301
#
# _framework density 18.443670000000001
#
# number of rings (size 3 to 8) (size 9 to 14) (size 15 to 20)
#    0.000    2.923    0.769    1.846    0.000    4.308 
#    0.000    2.308    0.000    1.846    0.000    2.154 
#    0.000    0.000    0.000    0.000    0.000    0.000 
#
# Total GULP energy -644215.991321 kJ/mol
# GULP energy per Si atom -12388.769064 kJ/mol
# Density = 1.840169 g / cm^3
# Si number density = 18.443670 Si / 1000 Ang^3
#
#
#
# Elastic Constant Matrix: (Units=GPa)
#
#
# Indices 1 2 3 4 5 6 
#
# 1 35.4965 17.9710 41.5475 0.0000 0.0000 0.0000
# 2 17.9710 80.4497 52.8666 0.0000 0.0000 0.0000
# 3 41.5475 52.8666 150.2573 0.0000 0.0000 0.0000
# 4 0.0000 0.0000 0.0000 28.0089 0.0000 0.0000
# 5 0.0000 0.0000 0.0000 0.0000 26.5396 0.0000
# 6 0.0000 0.0000 0.0000 0.0000 0.0000 13.6956
#
#
#
# Elastic Compliance Matrix: (Units=1/GPa)
#
#
# Indices 1 2 3 4 5 6 
#
# 1 0.041970 -0.002275 -0.010805 0.000000 0.000000 0.000000
# 2 -0.002275 0.016292 -0.005103 0.000000 0.000000 0.000000
# 3 -0.010805 -0.005103 0.011438 0.000000 0.000000 0.000000
# 4 0.000000 0.000000 0.000000 0.035703 0.000000 0.000000
# 5 0.000000 0.000000 0.000000 0.000000 0.037679 0.000000
# 6 0.000000 0.000000 0.000000 0.000000 0.000000 0.073016
#
#
# Mechanical properties :
#
#
# Convention : Reuss Voigt Hill
#
# Bulk Modulus (GPa) = 29.99896 54.55262 42.27579
# Shear Modulus (GPa) = 18.96989 23.90341 21.43665
#
# Velocity S-wave (km/s) = 3.21055 3.60394 3.41292
# Velocity P-wave (km/s) = 5.48124 6.85274 6.20500
#
# Compressibility (1/GPa) = 0.03333449
#
# Stress axis : x y z
#
# Youngs Moduli (GPa) = 23.82645 61.38088 87.42610
#
# Poissons Ratio (x) = 0.13966 0.94460
# Poissons Ratio (y) = 0.05421 0.44613
# Poissons Ratio (z) = 0.25743 0.31322
#
# Static dielectric constant tensor:
#      x y z
#    x 2.957600 0.000000 0.000000 
#    y 0.000000 3.480850 0.000000 
#    z 0.000000 0.000000 3.633030 
# 
# 
# High freq. dielectric constant tensor:
#      x y z
#    x 1.649720 0.000000 0.000000 
#    y 0.000000 1.714770 0.000000 
#    z 0.000000 0.000000 1.729430 
# 
# From -- ./inp_files/37709.got.cif
#   From: 2010.03.12/outbox.cif.g09.slc.cpg/sg51_19_cif.got.tgz:37709.got - 2010.04.16 13:43:02.
