data_PCOD8208129
_publ_section_title
;
Structure prediction by ZEFSAII (Michael W. Deem and Ramdas Pophale) SiO2 
 PCOD8208129
Probable space group: P M M A
;
_chemical_formula_sum "Si O2"
_cell_formula_units_Z 64
_cell_length_a 18.842757
_cell_length_b 9.134069
_cell_length_c 21.293598
_cell_angle_alpha 90.000000
_cell_angle_beta 90.000000
_cell_angle_gamma 90.000000
_cell_volume 3664.863352
_symmetry_space_group_name_H-M "P M M A"
_symmetry_group_IT_number 51
_symmetry_cell_setting 'orthorhombic'
loop_
_space_group_symop_operation_xyz
x,y,z
1/2-x,-y,z
1/2+x,-y,-z
-x,y,-z
-x,-y,-z
1/2+x,y,-z
1/2-x,y,z
x,-y,z
loop_
_atom_site_type_symbol
_atom_site_label
_atom_site_fract_x
_atom_site_fract_y
_atom_site_fract_z
Si Si1 0.628787 0.663701 0.262000
Si Si2 0.028355 0.664535 0.315093
Si Si3 0.078831 0.329583 0.979992
Si Si4 0.327321 0.167594 0.621813
Si Si5 0.332993 0.668297 0.101295
Si Si6 0.919122 0.828635 0.147135
Si Si7 0.524433 0.172310 0.431757
Si Si8 0.426053 0.171549 0.198556
O O1 0.657145 0.500000 0.249828
O O2 0.549065 0.661388 0.286106
O O3 0.676633 0.739291 0.314644
O O4 0.633119 0.754625 0.197677
O O5 0.057685 0.500000 0.324930
O O6 0.078577 0.751301 0.266643
O O7 0.025847 0.747103 0.381691
O O8 0.083511 0.500000 0.962173
O O9 0.101367 0.235432 0.920171
O O10 0.131866 0.286191 0.035613
O O11 0.000000 0.285178 0.000000
O O12 0.250000 0.186957 0.588031
O O13 0.392303 0.216479 0.576790
O O14 0.340003 0.000000 0.641628
O O15 0.250000 0.695278 0.094872
O O16 0.351551 0.500000 0.117066
O O17 0.361801 0.768918 0.156960
O O18 0.000739 0.791180 0.163032
O O19 0.904664 0.000000 0.147807
O O20 0.500000 0.226111 0.500000
O O21 0.512811 0.000000 0.423282
O O22 0.416977 0.000000 0.209448
#
# Coordination Sequence:
#
# PCOD8208129 Si02
#       8
#     8   8   8   8   8   8   8   8
#     4   9  17  29  46  69  96 125 159 199 243 291
#     4   9  17  29  48  73  99 126 160 202 245 289
#     4  10  19  32  51  72  95 127 169 211 250 302
#     4   9  17  30  48  70  98 131 166 204 247 295
#     4  10  21  36  52  71  97 128 162 205 259 311
#     4  10  19  30  48  73  98 124 160 206 251 293
#     4   9  17  30  49  74 104 136 170 207 247 293
#     4  10  19  31  50  74  98 124 159 204 250 297
#
# _framework density 17.463134
#
# number of rings (size 3 to 8) (size 9 to 14) (size 15 to 20)
#    0.000    2.500    1.250    1.500    0.000    5.500 
#    0.000    0.625    0.000    3.000    0.000    1.750 
#    0.000    0.000    0.000    0.000    0.000    0.000 
#
# Total GULP energy -793580.615026 kJ/mol
# GULP energy per Si atom -12399.697110 kJ/mol
# Density = 1.742339 g / cm^3
# Si number density = 17.463134 Si / 1000 Ang^3
#
#
#
# Elastic Constant Matrix: (Units=GPa)
#
#
# Indices 1 2 3 4 5 6 
#
# 1 73.2896 32.7783 49.5425 0.0000 0.0000 0.0000
# 2 32.7783 86.6940 64.3753 0.0000 0.0000 0.0000
# 3 49.5425 64.3753 145.6786 0.0000 0.0000 0.0000
# 4 0.0000 0.0000 0.0000 31.3306 0.0000 0.0000
# 5 0.0000 0.0000 0.0000 0.0000 19.4985 0.0000
# 6 0.0000 0.0000 0.0000 0.0000 0.0000 17.0751
#
#
#
# Elastic Compliance Matrix: (Units=1/GPa)
#
#
# Indices 1 2 3 4 5 6 
#
# 1 0.018380 -0.003435 -0.004733 0.000000 0.000000 0.000000
# 2 -0.003435 0.017810 -0.006702 0.000000 0.000000 0.000000
# 3 -0.004733 -0.006702 0.011436 0.000000 0.000000 0.000000
# 4 0.000000 0.000000 0.000000 0.031918 0.000000 0.000000
# 5 0.000000 0.000000 0.000000 0.000000 0.051286 0.000000
# 6 0.000000 0.000000 0.000000 0.000000 0.000000 0.058565
#
#
# Mechanical properties :
#
#
# Convention : Reuss Voigt Hill
#
# Bulk Modulus (GPa) = 55.90932 66.56159 61.23546
# Shear Modulus (GPa) = 22.21267 24.17856 23.19561
#
# Velocity S-wave (km/s) = 3.57034 3.72499 3.64849
# Velocity P-wave (km/s) = 7.00583 7.52987 7.27257
#
# Compressibility (1/GPa) = 0.01788610
#
# Stress axis : x y z
#
# Youngs Moduli (GPa) = 54.40676 56.14714 87.44575
#
# Poissons Ratio (x) = 0.19286 0.41386
# Poissons Ratio (y) = 0.18689 0.58608
# Poissons Ratio (z) = 0.25750 0.37631
#
# Static dielectric constant tensor:
#      x y z
#    x 3.021310 0.000000 0.000000 
#    y 0.000000 3.332790 0.000000 
#    z 0.000000 0.000000 3.222360 
# 
# 
# High freq. dielectric constant tensor:
#      x y z
#    x 1.644720 0.000000 0.000000 
#    y 0.000000 1.681020 0.000000 
#    z 0.000000 0.000000 1.667090 
# 
# From -- ./inp_files/33911.got.cif
#   From: 2010.03.12/outbox.cif.g09.slc.cpg/sg51_17_cif.got.tgz:33911.got - 2010.04.16 13:43:02.
