data_PCOD8208107
_publ_section_title
;
Structure prediction by ZEFSAII (Michael W. Deem and Ramdas Pophale) SiO2 
 PCOD8208107
Probable space group: P M M A
;
_chemical_formula_sum "Si O2"
_cell_formula_units_Z 64
_cell_length_a 15.311331
_cell_length_b 14.215770
_cell_length_c 17.121258
_cell_angle_alpha 90.000000
_cell_angle_beta 90.000000
_cell_angle_gamma 90.000000
_cell_volume 3726.653421
_symmetry_space_group_name_H-M "P M M A"
_symmetry_group_IT_number 51
_symmetry_cell_setting 'orthorhombic'
loop_
_space_group_symop_operation_xyz
x,y,z
1/2-x,-y,z
1/2+x,-y,-z
-x,y,-z
-x,-y,-z
1/2+x,y,-z
1/2-x,y,z
x,-y,z
loop_
_atom_site_type_symbol
_atom_site_label
_atom_site_fract_x
_atom_site_fract_y
_atom_site_fract_z
Si Si1 0.849785 0.390058 0.096702
Si Si2 0.415349 0.104223 0.948388
Si Si3 0.482882 0.248952 0.340725
Si Si4 0.087352 0.603623 0.450807
Si Si5 0.846802 0.735602 0.951508
Si Si6 0.088332 0.103263 0.452435
Si Si7 0.011662 0.746957 0.839932
Si Si8 0.343642 0.749504 0.563025
O O1 0.750000 0.370902 0.125415
O O2 0.871230 0.500000 0.097734
O O3 0.919859 0.338859 0.152590
O O4 0.861962 0.352483 0.008794
O O5 0.441070 0.157159 0.868021
O O6 0.375979 0.000000 0.929722
O O7 0.500000 0.091051 0.000000
O O8 0.348418 0.168326 0.997457
O O9 0.432276 0.342202 0.369807
O O10 0.430660 0.158257 0.372082
O O11 0.482580 0.243048 0.248511
O O12 0.581930 0.250368 0.371926
O O13 0.124541 0.500000 0.430867
O O14 0.154012 0.659847 0.505399
O O15 0.000000 0.596243 0.500000
O O16 0.750000 0.730124 0.912672
O O17 0.922869 0.729335 0.888002
O O18 0.154713 0.158877 0.507690
O O19 0.000000 0.095089 0.500000
O O20 0.126127 0.000000 0.432255
O O21 0.250000 0.748110 0.606457
#
# Coordination Sequence:
#
# PCOD8208107 Si02
#       8
#     8   8   8   8   8   8   8   8
#     4   9  18  33  52  72  94 124 164 205 241 282
#     4   8  15  29  48  68  90 120 160 200 235 277
#     4   9  18  30  45  69  98 127 153 184 235 291
#     4   8  15  30  48  63  84 118 158 191 219 264
#     4   9  18  32  49  68  91 124 167 208 242 281
#     4   8  15  30  49  65  85 118 157 189 219 265
#     4  10  19  30  47  73 103 131 156 191 244 299
#     4   9  17  29  47  69  90 116 154 198 240 281
#
# _framework density 17.173584999999999
#
# number of rings (size 3 to 8) (size 9 to 14) (size 15 to 20)
#    0.000    3.250    0.000    2.625    0.000    3.250 
#    0.000    2.500    0.000    0.000    0.000    3.500 
#    0.000    0.000    0.000    0.000    0.000    0.000 
#
# Total GULP energy -793043.036844 kJ/mol
# GULP energy per Si atom -12391.297451 kJ/mol
# Density = 1.713450 g / cm^3
# Si number density = 17.173585 Si / 1000 Ang^3
#
#
#
# Elastic Constant Matrix: (Units=GPa)
#
#
# Indices 1 2 3 4 5 6 
#
# 1 52.0201 6.7058 -0.1638 0.0000 0.0000 0.0000
# 2 6.7058 130.1679 22.3770 0.0000 0.0000 0.0000
# 3 -0.1638 22.3770 79.6649 0.0000 0.0000 0.0000
# 4 0.0000 0.0000 0.0000 13.1009 0.0000 0.0000
# 5 0.0000 0.0000 0.0000 0.0000 13.2268 0.0000
# 6 0.0000 0.0000 0.0000 0.0000 0.0000 11.1587
#
#
#
# Elastic Compliance Matrix: (Units=1/GPa)
#
#
# Indices 1 2 3 4 5 6 
#
# 1 0.019360 -0.001055 0.000336 0.000000 0.000000 0.000000
# 2 -0.001055 0.008130 -0.002286 0.000000 0.000000 0.000000
# 3 0.000336 -0.002286 0.013195 0.000000 0.000000 0.000000
# 4 0.000000 0.000000 0.000000 0.076330 0.000000 0.000000
# 5 0.000000 0.000000 0.000000 0.000000 0.075604 0.000000
# 6 0.000000 0.000000 0.000000 0.000000 0.000000 0.089616
#
#
# Mechanical properties :
#
#
# Convention : Reuss Voigt Hill
#
# Bulk Modulus (GPa) = 28.83839 35.52123 32.17981
# Shear Modulus (GPa) = 16.67755 23.02620 19.85187
#
# Velocity S-wave (km/s) = 3.11965 3.66565 3.40362
# Velocity P-wave (km/s) = 5.45940 6.21648 5.85020
#
# Compressibility (1/GPa) = 0.03467600
#
# Stress axis : x y z
#
# Youngs Moduli (GPa) = 51.65179 123.00604 75.78449
#
# Poissons Ratio (x) = 0.12979 -0.02548
# Poissons Ratio (y) = 0.05450 0.17322
# Poissons Ratio (z) = -0.01737 0.28116
#
# Static dielectric constant tensor:
#      x y z
#    x 3.114770 0.000000 0.000000 
#    y 0.000000 4.051040 0.000000 
#    z 0.000000 0.000000 2.829570 
# 
# 
# High freq. dielectric constant tensor:
#      x y z
#    x 1.655630 0.000000 0.000000 
#    y 0.000000 1.672030 0.000000 
#    z 0.000000 0.000000 1.627330 
# 
# From -- ./inp_files/29966.got.cif
#   From: 2010.03.12/outbox.cif.g09.slc.cpg/sg51_15_cif.got.tgz:29966.got - 2010.04.16 13:43:02.
