data_PCOD8208822
_publ_section_title
;
Structure prediction by ZEFSAII (Michael W. Deem and Ramdas Pophale) SiO2 
 PCOD8208822
Probable space group: P M M A
;
_chemical_formula_sum "Si O2"
_cell_formula_units_Z 48
_cell_length_a 18.182970
_cell_length_b 9.154905
_cell_length_c 16.367964
_cell_angle_alpha 90.000000
_cell_angle_beta 90.000000
_cell_angle_gamma 90.000000
_cell_volume 2724.666332
_symmetry_space_group_name_H-M "P M M A"
_symmetry_group_IT_number 51
_symmetry_cell_setting 'orthorhombic'
loop_
_space_group_symop_operation_xyz
x,y,z
1/2-x,-y,z
1/2+x,-y,-z
-x,y,-z
-x,-y,-z
1/2+x,y,-z
1/2-x,y,z
x,-y,z
loop_
_atom_site_type_symbol
_atom_site_label
_atom_site_fract_x
_atom_site_fract_y
_atom_site_fract_z
Si Si1 0.953558 0.828565 0.751599
Si Si2 0.413344 0.668689 0.679111
Si Si3 0.334236 0.673339 0.341925
Si Si4 0.965373 0.170769 0.084195
Si Si5 0.832640 0.328914 0.159426
Si Si6 0.918024 0.329637 0.500384
O O1 0.876382 0.749581 0.733376
O O2 0.014386 0.766402 0.689839
O O3 0.977256 0.791090 0.844132
O O4 0.945370 0.000000 0.737553
O O5 0.437974 0.500000 0.687385
O O6 0.352281 0.708917 0.746424
O O7 0.380897 0.699375 0.588516
O O8 0.250000 0.722623 0.337616
O O9 0.342097 0.500000 0.333865
O O10 0.367432 0.735349 0.427548
O O11 0.887486 0.249138 0.097665
O O12 0.948523 0.000000 0.080280
O O13 0.000000 0.228501 0.000000
O O14 0.750000 0.272984 0.143082
O O15 0.839209 0.500000 0.143196
O O16 0.925024 0.500000 0.518518
O O17 0.000000 0.260396 0.500000
#
# Coordination Sequence:
#
# PCOD8208822 Si02
#       6
#     8   8   8   8   8   8
#     4  10  19  32  51  72  95 123 158 201 246 292
#     4   9  16  29  50  71  97 132 166 198 236 285
#     4  10  20  33  49  70  97 131 170 206 241 285
#     4   9  19  36  56  76  96 125 167 204 239 294
#     4   9  18  31  49  77 108 132 157 197 250 298
#     4   9  15  26  47  71  94 125 167 207 236 272
#
# _framework density 17.616834999999998
#
# number of rings (size 3 to 8) (size 9 to 14) (size 15 to 20)
#    0.000    2.667    1.667    0.500    0.000    2.333 
#    0.000    5.833    0.000    5.000    0.000    2.333 
#    0.000    0.000    0.000    0.000    0.000    0.000 
#
# Total GULP energy -595082.301513 kJ/mol
# GULP energy per Si atom -12397.547948 kJ/mol
# Density = 1.757674 g / cm^3
# Si number density = 17.616835 Si / 1000 Ang^3
#
#
#
# Elastic Constant Matrix: (Units=GPa)
#
#
# Indices 1 2 3 4 5 6 
#
# 1 155.9923 47.2177 72.4184 0.0000 0.0000 0.0000
# 2 47.2177 39.3899 32.1716 0.0000 0.0000 0.0000
# 3 72.4184 32.1716 111.0334 0.0000 0.0000 0.0000
# 4 0.0000 0.0000 0.0000 22.0100 0.0000 0.0000
# 5 0.0000 0.0000 0.0000 0.0000 24.5150 0.0000
# 6 0.0000 0.0000 0.0000 0.0000 0.0000 17.5005
#
#
#
# Elastic Compliance Matrix: (Units=1/GPa)
#
#
# Indices 1 2 3 4 5 6 
#
# 1 0.011646 -0.010161 -0.004651 0.000000 0.000000 0.000000
# 2 -0.010161 0.042123 -0.005578 0.000000 0.000000 0.000000
# 3 -0.004651 -0.005578 0.013656 0.000000 0.000000 0.000000
# 4 0.000000 0.000000 0.000000 0.045434 0.000000 0.000000
# 5 0.000000 0.000000 0.000000 0.000000 0.040791 0.000000
# 6 0.000000 0.000000 0.000000 0.000000 0.000000 0.057141
#
#
# Mechanical properties :
#
#
# Convention : Reuss Voigt Hill
#
# Bulk Modulus (GPa) = 37.53115 67.78123 52.65619
# Shear Modulus (GPa) = 19.19732 23.11230 21.15481
#
# Velocity S-wave (km/s) = 3.30466 3.62601 3.46906
# Velocity P-wave (km/s) = 5.99262 7.48928 6.78236
#
# Compressibility (1/GPa) = 0.02664453
#
# Stress axis : x y z
#
# Youngs Moduli (GPa) = 85.86951 23.73997 73.22658
#
# Poissons Ratio (x) = 0.24122 0.34061
# Poissons Ratio (y) = 0.87250 0.40845
# Poissons Ratio (z) = 0.39942 0.13242
#
# Static dielectric constant tensor:
#      x y z
#    x 3.274030 0.000000 0.000000 
#    y 0.000000 3.043420 0.000000 
#    z 0.000000 0.000000 3.369090 
# 
# 
# High freq. dielectric constant tensor:
#      x y z
#    x 1.670740 0.000000 0.000000 
#    y 0.000000 1.656680 0.000000 
#    z 0.000000 0.000000 1.680350 
# 
# From -- ./inp_files/30062.got.cif
#   From: 2010.03.12/outbox.cif.g09.slc.cpg/sg51_16_cif.got.tgz:30062.got - 2010.04.16 13:43:02.
