data_PCOD8208948
_publ_section_title
;
Structure prediction by ZEFSAII (Michael W. Deem and Ramdas Pophale) SiO2 
 PCOD8208948
Probable space group: P M M A
;
_chemical_formula_sum "Si O2"
_cell_formula_units_Z 64
_cell_length_a 17.522862
_cell_length_b 9.163413
_cell_length_c 22.300635
_cell_angle_alpha 90.000000
_cell_angle_beta 90.000000
_cell_angle_gamma 90.000000
_cell_volume 3580.795600
_symmetry_space_group_name_H-M "P M M A"
_symmetry_group_IT_number 51
_symmetry_cell_setting 'orthorhombic'
loop_
_space_group_symop_operation_xyz
x,y,z
1/2-x,-y,z
1/2+x,-y,-z
-x,y,-z
-x,-y,-z
1/2+x,y,-z
1/2-x,y,z
x,-y,z
loop_
_atom_site_type_symbol
_atom_site_label
_atom_site_fract_x
_atom_site_fract_y
_atom_site_fract_z
Si Si1 0.165424 0.332308 0.806659
Si Si2 0.161896 0.165099 0.049788
Si Si3 0.473437 0.171524 0.365265
Si Si4 0.162974 0.830614 0.451694
Si Si5 0.960823 0.331601 0.883565
Si Si6 0.929114 0.664065 0.455757
Si Si7 0.988738 0.333196 0.249768
Si Si8 0.107920 0.171519 0.918978
O O1 0.250000 0.311072 0.778521
O O2 0.150699 0.500000 0.825854
O O3 0.100757 0.288891 0.758181
O O4 0.159701 0.235824 0.866085
O O5 0.250000 0.179038 0.065012
O O6 0.120719 0.273090 0.095733
O O7 0.132575 0.000000 0.059840
O O8 0.147929 0.211652 0.981267
O O9 0.393190 0.212929 0.397065
O O10 0.546114 0.246749 0.397025
O O11 0.470457 0.228955 0.297527
O O12 0.487164 0.000000 0.366093
O O13 0.250000 0.794351 0.432806
O O14 0.142163 0.740889 0.511569
O O15 0.152753 0.000000 0.467597
O O16 0.969777 0.500000 0.900611
O O17 0.967959 0.307676 0.812566
O O18 0.024399 0.241819 0.919447
O O19 0.905464 0.500000 0.437304
O O20 0.000000 0.663083 0.500000
O O21 0.996291 0.500000 0.271638
O O22 0.100396 0.000000 0.908973
#
# Coordination Sequence:
#
# PCOD8208948 Si02
#       8
#     8   8   8   8   8   8   8   8
#     4   9  18  33  52  74 100 129 163 207 258 307
#     4  10  21  35  50  72 102 132 163 205 258 311
#     4  10  19  32  53  77 100 133 174 209 247 296
#     4   9  18  33  52  76 106 134 164 208 254 292
#     4  10  21  36  53  73  98 131 171 212 255 303
#     4   9  17  30  50  75 102 131 161 194 236 287
#     4   9  19  35  52  71  98 132 170 212 253 295
#     4  10  19  32  52  76 101 129 162 202 253 313
#
# _framework density 17.873123
#
# number of rings (size 3 to 8) (size 9 to 14) (size 15 to 20)
#    0.000    2.500    0.000    3.000    0.000    8.250 
#    0.000    1.250    0.000    4.500    0.000    0.000 
#    0.000    0.000    0.000    0.000    0.000    0.000 
#
# Total GULP energy -793647.717764 kJ/mol
# GULP energy per Si atom -12400.745590 kJ/mol
# Density = 1.783244 g / cm^3
# Si number density = 17.873123 Si / 1000 Ang^3
#
#
#
# Elastic Constant Matrix: (Units=GPa)
#
#
# Indices 1 2 3 4 5 6 
#
# 1 96.9539 44.3342 42.9325 0.0000 0.0000 0.0000
# 2 44.3342 92.6264 48.3878 0.0000 0.0000 0.0000
# 3 42.9325 48.3878 68.4510 0.0000 0.0000 0.0000
# 4 0.0000 0.0000 0.0000 34.1597 0.0000 0.0000
# 5 0.0000 0.0000 0.0000 0.0000 19.9590 0.0000
# 6 0.0000 0.0000 0.0000 0.0000 0.0000 26.2891
#
#
#
# Elastic Compliance Matrix: (Units=1/GPa)
#
#
# Indices 1 2 3 4 5 6 
#
# 1 0.014997 -0.003590 -0.006868 0.000000 0.000000 0.000000
# 2 -0.003590 0.017977 -0.010456 0.000000 0.000000 0.000000
# 3 -0.006868 -0.010456 0.026308 0.000000 0.000000 0.000000
# 4 0.000000 0.000000 0.000000 0.029274 0.000000 0.000000
# 5 0.000000 0.000000 0.000000 0.000000 0.050103 0.000000
# 6 0.000000 0.000000 0.000000 0.000000 0.000000 0.038039
#
#
# Mechanical properties :
#
#
# Convention : Reuss Voigt Hill
#
# Bulk Modulus (GPa) = 57.29649 58.81558 58.05603
# Shear Modulus (GPa) = 22.28723 24.24003 23.26363
#
# Velocity S-wave (km/s) = 3.53508 3.68670 3.61168
# Velocity P-wave (km/s) = 6.98493 7.14850 7.06719
#
# Compressibility (1/GPa) = 0.01745308
#
# Stress axis : x y z
#
# Youngs Moduli (GPa) = 66.67873 55.62816 38.01122
#
# Poissons Ratio (x) = 0.19971 0.26108
# Poissons Ratio (y) = 0.23939 0.39744
# Poissons Ratio (z) = 0.45798 0.58164
#
# Static dielectric constant tensor:
#      x y z
#    x 3.314940 0.000000 0.000000 
#    y 0.000000 3.394710 0.000000 
#    z 0.000000 0.000000 3.119110 
# 
# 
# High freq. dielectric constant tensor:
#      x y z
#    x 1.685220 0.000000 0.000000 
#    y 0.000000 1.699390 0.000000 
#    z 0.000000 0.000000 1.674390 
# 
# From -- ./inp_files/33908.got.cif
#   From: 2010.03.12/outbox.cif.g09.slc.cpg/sg51_17_cif.got.tgz:33908.got - 2010.04.16 13:43:02.
