data_PCOD8208316
_publ_section_title
;
Structure prediction by ZEFSAII (Michael W. Deem and Ramdas Pophale) SiO2 
 PCOD8208316
Probable space group: P M M A
;
_chemical_formula_sum "Si O2"
_cell_formula_units_Z 52
_cell_length_a 9.235412
_cell_length_b 15.272258
_cell_length_c 22.884753
_cell_angle_alpha 90.000000
_cell_angle_beta 90.000000
_cell_angle_gamma 90.000000
_cell_volume 3227.793599
_symmetry_space_group_name_H-M "P M M A"
_symmetry_group_IT_number 51
_symmetry_cell_setting 'orthorhombic'
loop_
_space_group_symop_operation_xyz
x,y,z
1/2-x,-y,z
1/2+x,-y,-z
-x,y,-z
-x,-y,-z
1/2+x,y,-z
1/2-x,y,z
x,-y,z
loop_
_atom_site_type_symbol
_atom_site_label
_atom_site_fract_x
_atom_site_fract_y
_atom_site_fract_z
Si Si1 0.591750 0.602767 0.052547
Si Si2 0.586188 0.323659 0.380715
Si Si3 0.915955 0.902625 0.673580
Si Si4 0.081390 0.272502 0.270298
Si Si5 0.915041 0.500000 0.441798
Si Si6 0.416192 0.148726 0.558837
Si Si7 0.422536 0.400236 0.817259
O O1 0.750000 0.646475 0.049823
O O2 0.606127 0.500000 0.041632
O O3 0.523248 0.618741 0.116611
O O4 0.500000 0.646186 0.000000
O O5 0.750000 0.322274 0.354265
O O6 0.464887 0.308782 0.332673
O O7 0.542700 0.416926 0.404389
O O8 0.574578 0.253343 0.432879
O O9 0.750000 0.886434 0.653871
O O10 0.955172 0.832160 0.724906
O O11 0.015055 0.895545 0.616120
O O12 0.936830 0.000000 0.700117
O O13 0.250000 0.289629 0.258814
O O14 0.992778 0.323969 0.221175
O O15 0.750000 0.500000 0.460100
O O16 0.000000 0.500000 0.500000
O O17 0.500000 0.120780 0.500000
O O18 0.250000 0.117261 0.553187
O O19 0.250000 0.392995 0.813330
O O20 0.468408 0.500000 0.798525
#
# Coordination Sequence:
#
# PCOD8208316 Si02
#       7
#     8   8   8   8   4   8   8
#     4   8  14  25  41  62  89 124 162 193 221 252
#     4   9  19  33  46  61  84 116 147 177 221 273
#     4   9  19  36  53  67  87 115 144 180 231 283
#     4  10  20  32  48  70  91 113 149 193 228 261
#     4  10  20  32  46  62  80 108 145 180 217 262
#     4  10  19  31  48  68  89 111 139 177 222 274
#     4   9  18  31  46  65  95 134 164 185 218 266
#
# _framework density 16.110075999999999
#
# number of rings (size 3 to 8) (size 9 to 14) (size 15 to 20)
#    0.000    2.769    0.000    2.308    1.077    3.385 
#    0.000    1.538    0.000    0.000    0.000    0.000 
#    0.000    0.615    0.000    1.385    0.000    2.154 
#
# Total GULP energy -644361.311594 kJ/mol
# GULP energy per Si atom -12391.563685 kJ/mol
# Density = 1.607341 g / cm^3
# Si number density = 16.110076 Si / 1000 Ang^3
#
#
#
# Elastic Constant Matrix: (Units=GPa)
#
#
# Indices 1 2 3 4 5 6 
#
# 1 62.8824 36.2785 42.0420 0.0000 0.0000 0.0000
# 2 36.2785 107.2349 42.2745 0.0000 0.0000 0.0000
# 3 42.0420 42.2745 84.5724 0.0000 0.0000 0.0000
# 4 0.0000 0.0000 0.0000 12.0041 0.0000 0.0000
# 5 0.0000 0.0000 0.0000 0.0000 29.3005 0.0000
# 6 0.0000 0.0000 0.0000 0.0000 0.0000 17.1354
#
#
#
# Elastic Compliance Matrix: (Units=1/GPa)
#
#
# Indices 1 2 3 4 5 6 
#
# 1 0.025460 -0.004513 -0.010401 0.000000 0.000000 0.000000
# 2 -0.004513 0.012414 -0.003962 0.000000 0.000000 0.000000
# 3 -0.010401 -0.003962 0.018975 0.000000 0.000000 0.000000
# 4 0.000000 0.000000 0.000000 0.083305 0.000000 0.000000
# 5 0.000000 0.000000 0.000000 0.000000 0.034129 0.000000
# 6 0.000000 0.000000 0.000000 0.000000 0.000000 0.058359
#
#
# Mechanical properties :
#
#
# Convention : Reuss Voigt Hill
#
# Bulk Modulus (GPa) = 52.36186 55.09776 53.72981
# Shear Modulus (GPa) = 18.06630 20.62765 19.34698
#
# Velocity S-wave (km/s) = 3.35241 3.58218 3.46919
# Velocity P-wave (km/s) = 6.89623 7.16829 7.03357
#
# Compressibility (1/GPa) = 0.01909787
#
# Stress axis : x y z
#
# Youngs Moduli (GPa) = 39.27709 80.55432 52.70166
#
# Poissons Ratio (x) = 0.36356 0.54813
# Poissons Ratio (y) = 0.17727 0.20879
# Poissons Ratio (z) = 0.40850 0.31913
#
# Static dielectric constant tensor:
#      x y z
#    x 3.183020 0.000000 0.000000 
#    y 0.000000 3.177990 0.000000 
#    z 0.000000 0.000000 2.918930 
# 
# 
# High freq. dielectric constant tensor:
#      x y z
#    x 1.625400 0.000000 0.000000 
#    y 0.000000 1.603230 0.000000 
#    z 0.000000 0.000000 1.596200 
# 
# From -- ./inp_files/34729.got.cif
#   From: 2010.03.12/outbox.cif.g09.slc.cpg/sg51_18_cif.got.tgz:34729.got - 2010.04.16 13:43:02.
