data_PCOD8208298
_publ_section_title
;
Structure prediction by ZEFSAII (Michael W. Deem and Ramdas Pophale) SiO2 
 PCOD8208298
Probable space group: P M M A
;
_chemical_formula_sum "Si O2"
_cell_formula_units_Z 40
_cell_length_a 8.890076
_cell_length_b 26.415032
_cell_length_c 9.036093
_cell_angle_alpha 90.000000
_cell_angle_beta 90.000000
_cell_angle_gamma 90.000000
_cell_volume 2121.960557
_symmetry_space_group_name_H-M "P M M A"
_symmetry_group_IT_number 51
_symmetry_cell_setting 'orthorhombic'
loop_
_space_group_symop_operation_xyz
x,y,z
1/2-x,-y,z
1/2+x,-y,-z
-x,y,-z
-x,-y,-z
1/2+x,y,-z
1/2-x,y,z
x,-y,z
loop_
_atom_site_type_symbol
_atom_site_label
_atom_site_fract_x
_atom_site_fract_y
_atom_site_fract_z
Si Si1 0.427184 0.194560 0.658936
Si Si2 0.928172 0.292748 0.161057
Si Si3 0.072268 0.391755 0.161419
Si Si4 0.572449 0.000000 0.340547
Si Si5 0.072258 0.097569 0.840547
Si Si6 0.075608 0.500000 0.157124
O O1 0.500000 0.190840 0.500000
O O2 0.250000 0.192331 0.638645
O O3 0.478643 0.246164 0.737594
O O4 0.484695 0.147849 0.757593
O O5 0.750000 0.296457 0.144794
O O6 0.992653 0.343906 0.240983
O O7 0.000000 0.285283 0.000000
O O8 0.250000 0.381728 0.151781
O O9 0.036602 0.446613 0.241192
O O10 0.000000 0.394087 0.000000
O O11 0.500000 0.000000 0.500000
O O12 0.516839 0.049305 0.252438
O O13 0.750000 0.000000 0.360406
O O14 0.250000 0.097652 0.860028
O O15 0.000000 0.095267 0.000000
O O16 0.250000 0.500000 0.120788
O O17 0.000000 0.500000 0.000000
#
# Coordination Sequence:
#
# PCOD8208298 Si02
#       6
#     8   8   8   4   8   4
#     4  10  22  37  53  74 101 131 168 209 252 301
#     4  10  19  31  47  70  97 127 163 203 245 296
#     4   9  15  24  39  61  90 124 158 196 241 290
#     4  10  21  36  56  82 112 142 177 214 252 298
#     4  10  21  37  56  81 108 137 173 213 253 300
#     4   8  14  22  34  56  87 120 155 192 236 288
#
# _framework density 18.850491999999999
#
# number of rings (size 3 to 8) (size 9 to 14) (size 15 to 20)
#    0.000    2.400    0.000    3.900    0.000    4.000 
#    0.000    0.000    0.000    0.000    0.000    0.700 
#    0.000    0.000    0.000    0.000    0.000    0.000 
#
# Total GULP energy -495664.050241 kJ/mol
# GULP energy per Si atom -12391.601256 kJ/mol
# Density = 1.880759 g / cm^3
# Si number density = 18.850492 Si / 1000 Ang^3
#
#
#
# Elastic Constant Matrix: (Units=GPa)
#
#
# Indices 1 2 3 4 5 6 
#
# 1 51.9214 51.1323 34.5318 0.0000 0.0000 0.0000
# 2 51.1323 228.6762 82.9707 0.0000 0.0000 0.0000
# 3 34.5318 82.9707 114.8368 0.0000 0.0000 0.0000
# 4 0.0000 0.0000 0.0000 -61.8716 0.0000 0.0000
# 5 0.0000 0.0000 0.0000 0.0000 28.3318 0.0000
# 6 0.0000 0.0000 0.0000 0.0000 0.0000 25.5871
#
#
#
# Elastic Compliance Matrix: (Units=1/GPa)
#
#
# Indices 1 2 3 4 5 6 
#
# 1 0.026685 -0.004141 -0.005032 0.000000 0.000000 0.000000
# 2 -0.004141 0.006569 -0.003501 0.000000 0.000000 0.000000
# 3 -0.005032 -0.003501 0.012751 0.000000 0.000000 0.000000
# 4 0.000000 0.000000 0.000000 -0.016162 0.000000 0.000000
# 5 0.000000 0.000000 0.000000 0.000000 0.035296 0.000000
# 6 0.000000 0.000000 0.000000 0.000000 0.000000 0.039082
#
#
# Mechanical properties :
#
#
# Convention : Reuss Voigt Hill
#
# Bulk Modulus (GPa) = 48.41193 81.41155 64.91174
# Shear Modulus (GPa) = 36.64219 13.52942 25.08580
#
# Velocity S-wave (km/s) = 4.41367 2.68194 3.65194
# Velocity P-wave (km/s) = 7.19109 7.27133 7.23132
#
# Compressibility (1/GPa) = 0.02065606
#
# Stress axis : x y z
#
# Youngs Moduli (GPa) = 37.47461 152.22510 78.42591
#
# Poissons Ratio (x) = 0.63034 0.39467
# Poissons Ratio (y) = 0.15518 0.27458
# Poissons Ratio (z) = 0.18859 0.53296
#
# Static dielectric constant tensor:
#      x y z
#    x 3.478890 0.000000 0.000000 
#    y 0.000000 4.776990 0.000000 
#    z 0.000000 0.000000 3.020010 
# 
# 
# High freq. dielectric constant tensor:
#      x y z
#    x 1.731980 0.000000 0.000000 
#    y 0.000000 1.770400 0.000000 
#    z 0.000000 0.000000 1.686400 
# 
# From -- ./inp_files/5586.got.cif
#   From: 2010.03.12/outbox.cif.g09.slc.cpg/sg51_3_cif.got.tgz:5586.got - 2010.04.16 13:43:02.
