data_PCOD8209000
_publ_section_title
;
Structure prediction by ZEFSAII (Michael W. Deem and Ramdas Pophale) SiO2 
 PCOD8209000
Probable space group: P M M A
;
_chemical_formula_sum "Si O2"
_cell_formula_units_Z 32
_cell_length_a 19.944555
_cell_length_b 8.820805
_cell_length_c 10.035860
_cell_angle_alpha 90.000000
_cell_angle_beta 90.000000
_cell_angle_gamma 90.000000
_cell_volume 1765.579048
_symmetry_space_group_name_H-M "P M M A"
_symmetry_group_IT_number 51
_symmetry_cell_setting 'orthorhombic'
loop_
_space_group_symop_operation_xyz
x,y,z
1/2-x,-y,z
1/2+x,-y,-z
-x,y,-z
-x,-y,-z
1/2+x,y,-z
1/2-x,y,z
x,-y,z
loop_
_atom_site_type_symbol
_atom_site_label
_atom_site_fract_x
_atom_site_fract_y
_atom_site_fract_z
Si Si1 0.412654 0.679077 0.095988
Si Si2 0.926729 0.824767 0.460234
Si Si3 0.174825 0.320865 0.341183
Si Si4 0.948007 0.175936 0.161224
O O1 0.413163 0.500000 0.072826
O O2 0.355510 0.730523 0.199340
O O3 0.483475 0.729910 0.156487
O O4 0.398830 0.762216 0.954780
O O5 0.868544 0.738588 0.536512
O O6 0.913255 0.799058 0.303625
O O7 0.000000 0.760211 0.500000
O O8 0.923169 0.000000 0.501178
O O9 0.250000 0.255012 0.351768
O O10 0.174961 0.500000 0.350669
O O11 0.964686 0.000000 0.137396
#
# Coordination Sequence:
#
# PCOD8209000 Si02
#       4
#     8   8   8   8
#     4  10  19  32  52  78 107 138 176 218 265 318
#     4  10  20  35  55  81 110 142 180 224 272 320
#     4  10  22  38  55  78 109 145 183 223 270 325
#     4  10  19  32  53  79 108 135 172 222 268 314
#
# _framework density 18.124364
#
# number of rings (size 3 to 8) (size 9 to 14) (size 15 to 20)
#    0.000    2.000    2.500    3.000    0.000    4.000 
#    0.000    1.250    0.000    4.500    0.000    0.000 
#    0.000    0.000    0.000    0.000    0.000    0.000 
#
# Total GULP energy -396799.321188 kJ/mol
# GULP energy per Si atom -12399.978787 kJ/mol
# Density = 1.808311 g / cm^3
# Si number density = 18.124364 Si / 1000 Ang^3
#
#
#
# Elastic Constant Matrix: (Units=GPa)
#
#
# Indices 1 2 3 4 5 6 
#
# 1 112.3680 13.1080 70.5094 0.0000 0.0000 0.0000
# 2 13.1080 25.6032 36.6096 0.0000 0.0000 0.0000
# 3 70.5094 36.6096 150.2450 0.0000 0.0000 0.0000
# 4 0.0000 0.0000 0.0000 33.6353 0.0000 0.0000
# 5 0.0000 0.0000 0.0000 0.0000 26.4920 0.0000
# 6 0.0000 0.0000 0.0000 0.0000 0.0000 4.6830
#
#
#
# Elastic Compliance Matrix: (Units=1/GPa)
#
#
# Indices 1 2 3 4 5 6 
#
# 1 0.012774 0.003119 -0.006755 0.000000 0.000000 0.000000
# 2 0.003119 0.060704 -0.016255 0.000000 0.000000 0.000000
# 3 -0.006755 -0.016255 0.013787 0.000000 0.000000 0.000000
# 4 0.000000 0.000000 0.000000 0.029731 0.000000 0.000000
# 5 0.000000 0.000000 0.000000 0.000000 0.037747 0.000000
# 6 0.000000 0.000000 0.000000 0.000000 0.000000 0.213538
#
#
# Mechanical properties :
#
#
# Convention : Reuss Voigt Hill
#
# Bulk Modulus (GPa) = 21.06053 58.74113 39.90083
# Shear Modulus (GPa) = 11.79552 24.16133 17.97843
#
# Velocity S-wave (km/s) = 2.55387 3.65511 3.15294
# Velocity P-wave (km/s) = 4.51016 7.09179 5.94285
#
# Compressibility (1/GPa) = 0.04748219
#
# Stress axis : x y z
#
# Youngs Moduli (GPa) = 78.28393 16.47340 72.53455
#
# Poissons Ratio (x) = -0.05137 0.48995
# Poissons Ratio (y) = -0.24413 1.17905
# Poissons Ratio (z) = 0.52878 0.26778
#
# Static dielectric constant tensor:
#      x y z
#    x 3.253850 0.000000 0.000000 
#    y 0.000000 3.327680 0.000000 
#    z 0.000000 0.000000 3.634180 
# 
# 
# High freq. dielectric constant tensor:
#      x y z
#    x 1.670040 0.000000 0.000000 
#    y 0.000000 1.704250 0.000000 
#    z 0.000000 0.000000 1.720470 
# 
# From -- ./inp_files/17773.got.cif
#   From: 2010.03.12/outbox.cif.g09.slc.cpg/sg51_9_cif.got.tgz:17773.got - 2010.04.16 13:43:02.
