data_PCOD8209857
_publ_section_title
;
Structure prediction by ZEFSAII (Michael W. Deem and Ramdas Pophale) SiO2 
 PCOD8209857
Probable space group: P M M A
;
_chemical_formula_sum "Si O2"
_cell_formula_units_Z 64
_cell_length_a 15.049250
_cell_length_b 8.787256
_cell_length_c 23.909809
_cell_angle_alpha 90.000000
_cell_angle_beta 90.000000
_cell_angle_gamma 90.000000
_cell_volume 3161.871693
_symmetry_space_group_name_H-M "P M M A"
_symmetry_group_IT_number 51
_symmetry_cell_setting 'orthorhombic'
loop_
_space_group_symop_operation_xyz
x,y,z
1/2-x,-y,z
1/2+x,-y,-z
-x,y,-z
-x,-y,-z
1/2+x,y,-z
1/2-x,y,z
x,-y,z
loop_
_atom_site_type_symbol
_atom_site_label
_atom_site_fract_x
_atom_site_fract_y
_atom_site_fract_z
Si Si1 0.006274 0.179792 0.308437
Si Si2 0.400420 0.679390 0.505319
Si Si3 0.354005 0.821738 0.106297
Si Si4 0.647635 0.179805 0.122192
Si Si5 0.152144 0.173265 0.395045
Si Si6 0.644796 0.670683 0.007783
Si Si7 0.507343 0.679948 0.810733
Si Si8 0.648911 0.675465 0.372133
O O1 0.079437 0.240995 0.352604
O O2 0.026146 0.269404 0.252072
O O3 0.909069 0.220397 0.331375
O O4 0.013953 0.000000 0.297632
O O5 0.500000 0.742756 0.500000
O O6 0.397025 0.500000 0.501514
O O7 0.343945 0.741789 0.454033
O O8 0.359942 0.734511 0.564164
O O9 0.250000 0.784935 0.115286
O O10 0.409369 0.735678 0.153233
O O11 0.373204 0.000000 0.110225
O O12 0.388268 0.763325 0.046125
O O13 0.750000 0.227452 0.133526
O O14 0.611474 0.245306 0.063494
O O15 0.586289 0.247344 0.170689
O O16 0.637421 0.000000 0.120516
O O17 0.250000 0.188253 0.367539
O O18 0.126942 0.000000 0.407479
O O19 0.750000 0.666298 0.008058
O O20 0.605286 0.500000 0.006157
O O21 0.499314 0.500000 0.814994
O O22 0.750000 0.693490 0.352345
O O23 0.617431 0.500000 0.367723
#
# Coordination Sequence:
#
# PCOD8209857 Si02
#       8
#     8   8   8   8   8   8   8   8
#     4  11  24  42  61  82 113 152 198 247 296 348
#     4  10  19  34  60  90 122 155 190 234 287 346
#     4  10  21  39  63  90 122 159 198 243 296 353
#     4  10  21  39  63  90 121 157 198 244 297 358
#     4  10  22  39  60  87 118 153 193 237 288 346
#     4   9  17  32  57  90 126 159 194 240 295 353
#     4  12  26  42  62  87 117 154 201 251 300 355
#     4  10  21  38  60  87 119 155 194 238 291 348
#
# _framework density 20.241174999999998
#
# number of rings (size 3 to 8) (size 9 to 14) (size 15 to 20)
#    0.000    1.750    1.250    3.000    0.000    6.750 
#    0.000    3.750    0.000    0.000    0.000    0.000 
#    0.000    0.000    0.000    0.000    0.000    0.000 
#
# Total GULP energy -793801.950967 kJ/mol
# GULP energy per Si atom -12403.155484 kJ/mol
# Density = 2.019510 g / cm^3
# Si number density = 20.241175 Si / 1000 Ang^3
#
#
#
# Elastic Constant Matrix: (Units=GPa)
#
#
# Indices 1 2 3 4 5 6 
#
# 1 71.5506 21.9482 13.8691 0.0000 0.0000 0.0000
# 2 21.9482 76.9608 21.8824 0.0000 0.0000 0.0000
# 3 13.8691 21.8824 90.5079 0.0000 0.0000 0.0000
# 4 0.0000 0.0000 0.0000 36.5465 0.0000 0.0000
# 5 0.0000 0.0000 0.0000 0.0000 15.7128 0.0000
# 6 0.0000 0.0000 0.0000 0.0000 0.0000 28.7857
#
#
#
# Elastic Compliance Matrix: (Units=1/GPa)
#
#
# Indices 1 2 3 4 5 6 
#
# 1 0.015480 -0.004016 -0.001401 0.000000 0.000000 0.000000
# 2 -0.004016 0.014995 -0.003010 0.000000 0.000000 0.000000
# 3 -0.001401 -0.003010 0.011991 0.000000 0.000000 0.000000
# 4 0.000000 0.000000 0.000000 0.027362 0.000000 0.000000
# 5 0.000000 0.000000 0.000000 0.000000 0.063643 0.000000
# 6 0.000000 0.000000 0.000000 0.000000 0.000000 0.034739
#
#
# Mechanical properties :
#
#
# Convention : Reuss Voigt Hill
#
# Bulk Modulus (GPa) = 39.04530 39.37988 39.21259
# Shear Modulus (GPa) = 25.82624 28.29696 27.06160
#
# Velocity S-wave (km/s) = 3.57589 3.74303 3.66041
# Velocity P-wave (km/s) = 6.03168 6.17883 6.10570
#
# Compressibility (1/GPa) = 0.02561128
#
# Stress axis : x y z
#
# Youngs Moduli (GPa) = 64.60087 66.68971 83.39469
#
# Poissons Ratio (x) = 0.26784 0.11684
# Poissons Ratio (y) = 0.25945 0.25101
# Poissons Ratio (z) = 0.09051 0.20073
#
# Static dielectric constant tensor:
#      x y z
#    x 3.703160 0.000000 0.000000 
#    y 0.000000 3.667170 0.000000 
#    z 0.000000 0.000000 3.709740 
# 
# 
# High freq. dielectric constant tensor:
#      x y z
#    x 1.795910 0.000000 0.000000 
#    y 0.000000 1.791360 0.000000 
#    z 0.000000 0.000000 1.788790 
# 
# From -- ./inp_files/35853.got.cif
#   From: 2010.03.12/outbox.cif.g09.slc.cpg/sg51_18_cif.got.tgz:35853.got - 2010.04.16 13:43:02.
