data_PCOD8209697
_publ_section_title
;
Structure prediction by ZEFSAII (Michael W. Deem and Ramdas Pophale) SiO2 
 PCOD8209697
Probable space group: P M M A
;
_chemical_formula_sum "Si O2"
_cell_formula_units_Z 48
_cell_length_a 31.034396
_cell_length_b 8.445035
_cell_length_c 8.951481
_cell_angle_alpha 90.000000
_cell_angle_beta 90.000000
_cell_angle_gamma 90.000000
_cell_volume 2346.062866
_symmetry_space_group_name_H-M "P M M A"
_symmetry_group_IT_number 51
_symmetry_cell_setting 'orthorhombic'
loop_
_space_group_symop_operation_xyz
x,y,z
1/2-x,-y,z
1/2+x,-y,-z
-x,y,-z
-x,-y,-z
1/2+x,y,-z
1/2-x,y,z
x,-y,z
loop_
_atom_site_type_symbol
_atom_site_label
_atom_site_fract_x
_atom_site_fract_y
_atom_site_fract_z
Si Si1 0.502749 0.683617 0.825576
Si Si2 0.335425 0.188569 0.157075
Si Si3 0.750000 0.810718 0.343179
Si Si4 0.084284 0.316668 0.664000
Si Si5 0.750000 0.188702 0.680499
Si Si6 0.333969 0.814403 0.823113
Si Si7 0.082281 0.184215 0.340442
O O1 0.512515 0.500000 0.791129
O O2 0.458308 0.738524 0.750713
O O3 0.540335 0.791468 0.759916
O O4 0.500000 0.717767 0.000000
O O5 0.292186 0.253623 0.234925
O O6 0.376449 0.249072 0.250151
O O7 0.335407 0.000000 0.152734
O O8 0.338186 0.258971 0.989245
O O9 0.750000 0.745244 0.512054
O O10 0.707904 0.742770 0.259285
O O11 0.750000 0.000000 0.345430
O O12 0.093559 0.500000 0.692821
O O13 0.124129 0.217858 0.725492
O O14 0.077664 0.285025 0.489945
O O15 0.750000 0.000000 0.680646
O O16 0.327340 0.000000 0.837901
O O17 0.087419 0.000000 0.380935
#
# Coordination Sequence:
#
# PCOD8209697 Si02
#       7
#     8   8   4   8   4   8   8
#     4  10  22  40  59  79 107 144 183 223 273 333
#     4   9  18  31  51  80 111 141 175 219 267 316
#     4   9  17  29  52  83 112 143 178 220 268 319
#     4  11  23  38  56  79 108 143 181 222 271 326
#     4   9  15  27  47  75 112 145 172 208 262 321
#     4  10  19  34  56  82 110 141 180 223 268 317
#     4  11  22  36  56  83 112 142 181 229 275 321
#
# _framework density 20.459810000000001
#
# number of rings (size 3 to 8) (size 9 to 14) (size 15 to 20)
#    0.000    2.000    0.000    4.000    0.000    8.333 
#    0.000    1.250    0.000    0.000    0.000    4.083 
#    0.000    0.000    0.000    0.000    0.000    0.000 
#
# Total GULP energy -595396.531641 kJ/mol
# GULP energy per Si atom -12404.094409 kJ/mol
# Density = 2.041324 g / cm^3
# Si number density = 20.459810 Si / 1000 Ang^3
#
#
#
# Elastic Constant Matrix: (Units=GPa)
#
#
# Indices 1 2 3 4 5 6 
#
# 1 171.2924 9.9397 73.7934 0.0000 0.0000 0.0000
# 2 9.9397 13.4724 7.0945 0.0000 0.0000 0.0000
# 3 73.7934 7.0945 157.5319 0.0000 0.0000 0.0000
# 4 0.0000 0.0000 0.0000 19.3075 0.0000 0.0000
# 5 0.0000 0.0000 0.0000 0.0000 46.1408 0.0000
# 6 0.0000 0.0000 0.0000 0.0000 0.0000 7.9218
#
#
#
# Elastic Compliance Matrix: (Units=1/GPa)
#
#
# Indices 1 2 3 4 5 6 
#
# 1 0.007496 -0.003771 -0.003342 0.000000 0.000000 0.000000
# 2 -0.003771 0.077926 -0.001743 0.000000 0.000000 0.000000
# 3 -0.003342 -0.001743 0.007992 0.000000 0.000000 0.000000
# 4 0.000000 0.000000 0.000000 0.051793 0.000000 0.000000
# 5 0.000000 0.000000 0.000000 0.000000 0.021673 0.000000
# 6 0.000000 0.000000 0.000000 0.000000 0.000000 0.126234
#
#
# Mechanical properties :
#
#
# Convention : Reuss Voigt Hill
#
# Bulk Modulus (GPa) = 13.20960 58.21689 35.71324
# Shear Modulus (GPa) = 14.87831 31.43862 23.15846
#
# Velocity S-wave (km/s) = 2.69958 3.92421 3.36802
# Velocity P-wave (km/s) = 4.02336 7.00347 5.71121
#
# Compressibility (1/GPa) = 0.07570254
#
# Stress axis : x y z
#
# Youngs Moduli (GPa) = 133.39665 12.83274 125.12801
#
# Poissons Ratio (x) = 0.04839 0.41815
# Poissons Ratio (y) = 0.50304 0.21809
# Poissons Ratio (z) = 0.44578 0.02237
#
# Static dielectric constant tensor:
#      x y z
#    x 3.853160 0.000000 0.000000 
#    y 0.000000 3.197040 0.000000 
#    z 0.000000 0.000000 3.922670 
# 
# 
# High freq. dielectric constant tensor:
#      x y z
#    x 1.816940 0.000000 0.000000 
#    y 0.000000 1.754700 0.000000 
#    z 0.000000 0.000000 1.819690 
# 
# From -- ./inp_files/12928.got.cif
#   From: 2010.03.12/outbox.cif.g09.slc.cpg/sg51_7_cif.got.tgz:12928.got - 2010.04.16 13:43:02.
