data_PCOD8209194
_publ_section_title
;
Structure prediction by ZEFSAII (Michael W. Deem and Ramdas Pophale) SiO2 
 PCOD8209194
Probable space group: P M M A
;
_chemical_formula_sum "Si O2"
_cell_formula_units_Z 56
_cell_length_a 8.923187
_cell_length_b 18.433908
_cell_length_c 19.059803
_cell_angle_alpha 90.000000
_cell_angle_beta 90.000000
_cell_angle_gamma 90.000000
_cell_volume 3135.131904
_symmetry_space_group_name_H-M "P M M A"
_symmetry_group_IT_number 51
_symmetry_cell_setting 'orthorhombic'
loop_
_space_group_symop_operation_xyz
x,y,z
1/2-x,-y,z
1/2+x,-y,-z
-x,y,-z
-x,-y,-z
1/2+x,y,-z
1/2-x,y,z
x,-y,z
loop_
_atom_site_type_symbol
_atom_site_label
_atom_site_fract_x
_atom_site_fract_y
_atom_site_fract_z
Si Si1 0.072319 0.634328 0.428628
Si Si2 0.074436 0.198681 0.430522
Si Si3 0.422239 0.155326 0.281109
Si Si4 0.571671 0.218728 0.075002
Si Si5 0.075809 0.699674 0.197237
Si Si6 0.578646 0.416705 0.289869
Si Si7 0.426530 0.919818 0.840920
O O1 0.250000 0.623231 0.430214
O O2 0.025479 0.718168 0.420328
O O3 0.000000 0.602935 0.500000
O O4 0.004559 0.590809 0.363871
O O5 0.250000 0.193348 0.440275
O O6 0.022884 0.153688 0.361917
O O7 0.000000 0.164625 0.500000
O O8 0.250000 0.132642 0.274806
O O9 0.446704 0.236579 0.253353
O O10 0.515676 0.097359 0.237036
O O11 0.750000 0.222991 0.070278
O O12 0.511237 0.281489 0.125762
O O13 0.515620 0.140079 0.103677
O O14 0.500000 0.231525 0.000000
O O15 0.250000 0.686856 0.180193
O O16 0.005526 0.627389 0.229211
O O17 0.750000 0.389540 0.296941
O O18 0.572681 0.500000 0.266497
O O19 0.250000 0.917375 0.837240
O O20 0.482973 0.000000 0.863901
#
# Coordination Sequence:
#
# PCOD8209194 Si02
#       7
#     8   8   8   8   8   8   8
#     4  10  19  33  50  71 100 136 175 220 269 319
#     4   9  17  29  45  70  98 126 165 216 264 308
#     4   9  17  31  50  73 100 130 170 215 258 305
#     4  10  20  35  56  83 111 141 172 206 249 298
#     4  10  19  35  56  77 103 134 172 217 259 306
#     4  11  23  36  51  74 104 139 178 219 264 315
#     4   9  19  34  51  76 109 141 173 207 246 297
#
# _framework density 17.862089000000001
#
# number of rings (size 3 to 8) (size 9 to 14) (size 15 to 20)
#    0.000    2.286    1.429    1.714    0.000    4.286 
#    0.000    0.000    0.000    0.857    0.000    0.000 
#    0.000    0.000    0.000    0.000    0.000    0.000 
#
# Total GULP energy -694430.878614 kJ/mol
# GULP energy per Si atom -12400.551404 kJ/mol
# Density = 1.782143 g / cm^3
# Si number density = 17.862089 Si / 1000 Ang^3
#
#
#
# Elastic Constant Matrix: (Units=GPa)
#
#
# Indices 1 2 3 4 5 6 
#
# 1 68.4117 32.4467 40.6811 0.0000 0.0000 0.0000
# 2 32.4467 64.8339 43.9629 0.0000 0.0000 0.0000
# 3 40.6811 43.9629 138.9381 0.0000 0.0000 0.0000
# 4 0.0000 0.0000 0.0000 14.5201 0.0000 0.0000
# 5 0.0000 0.0000 0.0000 0.0000 35.5422 0.0000
# 6 0.0000 0.0000 0.0000 0.0000 0.0000 22.3204
#
#
#
# Elastic Compliance Matrix: (Units=1/GPa)
#
#
# Indices 1 2 3 4 5 6 
#
# 1 0.020418 -0.007849 -0.003495 0.000000 0.000000 0.000000
# 2 -0.007849 0.022654 -0.004870 0.000000 0.000000 0.000000
# 3 -0.003495 -0.004870 0.009762 0.000000 0.000000 0.000000
# 4 0.000000 0.000000 0.000000 0.068870 0.000000 0.000000
# 5 0.000000 0.000000 0.000000 0.000000 0.028136 0.000000
# 6 0.000000 0.000000 0.000000 0.000000 0.000000 0.044802
#
#
# Mechanical properties :
#
#
# Convention : Reuss Voigt Hill
#
# Bulk Modulus (GPa) = 49.00337 56.26277 52.63307
# Shear Modulus (GPa) = 21.37925 24.81609 23.09767
#
# Velocity S-wave (km/s) = 3.46339 3.73140 3.59989
# Velocity P-wave (km/s) = 6.59449 7.08034 6.84173
#
# Compressibility (1/GPa) = 0.02040676
#
# Stress axis : x y z
#
# Youngs Moduli (GPa) = 48.97608 44.14170 102.43982
#
# Poissons Ratio (x) = 0.34645 0.35803
# Poissons Ratio (y) = 0.38439 0.49891
# Poissons Ratio (z) = 0.17117 0.21498
#
# Static dielectric constant tensor:
#      x y z
#    x 3.339470 0.000000 0.000000 
#    y 0.000000 3.203060 0.000000 
#    z 0.000000 0.000000 3.393560 
# 
# 
# High freq. dielectric constant tensor:
#      x y z
#    x 1.698180 0.000000 0.000000 
#    y 0.000000 1.663490 0.000000 
#    z 0.000000 0.000000 1.690630 
# 
# From -- ./inp_files/32262.got.cif
#   From: 2010.03.12/outbox.cif.g09.slc.cpg/sg51_17_cif.got.tgz:32262.got - 2010.04.16 13:43:02.
