data_PCOD8209123
_publ_section_title
;
Structure prediction by ZEFSAII (Michael W. Deem and Ramdas Pophale) SiO2 
 PCOD8209123
Probable space group: P M M A
;
_chemical_formula_sum "Si O2"
_cell_formula_units_Z 64
_cell_length_a 14.467414
_cell_length_b 9.039276
_cell_length_c 25.173763
_cell_angle_alpha 90.000000
_cell_angle_beta 90.000000
_cell_angle_gamma 90.000000
_cell_volume 3292.097551
_symmetry_space_group_name_H-M "P M M A"
_symmetry_group_IT_number 51
_symmetry_cell_setting 'orthorhombic'
loop_
_space_group_symop_operation_xyz
x,y,z
1/2-x,-y,z
1/2+x,-y,-z
-x,y,-z
-x,-y,-z
1/2+x,y,-z
1/2-x,y,z
x,-y,z
loop_
_atom_site_type_symbol
_atom_site_label
_atom_site_fract_x
_atom_site_fract_y
_atom_site_fract_z
Si Si1 0.356501 0.175925 0.780308
Si Si2 0.356049 0.829980 0.970325
Si Si3 0.352872 0.668891 0.079287
Si Si4 0.464267 0.174462 0.678340
Si Si5 0.544536 0.328581 0.122432
Si Si6 0.147143 0.827312 0.372399
Si Si7 0.604251 0.667949 0.518259
Si Si8 0.649250 0.835894 0.418489
O O1 0.250000 0.230238 0.776746
O O2 0.415567 0.241090 0.730631
O O3 0.405614 0.235388 0.832481
O O4 0.360313 0.000000 0.782486
O O5 0.250000 0.812974 0.952106
O O6 0.418649 0.725714 0.934184
O O7 0.388310 0.000000 0.965436
O O8 0.369102 0.779472 0.030708
O O9 0.250000 0.696385 0.104043
O O10 0.360571 0.500000 0.058436
O O11 0.432966 0.697353 0.123213
O O12 0.573700 0.213878 0.674362
O O13 0.417572 0.240626 0.624913
O O14 0.446366 0.000000 0.678882
O O15 0.569218 0.500000 0.130381
O O16 0.250000 0.782718 0.352788
O O17 0.121873 0.745746 0.426245
O O18 0.141057 0.000000 0.385235
O O19 0.500000 0.684494 0.500000
O O20 0.636238 0.500000 0.524594
O O21 0.662587 0.742296 0.471755
O O22 0.750000 0.846714 0.391530
O O23 0.612182 0.000000 0.433368
#
# Coordination Sequence:
#
# PCOD8209123 Si02
#       8
#     8   8   8   8   8   8   8   8
#     4  10  21  38  59  81 106 138 175 217 270 325
#     4  10  20  33  52  81 115 148 182 222 269 321
#     4   9  19  36  55  76 107 147 186 222 263 315
#     4   9  18  35  57  78 102 131 169 219 264 308
#     4  11  22  35  54  80 109 144 184 225 269 317
#     4  10  20  35  57  81 104 136 177 217 261 315
#     4  11  22  34  49  74 109 145 174 206 254 311
#     4  10  19  32  54  79 100 130 172 212 256 311
#
# _framework density 19.440494999999999
#
# number of rings (size 3 to 8) (size 9 to 14) (size 15 to 20)
#    0.000    2.000    1.250    2.625    0.000    9.000 
#    0.000    1.875    0.000    2.250    0.000    0.000 
#    0.000    0.000    0.000    0.000    0.000    0.000 
#
# Total GULP energy -793352.952031 kJ/mol
# GULP energy per Si atom -12396.139875 kJ/mol
# Density = 1.939625 g / cm^3
# Si number density = 19.440495 Si / 1000 Ang^3
#
#
#
# Elastic Constant Matrix: (Units=GPa)
#
#
# Indices 1 2 3 4 5 6 
#
# 1 148.6797 34.9434 62.8934 0.0000 0.0000 0.0000
# 2 34.9434 40.1444 22.0329 0.0000 0.0000 0.0000
# 3 62.8934 22.0329 80.4477 0.0000 0.0000 0.0000
# 4 0.0000 0.0000 0.0000 -9.3075 0.0000 0.0000
# 5 0.0000 0.0000 0.0000 0.0000 29.4804 0.0000
# 6 0.0000 0.0000 0.0000 0.0000 0.0000 16.6084
#
#
#
# Elastic Compliance Matrix: (Units=1/GPa)
#
#
# Indices 1 2 3 4 5 6 
#
# 1 0.011073 -0.005752 -0.007082 0.000000 0.000000 0.000000
# 2 -0.005752 0.032305 -0.004351 0.000000 0.000000 0.000000
# 3 -0.007082 -0.004351 0.019158 0.000000 0.000000 0.000000
# 4 0.000000 0.000000 0.000000 -0.107440 0.000000 0.000000
# 5 0.000000 0.000000 0.000000 0.000000 0.033921 0.000000
# 6 0.000000 0.000000 0.000000 0.000000 0.000000 0.060211
#
#
# Mechanical properties :
#
#
# Convention : Reuss Voigt Hill
#
# Bulk Modulus (GPa) = 35.50166 56.55678 46.02922
# Shear Modulus (GPa) = 53.77162 17.31639 35.54401
#
# Velocity S-wave (km/s) = 5.26494 2.98776 4.28056
# Velocity P-wave (km/s) = 7.43377 6.40763 6.93969
#
# Compressibility (1/GPa) = 0.02816769
#
# Stress axis : x y z
#
# Youngs Moduli (GPa) = 90.30650 30.95522 52.19629
#
# Poissons Ratio (x) = 0.17805 0.36964
# Poissons Ratio (y) = 0.51944 0.22709
# Poissons Ratio (z) = 0.63953 0.13468
#
# Static dielectric constant tensor:
#      x y z
#    x 10.680260 0.000000 0.000000 
#    y 0.000000 3.414390 0.000000 
#    z 0.000000 0.000000 3.358680 
# 
# 
# High freq. dielectric constant tensor:
#      x y z
#    x 1.780040 0.000000 0.000000 
#    y 0.000000 1.739010 0.000000 
#    z 0.000000 0.000000 1.728890 
# 
# From -- ./inp_files/35601.got.cif
#   From: 2010.03.12/outbox.cif.g09.slc.cpg/sg51_18_cif.got.tgz:35601.got - 2010.04.16 13:43:02.
