data_PCOD8209965
_publ_section_title
;
Structure prediction by ZEFSAII (Michael W. Deem and Ramdas Pophale) SiO2 
 PCOD8209965
Probable space group: P M M A
;
_chemical_formula_sum "Si O2"
_cell_formula_units_Z 48
_cell_length_a 8.589839
_cell_length_b 30.675271
_cell_length_c 9.342183
_cell_angle_alpha 90.000000
_cell_angle_beta 90.000000
_cell_angle_gamma 90.000000
_cell_volume 2461.624481
_symmetry_space_group_name_H-M "P M M A"
_symmetry_group_IT_number 51
_symmetry_cell_setting 'orthorhombic'
loop_
_space_group_symop_operation_xyz
x,y,z
1/2-x,-y,z
1/2+x,-y,-z
-x,y,-z
-x,-y,-z
1/2+x,y,-z
1/2-x,y,z
x,-y,z
loop_
_atom_site_type_symbol
_atom_site_label
_atom_site_fract_x
_atom_site_fract_y
_atom_site_fract_z
Si Si1 0.570157 0.500000 0.346436
Si Si2 0.065655 0.000000 0.344270
Si Si3 0.934100 0.249841 0.342650
Si Si4 0.565249 0.594602 0.339695
Si Si5 0.933932 0.328100 0.841553
Si Si6 0.934480 0.176023 0.846644
Si Si7 0.566511 0.077354 0.850027
O O1 0.750000 0.500000 0.374537
O O2 0.500000 0.500000 0.500000
O O3 0.525441 0.546227 0.272643
O O4 0.002577 0.956251 0.267896
O O5 0.000000 0.000000 0.500000
O O6 0.250000 0.000000 0.346801
O O7 0.750000 0.249534 0.350753
O O8 0.000000 0.257651 0.500000
O O9 0.989815 0.288122 0.240456
O O10 0.993824 0.204136 0.280808
O O11 0.500000 0.599577 0.500000
O O12 0.750000 0.604093 0.340359
O O13 0.476428 0.627380 0.237218
O O14 0.750000 0.321630 0.845741
O O15 0.000000 0.329746 0.000000
O O16 0.750000 0.181526 0.848565
O O17 0.988189 0.126484 0.814456
O O18 0.000000 0.191696 0.000000
O O19 0.750000 0.075502 0.860168
O O20 0.500000 0.061374 0.000000
#
# Coordination Sequence:
#
# PCOD8209965 Si02
#       7
#     4   4   8   8   8   8   8
#     4   8  16  30  53  82 115 150 188 230 276 328
#     4  10  21  36  52  78 112 148 187 232 280 330
#     4  12  25  42  62  86 114 148 186 230 279 334
#     4  10  19  35  58  87 118 152 191 234 280 332
#     4  12  25  42  61  84 113 149 189 234 283 336
#     4  10  20  37  59  86 116 149 186 230 279 334
#     4   9  19  35  57  82 111 145 187 230 274 328
#
# _framework density 19.499320000000001
#
# number of rings (size 3 to 8) (size 9 to 14) (size 15 to 20)
#    0.000    1.667    0.000    5.250    0.000    2.667 
#    0.000    2.083    0.000    0.000    0.000    0.000 
#    0.000    0.000    0.000    0.000    0.000    0.000 
#
# Total GULP energy -595109.632122 kJ/mol
# GULP energy per Si atom -12398.117336 kJ/mol
# Density = 1.945494 g / cm^3
# Si number density = 19.499320 Si / 1000 Ang^3
#
#
#
# Elastic Constant Matrix: (Units=GPa)
#
#
# Indices 1 2 3 4 5 6 
#
# 1 84.2027 31.0260 29.7539 0.0000 0.0000 0.0000
# 2 31.0260 131.2713 67.6331 0.0000 0.0000 0.0000
# 3 29.7539 67.6331 127.6213 0.0000 0.0000 0.0000
# 4 0.0000 0.0000 0.0000 -10.2999 0.0000 0.0000
# 5 0.0000 0.0000 0.0000 0.0000 36.8060 0.0000
# 6 0.0000 0.0000 0.0000 0.0000 0.0000 28.4012
#
#
#
# Elastic Compliance Matrix: (Units=1/GPa)
#
#
# Indices 1 2 3 4 5 6 
#
# 1 0.013364 -0.002137 -0.001983 0.000000 0.000000 0.000000
# 2 -0.002137 0.010821 -0.005236 0.000000 0.000000 0.000000
# 3 -0.001983 -0.005236 0.011073 0.000000 0.000000 0.000000
# 4 0.000000 0.000000 0.000000 -0.097088 0.000000 0.000000
# 5 0.000000 0.000000 0.000000 0.000000 0.027169 0.000000
# 6 0.000000 0.000000 0.000000 0.000000 0.000000 0.035210
#
#
# Mechanical properties :
#
#
# Convention : Reuss Voigt Hill
#
# Bulk Modulus (GPa) = 60.44063 66.65791 63.54927
# Shear Modulus (GPa) = 201.79978 25.29360 113.54669
#
# Velocity S-wave (km/s) = 10.18407 3.60551 7.63921
# Velocity P-wave (km/s) = 13.01348 7.18275 10.51053
#
# Compressibility (1/GPa) = 0.01654516
#
# Stress axis : x y z
#
# Youngs Moduli (GPa) = 74.82625 92.41602 90.30941
#
# Poissons Ratio (x) = 0.19747 0.17912
# Poissons Ratio (y) = 0.15989 0.47288
# Poissons Ratio (z) = 0.14841 0.48391
#
# Static dielectric constant tensor:
#      x y z
#    x 3.546240 0.000000 0.000000 
#    y 0.000000 4.167980 0.000000 
#    z 0.000000 0.000000 3.491720 
# 
# 
# High freq. dielectric constant tensor:
#      x y z
#    x 1.769550 0.000000 0.000000 
#    y 0.000000 1.783300 0.000000 
#    z 0.000000 0.000000 1.747700 
# 
# From -- ./inp_files/6194.got.cif
#   From: 2010.03.12/outbox.cif.g09.slc.cpg/sg51_4_cif.got.tgz:6194.got - 2010.04.16 13:43:02.
