data_PCOD8209386
_publ_section_title
;
Structure prediction by ZEFSAII (Michael W. Deem and Ramdas Pophale) SiO2 
 PCOD8209386
Probable space group: P M M A
;
_chemical_formula_sum "Si O2"
_cell_formula_units_Z 64
_cell_length_a 17.934307
_cell_length_b 9.274914
_cell_length_c 21.464681
_cell_angle_alpha 90.000000
_cell_angle_beta 90.000000
_cell_angle_gamma 90.000000
_cell_volume 3570.416901
_symmetry_space_group_name_H-M "P M M A"
_symmetry_group_IT_number 51
_symmetry_cell_setting 'orthorhombic'
loop_
_space_group_symop_operation_xyz
x,y,z
1/2-x,-y,z
1/2+x,-y,-z
-x,y,-z
-x,-y,-z
1/2+x,y,-z
1/2-x,y,z
x,-y,z
loop_
_atom_site_type_symbol
_atom_site_label
_atom_site_fract_x
_atom_site_fract_y
_atom_site_fract_z
Si Si1 0.833177 0.668133 0.361775
Si Si2 0.063743 0.832318 0.883144
Si Si3 0.557202 0.832663 0.677011
Si Si4 0.905153 0.165233 0.254595
Si Si5 0.836279 0.163395 0.999872
Si Si6 0.836900 0.667005 0.761837
Si Si7 0.018835 0.668817 0.570194
Si Si8 0.911100 0.670298 0.891250
O O1 0.750000 0.710883 0.385748
O O2 0.838209 0.500000 0.348629
O O3 0.848113 0.742919 0.295612
O O4 0.895525 0.713256 0.412989
O O5 0.100919 0.787787 0.817376
O O6 0.122585 0.796644 0.936394
O O7 0.991844 0.738685 0.897868
O O8 0.040381 0.000000 0.881399
O O9 0.489914 0.806223 0.724807
O O10 0.630872 0.761166 0.705483
O O11 0.539060 0.757024 0.611783
O O12 0.572494 0.000000 0.664614
O O13 0.882578 0.000000 0.264400
O O14 0.750000 0.182076 0.014295
O O15 0.855825 0.000000 0.979298
O O16 0.858715 0.271924 0.945755
O O17 0.750000 0.699541 0.767132
O O18 0.853145 0.500000 0.747760
O O19 0.874720 0.715915 0.826035
O O20 0.005966 0.500000 0.582015
O O21 0.000000 0.712519 0.500000
O O22 0.917672 0.500000 0.897900
#
# Coordination Sequence:
#
# PCOD8209386 Si02
#       8
#     8   8   8   8   8   8   8   8
#     4   9  18  32  51  77 108 139 176 222 265 307
#     4  10  20  36  56  78 104 136 178 220 262 322
#     4  10  19  33  54  80 108 136 172 218 267 314
#     4   9  18  32  52  77 104 135 171 212 261 315
#     4  10  22  38  54  73 101 140 181 223 271 321
#     4  10  21  36  54  77 105 139 177 218 268 324
#     4   9  18  34  56  79 107 148 189 219 259 314
#     4  11  22  36  56  79 105 137 176 223 273 323
#
# _framework density 17.925077000000002
#
# number of rings (size 3 to 8) (size 9 to 14) (size 15 to 20)
#    0.000    2.250    1.250    1.500    0.000    5.500 
#    0.000    1.875    0.000    2.250    0.000    0.000 
#    0.000    0.000    0.000    0.000    0.000    0.000 
#
# Total GULP energy -793757.785965 kJ/mol
# GULP energy per Si atom -12402.465406 kJ/mol
# Density = 1.788428 g / cm^3
# Si number density = 17.925077 Si / 1000 Ang^3
#
#
#
# Elastic Constant Matrix: (Units=GPa)
#
#
# Indices 1 2 3 4 5 6 
#
# 1 111.2088 46.4205 61.9230 0.0000 0.0000 0.0000
# 2 46.4205 63.5090 54.4256 0.0000 0.0000 0.0000
# 3 61.9230 54.4256 124.8795 0.0000 0.0000 0.0000
# 4 0.0000 0.0000 0.0000 30.6491 0.0000 0.0000
# 5 0.0000 0.0000 0.0000 0.0000 22.7745 0.0000
# 6 0.0000 0.0000 0.0000 0.0000 0.0000 20.1187
#
#
#
# Elastic Compliance Matrix: (Units=1/GPa)
#
#
# Indices 1 2 3 4 5 6 
#
# 1 0.014082 -0.006878 -0.003985 0.000000 0.000000 0.000000
# 2 -0.006878 0.028492 -0.009007 0.000000 0.000000 0.000000
# 3 -0.003985 -0.009007 0.013909 0.000000 0.000000 0.000000
# 4 0.000000 0.000000 0.000000 0.032627 0.000000 0.000000
# 5 0.000000 0.000000 0.000000 0.000000 0.043909 0.000000
# 6 0.000000 0.000000 0.000000 0.000000 0.000000 0.049705
#
#
# Mechanical properties :
#
#
# Convention : Reuss Voigt Hill
#
# Bulk Modulus (GPa) = 59.72597 69.45949 64.59273
# Shear Modulus (GPa) = 21.92549 23.83034 22.87792
#
# Velocity S-wave (km/s) = 3.50118 3.65011 3.57642
# Velocity P-wave (km/s) = 7.05241 7.52319 7.29160
#
# Compressibility (1/GPa) = 0.01674313
#
# Stress axis : x y z
#
# Youngs Moduli (GPa) = 71.01249 35.09802 71.89412
#
# Poissons Ratio (x) = 0.24139 0.28652
# Poissons Ratio (y) = 0.48840 0.64755
# Poissons Ratio (z) = 0.28301 0.31613
#
# Static dielectric constant tensor:
#      x y z
#    x 3.328920 0.000000 0.000000 
#    y 0.000000 3.322560 0.000000 
#    z 0.000000 0.000000 3.322680 
# 
# 
# High freq. dielectric constant tensor:
#      x y z
#    x 1.692460 0.000000 0.000000 
#    y 0.000000 1.692900 0.000000 
#    z 0.000000 0.000000 1.691210 
# 
# From -- ./inp_files/33788.got.cif
#   From: 2010.03.12/outbox.cif.g09.slc.cpg/sg51_17_cif.got.tgz:33788.got - 2010.04.16 13:43:02.
