data_PCOD8209545
_publ_section_title
;
Structure prediction by ZEFSAII (Michael W. Deem and Ramdas Pophale) SiO2 
 PCOD8209545
Probable space group: P M M A
;
_chemical_formula_sum "Si O2"
_cell_formula_units_Z 56
_cell_length_a 15.806774
_cell_length_b 9.555798
_cell_length_c 19.016698
_cell_angle_alpha 90.000000
_cell_angle_beta 90.000000
_cell_angle_gamma 90.000000
_cell_volume 2872.402620
_symmetry_space_group_name_H-M "P M M A"
_symmetry_group_IT_number 51
_symmetry_cell_setting 'orthorhombic'
loop_
_space_group_symop_operation_xyz
x,y,z
1/2-x,-y,z
1/2+x,-y,-z
-x,y,-z
-x,-y,-z
1/2+x,y,-z
1/2-x,y,z
x,-y,z
loop_
_atom_site_type_symbol
_atom_site_label
_atom_site_fract_x
_atom_site_fract_y
_atom_site_fract_z
Si Si1 0.750000 0.833233 0.062234
Si Si2 0.654633 0.159202 0.651822
Si Si3 0.588128 0.339672 0.037410
Si Si4 0.985658 0.663091 0.579402
Si Si5 0.988352 0.346289 0.830983
Si Si6 0.250000 0.834148 0.771046
Si Si7 0.601054 0.660514 0.295564
Si Si8 0.842887 0.839180 0.813831
O O1 0.832665 0.764514 0.024448
O O2 0.750000 0.799607 0.145786
O O3 0.750000 0.000000 0.048166
O O4 0.750000 0.173081 0.622855
O O5 0.596113 0.257094 0.606037
O O6 0.653032 0.206134 0.732818
O O7 0.622591 0.000000 0.645134
O O8 0.611519 0.500000 0.015969
O O9 0.570867 0.328622 0.120697
O O10 0.500000 0.293088 0.000000
O O11 0.964280 0.500000 0.583833
O O12 0.070150 0.696070 0.625328
O O13 0.000000 0.712832 0.500000
O O14 0.949469 0.500000 0.839737
O O15 0.913460 0.244910 0.856701
O O16 0.017137 0.318568 0.751460
O O17 0.329950 0.769398 0.730978
O O18 0.250000 0.000000 0.759189
O O19 0.634697 0.500000 0.289687
O O20 0.750000 0.805603 0.844695
O O21 0.864758 0.000000 0.823217
#
# Coordination Sequence:
#
# PCOD8209545 Si02
#       8
#     4   8   8   8   8   4   8   8
#     4  11  23  39  63  93 123 156 195 242 298 354
#     4   9  18  33  53  76 103 137 177 216 259 319
#     4  10  22  41  63  86 116 156 199 242 290 345
#     4  10  21  37  55  78 108 142 182 229 284 339
#     4  10  19  33  57  85 108 139 187 236 280 331
#     4  11  23  37  59  91 117 144 189 240 288 340
#     4  10  20  36  58  82 110 145 185 233 287 339
#     4   9  18  32  51  77 109 144 177 216 271 328
#
# _framework density 19.495875000000002
#
# number of rings (size 3 to 8) (size 9 to 14) (size 15 to 20)
#    0.000    2.143    2.857    1.286    0.000    3.429 
#    2.571    1.429    0.000    0.000    0.000    0.000 
#    0.000    0.000    0.000    0.000    0.000    0.000 
#
# Total GULP energy -694166.232753 kJ/mol
# GULP energy per Si atom -12395.825585 kJ/mol
# Density = 1.945150 g / cm^3
# Si number density = 19.495875 Si / 1000 Ang^3
#
#
#
# Elastic Constant Matrix: (Units=GPa)
#
#
# Indices 1 2 3 4 5 6 
#
# 1 121.3213 73.2489 20.0955 0.0000 0.0000 0.0000
# 2 73.2489 89.0373 17.2216 0.0000 0.0000 0.0000
# 3 20.0955 17.2216 42.8088 0.0000 0.0000 0.0000
# 4 0.0000 0.0000 0.0000 21.8933 0.0000 0.0000
# 5 0.0000 0.0000 0.0000 0.0000 22.7784 0.0000
# 6 0.0000 0.0000 0.0000 0.0000 0.0000 44.7040
#
#
#
# Elastic Compliance Matrix: (Units=1/GPa)
#
#
# Indices 1 2 3 4 5 6 
#
# 1 0.016619 -0.013190 -0.002495 0.000000 0.000000 0.000000
# 2 -0.013190 0.022647 -0.002919 0.000000 0.000000 0.000000
# 3 -0.002495 -0.002919 0.025705 0.000000 0.000000 0.000000
# 4 0.000000 0.000000 0.000000 0.045676 0.000000 0.000000
# 5 0.000000 0.000000 0.000000 0.000000 0.043901 0.000000
# 6 0.000000 0.000000 0.000000 0.000000 0.000000 0.022369
#
#
# Mechanical properties :
#
#
# Convention : Reuss Voigt Hill
#
# Bulk Modulus (GPa) = 36.01895 52.69992 44.35943
# Shear Modulus (GPa) = 22.38334 27.38190 24.88262
#
# Velocity S-wave (km/s) = 3.39205 3.75173 3.57641
# Velocity P-wave (km/s) = 5.81864 6.77180 6.31323
#
# Compressibility (1/GPa) = 0.02776316
#
# Stress axis : x y z
#
# Youngs Moduli (GPa) = 60.17112 44.15668 38.90240
#
# Poissons Ratio (x) = 0.58241 0.09708
# Poissons Ratio (y) = 0.79363 0.11356
# Poissons Ratio (z) = 0.15015 0.12889
#
# Static dielectric constant tensor:
#      x y z
#    x 3.471420 0.000000 0.000000 
#    y 0.000000 3.476910 0.000000 
#    z 0.000000 0.000000 3.567430 
# 
# 
# High freq. dielectric constant tensor:
#      x y z
#    x 1.758100 0.000000 0.000000 
#    y 0.000000 1.754280 0.000000 
#    z 0.000000 0.000000 1.748660 
# 
# From -- ./inp_files/33538.got.cif
#   From: 2010.03.12/outbox.cif.g09.slc.cpg/sg51_17_cif.got.tgz:33538.got - 2010.04.16 13:43:02.
