data_PCOD8209610
_publ_section_title
;
Structure prediction by ZEFSAII (Michael W. Deem and Ramdas Pophale) SiO2 
 PCOD8209610
Probable space group: P M M A
;
_chemical_formula_sum "Si O2"
_cell_formula_units_Z 48
_cell_length_a 17.495720
_cell_length_b 18.095660
_cell_length_c 8.123929
_cell_angle_alpha 90.000000
_cell_angle_beta 90.000000
_cell_angle_gamma 90.000000
_cell_volume 2572.008305
_symmetry_space_group_name_H-M "P M M A"
_symmetry_group_IT_number 51
_symmetry_cell_setting 'orthorhombic'
loop_
_space_group_symop_operation_xyz
x,y,z
1/2-x,-y,z
1/2+x,-y,-z
-x,y,-z
-x,-y,-z
1/2+x,y,-z
1/2-x,y,z
x,-y,z
loop_
_atom_site_type_symbol
_atom_site_label
_atom_site_fract_x
_atom_site_fract_y
_atom_site_fract_z
Si Si1 0.424101 0.814219 0.104712
Si Si2 0.076283 0.587648 0.821023
Si Si3 0.662740 0.413738 0.507196
Si Si4 0.908537 0.648458 0.837278
Si Si5 0.336269 0.914681 0.867183
Si Si6 0.486421 0.079755 0.687842
O O1 0.391054 0.735300 0.155865
O O2 0.451251 0.860270 0.261489
O O3 0.500000 0.802106 0.000000
O O4 0.357450 0.860741 0.017430
O O5 0.062127 0.500000 0.820940
O O6 0.120880 0.614629 0.658253
O O7 0.997421 0.631426 0.814455
O O8 0.120095 0.610238 0.991059
O O9 0.750000 0.392447 0.481473
O O10 0.648832 0.500000 0.524104
O O11 0.635076 0.379194 0.677062
O O12 0.250000 0.896122 0.805992
O O13 0.398062 0.897640 0.723637
O O14 0.340487 0.000000 0.925033
O O15 0.500000 0.068657 0.500000
O O16 0.501420 0.000000 0.776538
#
# Coordination Sequence:
#
# PCOD8209610 Si02
#       6
#     8   8   8   8   8   8
#     4  10  19  34  54  79 109 141 182 225 275 327
#     4  10  20  36  58  82 107 143 191 239 280 326
#     4  10  22  38  56  81 112 146 184 228 282 341
#     4  11  20  35  58  83 110 143 185 233 280 330
#     4   9  18  34  56  80 108 145 185 224 268 323
#     4   9  18  33  55  80 108 144 185 228 271 324
#
# _framework density 18.662459999999999
#
# number of rings (size 3 to 8) (size 9 to 14) (size 15 to 20)
#    0.000    2.167    1.667    3.000    0.000    6.000 
#    0.000    2.500    0.000    3.000    0.000    0.000 
#    0.000    0.000    0.000    0.000    0.000    0.000 
#
# Total GULP energy -594824.393757 kJ/mol
# GULP energy per Si atom -12392.174870 kJ/mol
# Density = 1.861998 g / cm^3
# Si number density = 18.662460 Si / 1000 Ang^3
#
#
#
# Elastic Constant Matrix: (Units=GPa)
#
#
# Indices 1 2 3 4 5 6 
#
# 1 105.7553 13.7576 66.5539 0.0000 0.0000 0.0000
# 2 13.7576 116.5326 19.3737 0.0000 0.0000 0.0000
# 3 66.5539 19.3737 144.6101 0.0000 0.0000 0.0000
# 4 0.0000 0.0000 0.0000 26.8358 0.0000 0.0000
# 5 0.0000 0.0000 0.0000 0.0000 14.3610 0.0000
# 6 0.0000 0.0000 0.0000 0.0000 0.0000 -0.4943
#
#
#
# Elastic Compliance Matrix: (Units=1/GPa)
#
#
# Indices 1 2 3 4 5 6 
#
# 1 0.013348 -0.000567 -0.006067 0.000000 0.000000 0.000000
# 2 -0.000567 0.008801 -0.000918 0.000000 0.000000 0.000000
# 3 -0.006067 -0.000918 0.009830 0.000000 0.000000 0.000000
# 4 0.000000 0.000000 0.000000 0.037264 0.000000 0.000000
# 5 0.000000 0.000000 0.000000 0.000000 0.069633 0.000000
# 6 0.000000 0.000000 0.000000 0.000000 0.000000 -2.023182
#
#
# Mechanical properties :
#
#
# Convention : Reuss Voigt Hill
#
# Bulk Modulus (GPa) = 59.26113 62.91873 61.08993
# Shear Modulus (GPa) = -2.68301 25.95469 11.63584
#
# Velocity S-wave (km/s) = -1.20032 3.73331 2.49968
# Velocity P-wave (km/s) = 5.46828 7.23676 6.41377
#
# Compressibility (1/GPa) = 0.01687447
#
# Stress axis : x y z
#
# Youngs Moduli (GPa) = 74.91950 113.62507 101.72567
#
# Poissons Ratio (x) = 0.06444 0.61717
# Poissons Ratio (y) = 0.04249 0.09339
# Poissons Ratio (z) = 0.45454 0.10431
#
# Static dielectric constant tensor:
#      x y z
#    x 3.366920 0.000000 0.000000 
#    y 0.000000 3.749950 0.000000 
#    z 0.000000 0.000000 3.495310 
# 
# 
# High freq. dielectric constant tensor:
#      x y z
#    x 1.709280 0.000000 0.000000 
#    y 0.000000 1.728070 0.000000 
#    z 0.000000 0.000000 1.723940 
# 
# From -- ./inp_files/8246.got.cif
#   From: 2010.03.12/outbox.cif.g09.slc.cpg/sg51_5_cif.got.tgz:8246.got - 2010.04.16 13:43:02.
