data_PCOD8209252
_publ_section_title
;
Structure prediction by ZEFSAII (Michael W. Deem and Ramdas Pophale) SiO2 
 PCOD8209252
Probable space group: P M M A
;
_chemical_formula_sum "Si O2"
_cell_formula_units_Z 64
_cell_length_a 22.946156
_cell_length_b 9.073868
_cell_length_c 18.082998
_cell_angle_alpha 90.000000
_cell_angle_beta 90.000000
_cell_angle_gamma 90.000000
_cell_volume 3765.068078
_symmetry_space_group_name_H-M "P M M A"
_symmetry_group_IT_number 51
_symmetry_cell_setting 'orthorhombic'
loop_
_space_group_symop_operation_xyz
x,y,z
1/2-x,-y,z
1/2+x,-y,-z
-x,y,-z
-x,-y,-z
1/2+x,y,-z
1/2-x,y,z
x,-y,z
loop_
_atom_site_type_symbol
_atom_site_label
_atom_site_fract_x
_atom_site_fract_y
_atom_site_fract_z
Si Si1 0.181027 0.666790 0.579744
Si Si2 0.819154 0.334899 0.582146
Si Si3 0.683108 0.826048 0.276756
Si Si4 0.182952 0.831323 0.004918
Si Si5 0.181589 0.828670 0.273418
Si Si6 0.010630 0.828803 0.085447
Si Si7 0.115131 0.826859 0.864172
Si Si8 0.625876 0.674865 0.863357
O O1 0.250000 0.681173 0.580133
O O2 0.161218 0.500000 0.594287
O O3 0.157565 0.718276 0.498771
O O4 0.156143 0.765783 0.646397
O O5 0.750000 0.339690 0.579057
O O6 0.842410 0.500000 0.599475
O O7 0.839735 0.221762 0.645191
O O8 0.750000 0.775327 0.264682
O O9 0.644304 0.760048 0.209713
O O10 0.678481 0.000000 0.280082
O O11 0.250000 0.822970 0.982363
O O12 0.146106 0.762513 0.937378
O O13 0.164089 0.000000 0.022076
O O14 0.171822 0.734543 0.077099
O O15 0.250000 0.796441 0.261808
O O16 0.144353 0.735268 0.216028
O O17 0.167427 0.000000 0.263564
O O18 0.061278 0.728315 0.117502
O O19 0.953247 0.790188 0.133086
O O20 0.027831 0.000000 0.093457
O O21 0.000000 0.789725 0.000000
O O22 0.126865 0.000000 0.865178
O O23 0.627627 0.500000 0.862089
#
# Coordination Sequence:
#
# PCOD8209252 Si02
#       8
#     8   8   8   8   8   8   8   8
#     4   8  14  25  41  63  95 134 166 189 224 279
#     4   8  14  26  44  66  95 130 163 194 232 278
#     4   9  16  26  43  70 101 128 157 195 237 282
#     4  10  19  33  53  73  95 126 164 199 237 291
#     4  10  20  33  50  73 100 129 163 200 239 288
#     4  10  19  36  58  72  88 120 166 212 250 291
#     4   9  17  31  51  73  94 122 160 204 249 285
#     4  12  24  35  49  70  99 128 160 201 247 294
#
# _framework density 16.998363999999999
#
# number of rings (size 3 to 8) (size 9 to 14) (size 15 to 20)
#    0.000    2.500    1.250    3.000    0.000    4.750 
#    0.000    3.750    0.000    1.500    0.000    0.875 
#    0.000    7.000    0.000    0.000    0.000    0.000 
#
# Total GULP energy -793394.075454 kJ/mol
# GULP energy per Si atom -12396.782429 kJ/mol
# Density = 1.695968 g / cm^3
# Si number density = 16.998364 Si / 1000 Ang^3
#
#
#
# Elastic Constant Matrix: (Units=GPa)
#
#
# Indices 1 2 3 4 5 6 
#
# 1 58.4454 30.9249 37.8517 0.0000 0.0000 0.0000
# 2 30.9249 74.0686 51.2665 0.0000 0.0000 0.0000
# 3 37.8517 51.2665 136.2550 0.0000 0.0000 0.0000
# 4 0.0000 0.0000 0.0000 14.3216 0.0000 0.0000
# 5 0.0000 0.0000 0.0000 0.0000 10.5620 0.0000
# 6 0.0000 0.0000 0.0000 0.0000 0.0000 14.6449
#
#
#
# Elastic Compliance Matrix: (Units=1/GPa)
#
#
# Indices 1 2 3 4 5 6 
#
# 1 0.023338 -0.007107 -0.003809 0.000000 0.000000 0.000000
# 2 -0.007107 0.020420 -0.005709 0.000000 0.000000 0.000000
# 3 -0.003809 -0.005709 0.010545 0.000000 0.000000 0.000000
# 4 0.000000 0.000000 0.000000 0.069825 0.000000 0.000000
# 5 0.000000 0.000000 0.000000 0.000000 0.094679 0.000000
# 6 0.000000 0.000000 0.000000 0.000000 0.000000 0.068283
#
#
# Mechanical properties :
#
#
# Convention : Reuss Voigt Hill
#
# Bulk Modulus (GPa) = 47.50040 56.53950 52.01995
# Shear Modulus (GPa) = 15.27388 17.82076 16.54732
#
# Velocity S-wave (km/s) = 3.00083 3.24138 3.12343
# Velocity P-wave (km/s) = 6.32546 6.88060 6.60886
#
# Compressibility (1/GPa) = 0.02105246
#
# Stress axis : x y z
#
# Youngs Moduli (GPa) = 42.84935 48.97249 94.83009
#
# Poissons Ratio (x) = 0.34807 0.36121
# Poissons Ratio (y) = 0.30455 0.54134
# Poissons Ratio (z) = 0.16321 0.27956
#
# Static dielectric constant tensor:
#      x y z
#    x 2.955370 0.000000 0.000000 
#    y 0.000000 3.045180 0.000000 
#    z 0.000000 0.000000 3.647270 
# 
# 
# High freq. dielectric constant tensor:
#      x y z
#    x 1.617530 0.000000 0.000000 
#    y 0.000000 1.638090 0.000000 
#    z 0.000000 0.000000 1.668420 
# 
# From -- ./inp_files/30877.got.cif
#   From: 2010.03.12/outbox.cif.g09.slc.cpg/sg51_16_cif.got.tgz:30877.got - 2010.04.16 13:43:02.
