data_PCOD8209566
_publ_section_title
;
Structure prediction by ZEFSAII (Michael W. Deem and Ramdas Pophale) SiO2 
 PCOD8209566
Probable space group: P M M A
;
_chemical_formula_sum "Si O2"
_cell_formula_units_Z 48
_cell_length_a 30.332870
_cell_length_b 9.203306
_cell_length_c 9.564752
_cell_angle_alpha 90.000000
_cell_angle_beta 90.000000
_cell_angle_gamma 90.000000
_cell_volume 2670.121845
_symmetry_space_group_name_H-M "P M M A"
_symmetry_group_IT_number 51
_symmetry_cell_setting 'orthorhombic'
loop_
_space_group_symop_operation_xyz
x,y,z
1/2-x,-y,z
1/2+x,-y,-z
-x,y,-z
-x,-y,-z
1/2+x,y,-z
1/2-x,y,z
x,-y,z
loop_
_atom_site_type_symbol
_atom_site_label
_atom_site_fract_x
_atom_site_fract_y
_atom_site_fract_z
Si Si1 0.374284 0.167921 0.496589
Si Si2 0.109048 0.829094 0.184255
Si Si3 0.142812 0.671101 0.922109
Si Si4 0.980748 0.667681 0.849516
Si Si5 0.300339 0.168990 0.709849
Si Si6 0.930646 0.333482 0.298328
O O1 0.369562 0.207914 0.334253
O O2 0.329218 0.213901 0.574731
O O3 0.416456 0.246327 0.564495
O O4 0.384143 0.000000 0.516348
O O5 0.139050 0.746191 0.072410
O O6 0.059152 0.773232 0.184547
O O7 0.109236 0.000000 0.152038
O O8 0.149172 0.500000 0.942171
O O9 0.185091 0.736533 0.843135
O O10 0.098583 0.710434 0.836297
O O11 0.964723 0.500000 0.847301
O O12 0.018313 0.696761 0.734052
O O13 0.000000 0.706881 0.000000
O O14 0.250000 0.205695 0.673428
O O15 0.306750 0.000000 0.747148
O O16 0.922115 0.500000 0.333840
#
# Coordination Sequence:
#
# PCOD8209566 Si02
#       6
#     8   8   8   8   8   8
#     4   9  20  36  52  75 109 141 172 216 265 316
#     4  11  22  34  50  77 110 143 180 219 266 314
#     4  10  19  34  55  78 106 137 172 216 263 309
#     4  10  19  34  52  73 104 140 185 229 265 308
#     4   9  18  36  61  83 102 131 172 214 259 315
#     4   9  18  33  53  74  98 137 183 222 260 309
#
# _framework density 17.976707000000001
#
# number of rings (size 3 to 8) (size 9 to 14) (size 15 to 20)
#    0.000    2.333    1.667    1.000    0.000    4.000 
#    0.000    4.167    0.000    3.000    0.000    0.000 
#    0.000    0.000    0.000    0.000    0.000    0.000 
#
# Total GULP energy -595301.869174 kJ/mol
# GULP energy per Si atom -12402.122274 kJ/mol
# Density = 1.793579 g / cm^3
# Si number density = 17.976707 Si / 1000 Ang^3
#
#
#
# Elastic Constant Matrix: (Units=GPa)
#
#
# Indices 1 2 3 4 5 6 
#
# 1 89.0670 40.5708 50.3366 0.0000 0.0000 0.0000
# 2 40.5708 76.3367 62.4948 0.0000 0.0000 0.0000
# 3 50.3366 62.4948 122.7361 0.0000 0.0000 0.0000
# 4 0.0000 0.0000 0.0000 28.5688 0.0000 0.0000
# 5 0.0000 0.0000 0.0000 0.0000 17.7374 0.0000
# 6 0.0000 0.0000 0.0000 0.0000 0.0000 26.2009
#
#
#
# Elastic Compliance Matrix: (Units=1/GPa)
#
#
# Indices 1 2 3 4 5 6 
#
# 1 0.015771 -0.005293 -0.003773 0.000000 0.000000 0.000000
# 2 -0.005293 0.024240 -0.010172 0.000000 0.000000 0.000000
# 3 -0.003773 -0.010172 0.014874 0.000000 0.000000 0.000000
# 4 0.000000 0.000000 0.000000 0.035003 0.000000 0.000000
# 5 0.000000 0.000000 0.000000 0.000000 0.056378 0.000000
# 6 0.000000 0.000000 0.000000 0.000000 0.000000 0.038167
#
#
# Mechanical properties :
#
#
# Convention : Reuss Voigt Hill
#
# Bulk Modulus (GPa) = 60.93907 66.10492 63.52199
# Shear Modulus (GPa) = 21.89343 23.48393 22.68868
#
# Velocity S-wave (km/s) = 3.49360 3.61827 3.55648
# Velocity P-wave (km/s) = 7.08845 7.36941 7.23030
#
# Compressibility (1/GPa) = 0.01640983
#
# Stress axis : x y z
#
# Youngs Moduli (GPa) = 63.40862 41.25330 67.23015
#
# Poissons Ratio (x) = 0.21835 0.25365
# Poissons Ratio (y) = 0.33562 0.68387
# Poissons Ratio (z) = 0.23923 0.41963
#
# Static dielectric constant tensor:
#      x y z
#    x 3.292300 0.000000 0.000000 
#    y 0.000000 3.332940 0.000000 
#    z 0.000000 0.000000 3.402780 
# 
# 
# High freq. dielectric constant tensor:
#      x y z
#    x 1.681080 0.000000 0.000000 
#    y 0.000000 1.697730 0.000000 
#    z 0.000000 0.000000 1.695480 
# 
# From -- ./inp_files/12840.got.cif
#   From: 2010.03.12/outbox.cif.g09.slc.cpg/sg51_7_cif.got.tgz:12840.got - 2010.04.16 13:43:02.
