data_PCOD8209465
_publ_section_title
;
Structure prediction by ZEFSAII (Michael W. Deem and Ramdas Pophale) SiO2 
 PCOD8209465
Probable space group: P M M A
;
_chemical_formula_sum "Si O2"
_cell_formula_units_Z 40
_cell_length_a 7.828670
_cell_length_b 9.469847
_cell_length_c 29.086876
_cell_angle_alpha 90.000000
_cell_angle_beta 90.000000
_cell_angle_gamma 90.000000
_cell_volume 2156.393572
_symmetry_space_group_name_H-M "P M M A"
_symmetry_group_IT_number 51
_symmetry_cell_setting 'orthorhombic'
loop_
_space_group_symop_operation_xyz
x,y,z
1/2-x,-y,z
1/2+x,-y,-z
-x,y,-z
-x,-y,-z
1/2+x,y,-z
1/2-x,y,z
x,-y,z
loop_
_atom_site_type_symbol
_atom_site_label
_atom_site_fract_x
_atom_site_fract_y
_atom_site_fract_z
Si Si1 0.561961 0.667065 0.270505
Si Si2 0.949579 0.160718 0.450267
Si Si3 0.250000 0.167632 0.114340
Si Si4 0.441632 0.167457 0.950705
Si Si5 0.250000 0.331186 0.208975
Si Si6 0.944710 0.656520 0.633523
O O1 0.750000 0.711242 0.252113
O O2 0.541058 0.500000 0.273820
O O3 0.417747 0.724224 0.236030
O O4 0.541222 0.725533 0.322638
O O5 0.750000 0.172614 0.442180
O O6 0.000000 0.223542 0.500000
O O7 0.042892 0.247944 0.411200
O O8 0.015005 0.000000 0.447120
O O9 0.420494 0.215377 0.087129
O O10 0.250000 0.254132 0.160798
O O11 0.250000 0.000000 0.123610
O O12 0.250000 0.223082 0.938400
O O13 0.439081 0.000000 0.953825
O O14 0.500000 0.229367 0.000000
O O15 0.250000 0.500000 0.202077
O O16 0.750000 0.644842 0.648967
O O17 0.017423 0.500000 0.621966
#
# Coordination Sequence:
#
# PCOD8209465 Si02
#       6
#     8   8   4   8   4   8
#     4   9  17  32  55  78 100 131 172 217 258 303
#     4  10  21  36  52  72 102 139 174 206 251 316
#     4  10  20  32  50  78 108 134 168 218 265 298
#     4   9  15  26  47  75 103 133 172 214 255 303
#     4  10  20  36  54  74 104 140 178 210 253 318
#     4  10  19  33  55  81 103 126 167 220 265 305
#
# _framework density 18.549489000000001
#
# number of rings (size 3 to 8) (size 9 to 14) (size 15 to 20)
#    0.000    2.400    2.000    1.200    0.000    3.600 
#    0.000    1.000    0.000    1.800    0.000    0.000 
#    0.000    0.000    0.000    0.000    0.000    0.000 
#
# Total GULP energy -495856.835489 kJ/mol
# GULP energy per Si atom -12396.420887 kJ/mol
# Density = 1.850727 g / cm^3
# Si number density = 18.549489 Si / 1000 Ang^3
#
#
#
# Elastic Constant Matrix: (Units=GPa)
#
#
# Indices 1 2 3 4 5 6 
#
# 1 146.9771 21.6905 72.2152 0.0000 0.0000 0.0000
# 2 21.6905 32.7577 38.8527 0.0000 0.0000 0.0000
# 3 72.2152 38.8527 156.9535 0.0000 0.0000 0.0000
# 4 0.0000 0.0000 0.0000 29.6182 0.0000 0.0000
# 5 0.0000 0.0000 0.0000 0.0000 30.4216 0.0000
# 6 0.0000 0.0000 0.0000 0.0000 0.0000 13.2814
#
#
#
# Elastic Compliance Matrix: (Units=1/GPa)
#
#
# Indices 1 2 3 4 5 6 
#
# 1 0.008840 -0.001457 -0.003707 0.000000 0.000000 0.000000
# 2 -0.001457 0.043455 -0.010087 0.000000 0.000000 0.000000
# 3 -0.003707 -0.010087 0.010574 0.000000 0.000000 0.000000
# 4 0.000000 0.000000 0.000000 0.033763 0.000000 0.000000
# 5 0.000000 0.000000 0.000000 0.000000 0.032871 0.000000
# 6 0.000000 0.000000 0.000000 0.000000 0.000000 0.075293
#
#
# Mechanical properties :
#
#
# Convention : Reuss Voigt Hill
#
# Bulk Modulus (GPa) = 30.89444 66.91167 48.90306
# Shear Modulus (GPa) = 20.31799 28.25954 24.28876
#
# Velocity S-wave (km/s) = 3.31318 3.90740 3.62249
# Velocity P-wave (km/s) = 5.59710 7.51713 6.62702
#
# Compressibility (1/GPa) = 0.03236828
#
# Stress axis : x y z
#
# Youngs Moduli (GPa) = 113.12176 23.01208 94.57475
#
# Poissons Ratio (x) = 0.03353 0.35056
# Poissons Ratio (y) = 0.16483 0.95394
# Poissons Ratio (z) = 0.41930 0.23211
#
# Static dielectric constant tensor:
#      x y z
#    x 3.738050 0.000000 0.000000 
#    y 0.000000 2.929520 0.000000 
#    z 0.000000 0.000000 3.359190 
# 
# 
# High freq. dielectric constant tensor:
#      x y z
#    x 1.740640 0.000000 0.000000 
#    y 0.000000 1.662050 0.000000 
#    z 0.000000 0.000000 1.721080 
# 
# From -- ./inp_files/36094.got.cif
#   From: 2010.03.12/outbox.cif.g09.slc.cpg/sg51_19_cif.got.tgz:36094.got - 2010.04.16 13:43:02.
