data_PCOD8209353
_publ_section_title
;
Structure prediction by ZEFSAII (Michael W. Deem and Ramdas Pophale) SiO2 
 PCOD8209353
Probable space group: P M M A
;
_chemical_formula_sum "Si O2"
_cell_formula_units_Z 48
_cell_length_a 15.208275
_cell_length_b 18.620551
_cell_length_c 9.362663
_cell_angle_alpha 90.000000
_cell_angle_beta 90.000000
_cell_angle_gamma 90.000000
_cell_volume 2651.379394
_symmetry_space_group_name_H-M "P M M A"
_symmetry_group_IT_number 51
_symmetry_cell_setting 'orthorhombic'
loop_
_space_group_symop_operation_xyz
x,y,z
1/2-x,-y,z
1/2+x,-y,-z
-x,y,-z
-x,-y,-z
1/2+x,y,-z
1/2-x,y,z
x,-y,z
loop_
_atom_site_type_symbol
_atom_site_label
_atom_site_fract_x
_atom_site_fract_y
_atom_site_fract_z
Si Si1 0.351046 0.419204 0.659796
Si Si2 0.151140 0.832574 0.364481
Si Si3 0.648757 0.916013 0.351839
Si Si4 0.480918 0.669394 0.839960
Si Si5 0.511459 0.163954 0.161316
Si Si6 0.589368 0.319353 0.579402
O O1 0.250000 0.419953 0.701623
O O2 0.389019 0.500000 0.652272
O O3 0.398091 0.374924 0.783989
O O4 0.363715 0.383615 0.504306
O O5 0.250000 0.851310 0.311481
O O6 0.123339 0.882377 0.496158
O O7 0.082287 0.846533 0.238338
O O8 0.151532 0.749828 0.415271
O O9 0.750000 0.898940 0.313229
O O10 0.587658 0.883257 0.230086
O O11 0.630745 0.000000 0.361819
O O12 0.457499 0.753535 0.833982
O O13 0.565574 0.653615 0.739361
O O14 0.500000 0.643454 0.000000
O O15 0.500000 0.137118 0.000000
O O16 0.500000 0.295494 0.500000
#
# Coordination Sequence:
#
# PCOD8209353 Si02
#       6
#     8   8   8   8   8   8
#     4  10  20  33  50  74 102 132 169 212 257 304
#     4  10  19  33  54  78 103 133 172 216 260 307
#     4  10  21  36  55  79 105 136 174 214 257 304
#     4   9  19  35  52  74 102 133 170 208 252 306
#     4  10  21  36  54  78 107 138 173 212 258 309
#     4   9  17  31  53  75  98 131 170 210 255 304
#
# _framework density 18.103784999999998
#
# number of rings (size 3 to 8) (size 9 to 14) (size 15 to 20)
#    0.000    2.333    0.000    4.000    0.000    7.667 
#    0.000    7.500    0.000    4.000    0.000    0.000 
#    0.000    0.000    0.000    0.000    0.000    0.000 
#
# Total GULP energy -595259.819122 kJ/mol
# GULP energy per Si atom -12401.246232 kJ/mol
# Density = 1.806258 g / cm^3
# Si number density = 18.103785 Si / 1000 Ang^3
#
#
#
# Elastic Constant Matrix: (Units=GPa)
#
#
# Indices 1 2 3 4 5 6 
#
# 1 93.4000 53.8948 63.1750 0.0000 0.0000 0.0000
# 2 53.8948 99.1054 67.0586 0.0000 0.0000 0.0000
# 3 63.1750 67.0586 159.1292 0.0000 0.0000 0.0000
# 4 0.0000 0.0000 0.0000 6.3518 0.0000 0.0000
# 5 0.0000 0.0000 0.0000 0.0000 18.7719 0.0000
# 6 0.0000 0.0000 0.0000 0.0000 0.0000 30.2914
#
#
#
# Elastic Compliance Matrix: (Units=1/GPa)
#
#
# Indices 1 2 3 4 5 6 
#
# 1 0.017295 -0.006658 -0.004061 0.000000 0.000000 0.000000
# 2 -0.006658 0.016678 -0.004385 0.000000 0.000000 0.000000
# 3 -0.004061 -0.004385 0.009744 0.000000 0.000000 0.000000
# 4 0.000000 0.000000 0.000000 0.157436 0.000000 0.000000
# 5 0.000000 0.000000 0.000000 0.000000 0.053271 0.000000
# 6 0.000000 0.000000 0.000000 0.000000 0.000000 0.033013
#
#
# Mechanical properties :
#
#
# Convention : Reuss Voigt Hill
#
# Bulk Modulus (GPa) = 74.01736 79.98793 77.00264
# Shear Modulus (GPa) = 15.52089 22.25010 18.88550
#
# Velocity S-wave (km/s) = 2.93119 3.50956 3.23333
# Velocity P-wave (km/s) = 7.24083 7.79112 7.52101
#
# Compressibility (1/GPa) = 0.01351034
#
# Stress axis : x y z
#
# Youngs Moduli (GPa) = 57.82078 59.95950 102.62531
#
# Poissons Ratio (x) = 0.39919 0.41671
# Poissons Ratio (y) = 0.38495 0.45002
# Poissons Ratio (z) = 0.23478 0.26293
#
# Static dielectric constant tensor:
#      x y z
#    x 3.286170 0.000000 0.000000 
#    y 0.000000 3.367020 0.000000 
#    z 0.000000 0.000000 3.463190 
# 
# 
# High freq. dielectric constant tensor:
#      x y z
#    x 1.699950 0.000000 0.000000 
#    y 0.000000 1.699570 0.000000 
#    z 0.000000 0.000000 1.697440 
# 
# From -- ./inp_files/8264.got.cif
#   From: 2010.03.12/outbox.cif.g09.slc.cpg/sg51_5_cif.got.tgz:8264.got - 2010.04.16 13:43:02.
