data_PCOD8209654
_publ_section_title
;
Structure prediction by ZEFSAII (Michael W. Deem and Ramdas Pophale) SiO2 
 PCOD8209654
Probable space group: P M M A
;
_chemical_formula_sum "Si O2"
_cell_formula_units_Z 48
_cell_length_a 28.106625
_cell_length_b 9.185383
_cell_length_c 10.389181
_cell_angle_alpha 90.000000
_cell_angle_beta 90.000000
_cell_angle_gamma 90.000000
_cell_volume 2682.176058
_symmetry_space_group_name_H-M "P M M A"
_symmetry_group_IT_number 51
_symmetry_cell_setting 'orthorhombic'
loop_
_space_group_symop_operation_xyz
x,y,z
1/2-x,-y,z
1/2+x,-y,-z
-x,y,-z
-x,-y,-z
1/2+x,y,-z
1/2-x,y,z
x,-y,z
loop_
_atom_site_type_symbol
_atom_site_label
_atom_site_fract_x
_atom_site_fract_y
_atom_site_fract_z
Si Si1 0.600206 0.671664 0.514104
Si Si2 0.302817 0.166372 0.122076
Si Si3 0.448765 0.669950 0.226672
Si Si4 0.398573 0.830071 0.993706
Si Si5 0.560184 0.330112 0.246691
Si Si6 0.697711 0.328897 0.617544
O O1 0.592972 0.500000 0.513626
O O2 0.573706 0.732007 0.641060
O O3 0.576795 0.734398 0.384649
O O4 0.656244 0.716163 0.517631
O O5 0.250000 0.203155 0.067322
O O6 0.314971 0.263023 0.244892
O O7 0.305445 0.000000 0.168370
O O8 0.342161 0.197486 0.013558
O O9 0.436733 0.500000 0.206641
O O10 0.504667 0.697454 0.231174
O O11 0.428575 0.759186 0.107797
O O12 0.411092 0.757257 0.859567
O O13 0.411076 0.000000 0.989147
O O14 0.572845 0.500000 0.233342
O O15 0.750000 0.276004 0.568446
O O16 0.697446 0.500000 0.638123
#
# Coordination Sequence:
#
# PCOD8209654 Si02
#       6
#     8   8   8   8   8   8
#     4   9  17  32  53  77 103 131 167 209 250 298
#     4   9  18  33  52  73  98 130 168 207 248 299
#     4  10  19  34  56  77  98 133 179 215 247 297
#     4  11  22  35  52  76 105 135 168 212 260 300
#     4  10  21  35  52  74 104 141 174 206 249 303
#     4   9  16  28  51  80 103 124 158 209 260 299
#
# _framework density 17.895918000000002
#
# number of rings (size 3 to 8) (size 9 to 14) (size 15 to 20)
#    0.000    2.333    1.667    1.500    0.000    5.333 
#    0.000    2.500    0.000    3.000    0.000    0.000 
#    0.000    0.000    0.000    0.000    0.000    0.000 
#
# Total GULP energy -595068.755375 kJ/mol
# GULP energy per Si atom -12397.265737 kJ/mol
# Density = 1.785519 g / cm^3
# Si number density = 17.895918 Si / 1000 Ang^3
#
#
#
# Elastic Constant Matrix: (Units=GPa)
#
#
# Indices 1 2 3 4 5 6 
#
# 1 108.9483 37.5244 49.5448 0.0000 0.0000 0.0000
# 2 37.5244 39.4995 28.9768 0.0000 0.0000 0.0000
# 3 49.5448 28.9768 109.1366 0.0000 0.0000 0.0000
# 4 0.0000 0.0000 0.0000 -14.5918 0.0000 0.0000
# 5 0.0000 0.0000 0.0000 0.0000 5.5734 0.0000
# 6 0.0000 0.0000 0.0000 0.0000 0.0000 21.9427
#
#
#
# Elastic Compliance Matrix: (Units=1/GPa)
#
#
# Indices 1 2 3 4 5 6 
#
# 1 0.014753 -0.011304 -0.003696 0.000000 0.000000 0.000000
# 2 -0.011304 0.040102 -0.005516 0.000000 0.000000 0.000000
# 3 -0.003696 -0.005516 0.012305 0.000000 0.000000 0.000000
# 4 0.000000 0.000000 0.000000 -0.068531 0.000000 0.000000
# 5 0.000000 0.000000 0.000000 0.000000 0.179424 0.000000
# 6 0.000000 0.000000 0.000000 0.000000 0.000000 0.045573
#
#
# Mechanical properties :
#
#
# Convention : Reuss Voigt Hill
#
# Bulk Modulus (GPa) = 38.27237 54.40847 46.34042
# Shear Modulus (GPa) = 18.29052 12.02075 15.15563
#
# Velocity S-wave (km/s) = 3.20042 2.59454 2.91327
# Velocity P-wave (km/s) = 5.92363 6.28046 6.10466
#
# Compressibility (1/GPa) = 0.02612851
#
# Stress axis : x y z
#
# Youngs Moduli (GPa) = 67.78417 24.93665 81.26609
#
# Poissons Ratio (x) = 0.28187 0.30037
# Poissons Ratio (y) = 0.76620 0.44825
# Poissons Ratio (z) = 0.25054 0.13755
#
# Static dielectric constant tensor:
#      x y z
#    x 3.735280 0.000000 0.000000 
#    y 0.000000 3.164190 0.000000 
#    z 0.000000 0.000000 3.300250 
# 
# 
# High freq. dielectric constant tensor:
#      x y z
#    x 1.713830 0.000000 0.000000 
#    y 0.000000 1.671980 0.000000 
#    z 0.000000 0.000000 1.676150 
# 
# From -- ./inp_files/12773.got.cif
#   From: 2010.03.12/outbox.cif.g09.slc.cpg/sg51_7_cif.got.tgz:12773.got - 2010.04.16 13:43:02.
