data_PCOD8209703
_publ_section_title
;
Structure prediction by ZEFSAII (Michael W. Deem and Ramdas Pophale) SiO2 
 PCOD8209703
Probable space group: P M M A
;
_chemical_formula_sum "Si O2"
_cell_formula_units_Z 64
_cell_length_a 17.994757
_cell_length_b 8.527188
_cell_length_c 21.570966
_cell_angle_alpha 90.000000
_cell_angle_beta 90.000000
_cell_angle_gamma 90.000000
_cell_volume 3309.949888
_symmetry_space_group_name_H-M "P M M A"
_symmetry_group_IT_number 51
_symmetry_cell_setting 'orthorhombic'
loop_
_space_group_symop_operation_xyz
x,y,z
1/2-x,-y,z
1/2+x,-y,-z
-x,y,-z
-x,-y,-z
1/2+x,y,-z
1/2-x,y,z
x,-y,z
loop_
_atom_site_type_symbol
_atom_site_label
_atom_site_fract_x
_atom_site_fract_y
_atom_site_fract_z
Si Si1 0.665602 0.316892 0.229196
Si Si2 0.666923 0.183300 0.635708
Si Si3 0.663978 0.681597 0.999193
Si Si4 0.974699 0.815702 0.564890
Si Si5 0.455276 0.817209 0.690991
Si Si6 0.403304 0.317777 0.246711
Si Si7 0.588139 0.182436 0.882812
Si Si8 0.416926 0.818203 0.886552
O O1 0.750000 0.256307 0.225565
O O2 0.662236 0.500000 0.242808
O O3 0.626934 0.227810 0.286787
O O4 0.625947 0.282501 0.164418
O O5 0.750000 0.216498 0.610859
O O6 0.607455 0.244849 0.584827
O O7 0.655160 0.273231 0.700033
O O8 0.653287 0.000000 0.648652
O O9 0.750000 0.726722 0.004761
O O10 0.650850 0.500000 0.015058
O O11 0.636370 0.716682 0.930252
O O12 0.618044 0.788175 0.046510
O O13 0.000000 0.735504 0.500000
O O14 0.033995 0.772508 0.618628
O O15 0.970619 0.000000 0.554855
O O16 0.513036 0.722355 0.732941
O O17 0.471113 0.000000 0.701440
O O18 0.397665 0.500000 0.231418
O O19 0.381989 0.220716 0.185642
O O20 0.502422 0.233946 0.888587
O O21 0.598845 0.000000 0.897579
O O22 0.409837 0.000000 0.868480
#
# Coordination Sequence:
#
# PCOD8209703 Si02
#       8
#     8   8   8   8   8   8   8   8
#     4  11  23  37  56  83 114 149 188 231 282 335
#     4   9  18  33  54  80 112 150 191 235 283 334
#     4  11  25  42  58  80 112 148 187 232 282 337
#     4   8  15  30  54  83 113 146 187 235 281 328
#     4  10  19  34  56  82 112 145 184 228 275 330
#     4  11  21  34  56  82 110 145 182 226 281 337
#     4  11  23  39  60  85 111 143 186 233 280 338
#     4  11  23  39  61  85 110 143 187 235 283 336
#
# _framework density 19.335640999999999
#
# number of rings (size 3 to 8) (size 9 to 14) (size 15 to 20)
#    0.000    1.750    1.250    4.500    0.000    7.250 
#    0.000    0.625    0.000   11.625    0.000    0.000 
#    0.000    0.000    0.000    0.000    0.000    0.000 
#
# Total GULP energy -793793.278371 kJ/mol
# GULP energy per Si atom -12403.019975 kJ/mol
# Density = 1.929163 g / cm^3
# Si number density = 19.335641 Si / 1000 Ang^3
#
#
#
# Elastic Constant Matrix: (Units=GPa)
#
#
# Indices 1 2 3 4 5 6 
#
# 1 82.0700 25.9418 38.8148 0.0000 0.0000 0.0000
# 2 25.9418 43.6941 10.8931 0.0000 0.0000 0.0000
# 3 38.8148 10.8931 126.7594 0.0000 0.0000 0.0000
# 4 0.0000 0.0000 0.0000 14.5398 0.0000 0.0000
# 5 0.0000 0.0000 0.0000 0.0000 23.0094 0.0000
# 6 0.0000 0.0000 0.0000 0.0000 0.0000 24.9918
#
#
#
# Elastic Compliance Matrix: (Units=1/GPa)
#
#
# Indices 1 2 3 4 5 6 
#
# 1 0.017172 -0.009079 -0.004478 0.000000 0.000000 0.000000
# 2 -0.009079 0.028188 0.000358 0.000000 0.000000 0.000000
# 3 -0.004478 0.000358 0.009229 0.000000 0.000000 0.000000
# 4 0.000000 0.000000 0.000000 0.068777 0.000000 0.000000
# 5 0.000000 0.000000 0.000000 0.000000 0.043460 0.000000
# 6 0.000000 0.000000 0.000000 0.000000 0.000000 0.040013
#
#
# Mechanical properties :
#
#
# Convention : Reuss Voigt Hill
#
# Bulk Modulus (GPa) = 35.47284 44.86921 40.17103
# Shear Modulus (GPa) = 20.60704 24.29980 22.45342
#
# Velocity S-wave (km/s) = 3.26813 3.54889 3.41140
# Velocity P-wave (km/s) = 5.71197 6.32840 6.02807
#
# Compressibility (1/GPa) = 0.02819058
#
# Stress axis : x y z
#
# Youngs Moduli (GPa) = 58.23267 35.47661 108.34872
#
# Poissons Ratio (x) = 0.32210 0.48520
# Poissons Ratio (y) = 0.52870 -0.03877
# Poissons Ratio (z) = 0.26077 -0.01269
#
# Static dielectric constant tensor:
#      x y z
#    x 3.633330 0.000000 0.000000 
#    y 0.000000 3.363780 0.000000 
#    z 0.000000 0.000000 3.640040 
# 
# 
# High freq. dielectric constant tensor:
#      x y z
#    x 1.751210 0.000000 0.000000 
#    y 0.000000 1.744670 0.000000 
#    z 0.000000 0.000000 1.750290 
# 
# From -- ./inp_files/33897.got.cif
#   From: 2010.03.12/outbox.cif.g09.slc.cpg/sg51_17_cif.got.tgz:33897.got - 2010.04.16 13:43:02.
