data_PCOD8209781
_publ_section_title
;
Structure prediction by ZEFSAII (Michael W. Deem and Ramdas Pophale) SiO2 
 PCOD8209781
Probable space group: P M M A
;
_chemical_formula_sum "Si O2"
_cell_formula_units_Z 48
_cell_length_a 8.570431
_cell_length_b 31.375660
_cell_length_c 9.142403
_cell_angle_alpha 90.000000
_cell_angle_beta 90.000000
_cell_angle_gamma 90.000000
_cell_volume 2458.418946
_symmetry_space_group_name_H-M "P M M A"
_symmetry_group_IT_number 51
_symmetry_cell_setting 'orthorhombic'
loop_
_space_group_symop_operation_xyz
x,y,z
1/2-x,-y,z
1/2+x,-y,-z
-x,y,-z
-x,-y,-z
1/2+x,y,-z
1/2-x,y,z
x,-y,z
loop_
_atom_site_type_symbol
_atom_site_label
_atom_site_fract_x
_atom_site_fract_y
_atom_site_fract_z
Si Si1 0.935367 0.421074 0.838681
Si Si2 0.064976 0.500000 0.661845
Si Si3 0.935004 0.155849 0.663825
Si Si4 0.565465 0.340204 0.661715
Si Si5 0.934152 0.078584 0.161395
Si Si6 0.068063 0.751607 0.341781
Si Si7 0.434470 0.000000 0.338539
O O1 0.750000 0.424350 0.840648
O O2 0.996171 0.376406 0.771204
O O3 0.004093 0.458400 0.741955
O O4 0.000000 0.425537 0.000000
O O5 0.250000 0.500000 0.659630
O O6 0.000000 0.500000 0.500000
O O7 0.750000 0.147148 0.661349
O O8 0.974695 0.203048 0.733291
O O9 0.000000 0.150421 0.500000
O O10 0.020757 0.123885 0.771581
O O11 0.500000 0.347816 0.500000
O O12 0.750000 0.343250 0.649381
O O13 0.511382 0.293586 0.728427
O O14 0.750000 0.073118 0.157820
O O15 0.007706 0.041924 0.258496
O O16 0.000000 0.074622 0.000000
O O17 0.250000 0.748714 0.360211
O O18 0.000000 0.754465 0.500000
O O19 0.500000 0.000000 0.500000
O O20 0.250000 0.000000 0.343639
#
# Coordination Sequence:
#
# PCOD8209781 Si02
#       7
#     8   4   8   8   8   8   4
#     4  11  23  39  58  82 114 150 188 229 280 335
#     4  12  25  42  63  86 112 142 182 228 277 332
#     4  10  19  34  57  85 116 152 193 237 282 332
#     4   9  18  33  55  82 111 145 186 233 280 331
#     4  12  25  42  61  85 117 153 191 233 284 339
#     4   8  15  29  51  79 111 145 185 232 280 327
#     4  12  25  44  67  92 118 148 188 232 279 332
#
# _framework density 19.524744999999999
#
# number of rings (size 3 to 8) (size 9 to 14) (size 15 to 20)
#    0.000    1.667    0.000    5.500    0.000    3.333 
#    0.000    0.833    0.000    2.000    0.000    0.000 
#    0.000    0.000    0.000    0.000    0.000    0.000 
#
# Total GULP energy -594840.562465 kJ/mol
# GULP energy per Si atom -12392.511718 kJ/mol
# Density = 1.948031 g / cm^3
# Si number density = 19.524745 Si / 1000 Ang^3
#
#
#
# Elastic Constant Matrix: (Units=GPa)
#
#
# Indices 1 2 3 4 5 6 
#
# 1 110.7792 63.5136 50.7928 0.0000 0.0000 0.0000
# 2 63.5136 187.3846 86.0232 0.0000 0.0000 0.0000
# 3 50.7928 86.0232 138.5593 0.0000 0.0000 0.0000
# 4 0.0000 0.0000 0.0000 -157.4335 0.0000 0.0000
# 5 0.0000 0.0000 0.0000 0.0000 33.0208 0.0000
# 6 0.0000 0.0000 0.0000 0.0000 0.0000 2.8649
#
#
#
# Elastic Compliance Matrix: (Units=1/GPa)
#
#
# Indices 1 2 3 4 5 6 
#
# 1 0.011831 -0.002824 -0.002584 0.000000 0.000000 0.000000
# 2 -0.002824 0.008138 -0.004017 0.000000 0.000000 0.000000
# 3 -0.002584 -0.004017 0.010658 0.000000 0.000000 0.000000
# 4 0.000000 0.000000 0.000000 -0.006352 0.000000 0.000000
# 5 0.000000 0.000000 0.000000 0.000000 0.030284 0.000000
# 6 0.000000 0.000000 0.000000 0.000000 0.000000 0.349056
#
#
# Mechanical properties :
#
#
# Convention : Reuss Voigt Hill
#
# Bulk Modulus (GPa) = 84.90863 93.04248 88.97555
# Shear Modulus (GPa) = 11.72634 -8.55001 1.58816
#
# Velocity S-wave (km/s) = 2.45335 -2.09489 0.90287
# Velocity P-wave (km/s) = 7.18382 6.47346 6.83787
#
# Compressibility (1/GPa) = 0.01177737
#
# Stress axis : x y z
#
# Youngs Moduli (GPa) = 84.52648 122.88116 93.82370
#
# Poissons Ratio (x) = 0.34700 0.24241
# Poissons Ratio (y) = 0.23869 0.37691
# Poissons Ratio (z) = 0.21839 0.49364
#
# Static dielectric constant tensor:
#      x y z
#    x 3.730990 0.000000 0.000000 
#    y 0.000000 4.695020 0.000000 
#    z 0.000000 0.000000 3.330050 
# 
# 
# High freq. dielectric constant tensor:
#      x y z
#    x 1.771280 0.000000 0.000000 
#    y 0.000000 1.795100 0.000000 
#    z 0.000000 0.000000 1.738360 
# 
# From -- ./inp_files/6152.got.cif
#   From: 2010.03.12/outbox.cif.g09.slc.cpg/sg51_4_cif.got.tgz:6152.got - 2010.04.16 13:43:02.
