data_PCOD8209624
_publ_section_title
;
Structure prediction by ZEFSAII (Michael W. Deem and Ramdas Pophale) SiO2 
 PCOD8209624
Probable space group: P M M A
;
_chemical_formula_sum "Si O2"
_cell_formula_units_Z 56
_cell_length_a 19.451250
_cell_length_b 8.880270
_cell_length_c 16.689895
_cell_angle_alpha 90.000000
_cell_angle_beta 90.000000
_cell_angle_gamma 90.000000
_cell_volume 2882.884815
_symmetry_space_group_name_H-M "P M M A"
_symmetry_group_IT_number 51
_symmetry_cell_setting 'orthorhombic'
loop_
_space_group_symop_operation_xyz
x,y,z
1/2-x,-y,z
1/2+x,-y,-z
-x,y,-z
-x,-y,-z
1/2+x,y,-z
1/2-x,y,z
x,-y,z
loop_
_atom_site_type_symbol
_atom_site_label
_atom_site_fract_x
_atom_site_fract_y
_atom_site_fract_z
Si Si1 0.050087 0.179292 0.931035
Si Si2 0.827965 0.822163 0.361434
Si Si3 0.424007 0.676194 0.328408
Si Si4 0.920699 0.821801 0.509515
Si Si5 0.175845 0.821880 0.026256
Si Si6 0.168842 0.170876 0.204361
Si Si7 0.052224 0.821601 0.750779
O O1 0.038583 0.240923 0.841000
O O2 0.044046 0.000000 0.929875
O O3 0.125459 0.235363 0.957128
O O4 0.000000 0.245093 0.000000
O O5 0.750000 0.753191 0.358601
O O6 0.871885 0.762566 0.437581
O O7 0.871114 0.778955 0.281028
O O8 0.821593 0.000000 0.368058
O O9 0.434510 0.500000 0.336743
O O10 0.393287 0.743924 0.410075
O O11 0.368442 0.711236 0.260710
O O12 0.497251 0.750105 0.308756
O O13 0.000000 0.771657 0.500000
O O14 0.914895 0.000000 0.518102
O O15 0.250000 0.745711 0.011320
O O16 0.147301 0.781835 0.114392
O O17 0.183687 0.000000 0.022609
O O18 0.250000 0.183368 0.215757
O O19 0.143990 0.000000 0.222699
O O20 0.042287 0.000000 0.747606
#
# Coordination Sequence:
#
# PCOD8209624 Si02
#       7
#     8   8   8   8   8   8   8
#     4   9  16  25  44  75 106 135 172 219 265 311
#     4   9  18  33  55  83 108 133 174 225 269 315
#     4  12  24  35  53  80 111 142 180 225 271 324
#     4  10  19  36  59  79 103 137 176 218 268 330
#     4   8  14  26  46  75 107 135 169 219 276 325
#     4   9  18  34  56  79 106 143 184 224 271 328
#     4  10  19  34  55  78 108 146 184 221 268 327
#
# _framework density 19.424986000000001
#
# number of rings (size 3 to 8) (size 9 to 14) (size 15 to 20)
#    0.000    2.429    1.429    3.000    0.000    4.000 
#    0.000    4.286    0.000    5.143    0.000    0.000 
#    0.000    0.000    0.000    0.000    0.000    0.000 
#
# Total GULP energy -694057.591758 kJ/mol
# GULP energy per Si atom -12393.885567 kJ/mol
# Density = 1.938077 g / cm^3
# Si number density = 19.424986 Si / 1000 Ang^3
#
#
#
# Elastic Constant Matrix: (Units=GPa)
#
#
# Indices 1 2 3 4 5 6 
#
# 1 93.6517 13.0915 54.9152 0.0000 0.0000 0.0000
# 2 13.0915 24.5756 18.4163 0.0000 0.0000 0.0000
# 3 54.9152 18.4163 126.5672 0.0000 0.0000 0.0000
# 4 0.0000 0.0000 0.0000 0.3608 0.0000 0.0000
# 5 0.0000 0.0000 0.0000 0.0000 23.7493 0.0000
# 6 0.0000 0.0000 0.0000 0.0000 0.0000 6.9025
#
#
#
# Elastic Compliance Matrix: (Units=1/GPa)
#
#
# Indices 1 2 3 4 5 6 
#
# 1 0.014569 -0.003394 -0.005828 0.000000 0.000000 0.000000
# 2 -0.003394 0.046461 -0.005288 0.000000 0.000000 0.000000
# 3 -0.005828 -0.005288 0.011199 0.000000 0.000000 0.000000
# 4 0.000000 0.000000 0.000000 2.771449 0.000000 0.000000
# 5 0.000000 0.000000 0.000000 0.000000 0.042106 0.000000
# 6 0.000000 0.000000 0.000000 0.000000 0.000000 0.144875
#
#
# Mechanical properties :
#
#
# Convention : Reuss Voigt Hill
#
# Bulk Modulus (GPa) = 23.14240 46.40448 34.77344
# Shear Modulus (GPa) = 1.62650 16.76064 9.19357
#
# Velocity S-wave (km/s) = 0.91605 2.94060 2.17787
# Velocity P-wave (km/s) = 3.61365 5.95571 4.92589
#
# Compressibility (1/GPa) = 0.04321073
#
# Stress axis : x y z
#
# Youngs Moduli (GPa) = 68.63668 21.52325 89.29525
#
# Poissons Ratio (x) = 0.07305 0.52037
# Poissons Ratio (y) = 0.23297 0.47217
# Poissons Ratio (z) = 0.39998 0.11381
#
# Static dielectric constant tensor:
#      x y z
#    x 4.128540 0.000000 0.000000 
#    y 0.000000 2.920160 0.000000 
#    z 0.000000 0.000000 3.808860 
# 
# 
# High freq. dielectric constant tensor:
#      x y z
#    x 1.763970 0.000000 0.000000 
#    y 0.000000 1.687520 0.000000 
#    z 0.000000 0.000000 1.767650 
# 
# From -- ./inp_files/25649.got.cif
#   From: 2010.03.12/outbox.cif.g09.slc.cpg/sg51_13_cif.got.tgz:25649.got - 2010.04.16 13:43:02.
