data_PCOD8209539
_publ_section_title
;
Structure prediction by ZEFSAII (Michael W. Deem and Ramdas Pophale) SiO2 
 PCOD8209539
Probable space group: P M M A
;
_chemical_formula_sum "Si O2"
_cell_formula_units_Z 56
_cell_length_a 8.529106
_cell_length_b 14.762440
_cell_length_c 23.600611
_cell_angle_alpha 90.000000
_cell_angle_beta 90.000000
_cell_angle_gamma 90.000000
_cell_volume 2971.562739
_symmetry_space_group_name_H-M "P M M A"
_symmetry_group_IT_number 51
_symmetry_cell_setting 'orthorhombic'
loop_
_space_group_symop_operation_xyz
x,y,z
1/2-x,-y,z
1/2+x,-y,-z
-x,y,-z
-x,-y,-z
1/2+x,y,-z
1/2-x,y,z
x,-y,z
loop_
_atom_site_type_symbol
_atom_site_label
_atom_site_fract_x
_atom_site_fract_y
_atom_site_fract_z
Si Si1 0.067010 0.352596 0.852903
Si Si2 0.434704 0.101848 0.562041
Si Si3 0.435447 0.232769 0.345819
Si Si4 0.934058 0.500000 0.936120
Si Si5 0.435859 0.097645 0.253768
Si Si6 0.564209 0.839187 0.867315
Si Si7 0.434673 0.603133 0.271103
Si Si8 0.063384 0.000000 0.938257
O O1 0.250000 0.372979 0.853868
O O2 0.984933 0.414198 0.899519
O O3 0.029128 0.253147 0.875102
O O4 0.008922 0.367548 0.788539
O O5 0.500000 0.118659 0.500000
O O6 0.250000 0.104616 0.559892
O O7 0.491272 0.189342 0.597886
O O8 0.489315 0.000000 0.583491
O O9 0.250000 0.227837 0.353276
O O10 0.504631 0.171384 0.295730
O O11 0.486951 0.334296 0.325339
O O12 0.750000 0.500000 0.942639
O O13 0.000000 0.500000 0.000000
O O14 0.250000 0.099167 0.256184
O O15 0.493276 0.118202 0.191286
O O16 0.501655 0.000000 0.272374
O O17 0.750000 0.821747 0.869674
O O18 0.510559 0.909020 0.913992
O O19 0.250000 0.614313 0.262275
O O20 0.482194 0.500000 0.285963
O O21 0.250000 0.000000 0.932820
O O22 0.000000 0.000000 0.000000
#
# Coordination Sequence:
#
# PCOD8209539 Si02
#       8
#     8   8   8   4   8   8   8   4
#     4  12  24  39  61  92 123 153 192 244 302 359
#     4  10  21  37  57  84 119 161 203 247 296 351
#     4  10  19  33  56  87 119 155 198 241 289 350
#     4  12  26  46  68  90 116 150 193 244 303 372
#     4   9  16  28  51  82 112 146 188 230 279 339
#     4  11  21  39  63  86 114 155 196 238 290 353
#     4  10  20  36  60  88 119 159 201 241 294 359
#     4  12  26  44  62  86 114 152 199 248 297 354
#
# _framework density 18.845302
#
# number of rings (size 3 to 8) (size 9 to 14) (size 15 to 20)
#    0.000    1.429    2.857    3.857    0.000    2.571 
#    0.000    2.857    0.000    0.429    0.000    0.000 
#    0.000    0.000    0.000    0.000    0.000    0.000 
#
# Total GULP energy -693957.954246 kJ/mol
# GULP energy per Si atom -12392.106326 kJ/mol
# Density = 1.880241 g / cm^3
# Si number density = 18.845302 Si / 1000 Ang^3
#
#
#
# Elastic Constant Matrix: (Units=GPa)
#
#
# Indices 1 2 3 4 5 6 
#
# 1 68.8072 32.2743 33.9454 0.0000 0.0000 0.0000
# 2 32.2743 161.5977 68.3415 0.0000 0.0000 0.0000
# 3 33.9454 68.3415 125.7038 0.0000 0.0000 0.0000
# 4 0.0000 0.0000 0.0000 93.3744 0.0000 0.0000
# 5 0.0000 0.0000 0.0000 0.0000 29.1048 0.0000
# 6 0.0000 0.0000 0.0000 0.0000 0.0000 20.6935
#
#
#
# Elastic Compliance Matrix: (Units=1/GPa)
#
#
# Indices 1 2 3 4 5 6 
#
# 1 0.017210 -0.001911 -0.003608 0.000000 0.000000 0.000000
# 2 -0.001911 0.008248 -0.003968 0.000000 0.000000 0.000000
# 3 -0.003608 -0.003968 0.011087 0.000000 0.000000 0.000000
# 4 0.000000 0.000000 0.000000 0.010710 0.000000 0.000000
# 5 0.000000 0.000000 0.000000 0.000000 0.034359 0.000000
# 6 0.000000 0.000000 0.000000 0.000000 0.000000 0.048324
#
#
# Mechanical properties :
#
#
# Convention : Reuss Voigt Hill
#
# Bulk Modulus (GPa) = 56.91628 69.47011 63.19319
# Shear Modulus (GPa) = 32.30608 43.40435 37.85522
#
# Velocity S-wave (km/s) = 4.14488 4.80436 4.48675
# Velocity P-wave (km/s) = 7.29205 8.22917 7.77475
#
# Compressibility (1/GPa) = 0.01756967
#
# Stress axis : x y z
#
# Youngs Moduli (GPa) = 58.10585 121.24040 90.19573
#
# Poissons Ratio (x) = 0.23171 0.32546
# Poissons Ratio (y) = 0.11105 0.35791
# Poissons Ratio (z) = 0.20967 0.48110
#
# Static dielectric constant tensor:
#      x y z
#    x 3.583000 0.000000 0.000000 
#    y 0.000000 3.790890 0.000000 
#    z 0.000000 0.000000 3.469530 
# 
# 
# High freq. dielectric constant tensor:
#      x y z
#    x 1.724060 0.000000 0.000000 
#    y 0.000000 1.745240 0.000000 
#    z 0.000000 0.000000 1.723930 
# 
# From -- ./inp_files/32047.got.cif
#   From: 2010.03.12/outbox.cif.g09.slc.cpg/sg51_17_cif.got.tgz:32047.got - 2010.04.16 13:43:02.
