data_PCOD8209091
_publ_section_title
;
Structure prediction by ZEFSAII (Michael W. Deem and Ramdas Pophale) SiO2 
 PCOD8209091
Probable space group: P M M A
;
_chemical_formula_sum "Si O2"
_cell_formula_units_Z 64
_cell_length_a 8.860473
_cell_length_b 13.913247
_cell_length_c 28.673943
_cell_angle_alpha 90.000000
_cell_angle_beta 90.000000
_cell_angle_gamma 90.000000
_cell_volume 3534.864894
_symmetry_space_group_name_H-M "P M M A"
_symmetry_group_IT_number 51
_symmetry_cell_setting 'orthorhombic'
loop_
_space_group_symop_operation_xyz
x,y,z
1/2-x,-y,z
1/2+x,-y,-z
-x,y,-z
-x,-y,-z
1/2+x,y,-z
1/2-x,y,z
x,-y,z
loop_
_atom_site_type_symbol
_atom_site_label
_atom_site_fract_x
_atom_site_fract_y
_atom_site_fract_z
Si Si1 0.927369 0.889314 0.359806
Si Si2 0.925668 0.103458 0.949845
Si Si3 0.926642 0.219499 0.452583
Si Si4 0.926050 0.390309 0.595655
Si Si5 0.926270 0.281379 0.689727
Si Si6 0.428189 0.290227 0.949082
Si Si7 0.572204 0.389175 0.225352
Si Si8 0.916974 0.387980 0.868143
O O1 0.750000 0.875635 0.351562
O O2 0.972862 0.853783 0.411510
O O3 0.015787 0.825968 0.321754
O O4 0.976532 0.000000 0.354179
O O5 0.750000 0.129791 0.955203
O O6 0.013712 0.190466 0.924777
O O7 0.945361 0.000000 0.923791
O O8 0.000000 0.094497 0.000000
O O9 0.750000 0.224050 0.459778
O O10 0.000000 0.180231 0.500000
O O11 0.984778 0.326932 0.441842
O O12 0.750000 0.380818 0.584608
O O13 0.981710 0.500000 0.591678
O O14 0.962869 0.352892 0.647315
O O15 0.750000 0.277215 0.701123
O O16 0.014188 0.321640 0.733763
O O17 0.250000 0.291972 0.953980
O O18 0.483702 0.372480 0.914419
O O19 0.500000 0.305500 0.000000
O O20 0.750000 0.379234 0.220753
O O21 0.525320 0.500000 0.234902
O O22 0.500174 0.347872 0.177714
O O23 0.750000 0.340783 0.872894
O O24 0.899441 0.500000 0.861749
#
# Coordination Sequence:
#
# PCOD8209091 Si02
#       8
#     8   8   8   8   8   8   8   8
#     4   9  19  36  55  75 101 133 170 213 259 306
#     4   9  16  27  45  69  96 125 160 203 248 293
#     4  10  20  33  49  70  97 131 171 213 257 304
#     4   9  18  32  49  70  98 131 166 205 249 298
#     4  10  19  32  53  80 106 131 163 205 252 303
#     4  11  21  33  51  74 103 138 176 217 259 306
#     4  10  20  34  54  80 108 137 168 202 245 300
#     4  10  21  37  55  75 102 136 174 215 256 299
#
# _framework density 18.105359
#
# number of rings (size 3 to 8) (size 9 to 14) (size 15 to 20)
#    0.000    2.250    0.000    4.125    0.000    5.000 
#    0.000    0.000    0.000    0.750    0.000    0.000 
#    0.000    0.000    0.000    0.000    0.000    0.000 
#
# Total GULP energy -793470.762523 kJ/mol
# GULP energy per Si atom -12397.980664 kJ/mol
# Density = 1.806415 g / cm^3
# Si number density = 18.105359 Si / 1000 Ang^3
#
#
#
# Elastic Constant Matrix: (Units=GPa)
#
#
# Indices 1 2 3 4 5 6 
#
# 1 108.9147 36.8130 50.4455 0.0000 0.0000 0.0000
# 2 36.8130 83.8592 35.7965 0.0000 0.0000 0.0000
# 3 50.4455 35.7965 98.7438 0.0000 0.0000 0.0000
# 4 0.0000 0.0000 0.0000 16.9855 0.0000 0.0000
# 5 0.0000 0.0000 0.0000 0.0000 31.7476 0.0000
# 6 0.0000 0.0000 0.0000 0.0000 0.0000 28.5877
#
#
#
# Elastic Compliance Matrix: (Units=1/GPa)
#
#
# Indices 1 2 3 4 5 6 
#
# 1 0.012771 -0.003338 -0.005314 0.000000 0.000000 0.000000
# 2 -0.003338 0.014980 -0.003725 0.000000 0.000000 0.000000
# 3 -0.005314 -0.003725 0.014193 0.000000 0.000000 0.000000
# 4 0.000000 0.000000 0.000000 0.058874 0.000000 0.000000
# 5 0.000000 0.000000 0.000000 0.000000 0.031498 0.000000
# 6 0.000000 0.000000 0.000000 0.000000 0.000000 0.034980
#
#
# Mechanical properties :
#
#
# Convention : Reuss Voigt Hill
#
# Bulk Modulus (GPa) = 58.17729 59.73641 58.95685
# Shear Modulus (GPa) = 25.28046 26.69501 25.98773
#
# Velocity S-wave (km/s) = 3.74076 3.84399 3.79273
# Velocity P-wave (km/s) = 7.13163 7.26410 7.19817
#
# Compressibility (1/GPa) = 0.01718884
#
# Stress axis : x y z
#
# Youngs Moduli (GPa) = 78.30166 66.75451 70.45856
#
# Poissons Ratio (x) = 0.22281 0.37444
# Poissons Ratio (y) = 0.26136 0.26249
# Poissons Ratio (z) = 0.41613 0.24869
#
# Static dielectric constant tensor:
#      x y z
#    x 3.494130 0.000000 0.000000 
#    y 0.000000 3.656810 0.000000 
#    z 0.000000 0.000000 3.155980 
# 
# 
# High freq. dielectric constant tensor:
#      x y z
#    x 1.715050 0.000000 0.000000 
#    y 0.000000 1.695320 0.000000 
#    z 0.000000 0.000000 1.679990 
# 
# From -- ./inp_files/34957.got.cif
#   From: 2010.03.12/outbox.cif.g09.slc.cpg/sg51_18_cif.got.tgz:34957.got - 2010.04.16 13:43:02.
