data_PCOD8209017
_publ_section_title
;
Structure prediction by ZEFSAII (Michael W. Deem and Ramdas Pophale) SiO2 
 PCOD8209017
Probable space group: P M M A
;
_chemical_formula_sum "Si O2"
_cell_formula_units_Z 48
_cell_length_a 8.810106
_cell_length_b 30.895131
_cell_length_c 9.187458
_cell_angle_alpha 90.000000
_cell_angle_beta 90.000000
_cell_angle_gamma 90.000000
_cell_volume 2500.728488
_symmetry_space_group_name_H-M "P M M A"
_symmetry_group_IT_number 51
_symmetry_cell_setting 'orthorhombic'
loop_
_space_group_symop_operation_xyz
x,y,z
1/2-x,-y,z
1/2+x,-y,-z
-x,y,-z
-x,-y,-z
1/2+x,y,-z
1/2-x,y,z
x,-y,z
loop_
_atom_site_type_symbol
_atom_site_label
_atom_site_fract_x
_atom_site_fract_y
_atom_site_fract_z
Si Si1 0.926767 0.550395 0.651500
Si Si2 0.927089 0.045622 0.655837
Si Si3 0.569887 0.860200 0.660145
Si Si4 0.928402 0.702067 0.342814
Si Si5 0.569913 0.215604 0.157417
Si Si6 0.929765 0.379727 0.155725
O O1 0.750000 0.561652 0.645979
O O2 0.956826 0.500000 0.679432
O O3 0.000000 0.565601 0.500000
O O4 0.005742 0.575319 0.783353
O O5 0.750000 0.046188 0.629587
O O6 0.971463 0.091845 0.727259
O O7 0.000000 0.044079 0.500000
O O8 0.972490 0.000000 0.739867
O O9 0.500000 0.853723 0.500000
O O10 0.750000 0.852348 0.650761
O O11 0.494897 0.827614 0.771928
O O12 0.750000 0.702289 0.361551
O O13 0.983225 0.743748 0.253408
O O14 0.982753 0.658955 0.260720
O O15 0.000000 0.703531 0.500000
O O16 0.750000 0.212300 0.145341
O O17 0.500000 0.222214 0.000000
O O18 0.750000 0.382892 0.141738
O O19 0.000000 0.370074 0.000000
#
# Coordination Sequence:
#
# PCOD8209017 Si02
#       6
#     8   8   8   8   8   8
#     4  10  21  38  60  86 116 151 191 234 279 327
#     4   8  14  25  43  69 101 135 171 214 263 312
#     4  10  19  32  52  79 109 141 179 222 267 318
#     4  10  23  40  60  85 111 142 180 223 270 323
#     4  11  23  39  57  79 108 142 180 222 272 325
#     4  11  23  39  59  85 116 150 188 229 276 327
#
# _framework density 19.194406000000001
#
# number of rings (size 3 to 8) (size 9 to 14) (size 15 to 20)
#    0.000    2.000    0.000    3.500    0.000    7.333 
#    0.000    0.000    0.000    0.500    0.000    0.000 
#    0.000    0.000    0.000    0.000    0.000    0.000 
#
# Total GULP energy -594967.049154 kJ/mol
# GULP energy per Si atom -12395.146857 kJ/mol
# Density = 1.915072 g / cm^3
# Si number density = 19.194406 Si / 1000 Ang^3
#
#
#
# Elastic Constant Matrix: (Units=GPa)
#
#
# Indices 1 2 3 4 5 6 
#
# 1 76.6594 55.6235 51.4292 0.0000 0.0000 0.0000
# 2 55.6235 142.5920 75.9262 0.0000 0.0000 0.0000
# 3 51.4292 75.9262 139.1823 0.0000 0.0000 0.0000
# 4 0.0000 0.0000 0.0000 14.0531 0.0000 0.0000
# 5 0.0000 0.0000 0.0000 0.0000 35.9501 0.0000
# 6 0.0000 0.0000 0.0000 0.0000 0.0000 25.9893
#
#
#
# Elastic Compliance Matrix: (Units=1/GPa)
#
#
# Indices 1 2 3 4 5 6 
#
# 1 0.019943 -0.005434 -0.004405 0.000000 0.000000 0.000000
# 2 -0.005434 0.011365 -0.004192 0.000000 0.000000 0.000000
# 3 -0.004405 -0.004192 0.011099 0.000000 0.000000 0.000000
# 4 0.000000 0.000000 0.000000 0.071159 0.000000 0.000000
# 5 0.000000 0.000000 0.000000 0.000000 0.027816 0.000000
# 6 0.000000 0.000000 0.000000 0.000000 0.000000 0.038477
#
#
# Mechanical properties :
#
#
# Convention : Reuss Voigt Hill
#
# Bulk Modulus (GPa) = 69.70780 80.48793 75.09786
# Shear Modulus (GPa) = 23.50714 26.89548 25.20131
#
# Velocity S-wave (km/s) = 3.50335 3.74734 3.62740
# Velocity P-wave (km/s) = 7.26362 7.79407 7.53351
#
# Compressibility (1/GPa) = 0.01434560
#
# Stress axis : x y z
#
# Youngs Moduli (GPa) = 50.14395 87.99135 90.09794
#
# Poissons Ratio (x) = 0.47815 0.39685
# Poissons Ratio (y) = 0.27248 0.37767
# Poissons Ratio (z) = 0.22086 0.36884
#
# Static dielectric constant tensor:
#      x y z
#    x 3.618150 0.000000 0.000000 
#    y 0.000000 4.140830 0.000000 
#    z 0.000000 0.000000 3.246580 
# 
# 
# High freq. dielectric constant tensor:
#      x y z
#    x 1.755730 0.000000 0.000000 
#    y 0.000000 1.774720 0.000000 
#    z 0.000000 0.000000 1.723320 
# 
# From -- ./inp_files/5972.got.cif
#   From: 2010.03.12/outbox.cif.g09.slc.cpg/sg51_3_cif.got.tgz:5972.got - 2010.04.16 13:43:02.
