data_PCOD8209388
_publ_section_title
;
Structure prediction by ZEFSAII (Michael W. Deem and Ramdas Pophale) SiO2 
 PCOD8209388
Probable space group: P M M A
;
_chemical_formula_sum "Si O2"
_cell_formula_units_Z 48
_cell_length_a 31.005691
_cell_length_b 8.347816
_cell_length_c 9.206456
_cell_angle_alpha 90.000000
_cell_angle_beta 90.000000
_cell_angle_gamma 90.000000
_cell_volume 2382.905197
_symmetry_space_group_name_H-M "P M M A"
_symmetry_group_IT_number 51
_symmetry_cell_setting 'orthorhombic'
loop_
_space_group_symop_operation_xyz
x,y,z
1/2-x,-y,z
1/2+x,-y,-z
-x,y,-z
-x,-y,-z
1/2+x,y,-z
1/2-x,y,z
x,-y,z
loop_
_atom_site_type_symbol
_atom_site_label
_atom_site_fract_x
_atom_site_fract_y
_atom_site_fract_z
Si Si1 0.250000 0.680096 0.670345
Si Si2 0.657347 0.307381 0.348455
Si Si3 0.921230 0.685763 0.834399
Si Si4 0.499840 0.185637 0.334721
Si Si5 0.250000 0.817884 0.368130
Si Si6 0.921284 0.686716 0.159166
Si Si7 0.156061 0.816571 0.327547
O O1 0.250000 0.500000 0.725920
O O2 0.203686 0.755270 0.718676
O O3 0.250000 0.687737 0.495551
O O4 0.657145 0.500000 0.362903
O O5 0.619693 0.240226 0.244536
O O6 0.649507 0.232213 0.505630
O O7 0.934562 0.500000 0.830682
O O8 0.952931 0.785418 0.731751
O O9 0.872783 0.706240 0.775976
O O10 0.924337 0.758438 0.997003
O O11 0.500000 0.248156 0.500000
O O12 0.534809 0.283223 0.244257
O O13 0.512140 0.000000 0.327902
O O14 0.206025 0.792466 0.276367
O O15 0.250000 0.000000 0.432800
O O16 0.913180 0.500000 0.144086
O O17 0.141563 0.000000 0.309070
#
# Coordination Sequence:
#
# PCOD8209388 Si02
#       7
#     4   8   8   8   4   8   8
#     4   8  14  26  49  78 104 134 174 216 257 304
#     4   9  17  32  54  79 107 139 176 218 262 307
#     4  11  23  38  55  78 109 143 177 214 261 315
#     4  11  24  40  59  83 106 132 172 219 264 313
#     4   8  16  30  49  74 106 140 174 218 265 306
#     4  10  22  38  55  78 109 143 176 213 261 315
#     4  10  19  33  54  80 108 140 180 222 264 310
#
# _framework density 20.143478000000002
#
# number of rings (size 3 to 8) (size 9 to 14) (size 15 to 20)
#    0.000    2.167    0.000    3.000    0.000    8.667 
#    0.000    0.833    0.000    2.000    0.000    3.500 
#    0.000    0.000    0.000    0.000    0.000    0.000 
#
# Total GULP energy -594971.015646 kJ/mol
# GULP energy per Si atom -12395.229493 kJ/mol
# Density = 2.009763 g / cm^3
# Si number density = 20.143478 Si / 1000 Ang^3
#
#
#
# Elastic Constant Matrix: (Units=GPa)
#
#
# Indices 1 2 3 4 5 6 
#
# 1 146.0062 5.1147 63.6103 0.0000 0.0000 0.0000
# 2 5.1147 24.1008 10.7934 0.0000 0.0000 0.0000
# 3 63.6103 10.7934 127.5486 0.0000 0.0000 0.0000
# 4 0.0000 0.0000 0.0000 12.5696 0.0000 0.0000
# 5 0.0000 0.0000 0.0000 0.0000 10.9412 0.0000
# 6 0.0000 0.0000 0.0000 0.0000 0.0000 22.9866
#
#
#
# Elastic Compliance Matrix: (Units=1/GPa)
#
#
# Indices 1 2 3 4 5 6 
#
# 1 0.008750 0.000101 -0.004373 0.000000 0.000000 0.000000
# 2 0.000101 0.043128 -0.003700 0.000000 0.000000 0.000000
# 3 -0.004373 -0.003700 0.010334 0.000000 0.000000 0.000000
# 4 0.000000 0.000000 0.000000 0.079557 0.000000 0.000000
# 5 0.000000 0.000000 0.000000 0.000000 0.091397 0.000000
# 6 0.000000 0.000000 0.000000 0.000000 0.000000 0.043504
#
#
# Mechanical properties :
#
#
# Convention : Reuss Voigt Hill
#
# Bulk Modulus (GPa) = 21.61248 50.74359 36.17803
# Shear Modulus (GPa) = 16.23184 23.84195 20.03689
#
# Velocity S-wave (km/s) = 2.84176 3.44409 3.15732
# Velocity P-wave (km/s) = 4.63897 6.40792 5.59381
#
# Compressibility (1/GPa) = 0.04626957
#
# Stress axis : x y z
#
# Youngs Moduli (GPa) = 114.27968 23.18682 96.76886
#
# Poissons Ratio (x) = -0.00235 0.42313
# Poissons Ratio (y) = -0.01156 0.35805
# Poissons Ratio (z) = 0.49969 0.08579
#
# Static dielectric constant tensor:
#      x y z
#    x 4.019950 0.000000 0.000000 
#    y 0.000000 3.463860 0.000000 
#    z 0.000000 0.000000 3.539920 
# 
# 
# High freq. dielectric constant tensor:
#      x y z
#    x 1.811090 0.000000 0.000000 
#    y 0.000000 1.773200 0.000000 
#    z 0.000000 0.000000 1.758180 
# 
# From -- ./inp_files/12915.got.cif
#   From: 2010.03.12/outbox.cif.g09.slc.cpg/sg51_7_cif.got.tgz:12915.got - 2010.04.16 13:43:02.
