data_PCOD8209057
_publ_section_title
;
Structure prediction by ZEFSAII (Michael W. Deem and Ramdas Pophale) SiO2 
 PCOD8209057
Probable space group: P M M A
;
_chemical_formula_sum "Si O2"
_cell_formula_units_Z 64
_cell_length_a 9.142612
_cell_length_b 15.101567
_cell_length_c 23.862750
_cell_angle_alpha 90.000000
_cell_angle_beta 90.000000
_cell_angle_gamma 90.000000
_cell_volume 3294.676623
_symmetry_space_group_name_H-M "P M M A"
_symmetry_group_IT_number 51
_symmetry_cell_setting 'orthorhombic'
loop_
_space_group_symop_operation_xyz
x,y,z
1/2-x,-y,z
1/2+x,-y,-z
-x,y,-z
-x,-y,-z
1/2+x,y,-z
1/2-x,y,z
x,-y,z
loop_
_atom_site_type_symbol
_atom_site_label
_atom_site_fract_x
_atom_site_fract_y
_atom_site_fract_z
Si Si1 0.913913 0.400470 0.443482
Si Si2 0.415011 0.896385 0.554601
Si Si3 0.576841 0.727038 0.156229
Si Si4 0.084259 0.860207 0.329706
Si Si5 0.587878 0.660951 0.653792
Si Si6 0.422668 0.398971 0.941776
Si Si7 0.080294 0.901394 0.783257
Si Si8 0.585493 0.596857 0.249431
O O1 0.750000 0.367606 0.453834
O O2 0.917532 0.500000 0.418596
O O3 0.000000 0.396637 0.500000
O O4 0.991894 0.332752 0.401993
O O5 0.500000 0.855526 0.500000
O O6 0.250000 0.855824 0.557739
O O7 0.500563 0.879830 0.612578
O O8 0.401734 0.000000 0.545202
O O9 0.750000 0.722341 0.152789
O O10 0.516985 0.678653 0.100066
O O11 0.525014 0.828354 0.170310
O O12 0.518256 0.667248 0.206882
O O13 0.250000 0.898179 0.334152
O O14 0.089713 0.756336 0.317962
O O15 0.004675 0.901020 0.275684
O O16 0.750000 0.627026 0.638905
O O17 0.514472 0.592238 0.695972
O O18 0.250000 0.389862 0.950012
O O19 0.459938 0.500000 0.921192
O O20 0.500000 0.378881 0.000000
O O21 0.250000 0.882009 0.769577
O O22 0.059991 0.000000 0.809477
O O23 0.750000 0.624081 0.267320
O O24 0.585503 0.500000 0.220937
#
# Coordination Sequence:
#
# PCOD8209057 Si02
#       8
#     8   8   8   8   8   8   8   8
#     4  10  21  37  56  75  95 126 170 217 266 321
#     4  10  21  37  57  79 101 128 166 215 274 338
#     4   9  17  32  54  80 111 144 182 228 270 315
#     4  11  23  37  53  75 105 140 177 218 272 334
#     4  11  23  36  50  72 103 136 170 211 262 320
#     4   9  17  31  53  82 116 154 192 228 270 318
#     4  10  20  35  57  82 106 139 184 231 280 329
#     4  10  19  32  53  78 103 137 177 216 264 318
#
# _framework density 19.425276
#
# number of rings (size 3 to 8) (size 9 to 14) (size 15 to 20)
#    0.000    2.000    1.250    2.625    0.000    8.500 
#    0.000    1.250    0.000    1.875    0.000    0.000 
#    0.000    0.000    0.000    0.000    0.000    0.000 
#
# Total GULP energy -793129.423722 kJ/mol
# GULP energy per Si atom -12392.647246 kJ/mol
# Density = 1.938106 g / cm^3
# Si number density = 19.425276 Si / 1000 Ang^3
#
#
#
# Elastic Constant Matrix: (Units=GPa)
#
#
# Indices 1 2 3 4 5 6 
#
# 1 110.7468 31.2658 50.5900 0.0000 0.0000 0.0000
# 2 31.2658 104.5358 51.5602 0.0000 0.0000 0.0000
# 3 50.5900 51.5602 115.4335 0.0000 0.0000 0.0000
# 4 0.0000 0.0000 0.0000 30.7160 0.0000 0.0000
# 5 0.0000 0.0000 0.0000 0.0000 25.9255 0.0000
# 6 0.0000 0.0000 0.0000 0.0000 0.0000 22.3809
#
#
#
# Elastic Compliance Matrix: (Units=1/GPa)
#
#
# Indices 1 2 3 4 5 6 
#
# 1 0.011409 -0.001213 -0.004458 0.000000 0.000000 0.000000
# 2 -0.001213 0.012398 -0.005006 0.000000 0.000000 0.000000
# 3 -0.004458 -0.005006 0.012853 0.000000 0.000000 0.000000
# 4 0.000000 0.000000 0.000000 0.032556 0.000000 0.000000
# 5 0.000000 0.000000 0.000000 0.000000 0.038572 0.000000
# 6 0.000000 0.000000 0.000000 0.000000 0.000000 0.044681
#
#
# Mechanical properties :
#
#
# Convention : Reuss Voigt Hill
#
# Bulk Modulus (GPa) = 65.33940 66.39425 65.86683
# Shear Modulus (GPa) = 27.94464 28.95783 28.45124
#
# Velocity S-wave (km/s) = 3.79696 3.86519 3.83123
# Velocity P-wave (km/s) = 7.27543 7.36023 7.31796
#
# Compressibility (1/GPa) = 0.01530470
#
# Stress axis : x y z
#
# Youngs Moduli (GPa) = 87.65313 80.65710 77.80418
#
# Poissons Ratio (x) = 0.09787 0.34685
# Poissons Ratio (y) = 0.10636 0.38949
# Poissons Ratio (z) = 0.39075 0.40377
#
# Static dielectric constant tensor:
#      x y z
#    x 3.585050 0.000000 0.000000 
#    y 0.000000 3.770930 0.000000 
#    z 0.000000 0.000000 10.843320 
# 
# 
# High freq. dielectric constant tensor:
#      x y z
#    x 1.747350 0.000000 0.000000 
#    y 0.000000 1.759130 0.000000 
#    z 0.000000 0.000000 1.733240 
# 
# From -- ./inp_files/34858.got.cif
#   From: 2010.03.12/outbox.cif.g09.slc.cpg/sg51_18_cif.got.tgz:34858.got - 2010.04.16 13:43:02.
