data_PCOD8209046
_publ_section_title
;
Structure prediction by ZEFSAII (Michael W. Deem and Ramdas Pophale) SiO2 
 PCOD8209046
Probable space group: P M M A
;
_chemical_formula_sum "Si O2"
_cell_formula_units_Z 40
_cell_length_a 29.040313
_cell_length_b 9.081748
_cell_length_c 7.958396
_cell_angle_alpha 90.000000
_cell_angle_beta 90.000000
_cell_angle_gamma 90.000000
_cell_volume 2098.921930
_symmetry_space_group_name_H-M "P M M A"
_symmetry_group_IT_number 51
_symmetry_cell_setting 'orthorhombic'
loop_
_space_group_symop_operation_xyz
x,y,z
1/2-x,-y,z
1/2+x,-y,-z
-x,y,-z
-x,-y,-z
1/2+x,y,-z
1/2-x,y,z
x,-y,z
loop_
_atom_site_type_symbol
_atom_site_label
_atom_site_fract_x
_atom_site_fract_y
_atom_site_fract_z
Si Si1 0.448083 0.675773 0.009854
Si Si2 0.699064 0.668662 0.828252
Si Si3 0.612091 0.674863 0.303190
Si Si4 0.394188 0.327992 0.329466
Si Si5 0.301947 0.171369 0.825917
O O1 0.447403 0.500000 0.010238
O O2 0.424759 0.742440 0.179301
O O3 0.500000 0.736120 0.000000
O O4 0.420455 0.733737 0.846391
O O5 0.750000 0.692073 0.748584
O O6 0.692858 0.500000 0.890275
O O7 0.660010 0.709250 0.693102
O O8 0.691734 0.774239 0.984848
O O9 0.617182 0.500000 0.296671
O O10 0.591059 0.725949 0.484082
O O11 0.662918 0.742555 0.292636
O O12 0.402890 0.500000 0.317225
O O13 0.250000 0.203094 0.762803
O O14 0.313648 0.000000 0.820551
#
# Coordination Sequence:
#
# PCOD8209046 Si02
#       5
#     8   8   8   8   8
#     4   9  17  30  49  76 108 134 162 209 261 301
#     4   9  16  29  50  73 100 132 166 206 248 295
#     4  10  19  32  53  77 102 135 171 208 251 298
#     4   9  17  29  48  77 105 130 167 207 248 301
#     4  10  20  33  50  74 104 136 170 207 249 300
#
# _framework density 19.057402
#
# number of rings (size 3 to 8) (size 9 to 14) (size 15 to 20)
#    0.000    2.600    2.000    0.600    0.000    2.800 
#    0.000    7.000    0.000    3.000    0.000    1.400 
#    0.000    0.000    0.000    0.000    0.000    0.000 
#
# Total GULP energy -495741.130709 kJ/mol
# GULP energy per Si atom -12393.528268 kJ/mol
# Density = 1.901403 g / cm^3
# Si number density = 19.057402 Si / 1000 Ang^3
#
#
#
# Elastic Constant Matrix: (Units=GPa)
#
#
# Indices 1 2 3 4 5 6 
#
# 1 135.0047 22.6436 82.9279 0.0000 0.0000 0.0000
# 2 22.6436 24.0261 21.2657 0.0000 0.0000 0.0000
# 3 82.9279 21.2657 161.4236 0.0000 0.0000 0.0000
# 4 0.0000 0.0000 0.0000 4.8691 0.0000 0.0000
# 5 0.0000 0.0000 0.0000 0.0000 17.3734 0.0000
# 6 0.0000 0.0000 0.0000 0.0000 0.0000 11.2282
#
#
#
# Elastic Compliance Matrix: (Units=1/GPa)
#
#
# Indices 1 2 3 4 5 6 
#
# 1 0.011637 -0.006425 -0.005132 0.000000 0.000000 0.000000
# 2 -0.006425 0.050663 -0.003373 0.000000 0.000000 0.000000
# 3 -0.005132 -0.003373 0.009276 0.000000 0.000000 0.000000
# 4 0.000000 0.000000 0.000000 0.205375 0.000000 0.000000
# 5 0.000000 0.000000 0.000000 0.000000 0.057559 0.000000
# 6 0.000000 0.000000 0.000000 0.000000 0.000000 0.089062
#
#
# Mechanical properties :
#
#
# Convention : Reuss Voigt Hill
#
# Bulk Modulus (GPa) = 23.97245 63.79208 43.88227
# Shear Modulus (GPa) = 10.69891 19.60196 15.15043
#
# Velocity S-wave (km/s) = 2.37197 3.21062 2.82261
# Velocity P-wave (km/s) = 4.48420 6.87680 5.80510
#
# Compressibility (1/GPa) = 0.04171455
#
# Stress axis : x y z
#
# Youngs Moduli (GPa) = 85.93192 19.73834 107.80893
#
# Poissons Ratio (x) = 0.12682 0.55326
# Poissons Ratio (y) = 0.55213 0.36368
# Poissons Ratio (z) = 0.44099 0.06659
#
# Static dielectric constant tensor:
#      x y z
#    x 3.743030 0.000000 0.000000 
#    y 0.000000 3.010800 0.000000 
#    z 0.000000 0.000000 3.658390 
# 
# 
# High freq. dielectric constant tensor:
#      x y z
#    x 1.744630 0.000000 0.000000 
#    y 0.000000 1.684470 0.000000 
#    z 0.000000 0.000000 1.738970 
# 
# From -- ./inp_files/12098.got.cif
#   From: 2010.03.12/outbox.cif.g09.slc.cpg/sg51_7_cif.got.tgz:12098.got - 2010.04.16 13:43:02.
