data_PCOD8209546
_publ_section_title
;
Structure prediction by ZEFSAII (Michael W. Deem and Ramdas Pophale) SiO2 
 PCOD8209546
Probable space group: P M M A
;
_chemical_formula_sum "Si O2"
_cell_formula_units_Z 64
_cell_length_a 9.253946
_cell_length_b 25.349162
_cell_length_c 14.265812
_cell_angle_alpha 90.000000
_cell_angle_beta 90.000000
_cell_angle_gamma 90.000000
_cell_volume 3346.470988
_symmetry_space_group_name_H-M "P M M A"
_symmetry_group_IT_number 51
_symmetry_cell_setting 'orthorhombic'
loop_
_space_group_symop_operation_xyz
x,y,z
1/2-x,-y,z
1/2+x,-y,-z
-x,y,-z
-x,-y,-z
1/2+x,y,-z
1/2-x,y,z
x,-y,z
loop_
_atom_site_type_symbol
_atom_site_label
_atom_site_fract_x
_atom_site_fract_y
_atom_site_fract_z
Si Si1 0.583425 0.939315 0.291192
Si Si2 0.918145 0.343254 0.594189
Si Si3 0.081380 0.221102 0.907983
Si Si4 0.579273 0.852735 0.596709
Si Si5 0.408663 0.437689 0.084587
Si Si6 0.416591 0.245829 0.272882
Si Si7 0.916292 0.902088 0.090118
Si Si8 0.577509 0.441531 0.709861
O O1 0.750000 0.920352 0.301135
O O2 0.482212 0.906772 0.360846
O O3 0.531640 0.931747 0.183882
O O4 0.566798 0.000000 0.319818
O O5 0.750000 0.347336 0.570641
O O6 0.950038 0.297636 0.667807
O O7 0.977922 0.398695 0.635282
O O8 0.000000 0.329119 0.500000
O O9 0.250000 0.233980 0.916779
O O10 0.050696 0.159315 0.895483
O O11 0.016574 0.250264 0.817997
O O12 0.000000 0.242493 0.000000
O O13 0.500000 0.839828 0.500000
O O14 0.750000 0.858529 0.579127
O O15 0.542512 0.805432 0.667055
O O16 0.250000 0.411799 0.079328
O O17 0.396139 0.500000 0.070619
O O18 0.480863 0.426243 0.186220
O O19 0.500000 0.412041 0.000000
O O20 0.250000 0.243317 0.241338
O O21 0.750000 0.913347 0.070110
O O22 0.000000 0.924766 0.000000
O O23 0.750000 0.441518 0.716222
O O24 0.522252 0.500000 0.680052
#
# Coordination Sequence:
#
# PCOD8209546 Si02
#       8
#     8   8   8   8   8   8   8   8
#     4  10  21  38  57  79 110 144 180 223 270 322
#     4  10  21  37  56  79 108 140 179 228 277 325
#     4  10  19  33  57  85 114 146 180 220 265 319
#     4  11  23  38  58  80 104 136 180 228 277 330
#     4   8  13  23  42  68  96 128 167 207 249 299
#     4  10  21  37  57  82 110 142 180 224 271 322
#     4   9  18  32  52  80 110 142 177 214 259 311
#     4   8  15  30  52  76 105 144 182 215 262 324
#
# _framework density 19.124623
#
# number of rings (size 3 to 8) (size 9 to 14) (size 15 to 20)
#    0.000    2.500    1.250    1.875    0.000    3.000 
#    0.000    1.250    0.000    2.250    0.000    0.000 
#    0.000    0.000    0.000    0.000    0.000    0.000 
#
# Total GULP energy -793591.298077 kJ/mol
# GULP energy per Si atom -12399.864032 kJ/mol
# Density = 1.908109 g / cm^3
# Si number density = 19.124623 Si / 1000 Ang^3
#
#
#
# Elastic Constant Matrix: (Units=GPa)
#
#
# Indices 1 2 3 4 5 6 
#
# 1 81.1540 36.7478 66.5072 0.0000 0.0000 0.0000
# 2 36.7478 78.2425 43.1609 0.0000 0.0000 0.0000
# 3 66.5072 43.1609 127.4045 0.0000 0.0000 0.0000
# 4 0.0000 0.0000 0.0000 -6.6993 0.0000 0.0000
# 5 0.0000 0.0000 0.0000 0.0000 39.2900 0.0000
# 6 0.0000 0.0000 0.0000 0.0000 0.0000 16.3770
#
#
#
# Elastic Compliance Matrix: (Units=1/GPa)
#
#
# Indices 1 2 3 4 5 6 
#
# 1 0.023117 -0.005166 -0.010317 0.000000 0.000000 0.000000
# 2 -0.005166 0.016872 -0.003019 0.000000 0.000000 0.000000
# 3 -0.010317 -0.003019 0.014258 0.000000 0.000000 0.000000
# 4 0.000000 0.000000 0.000000 -0.149269 0.000000 0.000000
# 5 0.000000 0.000000 0.000000 0.000000 0.025452 0.000000
# 6 0.000000 0.000000 0.000000 0.000000 0.000000 0.061061
#
#
# Mechanical properties :
#
#
# Convention : Reuss Voigt Hill
#
# Bulk Modulus (GPa) = 57.99752 64.40368 61.20060
# Shear Modulus (GPa) = 146.01580 19.15254 82.58417
#
# Velocity S-wave (km/s) = 8.74731 3.16802 6.57844
# Velocity P-wave (km/s) = 11.50706 6.86518 9.47479
#
# Compressibility (1/GPa) = 0.01724212
#
# Stress axis : x y z
#
# Youngs Moduli (GPa) = 43.25910 59.26810 70.13798
#
# Poissons Ratio (x) = 0.30616 0.72363
# Poissons Ratio (y) = 0.22347 0.21177
# Poissons Ratio (z) = 0.44631 0.17895
#
# Static dielectric constant tensor:
#      x y z
#    x 3.425990 0.000000 0.000000 
#    y 0.000000 3.383140 0.000000 
#    z 0.000000 0.000000 3.588220 
# 
# 
# High freq. dielectric constant tensor:
#      x y z
#    x 1.725700 0.000000 0.000000 
#    y 0.000000 1.727930 0.000000 
#    z 0.000000 0.000000 1.752850 
# 
# From -- ./inp_files/22274.got.cif
#   From: 2010.03.12/outbox.cif.g09.slc.cpg/sg51_12_cif.got.tgz:22274.got - 2010.04.16 13:43:02.
