data_PCOD8209136
_publ_section_title
;
Structure prediction by ZEFSAII (Michael W. Deem and Ramdas Pophale) SiO2 
 PCOD8209136
Probable space group: P M M A
;
_chemical_formula_sum "Si O2"
_cell_formula_units_Z 48
_cell_length_a 9.569622
_cell_length_b 7.855959
_cell_length_c 33.956419
_cell_angle_alpha 90.000000
_cell_angle_beta 90.000000
_cell_angle_gamma 90.000000
_cell_volume 2552.794618
_symmetry_space_group_name_H-M "P M M A"
_symmetry_group_IT_number 51
_symmetry_cell_setting 'orthorhombic'
loop_
_space_group_symop_operation_xyz
x,y,z
1/2-x,-y,z
1/2+x,-y,-z
-x,y,-z
-x,-y,-z
1/2+x,y,-z
1/2-x,y,z
x,-y,z
loop_
_atom_site_type_symbol
_atom_site_label
_atom_site_fract_x
_atom_site_fract_y
_atom_site_fract_z
Si Si1 0.906169 0.199691 0.534807
Si Si2 0.085542 0.000000 0.825494
Si Si3 0.911384 0.306871 0.961547
Si Si4 0.910463 0.302087 0.618115
Si Si5 0.409658 0.689998 0.770707
Si Si6 0.586990 0.000000 0.904706
Si Si7 0.910398 0.806122 0.701204
O O1 0.750000 0.280335 0.532460
O O2 0.979465 0.241589 0.576977
O O3 0.000000 0.280543 0.500000
O O4 0.896359 0.000000 0.528966
O O5 0.039369 0.169601 0.801985
O O6 0.003197 0.000000 0.865779
O O7 0.250000 0.000000 0.834395
O O8 0.750000 0.284920 0.973213
O O9 0.941538 0.500000 0.946454
O O10 0.953456 0.171025 0.928358
O O11 0.000000 0.264686 0.000000
O O12 0.750000 0.245812 0.615166
O O13 0.932039 0.500000 0.623874
O O14 0.973902 0.212692 0.657026
O O15 0.250000 0.728776 0.758817
O O16 0.424699 0.500000 0.789042
O O17 0.501029 0.694295 0.731277
O O18 0.750000 0.000000 0.893683
O O19 0.750000 0.741023 0.701887
O O20 0.921349 0.000000 0.714882
#
# Coordination Sequence:
#
# PCOD8209136 Si02
#       7
#     8   4   8   8   8   4   8
#     4   9  17  30  47  65  88 120 157 195 238 290
#     4  10  22  39  55  76 107 142 181 223 266 320
#     4   9  18  33  53  79 111 145 182 226 274 321
#     4   9  17  29  46  70  98 126 158 198 245 296
#     4  10  21  38  58  78 104 139 176 217 269 323
#     4  10  21  35  53  78 110 144 182 227 273 318
#     4  10  19  32  54  81 105 130 166 211 258 312
#
# _framework density 18.802921999999999
#
# number of rings (size 3 to 8) (size 9 to 14) (size 15 to 20)
#    0.000    2.500    0.833    1.250    0.000    5.333 
#    0.000    0.833    0.000    3.000    0.000    0.000 
#    0.000    0.000    0.000    0.000    0.000    0.000 
#
# Total GULP energy -595068.743917 kJ/mol
# GULP energy per Si atom -12397.265498 kJ/mol
# Density = 1.876013 g / cm^3
# Si number density = 18.802922 Si / 1000 Ang^3
#
#
#
# Elastic Constant Matrix: (Units=GPa)
#
#
# Indices 1 2 3 4 5 6 
#
# 1 54.1720 31.2721 62.3726 0.0000 0.0000 0.0000
# 2 31.2721 98.5319 66.3443 0.0000 0.0000 0.0000
# 3 62.3726 66.3443 156.7940 0.0000 0.0000 0.0000
# 4 0.0000 0.0000 0.0000 20.4387 0.0000 0.0000
# 5 0.0000 0.0000 0.0000 0.0000 33.9478 0.0000
# 6 0.0000 0.0000 0.0000 0.0000 0.0000 17.7657
#
#
#
# Elastic Compliance Matrix: (Units=1/GPa)
#
#
# Indices 1 2 3 4 5 6 
#
# 1 0.034456 -0.002387 -0.012697 0.000000 0.000000 0.000000
# 2 -0.002387 0.014358 -0.005126 0.000000 0.000000 0.000000
# 3 -0.012697 -0.005126 0.013598 0.000000 0.000000 0.000000
# 4 0.000000 0.000000 0.000000 0.048927 0.000000 0.000000
# 5 0.000000 0.000000 0.000000 0.000000 0.029457 0.000000
# 6 0.000000 0.000000 0.000000 0.000000 0.000000 0.056288
#
#
# Mechanical properties :
#
#
# Convention : Reuss Voigt Hill
#
# Bulk Modulus (GPa) = 45.46892 69.94177 57.70535
# Shear Modulus (GPa) = 20.42205 24.39770 22.40987
#
# Velocity S-wave (km/s) = 3.29919 3.60606 3.45603
# Velocity P-wave (km/s) = 6.22473 7.39028 6.83240
#
# Compressibility (1/GPa) = 0.02199304
#
# Stress axis : x y z
#
# Youngs Moduli (GPa) = 29.02221 69.64838 73.54293
#
# Poissons Ratio (x) = 0.16622 0.93377
# Poissons Ratio (y) = 0.06927 0.37697
# Poissons Ratio (z) = 0.36849 0.35701
#
# Static dielectric constant tensor:
#      x y z
#    x 3.346380 0.000000 0.000000 
#    y 0.000000 3.544180 0.000000 
#    z 0.000000 0.000000 3.415100 
# 
# 
# High freq. dielectric constant tensor:
#      x y z
#    x 1.699780 0.000000 0.000000 
#    y 0.000000 1.740930 0.000000 
#    z 0.000000 0.000000 1.727300 
# 
# From -- ./inp_files/37103.got.cif
#   From: 2010.03.12/outbox.cif.g09.slc.cpg/sg51_19_cif.got.tgz:37103.got - 2010.04.16 13:43:02.
