data_PCOD8209426
_publ_section_title
;
Structure prediction by ZEFSAII (Michael W. Deem and Ramdas Pophale) SiO2 
 PCOD8209426
Probable space group: P M M A
;
_chemical_formula_sum "Si O2"
_cell_formula_units_Z 48
_cell_length_a 18.575623
_cell_length_b 8.538509
_cell_length_c 16.275576
_cell_angle_alpha 90.000000
_cell_angle_beta 90.000000
_cell_angle_gamma 90.000000
_cell_volume 2581.438579
_symmetry_space_group_name_H-M "P M M A"
_symmetry_group_IT_number 51
_symmetry_cell_setting 'orthorhombic'
loop_
_space_group_symop_operation_xyz
x,y,z
1/2-x,-y,z
1/2+x,-y,-z
-x,y,-z
-x,-y,-z
1/2+x,y,-z
1/2-x,y,z
x,-y,z
loop_
_atom_site_type_symbol
_atom_site_label
_atom_site_fract_x
_atom_site_fract_y
_atom_site_fract_z
Si Si1 0.595496 0.180991 0.820789
Si Si2 0.534683 0.816206 0.584210
Si Si3 0.670704 0.686367 0.157869
Si Si4 0.962602 0.316588 0.260407
Si Si5 0.668783 0.317527 0.668455
Si Si6 0.334044 0.321530 0.025670
O O1 0.524364 0.284082 0.806324
O O2 0.655556 0.226587 0.753543
O O3 0.623466 0.211129 0.912049
O O4 0.575778 0.000000 0.809996
O O5 0.500000 0.752955 0.500000
O O6 0.478775 0.776695 0.656416
O O7 0.612056 0.734937 0.598780
O O8 0.548275 0.000000 0.580289
O O9 0.750000 0.749771 0.182913
O O10 0.671930 0.500000 0.155373
O O11 0.612797 0.746972 0.223845
O O12 0.650320 0.743081 0.066023
O O13 0.959145 0.500000 0.280068
O O14 0.750000 0.281675 0.637880
O O15 0.657669 0.500000 0.686358
O O16 0.250000 0.311103 0.045452
O O17 0.360872 0.500000 0.035986
#
# Coordination Sequence:
#
# PCOD8209426 Si02
#       6
#     8   8   8   8   8   8
#     4  11  21  31  46  71 105 138 168 204 247 298
#     4  10  21  37  56  77 104 136 166 199 245 303
#     4   8  16  32  53  75  97 126 167 212 253 291
#     4  10  19  33  55  77  98 127 165 208 252 299
#     4  10  20  34  54  79 104 131 167 209 251 296
#     4   9  17  31  50  70  96 131 171 211 247 288
#
# _framework density 18.594282
#
# number of rings (size 3 to 8) (size 9 to 14) (size 15 to 20)
#    0.000    2.333    0.000    6.500    0.000    5.667 
#    0.000    5.833    0.000    7.000    0.000    0.000 
#    0.000    0.000    0.000    0.000    0.000    0.000 
#
# Total GULP energy -595167.045599 kJ/mol
# GULP energy per Si atom -12399.313450 kJ/mol
# Density = 1.855196 g / cm^3
# Si number density = 18.594282 Si / 1000 Ang^3
#
#
#
# Elastic Constant Matrix: (Units=GPa)
#
#
# Indices 1 2 3 4 5 6 
#
# 1 125.2229 16.4010 75.1474 0.0000 0.0000 0.0000
# 2 16.4010 43.8941 11.0129 0.0000 0.0000 0.0000
# 3 75.1474 11.0129 103.1390 0.0000 0.0000 0.0000
# 4 0.0000 0.0000 0.0000 21.8347 0.0000 0.0000
# 5 0.0000 0.0000 0.0000 0.0000 27.2461 0.0000
# 6 0.0000 0.0000 0.0000 0.0000 0.0000 8.5753
#
#
#
# Elastic Compliance Matrix: (Units=1/GPa)
#
#
# Indices 1 2 3 4 5 6 
#
# 1 0.014529 -0.002849 -0.010282 0.000000 0.000000 0.000000
# 2 -0.002849 0.023968 -0.000483 0.000000 0.000000 0.000000
# 3 -0.010282 -0.000483 0.017239 0.000000 0.000000 0.000000
# 4 0.000000 0.000000 0.000000 0.045799 0.000000 0.000000
# 5 0.000000 0.000000 0.000000 0.000000 0.036703 0.000000
# 6 0.000000 0.000000 0.000000 0.000000 0.000000 0.116615
#
#
# Mechanical properties :
#
#
# Convention : Reuss Voigt Hill
#
# Bulk Modulus (GPa) = 35.07882 53.04206 44.06044
# Shear Modulus (GPa) = 17.14783 22.84419 19.99601
#
# Velocity S-wave (km/s) = 3.04009 3.50888 3.28286
# Velocity P-wave (km/s) = 5.58831 6.70852 6.17387
#
# Compressibility (1/GPa) = 0.02850723
#
# Stress axis : x y z
#
# Youngs Moduli (GPa) = 68.82767 41.72233 58.00964
#
# Poissons Ratio (x) = 0.11887 0.59644
# Poissons Ratio (y) = 0.19610 0.02804
# Poissons Ratio (z) = 0.70766 0.02017
#
# Static dielectric constant tensor:
#      x y z
#    x 3.611680 0.000000 0.000000 
#    y 0.000000 3.248810 0.000000 
#    z 0.000000 0.000000 3.381350 
# 
# 
# High freq. dielectric constant tensor:
#      x y z
#    x 1.721340 0.000000 0.000000 
#    y 0.000000 1.711580 0.000000 
#    z 0.000000 0.000000 1.708650 
# 
# From -- ./inp_files/30026.got.cif
#   From: 2010.03.12/outbox.cif.g09.slc.cpg/sg51_16_cif.got.tgz:30026.got - 2010.04.16 13:43:02.
