data_PCOD8209896
_publ_section_title
;
Structure prediction by ZEFSAII (Michael W. Deem and Ramdas Pophale) SiO2 
 PCOD8209896
Probable space group: P M M A
;
_chemical_formula_sum "Si O2"
_cell_formula_units_Z 48
_cell_length_a 9.099821
_cell_length_b 10.292859
_cell_length_c 28.094629
_cell_angle_alpha 90.000000
_cell_angle_beta 90.000000
_cell_angle_gamma 90.000000
_cell_volume 2631.432138
_symmetry_space_group_name_H-M "P M M A"
_symmetry_group_IT_number 51
_symmetry_cell_setting 'orthorhombic'
loop_
_space_group_symop_operation_xyz
x,y,z
1/2-x,-y,z
1/2+x,-y,-z
-x,y,-z
-x,-y,-z
1/2+x,y,-z
1/2-x,y,z
x,-y,z
loop_
_atom_site_type_symbol
_atom_site_label
_atom_site_fract_x
_atom_site_fract_y
_atom_site_fract_z
Si Si1 0.920147 0.147796 0.046396
Si Si2 0.924583 0.000000 0.803399
Si Si3 0.076159 0.752560 0.361169
Si Si4 0.921392 0.238317 0.148097
Si Si5 0.422217 0.500000 0.302318
Si Si6 0.421949 0.500000 0.798939
Si Si7 0.577541 0.150233 0.451037
Si Si8 0.923957 0.000000 0.696753
O O1 0.750000 0.149431 0.034461
O O2 0.956383 0.238242 0.091726
O O3 0.972957 0.000000 0.057188
O O4 0.000000 0.205507 0.000000
O O5 0.982093 0.128569 0.827976
O O6 0.750000 0.000000 0.805172
O O7 0.986870 0.000000 0.749845
O O8 0.250000 0.758476 0.370961
O O9 0.029847 0.624261 0.332832
O O10 0.018497 0.872692 0.329957
O O11 0.991287 0.756613 0.411079
O O12 0.750000 0.207426 0.156796
O O13 0.969032 0.375424 0.170213
O O14 0.250000 0.500000 0.292084
O O15 0.499242 0.500000 0.251549
O O16 0.250000 0.500000 0.788784
O O17 0.500000 0.189085 0.500000
O O18 0.750000 0.176652 0.455676
O O19 0.544116 0.000000 0.438384
O O20 0.750000 0.000000 0.698139
#
# Coordination Sequence:
#
# PCOD8209896 Si02
#       8
#     8   4   8   8   4   4   8   4
#     4   9  17  31  52  76 106 140 176 222 277 330
#     4  11  21  33  54  83 108 139 184 233 278 327
#     4  10  19  35  56  78 107 145 181 219 270 323
#     4  10  20  37  55  78 110 146 183 225 277 331
#     4  10  22  38  57  80 113 150 184 226 277 324
#     4  10  22  38  59  80 108 152 192 224 272 334
#     4  10  20  34  55  84 113 141 177 223 273 323
#     4   9  18  31  50  75 104 135 174 221 268 315
#
# _framework density 18.241016999999999
#
# number of rings (size 3 to 8) (size 9 to 14) (size 15 to 20)
#    0.000    2.167    1.667    1.750    0.000    4.000 
#    0.000    2.500    0.000    0.000    0.000    0.000 
#    0.000    0.000    0.000    0.000    0.000    0.000 
#
# Total GULP energy -595286.967461 kJ/mol
# GULP energy per Si atom -12401.811822 kJ/mol
# Density = 1.819950 g / cm^3
# Si number density = 18.241017 Si / 1000 Ang^3
#
#
#
# Elastic Constant Matrix: (Units=GPa)
#
#
# Indices 1 2 3 4 5 6 
#
# 1 60.8752 46.4990 66.2848 0.0000 0.0000 0.0000
# 2 46.4990 136.9612 84.6156 0.0000 0.0000 0.0000
# 3 66.2848 84.6156 181.9874 0.0000 0.0000 0.0000
# 4 0.0000 0.0000 0.0000 33.0598 0.0000 0.0000
# 5 0.0000 0.0000 0.0000 0.0000 36.7645 0.0000
# 6 0.0000 0.0000 0.0000 0.0000 0.0000 -50.0191
#
#
#
# Elastic Compliance Matrix: (Units=1/GPa)
#
#
# Indices 1 2 3 4 5 6 
#
# 1 0.029228 -0.004695 -0.008463 0.000000 0.000000 0.000000
# 2 -0.004695 0.010998 -0.003404 0.000000 0.000000 0.000000
# 3 -0.008463 -0.003404 0.010160 0.000000 0.000000 0.000000
# 4 0.000000 0.000000 0.000000 0.030248 0.000000 0.000000
# 5 0.000000 0.000000 0.000000 0.000000 0.027200 0.000000
# 6 0.000000 0.000000 0.000000 0.000000 0.000000 -0.019992
#
#
# Mechanical properties :
#
#
# Convention : Reuss Voigt Hill
#
# Bulk Modulus (GPa) = 57.92571 86.06919 71.99745
# Shear Modulus (GPa) = 39.45762 16.12265 27.79013
#
# Velocity S-wave (km/s) = 4.65599 2.97622 3.90743
# Velocity P-wave (km/s) = 7.79288 7.68748 7.74036
#
# Compressibility (1/GPa) = 0.01726349
#
# Stress axis : x y z
#
# Youngs Moduli (GPa) = 34.21399 90.92580 98.42716
#
# Poissons Ratio (x) = 0.42686 0.83297
# Poissons Ratio (y) = 0.16062 0.33501
# Poissons Ratio (z) = 0.28955 0.30948
#
# Static dielectric constant tensor:
#      x y z
#    x 3.215450 0.000000 0.000000 
#    y 0.000000 3.256020 0.000000 
#    z 0.000000 0.000000 3.509380 
# 
# 
# High freq. dielectric constant tensor:
#      x y z
#    x 1.696280 0.000000 0.000000 
#    y 0.000000 1.692980 0.000000 
#    z 0.000000 0.000000 1.722620 
# 
# From -- ./inp_files/37274.got.cif
#   From: 2010.03.12/outbox.cif.g09.slc.cpg/sg51_19_cif.got.tgz:37274.got - 2010.04.16 13:43:02.
