data_PCOD8209504
_publ_section_title
;
Structure prediction by ZEFSAII (Michael W. Deem and Ramdas Pophale) SiO2 
 PCOD8209504
Probable space group: P M M A
;
_chemical_formula_sum "Si O2"
_cell_formula_units_Z 56
_cell_length_a 19.244953
_cell_length_b 9.203636
_cell_length_c 17.554031
_cell_angle_alpha 90.000000
_cell_angle_beta 90.000000
_cell_angle_gamma 90.000000
_cell_volume 3109.232151
_symmetry_space_group_name_H-M "P M M A"
_symmetry_group_IT_number 51
_symmetry_cell_setting 'orthorhombic'
loop_
_space_group_symop_operation_xyz
x,y,z
1/2-x,-y,z
1/2+x,-y,-z
-x,y,-z
-x,-y,-z
1/2+x,y,-z
1/2-x,y,z
x,-y,z
loop_
_atom_site_type_symbol
_atom_site_label
_atom_site_fract_x
_atom_site_fract_y
_atom_site_fract_z
Si Si1 0.829649 0.162420 0.090051
Si Si2 0.392731 0.667554 0.776925
Si Si3 0.052596 0.668459 0.194383
Si Si4 0.928761 0.170509 0.653875
Si Si5 0.429875 0.169967 0.041985
Si Si6 0.586800 0.170458 0.373492
Si Si7 0.828979 0.172517 0.519924
O O1 0.750000 0.162436 0.067877
O O2 0.841316 0.269412 0.160192
O O3 0.855567 0.000000 0.112593
O O4 0.868382 0.215185 0.014427
O O5 0.375558 0.500000 0.763963
O O6 0.470377 0.693562 0.806163
O O7 0.379272 0.749645 0.698148
O O8 0.072778 0.500000 0.195799
O O9 0.085656 0.743975 0.268320
O O10 0.083163 0.741252 0.118945
O O11 0.870107 0.224610 0.594945
O O12 0.004839 0.207101 0.619143
O O13 0.922697 0.000000 0.670886
O O14 0.430950 0.000000 0.062518
O O15 0.500000 0.218409 0.000000
O O16 0.627847 0.229522 0.447159
O O17 0.598302 0.000000 0.362275
O O18 0.750000 0.234600 0.520034
O O19 0.827293 0.000000 0.517918
#
# Coordination Sequence:
#
# PCOD8209504 Si02
#       7
#     8   8   8   8   8   8   8
#     4  10  21  36  53  75 104 136 169 207 254 304
#     4  10  20  33  50  75 105 135 168 207 252 303
#     4  10  20  33  52  78 104 132 169 211 255 302
#     4   9  17  31  52  75 100 131 169 212 256 302
#     4  10  19  33  56  80 101 129 170 214 253 296
#     4   9  17  30  51  76 102 131 168 210 255 305
#     4   9  17  30  50  76 101 128 168 216 261 302
#
# _framework density 18.010878000000002
#
# number of rings (size 3 to 8) (size 9 to 14) (size 15 to 20)
#    0.000    2.429    1.429    1.286    0.000    4.571 
#    0.000    2.857    0.000    9.000    0.000    0.000 
#    0.000    0.000    0.000    0.000    0.000    0.000 
#
# Total GULP energy -694493.582150 kJ/mol
# GULP energy per Si atom -12401.671110 kJ/mol
# Density = 1.796988 g / cm^3
# Si number density = 18.010878 Si / 1000 Ang^3
#
#
#
# Elastic Constant Matrix: (Units=GPa)
#
#
# Indices 1 2 3 4 5 6 
#
# 1 91.8238 32.6828 72.1807 0.0000 0.0000 0.0000
# 2 32.6828 61.8011 61.2052 0.0000 0.0000 0.0000
# 3 72.1807 61.2052 169.6140 0.0000 0.0000 0.0000
# 4 0.0000 0.0000 0.0000 2.6478 0.0000 0.0000
# 5 0.0000 0.0000 0.0000 0.0000 24.9451 0.0000
# 6 0.0000 0.0000 0.0000 0.0000 0.0000 13.5695
#
#
#
# Elastic Compliance Matrix: (Units=1/GPa)
#
#
# Indices 1 2 3 4 5 6 
#
# 1 0.016667 -0.002785 -0.006088 0.000000 0.000000 0.000000
# 2 -0.002785 0.025645 -0.008069 0.000000 0.000000 0.000000
# 3 -0.006088 -0.008069 0.011398 0.000000 0.000000 0.000000
# 4 0.000000 0.000000 0.000000 0.377672 0.000000 0.000000
# 5 0.000000 0.000000 0.000000 0.000000 0.040088 0.000000
# 6 0.000000 0.000000 0.000000 0.000000 0.000000 0.073695
#
#
# Mechanical properties :
#
#
# Convention : Reuss Voigt Hill
#
# Bulk Modulus (GPa) = 50.43702 72.81959 61.62830
# Shear Modulus (GPa) = 8.53743 18.71050 13.62396
#
# Velocity S-wave (km/s) = 2.17955 3.22661 2.75331
# Velocity P-wave (km/s) = 5.86501 7.37563 6.66327
#
# Compressibility (1/GPa) = 0.01982671
#
# Stress axis : x y z
#
# Youngs Moduli (GPa) = 59.99769 38.99450 87.73411
#
# Poissons Ratio (x) = 0.10860 0.53412
# Poissons Ratio (y) = 0.16710 0.70790
# Poissons Ratio (z) = 0.36526 0.31463
#
# Static dielectric constant tensor:
#      x y z
#    x 3.267610 0.000000 0.000000 
#    y 0.000000 3.144600 0.000000 
#    z 0.000000 0.000000 3.367870 
# 
# 
# High freq. dielectric constant tensor:
#      x y z
#    x 1.682070 0.000000 0.000000 
#    y 0.000000 1.677770 0.000000 
#    z 0.000000 0.000000 1.706490 
# 
# From -- ./inp_files/25687.got.cif
#   From: 2010.03.12/outbox.cif.g09.slc.cpg/sg51_13_cif.got.tgz:25687.got - 2010.04.16 13:43:02.
