data_PCOD8209003
_publ_section_title
;
Structure prediction by ZEFSAII (Michael W. Deem and Ramdas Pophale) SiO2 
 PCOD8209003
Probable space group: P M M A
;
_chemical_formula_sum "Si O2"
_cell_formula_units_Z 64
_cell_length_a 23.980403
_cell_length_b 8.744471
_cell_length_c 16.155858
_cell_angle_alpha 90.000000
_cell_angle_beta 90.000000
_cell_angle_gamma 90.000000
_cell_volume 3387.817807
_symmetry_space_group_name_H-M "P M M A"
_symmetry_group_IT_number 51
_symmetry_cell_setting 'orthorhombic'
loop_
_space_group_symop_operation_xyz
x,y,z
1/2-x,-y,z
1/2+x,-y,-z
-x,y,-z
-x,-y,-z
1/2+x,y,-z
1/2-x,y,z
x,-y,z
loop_
_atom_site_type_symbol
_atom_site_label
_atom_site_fract_x
_atom_site_fract_y
_atom_site_fract_z
Si Si1 0.186559 0.677002 0.471768
Si Si2 0.378518 0.823490 0.616395
Si Si3 0.975826 0.819417 0.265776
Si Si4 0.187333 0.328699 0.753282
Si Si5 0.916425 0.679673 0.788473
Si Si6 0.560923 0.823558 0.963728
Si Si7 0.313543 0.178724 0.296489
Si Si8 0.905901 0.326376 0.121189
O O1 0.250000 0.708578 0.504422
O O2 0.179015 0.500000 0.449609
O O3 0.139694 0.722869 0.538332
O O4 0.174401 0.774812 0.390615
O O5 0.439473 0.774671 0.652589
O O6 0.334256 0.796462 0.689019
O O7 0.377837 0.000000 0.590235
O O8 0.950864 0.749075 0.182163
O O9 0.038685 0.756421 0.274518
O O10 0.976546 0.000000 0.254139
O O11 0.250000 0.287921 0.775550
O O12 0.181325 0.500000 0.714498
O O13 0.154841 0.319276 0.838959
O O14 0.921136 0.500000 0.778473
O O15 0.929247 0.725976 0.882095
O O16 0.854409 0.732480 0.765037
O O17 0.572026 0.000000 0.942771
O O18 0.500000 0.793540 0.000000
O O19 0.601770 0.765443 0.035860
O O20 0.250000 0.221549 0.272350
O O21 0.324648 0.000000 0.287103
O O22 0.925234 0.500000 0.104218
#
# Coordination Sequence:
#
# PCOD8209003 Si02
#       8
#     8   8   8   8   8   8   8   8
#     4  10  20  35  57  84 114 148 189 236 281 327
#     4  10  20  32  51  80 113 148 189 233 276 324
#     4  10  20  35  53  78 114 151 185 227 278 333
#     4   9  18  32  49  72 107 148 184 222 273 329
#     4  12  24  38  61  88 114 145 184 231 281 336
#     4  11  22  36  57  82 111 145 184 230 277 330
#     4  10  22  42  66  88 113 146 184 228 279 334
#     4  10  19  32  52  78 107 141 184 231 277 327
#
# _framework density 18.891217000000001
#
# number of rings (size 3 to 8) (size 9 to 14) (size 15 to 20)
#    0.000    1.750    1.250    3.750    0.000    5.750 
#    0.000    1.250    0.000    6.000    0.000    0.000 
#    0.000    0.000    0.000    0.000    0.000    0.000 
#
# Total GULP energy -793653.897574 kJ/mol
# GULP energy per Si atom -12400.842150 kJ/mol
# Density = 1.884822 g / cm^3
# Si number density = 18.891217 Si / 1000 Ang^3
#
#
#
# Elastic Constant Matrix: (Units=GPa)
#
#
# Indices 1 2 3 4 5 6 
#
# 1 101.4482 34.6016 36.2455 0.0000 0.0000 0.0000
# 2 34.6016 55.8728 23.6575 0.0000 0.0000 0.0000
# 3 36.2455 23.6575 65.5128 0.0000 0.0000 0.0000
# 4 0.0000 0.0000 0.0000 33.9943 0.0000 0.0000
# 5 0.0000 0.0000 0.0000 0.0000 23.9792 0.0000
# 6 0.0000 0.0000 0.0000 0.0000 0.0000 28.5314
#
#
#
# Elastic Compliance Matrix: (Units=1/GPa)
#
#
# Indices 1 2 3 4 5 6 
#
# 1 0.013963 -0.006347 -0.005433 0.000000 0.000000 0.000000
# 2 -0.006347 0.024013 -0.005160 0.000000 0.000000 0.000000
# 3 -0.005433 -0.005160 0.020134 0.000000 0.000000 0.000000
# 4 0.000000 0.000000 0.000000 0.029417 0.000000 0.000000
# 5 0.000000 0.000000 0.000000 0.000000 0.041703 0.000000
# 6 0.000000 0.000000 0.000000 0.000000 0.000000 0.035049
#
#
# Mechanical properties :
#
#
# Convention : Reuss Voigt Hill
#
# Bulk Modulus (GPa) = 41.27180 45.76033 43.51606
# Shear Modulus (GPa) = 24.24414 25.85627 25.05021
#
# Velocity S-wave (km/s) = 3.58628 3.70360 3.64541
# Velocity P-wave (km/s) = 6.24844 6.52415 6.38778
#
# Compressibility (1/GPa) = 0.02422962
#
# Stress axis : x y z
#
# Youngs Moduli (GPa) = 71.61678 41.64387 49.66818
#
# Poissons Ratio (x) = 0.26430 0.26987
# Poissons Ratio (y) = 0.45453 0.25629
# Poissons Ratio (z) = 0.38912 0.21489
#
# Static dielectric constant tensor:
#      x y z
#    x 3.571860 0.000000 0.000000 
#    y 0.000000 3.575590 0.000000 
#    z 0.000000 0.000000 3.335540 
# 
# 
# High freq. dielectric constant tensor:
#      x y z
#    x 1.727770 0.000000 0.000000 
#    y 0.000000 1.747650 0.000000 
#    z 0.000000 0.000000 1.720610 
# 
# From -- ./inp_files/26267.got.cif
#   From: 2010.03.12/outbox.cif.g09.slc.cpg/sg51_14_cif.got.tgz:26267.got - 2010.04.16 13:43:02.
