data_PCOD8209584
_publ_section_title
;
Structure prediction by ZEFSAII (Michael W. Deem and Ramdas Pophale) SiO2 
 PCOD8209584
Probable space group: P M M A
;
_chemical_formula_sum "Si O2"
_cell_formula_units_Z 52
_cell_length_a 9.060761
_cell_length_b 22.840871
_cell_length_c 14.253355
_cell_angle_alpha 90.000000
_cell_angle_beta 90.000000
_cell_angle_gamma 90.000000
_cell_volume 2949.812679
_symmetry_space_group_name_H-M "P M M A"
_symmetry_group_IT_number 51
_symmetry_cell_setting 'orthorhombic'
loop_
_space_group_symop_operation_xyz
x,y,z
1/2-x,-y,z
1/2+x,-y,-z
-x,y,-z
-x,-y,-z
1/2+x,y,-z
1/2-x,y,z
x,-y,z
loop_
_atom_site_type_symbol
_atom_site_label
_atom_site_fract_x
_atom_site_fract_y
_atom_site_fract_z
Si Si1 0.577395 0.676536 0.792207
Si Si2 0.925979 0.220898 0.099908
Si Si3 0.421301 0.434695 0.094130
Si Si4 0.077391 0.000000 0.099239
Si Si5 0.422487 0.281108 0.408101
Si Si6 0.080049 0.852347 0.409900
Si Si7 0.422446 0.882942 0.205300
O O1 0.750000 0.693117 0.805087
O O2 0.480368 0.718051 0.857734
O O3 0.543483 0.609749 0.821367
O O4 0.529399 0.682779 0.683933
O O5 0.750000 0.221376 0.089725
O O6 0.975724 0.168394 0.166745
O O7 0.000000 0.210281 0.000000
O O8 0.250000 0.434828 0.070524
O O9 0.475208 0.500000 0.123178
O O10 0.500000 0.412718 0.000000
O O11 0.028905 0.943207 0.157385
O O12 0.250000 0.000000 0.080731
O O13 0.000000 0.000000 0.000000
O O14 0.500000 0.308329 0.500000
O O15 0.250000 0.285722 0.424943
O O16 0.474325 0.214193 0.392738
O O17 0.250000 0.852840 0.435368
O O18 0.046891 0.889572 0.316445
O O19 0.000000 0.880697 0.500000
O O20 0.250000 0.867814 0.187421
#
# Coordination Sequence:
#
# PCOD8209584 Si02
#       7
#     8   8   8   4   8   8   8
#     4  10  19  34  53  75 105 136 171 214 260 306
#     4  12  24  35  51  76 105 136 170 212 261 310
#     4   9  18  32  51  74 101 136 175 212 253 304
#     4  10  22  38  59  78 100 136 177 214 255 308
#     4   9  17  30  49  73 101 135 167 207 256 307
#     4   9  17  31  52  75 104 134 167 207 255 308
#     4  10  20  38  57  77 104 137 173 213 258 307
#
# _framework density 17.628238
#
# number of rings (size 3 to 8) (size 9 to 14) (size 15 to 20)
#    0.000    2.154    1.538    2.308    0.000    4.923 
#    0.000    0.385    0.000    0.462    0.000    0.000 
#    0.000    0.000    0.000    0.000    0.000    0.000 
#
# Total GULP energy -644818.639788 kJ/mol
# GULP energy per Si atom -12400.358457 kJ/mol
# Density = 1.758811 g / cm^3
# Si number density = 17.628238 Si / 1000 Ang^3
#
#
#
# Elastic Constant Matrix: (Units=GPa)
#
#
# Indices 1 2 3 4 5 6 
#
# 1 57.7181 29.7961 41.7102 0.0000 0.0000 0.0000
# 2 29.7961 87.1067 50.5153 0.0000 0.0000 0.0000
# 3 41.7102 50.5153 138.6923 0.0000 0.0000 0.0000
# 4 0.0000 0.0000 0.0000 28.0427 0.0000 0.0000
# 5 0.0000 0.0000 0.0000 0.0000 33.4963 0.0000
# 6 0.0000 0.0000 0.0000 0.0000 0.0000 12.2591
#
#
#
# Elastic Compliance Matrix: (Units=1/GPa)
#
#
# Indices 1 2 3 4 5 6 
#
# 1 0.023770 -0.005052 -0.005308 0.000000 0.000000 0.000000
# 2 -0.005052 0.015628 -0.004173 0.000000 0.000000 0.000000
# 3 -0.005308 -0.004173 0.010326 0.000000 0.000000 0.000000
# 4 0.000000 0.000000 0.000000 0.035660 0.000000 0.000000
# 5 0.000000 0.000000 0.000000 0.000000 0.029854 0.000000
# 6 0.000000 0.000000 0.000000 0.000000 0.000000 0.081572
#
#
# Mechanical properties :
#
#
# Convention : Reuss Voigt Hill
#
# Bulk Modulus (GPa) = 48.40817 58.61780 53.51298
# Shear Modulus (GPa) = 21.48103 25.52599 23.50351
#
# Velocity S-wave (km/s) = 3.49457 3.80941 3.65538
# Velocity P-wave (km/s) = 6.61838 7.25763 6.94536
#
# Compressibility (1/GPa) = 0.02065767
#
# Stress axis : x y z
#
# Youngs Moduli (GPa) = 42.07001 63.98643 96.83858
#
# Poissons Ratio (x) = 0.32329 0.51405
# Poissons Ratio (y) = 0.21255 0.40409
# Poissons Ratio (z) = 0.22332 0.26700
#
# Static dielectric constant tensor:
#      x y z
#    x 3.190750 0.000000 0.000000 
#    y 0.000000 3.293200 0.000000 
#    z 0.000000 0.000000 3.435020 
# 
# 
# High freq. dielectric constant tensor:
#      x y z
#    x 1.675270 0.000000 0.000000 
#    y 0.000000 1.662560 0.000000 
#    z 0.000000 0.000000 1.689890 
# 
# From -- ./inp_files/21534.got.cif
#   From: 2010.03.12/outbox.cif.g09.slc.cpg/sg51_11_cif.got.tgz:21534.got - 2010.04.16 13:43:02.
