data_PCOD8209024
_publ_section_title
;
Structure prediction by ZEFSAII (Michael W. Deem and Ramdas Pophale) SiO2 
 PCOD8209024
Probable space group: P M M A
;
_chemical_formula_sum "Si O2"
_cell_formula_units_Z 64
_cell_length_a 8.865477
_cell_length_b 22.756074
_cell_length_c 16.110696
_cell_angle_alpha 90.000000
_cell_angle_beta 90.000000
_cell_angle_gamma 90.000000
_cell_volume 3250.227404
_symmetry_space_group_name_H-M "P M M A"
_symmetry_group_IT_number 51
_symmetry_cell_setting 'orthorhombic'
loop_
_space_group_symop_operation_xyz
x,y,z
1/2-x,-y,z
1/2+x,-y,-z
-x,y,-z
-x,-y,-z
1/2+x,y,-z
1/2-x,y,z
x,-y,z
loop_
_atom_site_type_symbol
_atom_site_label
_atom_site_fract_x
_atom_site_fract_y
_atom_site_fract_z
Si Si1 0.580151 0.105633 0.910545
Si Si2 0.422679 0.436125 0.738397
Si Si3 0.925939 0.066888 0.733304
Si Si4 0.427237 0.736038 0.365007
Si Si5 0.570256 0.143258 0.413060
Si Si6 0.575509 0.311212 0.207068
Si Si7 0.919635 0.236014 0.916793
Si Si8 0.925253 0.392193 0.581118
O O1 0.750000 0.084229 0.927425
O O2 0.512652 0.072146 0.829152
O O3 0.579603 0.172251 0.874143
O O4 0.500000 0.094162 0.000000
O O5 0.250000 0.431806 0.709804
O O6 0.454554 0.500000 0.781270
O O7 0.461027 0.381049 0.797708
O O8 0.524113 0.431671 0.657480
O O9 0.750000 0.085085 0.731020
O O10 0.014142 0.107070 0.666967
O O11 0.949751 0.000000 0.704544
O O12 0.250000 0.750089 0.371438
O O13 0.522091 0.788780 0.403994
O O14 0.470463 0.725406 0.269487
O O15 0.474486 0.675937 0.410793
O O16 0.500000 0.119095 0.500000
O O17 0.750000 0.138924 0.418460
O O18 0.750000 0.299538 0.228144
O O19 0.528955 0.285550 0.119479
O O20 0.750000 0.261077 0.925347
O O21 0.000000 0.219103 0.000000
O O22 0.750000 0.398027 0.572463
O O23 0.000000 0.419438 0.500000
#
# Coordination Sequence:
#
# PCOD8209024 Si02
#       8
#     8   8   8   8   8   8   8   8
#     4   9  19  35  57  86 118 150 182 220 269 327
#     4   9  19  35  52  70  96 133 175 217 261 311
#     4  10  22  41  62  84 114 152 192 233 277 328
#     4  10  20  35  55  80 109 139 175 219 271 329
#     4  12  25  40  60  84 111 146 189 238 290 340
#     4  10  19  32  53  80 108 139 177 220 269 324
#     4  10  19  32  52  79 112 144 175 215 265 321
#     4  10  20  32  49  73 101 133 168 211 261 314
#
# _framework density 19.690929000000001
#
# number of rings (size 3 to 8) (size 9 to 14) (size 15 to 20)
#    0.000    2.000    0.000    3.750    0.000    6.250 
#    0.000    0.000    0.000    0.375    0.000    0.000 
#    0.000    0.000    0.000    0.000    0.000    0.000 
#
# Total GULP energy -793059.152367 kJ/mol
# GULP energy per Si atom -12391.549256 kJ/mol
# Density = 1.964611 g / cm^3
# Si number density = 19.690929 Si / 1000 Ang^3
#
#
#
# Elastic Constant Matrix: (Units=GPa)
#
#
# Indices 1 2 3 4 5 6 
#
# 1 71.4147 30.7498 33.1313 0.0000 0.0000 0.0000
# 2 30.7498 79.9103 31.3549 0.0000 0.0000 0.0000
# 3 33.1313 31.3549 75.3602 0.0000 0.0000 0.0000
# 4 0.0000 0.0000 0.0000 21.5889 0.0000 0.0000
# 5 0.0000 0.0000 0.0000 0.0000 33.9378 0.0000
# 6 0.0000 0.0000 0.0000 0.0000 0.0000 20.7499
#
#
#
# Elastic Compliance Matrix: (Units=1/GPa)
#
#
# Indices 1 2 3 4 5 6 
#
# 1 0.019031 -0.004829 -0.006358 0.000000 0.000000 0.000000
# 2 -0.004829 0.016181 -0.004609 0.000000 0.000000 0.000000
# 3 -0.006358 -0.004609 0.017983 0.000000 0.000000 0.000000
# 4 0.000000 0.000000 0.000000 0.046320 0.000000 0.000000
# 5 0.000000 0.000000 0.000000 0.000000 0.029466 0.000000
# 6 0.000000 0.000000 0.000000 0.000000 0.000000 0.048193
#
#
# Mechanical properties :
#
#
# Convention : Reuss Voigt Hill
#
# Bulk Modulus (GPa) = 46.29027 46.35082 46.32055
# Shear Modulus (GPa) = 23.15173 24.01859 23.58516
#
# Velocity S-wave (km/s) = 3.43265 3.49632 3.46463
# Velocity P-wave (km/s) = 6.26660 6.31580 6.29125
#
# Compressibility (1/GPa) = 0.02160281
#
# Stress axis : x y z
#
# Youngs Moduli (GPa) = 52.54450 61.80186 55.60925
#
# Poissons Ratio (x) = 0.29842 0.35356
# Poissons Ratio (y) = 0.25372 0.25632
# Poissons Ratio (z) = 0.33407 0.28487
#
# Static dielectric constant tensor:
#      x y z
#    x 3.549170 0.000000 0.000000 
#    y 0.000000 3.675970 0.000000 
#    z 0.000000 0.000000 3.495500 
# 
# 
# High freq. dielectric constant tensor:
#      x y z
#    x 1.768660 0.000000 0.000000 
#    y 0.000000 1.767840 0.000000 
#    z 0.000000 0.000000 1.753650 
# 
# From -- ./inp_files/22233.got.cif
#   From: 2010.03.12/outbox.cif.g09.slc.cpg/sg51_12_cif.got.tgz:22233.got - 2010.04.16 13:43:02.
