data_PCOD8209759
_publ_section_title
;
Structure prediction by ZEFSAII (Michael W. Deem and Ramdas Pophale) SiO2 
 PCOD8209759
Probable space group: P M M A
;
_chemical_formula_sum "Si O2"
_cell_formula_units_Z 64
_cell_length_a 23.621943
_cell_length_b 9.095973
_cell_length_c 15.001574
_cell_angle_alpha 90.000000
_cell_angle_beta 90.000000
_cell_angle_gamma 90.000000
_cell_volume 3223.306533
_symmetry_space_group_name_H-M "P M M A"
_symmetry_group_IT_number 51
_symmetry_cell_setting 'orthorhombic'
loop_
_space_group_symop_operation_xyz
x,y,z
1/2-x,-y,z
1/2+x,-y,-z
-x,y,-z
-x,-y,-z
1/2+x,y,-z
1/2-x,y,z
x,-y,z
loop_
_atom_site_type_symbol
_atom_site_label
_atom_site_fract_x
_atom_site_fract_y
_atom_site_fract_z
Si Si1 0.355095 0.673552 0.047821
Si Si2 0.990325 0.827823 0.285191
Si Si3 0.684220 0.827141 0.478095
Si Si4 0.124555 0.325223 0.682283
Si Si5 0.186498 0.325467 0.859331
Si Si6 0.110966 0.826131 0.355726
Si Si7 0.188194 0.165377 0.201581
Si Si8 0.532112 0.829659 0.909420
O O1 0.354380 0.500000 0.048105
O O2 0.307049 0.736073 0.112872
O O3 0.412730 0.731407 0.090087
O O4 0.343910 0.734354 0.948461
O O5 0.045268 0.780880 0.344055
O O6 0.997238 0.789053 0.180059
O O7 0.938570 0.738132 0.327170
O O8 0.978238 0.000000 0.297161
O O9 0.750000 0.793434 0.502013
O O10 0.667124 0.738575 0.390552
O O11 0.641182 0.768075 0.554614
O O12 0.675626 0.000000 0.461236
O O13 0.122464 0.500000 0.673730
O O14 0.149318 0.271322 0.776655
O O15 0.250000 0.260427 0.852587
O O16 0.189826 0.500000 0.861506
O O17 0.144749 0.761722 0.271241
O O18 0.117895 0.000000 0.353563
O O19 0.250000 0.162587 0.246795
O O20 0.168965 0.000000 0.175720
O O21 0.549227 0.000000 0.906678
O O22 0.500000 0.789349 0.000000
#
# Coordination Sequence:
#
# PCOD8209759 Si02
#       8
#     8   8   8   8   8   8   8   8
#     4  11  21  33  53  81 114 149 188 235 285 344
#     4  10  20  37  59  83 116 154 192 235 283 342
#     4  10  21  39  64  91 114 142 188 240 289 346
#     4  11  23  39  60  84 114 152 194 241 292 345
#     4   9  19  36  55  76 108 152 195 233 282 344
#     4   9  18  36  61  86 114 150 190 231 282 343
#     4  10  19  34  57  83 113 149 190 233 280 338
#     4  10  20  35  56  81 113 153 197 243 285 331
#
# _framework density 19.855388000000001
#
# number of rings (size 3 to 8) (size 9 to 14) (size 15 to 20)
#    0.000    2.000    1.250    2.625    0.000    4.250 
#    0.000    5.625    0.000    6.000    0.000    0.000 
#    0.000    0.000    0.000    0.000    0.000    0.000 
#
# Total GULP energy -793456.023525 kJ/mol
# GULP energy per Si atom -12397.750368 kJ/mol
# Density = 1.981020 g / cm^3
# Si number density = 19.855388 Si / 1000 Ang^3
#
#
#
# Elastic Constant Matrix: (Units=GPa)
#
#
# Indices 1 2 3 4 5 6 
#
# 1 111.2376 30.8258 38.4608 0.0000 0.0000 0.0000
# 2 30.8258 44.1456 29.0841 0.0000 0.0000 0.0000
# 3 38.4608 29.0841 111.2226 0.0000 0.0000 0.0000
# 4 0.0000 0.0000 0.0000 22.4825 0.0000 0.0000
# 5 0.0000 0.0000 0.0000 0.0000 37.3459 0.0000
# 6 0.0000 0.0000 0.0000 0.0000 0.0000 13.6258
#
#
#
# Elastic Compliance Matrix: (Units=1/GPa)
#
#
# Indices 1 2 3 4 5 6 
#
# 1 0.011610 -0.006599 -0.002289 0.000000 0.000000 0.000000
# 2 -0.006599 0.031118 -0.005855 0.000000 0.000000 0.000000
# 3 -0.002289 -0.005855 0.011314 0.000000 0.000000 0.000000
# 4 0.000000 0.000000 0.000000 0.044479 0.000000 0.000000
# 5 0.000000 0.000000 0.000000 0.000000 0.026777 0.000000
# 6 0.000000 0.000000 0.000000 0.000000 0.000000 0.073390
#
#
# Mechanical properties :
#
#
# Convention : Reuss Voigt Hill
#
# Bulk Modulus (GPa) = 40.72508 51.48302 46.10405
# Shear Modulus (GPa) = 21.15434 25.90652 23.53043
#
# Velocity S-wave (km/s) = 3.26762 3.61607 3.44625
# Velocity P-wave (km/s) = 5.89846 6.58937 6.25347
#
# Compressibility (1/GPa) = 0.02455489
#
# Stress axis : x y z
#
# Youngs Moduli (GPa) = 86.13363 32.13614 88.38848
#
# Poissons Ratio (x) = 0.21206 0.20234
# Poissons Ratio (y) = 0.56837 0.51754
# Poissons Ratio (z) = 0.19717 0.18816
#
# Static dielectric constant tensor:
#      x y z
#    x 3.749220 0.000000 0.000000 
#    y 0.000000 3.248050 0.000000 
#    z 0.000000 0.000000 3.858970 
# 
# 
# High freq. dielectric constant tensor:
#      x y z
#    x 1.787740 0.000000 0.000000 
#    y 0.000000 1.738170 0.000000 
#    z 0.000000 0.000000 1.781540 
# 
# From -- ./inp_files/26269.got.cif
#   From: 2010.03.12/outbox.cif.g09.slc.cpg/sg51_14_cif.got.tgz:26269.got - 2010.04.16 13:43:02.
