data_PCOD8209312
_publ_section_title
;
Structure prediction by ZEFSAII (Michael W. Deem and Ramdas Pophale) SiO2 
 PCOD8209312
Probable space group: P M M A
;
_chemical_formula_sum "Si O2"
_cell_formula_units_Z 44
_cell_length_a 8.890843
_cell_length_b 27.487563
_cell_length_c 9.677453
_cell_angle_alpha 90.000000
_cell_angle_beta 90.000000
_cell_angle_gamma 90.000000
_cell_volume 2365.049581
_symmetry_space_group_name_H-M "P M M A"
_symmetry_group_IT_number 51
_symmetry_cell_setting 'orthorhombic'
loop_
_space_group_symop_operation_xyz
x,y,z
1/2-x,-y,z
1/2+x,-y,-z
-x,y,-z
-x,-y,-z
1/2+x,y,-z
1/2-x,y,z
x,-y,z
loop_
_atom_site_type_symbol
_atom_site_label
_atom_site_fract_x
_atom_site_fract_y
_atom_site_fract_z
Si Si1 0.072646 0.894997 0.150173
Si Si2 0.077462 0.000000 0.144646
Si Si3 0.572431 0.821207 0.357269
Si Si4 0.923763 0.442760 0.642237
Si Si5 0.925413 0.289453 0.359287
Si Si6 0.428146 0.371956 0.850307
O O1 0.250000 0.884405 0.141061
O O2 0.993150 0.853743 0.237016
O O3 0.039585 0.948600 0.220854
O O4 0.000000 0.893275 0.000000
O O5 0.250000 0.000000 0.106118
O O6 0.000000 0.000000 0.000000
O O7 0.500000 0.838814 0.500000
O O8 0.750000 0.827780 0.366227
O O9 0.525025 0.765636 0.325203
O O10 0.750000 0.427111 0.638619
O O11 0.943086 0.500000 0.661856
O O12 0.000000 0.425130 0.500000
O O13 0.006642 0.418570 0.771531
O O14 0.750000 0.292720 0.385182
O O15 0.975267 0.323335 0.232440
O O16 0.000000 0.308560 0.500000
O O17 0.250000 0.377611 0.863838
O O18 0.500000 0.368220 0.000000
#
# Coordination Sequence:
#
# PCOD8209312 Si02
#       6
#     8   4   8   8   8   8
#     4  10  19  33  53  78 105 137 175 217 263 313
#     4   8  16  30  49  72 101 134 172 214 258 310
#     4  10  20  36  55  78 107 139 175 217 265 316
#     4  10  21  38  60  85 112 144 182 222 264 314
#     4   9  20  37  57  79 104 137 177 218 263 316
#     4  11  23  38  56  81 112 145 180 221 268 316
#
# _framework density 18.604261999999999
#
# number of rings (size 3 to 8) (size 9 to 14) (size 15 to 20)
#    0.000    2.182    0.000    2.727    0.000    6.545 
#    0.000    2.273    0.000    0.000    0.000    0.000 
#    0.000    0.000    0.000    0.000    0.000    0.000 
#
# Total GULP energy -545493.471180 kJ/mol
# GULP energy per Si atom -12397.578890 kJ/mol
# Density = 1.856192 g / cm^3
# Si number density = 18.604262 Si / 1000 Ang^3
#
#
#
# Elastic Constant Matrix: (Units=GPa)
#
#
# Indices 1 2 3 4 5 6 
#
# 1 95.6491 53.1910 60.7238 0.0000 0.0000 0.0000
# 2 53.1910 96.2636 70.1750 0.0000 0.0000 0.0000
# 3 60.7238 70.1750 138.9527 0.0000 0.0000 0.0000
# 4 0.0000 0.0000 0.0000 25.4208 0.0000 0.0000
# 5 0.0000 0.0000 0.0000 0.0000 38.3631 0.0000
# 6 0.0000 0.0000 0.0000 0.0000 0.0000 25.3797
#
#
#
# Elastic Compliance Matrix: (Units=1/GPa)
#
#
# Indices 1 2 3 4 5 6 
#
# 1 0.016455 -0.006094 -0.004114 0.000000 0.000000 0.000000
# 2 -0.006094 0.018698 -0.006780 0.000000 0.000000 0.000000
# 3 -0.004114 -0.006780 0.012418 0.000000 0.000000 0.000000
# 4 0.000000 0.000000 0.000000 0.039338 0.000000 0.000000
# 5 0.000000 0.000000 0.000000 0.000000 0.026067 0.000000
# 6 0.000000 0.000000 0.000000 0.000000 0.000000 0.039402
#
#
# Mechanical properties :
#
#
# Convention : Reuss Voigt Hill
#
# Bulk Modulus (GPa) = 73.54558 77.67165 75.60862
# Shear Modulus (GPa) = 26.19394 27.61776 26.90585
#
# Velocity S-wave (km/s) = 3.75634 3.85708 3.80704
# Velocity P-wave (km/s) = 7.64401 7.85342 7.74942
#
# Compressibility (1/GPa) = 0.01359701
#
# Stress axis : x y z
#
# Youngs Moduli (GPa) = 60.77126 53.48274 80.52555
#
# Poissons Ratio (x) = 0.32590 0.33125
# Poissons Ratio (y) = 0.37031 0.54595
# Poissons Ratio (z) = 0.24999 0.36261
#
# Static dielectric constant tensor:
#      x y z
#    x 3.565720 0.000000 0.000000 
#    y 0.000000 3.845680 0.000000 
#    z 0.000000 0.000000 3.271990 
# 
# 
# High freq. dielectric constant tensor:
#      x y z
#    x 1.735910 0.000000 0.000000 
#    y 0.000000 1.737870 0.000000 
#    z 0.000000 0.000000 1.705440 
# 
# From -- ./inp_files/5807.got.cif
#   From: 2010.03.12/outbox.cif.g09.slc.cpg/sg51_3_cif.got.tgz:5807.got - 2010.04.16 13:43:02.
