data_PCOD8209337
_publ_section_title
;
Structure prediction by ZEFSAII (Michael W. Deem and Ramdas Pophale) SiO2 
 PCOD8209337
Probable space group: P M M A
;
_chemical_formula_sum "Si O2"
_cell_formula_units_Z 64
_cell_length_a 9.138125
_cell_length_b 17.154601
_cell_length_c 20.754628
_cell_angle_alpha 90.000000
_cell_angle_beta 90.000000
_cell_angle_gamma 90.000000
_cell_volume 3253.513921
_symmetry_space_group_name_H-M "P M M A"
_symmetry_group_IT_number 51
_symmetry_cell_setting 'orthorhombic'
loop_
_space_group_symop_operation_xyz
x,y,z
1/2-x,-y,z
1/2+x,-y,-z
-x,y,-z
-x,-y,-z
1/2+x,y,-z
1/2-x,y,z
x,-y,z
loop_
_atom_site_type_symbol
_atom_site_label
_atom_site_fract_x
_atom_site_fract_y
_atom_site_fract_z
Si Si1 0.916192 0.084834 0.844081
Si Si2 0.580851 0.589886 0.205690
Si Si3 0.076176 0.710821 0.296025
Si Si4 0.914475 0.814151 0.060953
Si Si5 0.578871 0.757565 0.561332
Si Si6 0.415075 0.867075 0.731464
Si Si7 0.914175 0.087661 0.413018
Si Si8 0.084937 0.629675 0.936750
O O1 0.750000 0.113443 0.838424
O O2 0.008319 0.152212 0.876998
O O3 0.989859 0.074710 0.774638
O O4 0.924448 0.000000 0.878578
O O5 0.750000 0.618153 0.208490
O O6 0.566773 0.500000 0.224806
O O7 0.485936 0.635286 0.259178
O O8 0.520248 0.600978 0.132134
O O9 0.250000 0.716160 0.285367
O O10 0.039119 0.710833 0.372999
O O11 0.996458 0.784388 0.265646
O O12 0.750000 0.845164 0.056584
O O13 0.922232 0.722085 0.064069
O O14 0.000000 0.847847 0.000000
O O15 0.500000 0.716174 0.500000
O O16 0.750000 0.756634 0.549195
O O17 0.527169 0.847977 0.561547
O O18 0.250000 0.855248 0.757868
O O19 0.411629 0.908122 0.663367
O O20 0.750000 0.105215 0.439134
O O21 0.963929 0.000000 0.433417
O O22 0.250000 0.598674 0.943623
O O23 0.000000 0.597166 0.000000
#
# Coordination Sequence:
#
# PCOD8209337 Si02
#       8
#     8   8   8   8   8   8   8   8
#     4  11  23  35  48  70 100 133 173 225 280 329
#     4  10  21  37  58  86 119 151 182 218 264 321
#     4  10  21  37  58  84 112 143 182 227 274 326
#     4  10  20  35  54  72  94 129 174 222 271 323
#     4  10  21  36  55  80 108 142 185 231 278 328
#     4  10  19  33  54  77 102 136 179 222 267 323
#     4   9  18  32  50  74 106 143 181 222 269 321
#     4   9  19  35  55  81 111 144 182 221 261 311
#
# _framework density 19.671039
#
# number of rings (size 3 to 8) (size 9 to 14) (size 15 to 20)
#    0.000    2.125    0.000    3.000    0.000    6.750 
#    0.000    0.000    0.000    0.375    0.000    0.000 
#    0.000    0.000    0.000    0.000    0.000    0.000 
#
# Total GULP energy -793294.658929 kJ/mol
# GULP energy per Si atom -12395.229046 kJ/mol
# Density = 1.962627 g / cm^3
# Si number density = 19.671039 Si / 1000 Ang^3
#
#
#
# Elastic Constant Matrix: (Units=GPa)
#
#
# Indices 1 2 3 4 5 6 
#
# 1 130.2794 38.4121 58.1475 0.0000 0.0000 0.0000
# 2 38.4121 52.8794 41.1917 0.0000 0.0000 0.0000
# 3 58.1475 41.1917 109.7770 0.0000 0.0000 0.0000
# 4 0.0000 0.0000 0.0000 8.1096 0.0000 0.0000
# 5 0.0000 0.0000 0.0000 0.0000 38.1887 0.0000
# 6 0.0000 0.0000 0.0000 0.0000 0.0000 20.6758
#
#
#
# Elastic Compliance Matrix: (Units=1/GPa)
#
#
# Indices 1 2 3 4 5 6 
#
# 1 0.010855 -0.004813 -0.003944 0.000000 0.000000 0.000000
# 2 -0.004813 0.028856 -0.008278 0.000000 0.000000 0.000000
# 3 -0.003944 -0.008278 0.014305 0.000000 0.000000 0.000000
# 4 0.000000 0.000000 0.000000 0.123310 0.000000 0.000000
# 5 0.000000 0.000000 0.000000 0.000000 0.026186 0.000000
# 6 0.000000 0.000000 0.000000 0.000000 0.000000 0.048366
#
#
# Mechanical properties :
#
#
# Convention : Reuss Voigt Hill
#
# Bulk Modulus (GPa) = 50.13704 63.15983 56.64844
# Shear Modulus (GPa) = 17.08842 23.74046 20.41444
#
# Velocity S-wave (km/s) = 2.95059 3.47778 3.22497
# Velocity P-wave (km/s) = 6.09516 6.95013 6.53664
#
# Compressibility (1/GPa) = 0.01994533
#
# Stress axis : x y z
#
# Youngs Moduli (GPa) = 92.12195 34.65518 69.90785
#
# Poissons Ratio (x) = 0.16680 0.27570
# Poissons Ratio (y) = 0.44340 0.57870
# Poissons Ratio (z) = 0.36331 0.28688
#
# Static dielectric constant tensor:
#      x y z
#    x 3.812720 0.000000 0.000000 
#    y 0.000000 3.285170 0.000000 
#    z 0.000000 0.000000 3.630630 
# 
# 
# High freq. dielectric constant tensor:
#      x y z
#    x 1.772450 0.000000 0.000000 
#    y 0.000000 1.741760 0.000000 
#    z 0.000000 0.000000 1.775080 
# 
# From -- ./inp_files/32429.got.cif
#   From: 2010.03.12/outbox.cif.g09.slc.cpg/sg51_17_cif.got.tgz:32429.got - 2010.04.16 13:43:02.
