data_PCOD8209421
_publ_section_title
;
Structure prediction by ZEFSAII (Michael W. Deem and Ramdas Pophale) SiO2 
 PCOD8209421
Probable space group: P M M A
;
_chemical_formula_sum "Si O2"
_cell_formula_units_Z 64
_cell_length_a 8.546488
_cell_length_b 24.405464
_cell_length_c 15.202061
_cell_angle_alpha 90.000000
_cell_angle_beta 90.000000
_cell_angle_gamma 90.000000
_cell_volume 3170.861165
_symmetry_space_group_name_H-M "P M M A"
_symmetry_group_IT_number 51
_symmetry_cell_setting 'orthorhombic'
loop_
_space_group_symop_operation_xyz
x,y,z
1/2-x,-y,z
1/2+x,-y,-z
-x,y,-z
-x,-y,-z
1/2+x,y,-z
1/2-x,y,z
x,-y,z
loop_
_atom_site_type_symbol
_atom_site_label
_atom_site_fract_x
_atom_site_fract_y
_atom_site_fract_z
Si Si1 0.566371 0.351649 0.776665
Si Si2 0.932020 0.329553 0.409702
Si Si3 0.428810 0.937308 0.771224
Si Si4 0.432200 0.436053 0.907058
Si Si5 0.068780 0.904930 0.409976
Si Si6 0.570945 0.218006 0.630833
Si Si7 0.933266 0.762133 0.187143
Si Si8 0.432473 0.857376 0.090113
O O1 0.750000 0.342399 0.781051
O O2 0.515576 0.356287 0.674740
O O3 0.519166 0.406650 0.826844
O O4 0.482323 0.300953 0.825613
O O5 0.750000 0.342524 0.403477
O O6 0.000000 0.355401 0.500000
O O7 0.959794 0.263991 0.411870
O O8 0.250000 0.917977 0.782588
O O9 0.475848 0.931640 0.669871
O O10 0.537678 0.899999 0.831683
O O11 0.449970 0.000000 0.800595
O O12 0.250000 0.422084 0.903973
O O13 0.466196 0.500000 0.894930
O O14 0.500000 0.415233 0.000000
O O15 0.250000 0.920226 0.400054
O O16 0.042754 0.839686 0.415207
O O17 0.000000 0.930002 0.500000
O O18 0.750000 0.237925 0.622188
O O19 0.528295 0.210869 0.732795
O O20 0.750000 0.764809 0.206262
O O21 0.979777 0.799101 0.103891
O O22 0.250000 0.846389 0.082105
O O23 0.500000 0.882757 0.000000
#
# Coordination Sequence:
#
# PCOD8209421 Si02
#       8
#     8   8   8   8   8   8   8   8
#     4  11  22  37  59  89 125 164 207 251 298 357
#     4  11  21  34  53  81 119 162 205 250 298 351
#     4  11  25  45  67  89 115 149 192 243 296 353
#     4  10  21  39  63  91 123 160 205 255 306 359
#     4  11  23  37  59  87 118 154 194 240 291 351
#     4  10  19  33  54  83 116 153 195 238 287 346
#     4  11  21  36  59  87 122 159 195 239 293 351
#     4  12  25  43  66  92 120 153 193 239 294 357
#
# _framework density 20.183792
#
# number of rings (size 3 to 8) (size 9 to 14) (size 15 to 20)
#    0.000    1.125    1.250    7.875    0.000    5.250 
#    0.000    2.500    0.000    0.375    0.000    0.000 
#    0.000    0.000    0.000    0.000    0.000    0.000 
#
# Total GULP energy -793903.077890 kJ/mol
# GULP energy per Si atom -12404.735592 kJ/mol
# Density = 2.013785 g / cm^3
# Si number density = 20.183792 Si / 1000 Ang^3
#
#
#
# Elastic Constant Matrix: (Units=GPa)
#
#
# Indices 1 2 3 4 5 6 
#
# 1 86.5923 33.6909 19.4653 0.0000 0.0000 0.0000
# 2 33.6909 61.3238 40.3490 0.0000 0.0000 0.0000
# 3 19.4653 40.3490 110.8930 0.0000 0.0000 0.0000
# 4 0.0000 0.0000 0.0000 11.2495 0.0000 0.0000
# 5 0.0000 0.0000 0.0000 0.0000 38.1816 0.0000
# 6 0.0000 0.0000 0.0000 0.0000 0.0000 25.5829
#
#
#
# Elastic Compliance Matrix: (Units=1/GPa)
#
#
# Indices 1 2 3 4 5 6 
#
# 1 0.014707 -0.008390 0.000471 0.000000 0.000000 0.000000
# 2 -0.008390 0.026226 -0.008070 0.000000 0.000000 0.000000
# 3 0.000471 -0.008070 0.011871 0.000000 0.000000 0.000000
# 4 0.000000 0.000000 0.000000 0.088893 0.000000 0.000000
# 5 0.000000 0.000000 0.000000 0.000000 0.026191 0.000000
# 6 0.000000 0.000000 0.000000 0.000000 0.000000 0.039089
#
#
# Mechanical properties :
#
#
# Convention : Reuss Voigt Hill
#
# Bulk Modulus (GPa) = 48.01453 49.53550 48.77501
# Shear Modulus (GPa) = 20.33389 26.02305 23.17847
#
# Velocity S-wave (km/s) = 3.17746 3.59458 3.39244
# Velocity P-wave (km/s) = 6.10753 6.46711 6.28989
#
# Compressibility (1/GPa) = 0.02082703
#
# Stress axis : x y z
#
# Youngs Moduli (GPa) = 67.99614 38.13049 84.23755
#
# Poissons Ratio (x) = 0.31991 -0.03969
# Poissons Ratio (y) = 0.57047 0.67977
# Poissons Ratio (z) = -0.03204 0.30770
#
# Static dielectric constant tensor:
#      x y z
#    x 3.747930 0.000000 0.000000 
#    y 0.000000 3.443290 0.000000 
#    z 0.000000 0.000000 3.771260 
# 
# 
# High freq. dielectric constant tensor:
#      x y z
#    x 1.806070 0.000000 0.000000 
#    y 0.000000 1.763180 0.000000 
#    z 0.000000 0.000000 1.794380 
# 
# From -- ./inp_files/22301.got.cif
#   From: 2010.03.12/outbox.cif.g09.slc.cpg/sg51_12_cif.got.tgz:22301.got - 2010.04.16 13:43:02.
