data_PCOD8209748
_publ_section_title
;
Structure prediction by ZEFSAII (Michael W. Deem and Ramdas Pophale) SiO2 
 PCOD8209748
Probable space group: P M M A
;
_chemical_formula_sum "Si O2"
_cell_formula_units_Z 48
_cell_length_a 31.169902
_cell_length_b 8.598403
_cell_length_c 9.003884
_cell_angle_alpha 90.000000
_cell_angle_beta 90.000000
_cell_angle_gamma 90.000000
_cell_volume 2413.143366
_symmetry_space_group_name_H-M "P M M A"
_symmetry_group_IT_number 51
_symmetry_cell_setting 'orthorhombic'
loop_
_space_group_symop_operation_xyz
x,y,z
1/2-x,-y,z
1/2+x,-y,-z
-x,y,-z
-x,-y,-z
1/2+x,y,-z
1/2-x,y,z
x,-y,z
loop_
_atom_site_type_symbol
_atom_site_label
_atom_site_fract_x
_atom_site_fract_y
_atom_site_fract_z
Si Si1 0.500043 0.684892 0.167156
Si Si2 0.331447 0.181973 0.168010
Si Si3 0.750000 0.315638 0.335776
Si Si4 0.083202 0.315588 0.665237
Si Si5 0.750000 0.316498 0.668499
Si Si6 0.333138 0.684672 0.842393
Si Si7 0.086567 0.315285 0.327975
O O1 0.502832 0.500000 0.163765
O O2 0.541109 0.753652 0.254258
O O3 0.457231 0.738973 0.250260
O O4 0.500000 0.751749 0.000000
O O5 0.292061 0.265546 0.245802
O O6 0.375067 0.230981 0.245960
O O7 0.324492 0.000000 0.181894
O O8 0.333207 0.229859 0.997818
O O9 0.750000 0.500000 0.344148
O O10 0.750000 0.245507 0.501993
O O11 0.792002 0.257358 0.249521
O O12 0.080539 0.500000 0.663733
O O13 0.125158 0.259595 0.752575
O O14 0.085267 0.255192 0.496903
O O15 0.750000 0.500000 0.659258
O O16 0.332855 0.500000 0.868159
O O17 0.093244 0.500000 0.317293
#
# Coordination Sequence:
#
# PCOD8209748 Si02
#       7
#     8   8   4   8   4   8   8
#     4   9  16  27  49  83 116 143 180 234 287 330
#     4  12  25  39  55  82 117 149 184 225 272 327
#     4   9  19  35  60  90 112 135 176 227 272 326
#     4   9  17  30  53  85 113 141 187 242 285 326
#     4  11  22  41  66  88 110 141 182 225 274 328
#     4  10  19  35  58  82 110 146 187 229 276 327
#     4  10  19  34  57  82 110 147 188 231 281 333
#
# _framework density 19.891069000000002
#
# number of rings (size 3 to 8) (size 9 to 14) (size 15 to 20)
#    0.000    2.000    0.000    4.750    0.000    8.000 
#    0.000    4.167    0.000    6.500    0.000    0.000 
#    0.000    0.000    0.000    0.000    0.000    0.000 
#
# Total GULP energy -595316.135888 kJ/mol
# GULP energy per Si atom -12402.419498 kJ/mol
# Density = 1.984580 g / cm^3
# Si number density = 19.891069 Si / 1000 Ang^3
#
#
#
# Elastic Constant Matrix: (Units=GPa)
#
#
# Indices 1 2 3 4 5 6 
#
# 1 189.8866 22.9140 98.9122 0.0000 0.0000 0.0000
# 2 22.9140 38.2696 24.4823 0.0000 0.0000 0.0000
# 3 98.9122 24.4823 199.3804 0.0000 0.0000 0.0000
# 4 0.0000 0.0000 0.0000 -1.8546 0.0000 0.0000
# 5 0.0000 0.0000 0.0000 0.0000 141.3816 0.0000
# 6 0.0000 0.0000 0.0000 0.0000 0.0000 4.1337
#
#
#
# Elastic Compliance Matrix: (Units=1/GPa)
#
#
# Indices 1 2 3 4 5 6 
#
# 1 0.007271 -0.002220 -0.003335 0.000000 0.000000 0.000000
# 2 -0.002220 0.029036 -0.002464 0.000000 0.000000 0.000000
# 3 -0.003335 -0.002464 0.006972 0.000000 0.000000 0.000000
# 4 0.000000 0.000000 0.000000 -0.539187 0.000000 0.000000
# 5 0.000000 0.000000 0.000000 0.000000 0.007073 0.000000
# 6 0.000000 0.000000 0.000000 0.000000 0.000000 0.241913
#
#
# Mechanical properties :
#
#
# Convention : Reuss Voigt Hill
#
# Bulk Modulus (GPa) = 36.70811 80.01706 58.36259
# Shear Modulus (GPa) = -22.54252 47.48067 12.46908
#
# Velocity S-wave (km/s) = -3.37010 4.89103 2.50645
# Velocity P-wave (km/s) = 1.83062 8.49772 6.14664
#
# Compressibility (1/GPa) = 0.02724194
#
# Stress axis : x y z
#
# Youngs Moduli (GPa) = 137.52810 34.43992 143.42332
#
# Poissons Ratio (x) = 0.07647 0.47826
# Poissons Ratio (y) = 0.30537 0.35337
# Poissons Ratio (z) = 0.45860 0.08485
#
# Static dielectric constant tensor:
#      x y z
#    x 4.720200 0.000000 0.000000 
#    y 0.000000 3.081040 0.000000 
#    z 0.000000 0.000000 3.956040 
# 
# 
# High freq. dielectric constant tensor:
#      x y z
#    x 1.798340 0.000000 0.000000 
#    y 0.000000 1.721540 0.000000 
#    z 0.000000 0.000000 1.799110 
# 
# From -- ./inp_files/12931.got.cif
#   From: 2010.03.12/outbox.cif.g09.slc.cpg/sg51_7_cif.got.tgz:12931.got - 2010.04.16 13:43:02.
