data_PCOD8209391
_publ_section_title
;
Structure prediction by ZEFSAII (Michael W. Deem and Ramdas Pophale) SiO2 
 PCOD8209391
Probable space group: P M M A
;
_chemical_formula_sum "Si O2"
_cell_formula_units_Z 32
_cell_length_a 8.673491
_cell_length_b 20.692707
_cell_length_c 9.442926
_cell_angle_alpha 90.000000
_cell_angle_beta 90.000000
_cell_angle_gamma 90.000000
_cell_volume 1694.797548
_symmetry_space_group_name_H-M "P M M A"
_symmetry_group_IT_number 51
_symmetry_cell_setting 'orthorhombic'
loop_
_space_group_symop_operation_xyz
x,y,z
1/2-x,-y,z
1/2+x,-y,-z
-x,y,-z
-x,-y,-z
1/2+x,y,-z
1/2-x,y,z
x,-y,z
loop_
_atom_site_type_symbol
_atom_site_label
_atom_site_fract_x
_atom_site_fract_y
_atom_site_fract_z
Si Si1 0.429960 0.075126 0.148812
Si Si2 0.069407 0.431845 0.153768
Si Si3 0.067869 0.179257 0.654923
Si Si4 0.933006 0.708336 0.843004
O O1 0.250000 0.090932 0.147170
O O2 0.510467 0.112952 0.275491
O O3 0.464205 0.000000 0.174346
O O4 0.500000 0.098574 0.000000
O O5 0.250000 0.431448 0.133974
O O6 0.019791 0.500000 0.233415
O O7 0.023259 0.362922 0.223685
O O8 0.000000 0.433379 0.000000
O O9 0.250000 0.178510 0.646557
O O10 0.000000 0.184864 0.500000
O O11 0.012461 0.240204 0.743602
O O12 0.750000 0.720073 0.847100
O O13 0.000000 0.715826 0.000000
#
# Coordination Sequence:
#
# PCOD8209391 Si02
#       4
#     8   8   8   8
#     4  10  21  39  63  89 115 143 177 217 262 313
#     4   8  14  25  44  72 104 136 171 215 265 314
#     4  12  25  40  57  78 108 144 183 225 270 320
#     4  10  19  33  54  80 110 143 181 223 268 319
#
# _framework density 18.881311
#
# number of rings (size 3 to 8) (size 9 to 14) (size 15 to 20)
#    0.000    2.000    0.000    4.500    0.000    3.000 
#    0.000    0.000    0.000    0.750    0.000    0.000 
#    0.000    0.000    0.000    0.000    0.000    0.000 
#
# Total GULP energy -396462.956651 kJ/mol
# GULP energy per Si atom -12389.467395 kJ/mol
# Density = 1.883834 g / cm^3
# Si number density = 18.881311 Si / 1000 Ang^3
#
#
#
# Elastic Constant Matrix: (Units=GPa)
#
#
# Indices 1 2 3 4 5 6 
#
# 1 116.5632 62.3800 49.6078 0.0000 0.0000 0.0000
# 2 62.3800 143.1764 67.3649 0.0000 0.0000 0.0000
# 3 49.6078 67.3649 102.3746 0.0000 0.0000 0.0000
# 4 0.0000 0.0000 0.0000 -1.1953 0.0000 0.0000
# 5 0.0000 0.0000 0.0000 0.0000 30.6117 0.0000
# 6 0.0000 0.0000 0.0000 0.0000 0.0000 16.0384
#
#
#
# Elastic Compliance Matrix: (Units=1/GPa)
#
#
# Indices 1 2 3 4 5 6 
#
# 1 0.011965 -0.003599 -0.003429 0.000000 0.000000 0.000000
# 2 -0.003599 0.011199 -0.005625 0.000000 0.000000 0.000000
# 3 -0.003429 -0.005625 0.015131 0.000000 0.000000 0.000000
# 4 0.000000 0.000000 0.000000 -0.836626 0.000000 0.000000
# 5 0.000000 0.000000 0.000000 0.000000 0.032667 0.000000
# 6 0.000000 0.000000 0.000000 0.000000 0.000000 0.062350
#
#
# Mechanical properties :
#
#
# Convention : Reuss Voigt Hill
#
# Bulk Modulus (GPa) = 76.99695 80.09107 78.54401
# Shear Modulus (GPa) = -7.42197 21.27506 6.92655
#
# Velocity S-wave (km/s) = -1.98479 3.36039 1.91740
# Velocity P-wave (km/s) = 5.96787 7.58726 6.82576
#
# Compressibility (1/GPa) = 0.01298753
#
# Stress axis : x y z
#
# Youngs Moduli (GPa) = 83.57885 89.29143 66.08807
#
# Poissons Ratio (x) = 0.32139 0.22664
# Poissons Ratio (y) = 0.30083 0.37176
# Poissons Ratio (z) = 0.28662 0.50229
#
# Static dielectric constant tensor:
#      x y z
#    x 3.640350 0.000000 0.000000 
#    y 0.000000 4.319750 0.000000 
#    z 0.000000 0.000000 3.142660 
# 
# 
# High freq. dielectric constant tensor:
#      x y z
#    x 1.748360 0.000000 0.000000 
#    y 0.000000 1.769000 0.000000 
#    z 0.000000 0.000000 1.689610 
# 
# From -- ./inp_files/4842.got.cif
#   From: 2010.03.12/outbox.cif.g09.slc.cpg/sg51_3_cif.got.tgz:4842.got - 2010.04.16 13:43:02.
