data_PCOD8209142
_publ_section_title
;
Structure prediction by ZEFSAII (Michael W. Deem and Ramdas Pophale) SiO2 
 PCOD8209142
Probable space group: P M M A
;
_chemical_formula_sum "Si O2"
_cell_formula_units_Z 48
_cell_length_a 15.131356
_cell_length_b 9.059075
_cell_length_c 19.103353
_cell_angle_alpha 90.000000
_cell_angle_beta 90.000000
_cell_angle_gamma 90.000000
_cell_volume 2618.612913
_symmetry_space_group_name_H-M "P M M A"
_symmetry_group_IT_number 51
_symmetry_cell_setting 'orthorhombic'
loop_
_space_group_symop_operation_xyz
x,y,z
1/2-x,-y,z
1/2+x,-y,-z
-x,y,-z
-x,-y,-z
1/2+x,y,-z
1/2-x,y,z
x,-y,z
loop_
_atom_site_type_symbol
_atom_site_label
_atom_site_fract_x
_atom_site_fract_y
_atom_site_fract_z
Si Si1 0.851583 0.828824 0.315908
Si Si2 0.250000 0.327155 0.922927
Si Si3 0.999713 0.825486 0.577865
Si Si4 0.090070 0.325627 0.824493
Si Si5 0.750000 0.173692 0.928935
Si Si6 0.090443 0.825318 0.169243
Si Si7 0.651566 0.824253 0.678555
O O1 0.750000 0.795811 0.334318
O O2 0.908995 0.783770 0.383574
O O3 0.883471 0.732483 0.251412
O O4 0.867012 0.000000 0.296546
O O5 0.250000 0.500000 0.936889
O O6 0.164379 0.277628 0.879583
O O7 0.250000 0.246886 0.996199
O O8 0.000000 0.755880 0.500000
O O9 0.916134 0.760643 0.620774
O O10 0.988963 0.000000 0.572819
O O11 0.079868 0.500000 0.819794
O O12 0.999848 0.254346 0.851857
O O13 0.663540 0.224274 0.886618
O O14 0.750000 0.000000 0.938831
O O15 0.120871 0.769052 0.245400
O O16 0.075547 0.000000 0.168985
O O17 0.750000 0.764174 0.662238
O O18 0.651671 0.000000 0.678290
#
# Coordination Sequence:
#
# PCOD8209142 Si02
#       7
#     8   4   8   8   4   8   8
#     4  10  19  32  54  81 108 141 182 231 275 319
#     4  10  24  42  56  76 113 148 180 221 276 337
#     4   9  17  28  45  76 115 145 172 215 273 328
#     4  11  22  37  57  81 108 146 189 227 269 329
#     4  10  22  38  60  86 113 140 178 229 278 331
#     4  10  19  35  58  84 109 139 183 228 273 328
#     4   9  15  26  48  74 102 138 174 213 263 315
#
# _framework density 18.330314999999999
#
# number of rings (size 3 to 8) (size 9 to 14) (size 15 to 20)
#    0.000    2.167    3.333    0.500    0.000    3.333 
#    0.000    6.667    0.000    0.500    0.000    0.000 
#    0.000    0.000    0.000    0.000    0.000    0.000 
#
# Total GULP energy -595232.686201 kJ/mol
# GULP energy per Si atom -12400.680963 kJ/mol
# Density = 1.828859 g / cm^3
# Si number density = 18.330315 Si / 1000 Ang^3
#
#
#
# Elastic Constant Matrix: (Units=GPa)
#
#
# Indices 1 2 3 4 5 6 
#
# 1 190.3889 41.4872 88.4297 0.0000 0.0000 0.0000
# 2 41.4872 31.3912 36.0706 0.0000 0.0000 0.0000
# 3 88.4297 36.0706 163.3004 0.0000 0.0000 0.0000
# 4 0.0000 0.0000 0.0000 3.6117 0.0000 0.0000
# 5 0.0000 0.0000 0.0000 0.0000 31.6265 0.0000
# 6 0.0000 0.0000 0.0000 0.0000 0.0000 17.5722
#
#
#
# Elastic Compliance Matrix: (Units=1/GPa)
#
#
# Indices 1 2 3 4 5 6 
#
# 1 0.008202 -0.007687 -0.002743 0.000000 0.000000 0.000000
# 2 -0.007687 0.049897 -0.006859 0.000000 0.000000 0.000000
# 3 -0.002743 -0.006859 0.009124 0.000000 0.000000 0.000000
# 4 0.000000 0.000000 0.000000 0.276879 0.000000 0.000000
# 5 0.000000 0.000000 0.000000 0.000000 0.031619 0.000000
# 6 0.000000 0.000000 0.000000 0.000000 0.000000 0.056908
#
#
# Mechanical properties :
#
#
# Convention : Reuss Voigt Hill
#
# Bulk Modulus (GPa) = 30.63340 79.67282 55.15311
# Shear Modulus (GPa) = 10.45831 25.16828 17.81330
#
# Velocity S-wave (km/s) = 2.39120 3.70948 3.12074
# Velocity P-wave (km/s) = 4.93680 7.86806 6.56804
#
# Compressibility (1/GPa) = 0.03264411
#
# Stress axis : x y z
#
# Youngs Moduli (GPa) = 121.92570 20.04141 109.59816
#
# Poissons Ratio (x) = 0.15406 0.30067
# Poissons Ratio (y) = 0.93727 0.75170
# Poissons Ratio (z) = 0.33449 0.13746
#
# Static dielectric constant tensor:
#      x y z
#    x 3.870760 0.000000 0.000000 
#    y 0.000000 2.991010 0.000000 
#    z 0.000000 0.000000 3.485710 
# 
# 
# High freq. dielectric constant tensor:
#      x y z
#    x 1.732230 0.000000 0.000000 
#    y 0.000000 1.666020 0.000000 
#    z 0.000000 0.000000 1.711320 
# 
# From -- ./inp_files/29575.got.cif
#   From: 2010.03.12/outbox.cif.g09.slc.cpg/sg51_15_cif.got.tgz:29575.got - 2010.04.16 13:43:02.
