data_PCOD8209616
_publ_section_title
;
Structure prediction by ZEFSAII (Michael W. Deem and Ramdas Pophale) SiO2 
 PCOD8209616
Probable space group: P M M A
;
_chemical_formula_sum "Si O2"
_cell_formula_units_Z 64
_cell_length_a 18.521568
_cell_length_b 14.167666
_cell_length_c 12.603053
_cell_angle_alpha 90.000000
_cell_angle_beta 90.000000
_cell_angle_gamma 90.000000
_cell_volume 3307.134234
_symmetry_space_group_name_H-M "P M M A"
_symmetry_group_IT_number 51
_symmetry_cell_setting 'orthorhombic'
loop_
_space_group_symop_operation_xyz
x,y,z
1/2-x,-y,z
1/2+x,-y,-z
-x,y,-z
-x,-y,-z
1/2+x,y,-z
1/2-x,y,z
x,-y,z
loop_
_atom_site_type_symbol
_atom_site_label
_atom_site_fract_x
_atom_site_fract_y
_atom_site_fract_z
Si Si1 0.542747 0.602695 0.891797
Si Si2 0.667108 0.891170 0.779412
Si Si3 0.406309 0.605993 0.757336
Si Si4 0.081949 0.797459 0.040780
Si Si5 0.836098 0.106026 0.370066
Si Si6 0.082312 0.392225 0.511285
Si Si7 0.165277 0.223097 0.429765
Si Si8 0.166106 0.216963 0.833393
O O1 0.581374 0.500000 0.869620
O O2 0.488432 0.626758 0.794644
O O3 0.595501 0.692432 0.908378
O O4 0.500000 0.591691 0.000000
O O5 0.750000 0.868711 0.814938
O O6 0.608741 0.871540 0.871454
O O7 0.644962 0.827683 0.679291
O O8 0.660748 0.000000 0.745435
O O9 0.385395 0.500000 0.790021
O O10 0.395455 0.621900 0.632927
O O11 0.350845 0.672854 0.818315
O O12 0.131430 0.819183 0.940846
O O13 0.000000 0.811985 0.000000
O O14 0.750000 0.105594 0.370164
O O15 0.865299 0.160229 0.473446
O O16 0.866200 0.157777 0.265150
O O17 0.866811 0.000000 0.371768
O O18 0.094507 0.500000 0.474117
O O19 0.129460 0.326387 0.434502
O O20 0.000000 0.362241 0.500000
O O21 0.250000 0.237601 0.441384
O O22 0.250000 0.199904 0.843083
#
# Coordination Sequence:
#
# PCOD8209616 Si02
#       8
#     8   8   8   8   8   8   8   8
#     4   9  17  32  55  79 106 146 191 226 272 336
#     4  10  23  43  64  85 112 152 200 247 299 357
#     4  10  19  34  54  80 114 153 191 229 285 347
#     4  11  22  37  61  86 115 155 196 245 294 343
#     4   9  18  34  57  82 107 141 183 229 287 348
#     4  10  22  36  56  86 121 158 191 227 281 347
#     4  10  20  37  63  87 113 149 195 244 286 339
#     4  11  21  34  54  85 119 149 187 236 292 351
#
# _framework density 19.352103
#
# number of rings (size 3 to 8) (size 9 to 14) (size 15 to 20)
#    0.000    2.000    3.750    0.750    1.750    2.750 
#    0.000    2.500    0.000    2.625    0.000    0.000 
#    0.000    0.000    0.000    0.000    0.000    0.000 
#
# Total GULP energy -793393.212641 kJ/mol
# GULP energy per Si atom -12396.768948 kJ/mol
# Density = 1.930806 g / cm^3
# Si number density = 19.352103 Si / 1000 Ang^3
#
#
#
# Elastic Constant Matrix: (Units=GPa)
#
#
# Indices 1 2 3 4 5 6 
#
# 1 52.9025 36.0001 45.8163 0.0000 0.0000 0.0000
# 2 36.0001 105.6382 52.1151 0.0000 0.0000 0.0000
# 3 45.8163 52.1151 111.7712 0.0000 0.0000 0.0000
# 4 0.0000 0.0000 0.0000 31.2846 0.0000 0.0000
# 5 0.0000 0.0000 0.0000 0.0000 31.4602 0.0000
# 6 0.0000 0.0000 0.0000 0.0000 0.0000 27.0398
#
#
#
# Elastic Compliance Matrix: (Units=1/GPa)
#
#
# Indices 1 2 3 4 5 6 
#
# 1 0.031758 -0.005715 -0.010353 0.000000 0.000000 0.000000
# 2 -0.005715 0.013323 -0.003869 0.000000 0.000000 0.000000
# 3 -0.010353 -0.003869 0.014995 0.000000 0.000000 0.000000
# 4 0.000000 0.000000 0.000000 0.031965 0.000000 0.000000
# 5 0.000000 0.000000 0.000000 0.000000 0.031786 0.000000
# 6 0.000000 0.000000 0.000000 0.000000 0.000000 0.036983
#
#
# Mechanical properties :
#
#
# Convention : Reuss Voigt Hill
#
# Bulk Modulus (GPa) = 49.50356 59.79720 54.65038
# Shear Modulus (GPa) = 24.10584 27.04893 25.57739
#
# Velocity S-wave (km/s) = 3.53320 3.74267 3.63944
# Velocity P-wave (km/s) = 6.50236 7.04581 6.77953
#
# Compressibility (1/GPa) = 0.02020057
#
# Stress axis : x y z
#
# Youngs Moduli (GPa) = 31.48770 75.05953 66.68927
#
# Poissons Ratio (x) = 0.42898 0.69046
# Poissons Ratio (y) = 0.17996 0.25804
# Poissons Ratio (z) = 0.32600 0.29042
#
# Static dielectric constant tensor:
#      x y z
#    x 3.223410 0.000000 0.000000 
#    y 0.000000 3.824310 0.000000 
#    z 0.000000 0.000000 3.714360 
# 
# 
# High freq. dielectric constant tensor:
#      x y z
#    x 1.712500 0.000000 0.000000 
#    y 0.000000 1.762300 0.000000 
#    z 0.000000 0.000000 1.763190 
# 
# From -- ./inp_files/17609.got.cif
#   From: 2010.03.12/outbox.cif.g09.slc.cpg/sg51_9_cif.got.tgz:17609.got - 2010.04.16 13:43:02.
