data_PCOD8209930
_publ_section_title
;
Structure prediction by ZEFSAII (Michael W. Deem and Ramdas Pophale) SiO2 
 PCOD8209930
Probable space group: P M M A
;
_chemical_formula_sum "Si O2"
_cell_formula_units_Z 64
_cell_length_a 8.888586
_cell_length_b 19.266288
_cell_length_c 20.693866
_cell_angle_alpha 90.000000
_cell_angle_beta 90.000000
_cell_angle_gamma 90.000000
_cell_volume 3543.825748
_symmetry_space_group_name_H-M "P M M A"
_symmetry_group_IT_number 51
_symmetry_cell_setting 'orthorhombic'
loop_
_space_group_symop_operation_xyz
x,y,z
1/2-x,-y,z
1/2+x,-y,-z
-x,y,-z
-x,-y,-z
1/2+x,y,-z
1/2-x,y,z
x,-y,z
loop_
_atom_site_type_symbol
_atom_site_label
_atom_site_fract_x
_atom_site_fract_y
_atom_site_fract_z
Si Si1 0.921396 0.422575 0.244422
Si Si2 0.425552 0.796792 0.687637
Si Si3 0.926009 0.921234 0.120661
Si Si4 0.572781 0.707561 0.434788
Si Si5 0.924618 0.578875 0.621871
Si Si6 0.072867 0.791818 0.064994
Si Si7 0.076280 0.078589 0.256676
Si Si8 0.577268 0.283851 0.181504
O O1 0.750000 0.412829 0.269696
O O2 0.945825 0.500000 0.215688
O O3 0.953689 0.366354 0.188478
O O4 0.030905 0.408719 0.303938
O O5 0.250000 0.814014 0.683254
O O6 0.480684 0.754684 0.625096
O O7 0.517994 0.868907 0.688495
O O8 0.464501 0.751985 0.750826
O O9 0.750000 0.904983 0.116719
O O10 0.014141 0.870517 0.072936
O O11 0.978047 0.906611 0.193376
O O12 0.963407 0.000000 0.100133
O O13 0.500000 0.738120 0.500000
O O14 0.750000 0.707733 0.442061
O O15 0.518065 0.628785 0.424780
O O16 0.750000 0.596248 0.614259
O O17 0.961564 0.500000 0.601480
O O18 0.250000 0.792617 0.057453
O O19 0.028654 0.744413 0.125478
O O20 0.000000 0.760369 0.000000
O O21 0.250000 0.092619 0.239834
O O22 0.052514 0.000000 0.281575
O O23 0.750000 0.268477 0.162852
#
# Coordination Sequence:
#
# PCOD8209930 Si02
#       8
#     8   8   8   8   8   8   8   8
#     4   9  17  32  56  83 111 144 180 223 274 323
#     4  10  20  35  57  82 110 144 181 222 273 325
#     4  10  20  35  55  79 110 147 183 220 265 319
#     4  11  23  39  56  79 109 146 186 227 274 327
#     4  10  20  33  51  78 111 147 186 225 266 318
#     4  12  25  39  56  79 109 147 185 226 273 322
#     4  10  20  33  53  83 113 141 179 226 271 316
#     4  10  19  35  57  83 112 142 181 226 270 324
#
# _framework density 18.05958
#
# number of rings (size 3 to 8) (size 9 to 14) (size 15 to 20)
#    0.000    1.750    2.500    2.625    0.000    4.250 
#    0.000    0.000    0.000    0.750    0.000    0.000 
#    0.000    0.000    0.000    0.000    0.000    0.000 
#
# Total GULP energy -793780.688037 kJ/mol
# GULP energy per Si atom -12402.823251 kJ/mol
# Density = 1.801848 g / cm^3
# Si number density = 18.059580 Si / 1000 Ang^3
#
#
#
# Elastic Constant Matrix: (Units=GPa)
#
#
# Indices 1 2 3 4 5 6 
#
# 1 91.4705 41.2653 50.2106 0.0000 0.0000 0.0000
# 2 41.2653 97.6610 49.8970 0.0000 0.0000 0.0000
# 3 50.2106 49.8970 106.6122 0.0000 0.0000 0.0000
# 4 0.0000 0.0000 0.0000 22.6265 0.0000 0.0000
# 5 0.0000 0.0000 0.0000 0.0000 30.0122 0.0000
# 6 0.0000 0.0000 0.0000 0.0000 0.0000 28.8207
#
#
#
# Elastic Compliance Matrix: (Units=1/GPa)
#
#
# Indices 1 2 3 4 5 6 
#
# 1 0.015729 -0.003761 -0.005648 0.000000 0.000000 0.000000
# 2 -0.003761 0.014357 -0.004948 0.000000 0.000000 0.000000
# 3 -0.005648 -0.004948 0.014356 0.000000 0.000000 0.000000
# 4 0.000000 0.000000 0.000000 0.044196 0.000000 0.000000
# 5 0.000000 0.000000 0.000000 0.000000 0.033320 0.000000
# 6 0.000000 0.000000 0.000000 0.000000 0.000000 0.034697
#
#
# Mechanical properties :
#
#
# Convention : Reuss Voigt Hill
#
# Bulk Modulus (GPa) = 63.57977 64.27659 63.92818
# Shear Modulus (GPa) = 26.23152 26.58327 26.40740
#
# Velocity S-wave (km/s) = 3.81530 3.84080 3.82807
# Velocity P-wave (km/s) = 7.39532 7.43893 7.41715
#
# Compressibility (1/GPa) = 0.01572827
#
# Stress axis : x y z
#
# Youngs Moduli (GPa) = 63.57571 69.65455 69.65934
#
# Poissons Ratio (x) = 0.26194 0.39343
# Poissons Ratio (y) = 0.23908 0.34468
# Poissons Ratio (z) = 0.35907 0.34466
#
# Static dielectric constant tensor:
#      x y z
#    x 3.344490 0.000000 0.000000 
#    y 0.000000 3.536850 0.000000 
#    z 0.000000 0.000000 3.144260 
# 
# 
# High freq. dielectric constant tensor:
#      x y z
#    x 1.706500 0.000000 0.000000 
#    y 0.000000 1.702390 0.000000 
#    z 0.000000 0.000000 1.672070 
# 
# From -- ./inp_files/28414.got.cif
#   From: 2010.03.12/outbox.cif.g09.slc.cpg/sg51_15_cif.got.tgz:28414.got - 2010.04.16 13:43:02.
