data_PCOD8209698
_publ_section_title
;
Structure prediction by ZEFSAII (Michael W. Deem and Ramdas Pophale) SiO2 
 PCOD8209698
Probable space group: P M M A
;
_chemical_formula_sum "Si O2"
_cell_formula_units_Z 32
_cell_length_a 8.910050
_cell_length_b 20.747735
_cell_length_c 9.051446
_cell_angle_alpha 90.000000
_cell_angle_beta 90.000000
_cell_angle_gamma 90.000000
_cell_volume 1673.280686
_symmetry_space_group_name_H-M "P M M A"
_symmetry_group_IT_number 51
_symmetry_cell_setting 'orthorhombic'
loop_
_space_group_symop_operation_xyz
x,y,z
1/2-x,-y,z
1/2+x,-y,-z
-x,y,-z
-x,-y,-z
1/2+x,y,-z
1/2-x,y,z
x,-y,z
loop_
_atom_site_type_symbol
_atom_site_label
_atom_site_fract_x
_atom_site_fract_y
_atom_site_fract_z
Si Si1 0.073937 0.377081 0.841833
Si Si2 0.572691 0.859988 0.838347
Si Si3 0.572430 0.252231 0.342761
Si Si4 0.421390 0.000000 0.153119
Si Si5 0.572326 0.500000 0.340994
O O1 0.250000 0.381903 0.864605
O O2 0.027390 0.311299 0.761942
O O3 0.015146 0.437094 0.745957
O O4 0.000000 0.379109 0.000000
O O5 0.750000 0.845630 0.850814
O O6 0.495850 0.812337 0.724407
O O7 0.540425 0.931769 0.767729
O O8 0.500000 0.852131 0.000000
O O9 0.500000 0.266165 0.500000
O O10 0.750000 0.244721 0.359857
O O11 0.250000 0.000000 0.110366
O O12 0.500000 0.000000 0.000000
O O13 0.750000 0.500000 0.359782
O O14 0.500000 0.500000 0.500000
#
# Coordination Sequence:
#
# PCOD8209698 Si02
#       5
#     8   8   8   4   4
#     4  10  22  38  58  83 111 142 182 225 268 318
#     4  10  19  34  56  82 110 142 180 224 270 323
#     4  11  23  38  55  79 109 144 183 226 275 328
#     4   8  16  30  51  78 107 138 176 220 268 318
#     4  10  21  38  58  84 114 146 181 220 266 318
#
# _framework density 19.124108
#
# number of rings (size 3 to 8) (size 9 to 14) (size 15 to 20)
#    0.000    2.000    0.000    3.375    0.000    6.000 
#    0.000    0.625    0.000    0.000    0.000    0.000 
#    0.000    0.000    0.000    0.000    0.000    0.000 
#
# Total GULP energy -396682.998016 kJ/mol
# GULP energy per Si atom -12396.343688 kJ/mol
# Density = 1.908058 g / cm^3
# Si number density = 19.124108 Si / 1000 Ang^3
#
#
#
# Elastic Constant Matrix: (Units=GPa)
#
#
# Indices 1 2 3 4 5 6 
#
# 1 67.4595 60.3676 53.8786 0.0000 0.0000 0.0000
# 2 60.3676 174.8520 79.9887 0.0000 0.0000 0.0000
# 3 53.8786 79.9887 148.0712 0.0000 0.0000 0.0000
# 4 0.0000 0.0000 0.0000 -20.4824 0.0000 0.0000
# 5 0.0000 0.0000 0.0000 0.0000 38.6214 0.0000
# 6 0.0000 0.0000 0.0000 0.0000 0.0000 23.5304
#
#
#
# Elastic Compliance Matrix: (Units=1/GPa)
#
#
# Indices 1 2 3 4 5 6 
#
# 1 0.024734 -0.005874 -0.005827 0.000000 0.000000 0.000000
# 2 -0.005874 0.008991 -0.002720 0.000000 0.000000 0.000000
# 3 -0.005827 -0.002720 0.010343 0.000000 0.000000 0.000000
# 4 0.000000 0.000000 0.000000 -0.048822 0.000000 0.000000
# 5 0.000000 0.000000 0.000000 0.000000 0.025892 0.000000
# 6 0.000000 0.000000 0.000000 0.000000 0.000000 0.042498
#
#
# Mechanical properties :
#
#
# Convention : Reuss Voigt Hill
#
# Bulk Modulus (GPa) = 65.67217 86.53917 76.10567
# Shear Modulus (GPa) = 51.25430 21.41039 36.33234
#
# Velocity S-wave (km/s) = 5.18257 3.34960 4.36342
# Velocity P-wave (km/s) = 8.38013 7.76591 8.07886
#
# Compressibility (1/GPa) = 0.01522715
#
# Stress axis : x y z
#
# Youngs Moduli (GPa) = 40.43063 111.21911 96.68387
#
# Poissons Ratio (x) = 0.65327 0.56336
# Poissons Ratio (y) = 0.23748 0.26297
# Poissons Ratio (z) = 0.23558 0.30250
#
# Static dielectric constant tensor:
#      x y z
#    x 3.572970 0.000000 0.000000 
#    y 0.000000 3.995470 0.000000 
#    z 0.000000 0.000000 3.314780 
# 
# 
# High freq. dielectric constant tensor:
#      x y z
#    x 1.749170 0.000000 0.000000 
#    y 0.000000 1.771590 0.000000 
#    z 0.000000 0.000000 1.729850 
# 
# From -- ./inp_files/5018.got.cif
#   From: 2010.03.12/outbox.cif.g09.slc.cpg/sg51_3_cif.got.tgz:5018.got - 2010.04.16 13:43:02.
