data_PCOD8209826
_publ_section_title
;
Structure prediction by ZEFSAII (Michael W. Deem and Ramdas Pophale) SiO2 
 PCOD8209826
Probable space group: P M M A
;
_chemical_formula_sum "Si O2"
_cell_formula_units_Z 64
_cell_length_a 9.009040
_cell_length_b 25.100246
_cell_length_c 14.380553
_cell_angle_alpha 90.000000
_cell_angle_beta 90.000000
_cell_angle_gamma 90.000000
_cell_volume 3251.861798
_symmetry_space_group_name_H-M "P M M A"
_symmetry_group_IT_number 51
_symmetry_cell_setting 'orthorhombic'
loop_
_space_group_symop_operation_xyz
x,y,z
1/2-x,-y,z
1/2+x,-y,-z
-x,y,-z
-x,-y,-z
1/2+x,y,-z
1/2-x,y,z
x,-y,z
loop_
_atom_site_type_symbol
_atom_site_label
_atom_site_fract_x
_atom_site_fract_y
_atom_site_fract_z
Si Si1 0.420889 0.650176 0.594271
Si Si2 0.077430 0.248163 0.720622
Si Si3 0.086766 0.563192 0.087234
Si Si4 0.426179 0.940876 0.284462
Si Si5 0.079236 0.103805 0.092346
Si Si6 0.073212 0.841351 0.400978
Si Si7 0.422864 0.229150 0.094111
Si Si8 0.074623 0.438820 0.292091
O O1 0.500000 0.668170 0.500000
O O2 0.250000 0.639275 0.572511
O O3 0.443565 0.696726 0.667810
O O4 0.491556 0.595996 0.631952
O O5 0.250000 0.231469 0.727016
O O6 0.984438 0.202466 0.670169
O O7 0.007998 0.257789 0.821892
O O8 0.250000 0.588253 0.082557
O O9 0.095802 0.500000 0.076583
O O10 0.015954 0.576594 0.188125
O O11 0.000000 0.588659 0.000000
O O12 0.250000 0.938969 0.277631
O O13 0.490052 0.924784 0.183173
O O14 0.477906 0.899326 0.363311
O O15 0.483357 0.000000 0.311424
O O16 0.250000 0.089110 0.080725
O O17 0.054595 0.166298 0.105670
O O18 0.000000 0.082170 0.000000
O O19 0.250000 0.836383 0.409301
O O20 0.000000 0.831352 0.500000
O O21 0.250000 0.244979 0.094056
O O22 0.500000 0.249496 0.000000
O O23 0.250000 0.428931 0.297492
O O24 0.036704 0.500000 0.314210
#
# Coordination Sequence:
#
# PCOD8209826 Si02
#       8
#     8   8   8   8   8   8   8   8
#     4  11  25  42  61  86 114 147 190 238 292 344
#     4  11  23  40  62  88 116 149 190 239 288 343
#     4   8  14  26  47  77 111 146 184 224 266 315
#     4   9  18  34  54  77 111 151 189 232 284 344
#     4   9  17  31  51  79 110 146 186 225 274 333
#     4  11  22  38  59  84 109 144 191 238 295 352
#     4  10  19  34  58  89 120 154 191 233 284 341
#     4   9  19  37  60  86 118 156 195 234 281 337
#
# _framework density 19.681032999999999
#
# number of rings (size 3 to 8) (size 9 to 14) (size 15 to 20)
#    0.000    2.250    1.250    2.625    0.000    5.000 
#    0.000    1.875    0.000    4.125    0.000    0.000 
#    0.000    0.000    0.000    0.000    0.000    0.000 
#
# Total GULP energy -793566.685118 kJ/mol
# GULP energy per Si atom -12399.479455 kJ/mol
# Density = 1.963624 g / cm^3
# Si number density = 19.681033 Si / 1000 Ang^3
#
#
#
# Elastic Constant Matrix: (Units=GPa)
#
#
# Indices 1 2 3 4 5 6 
#
# 1 93.6106 41.5599 58.0404 0.0000 0.0000 0.0000
# 2 41.5599 69.4506 38.2861 0.0000 0.0000 0.0000
# 3 58.0404 38.2861 138.4828 0.0000 0.0000 0.0000
# 4 0.0000 0.0000 0.0000 19.9830 0.0000 0.0000
# 5 0.0000 0.0000 0.0000 0.0000 38.5782 0.0000
# 6 0.0000 0.0000 0.0000 0.0000 0.0000 16.8181
#
#
#
# Elastic Compliance Matrix: (Units=1/GPa)
#
#
# Indices 1 2 3 4 5 6 
#
# 1 0.017174 -0.007444 -0.005140 0.000000 0.000000 0.000000
# 2 -0.007444 0.020214 -0.002469 0.000000 0.000000 0.000000
# 3 -0.005140 -0.002469 0.010058 0.000000 0.000000 0.000000
# 4 0.000000 0.000000 0.000000 0.050043 0.000000 0.000000
# 5 0.000000 0.000000 0.000000 0.000000 0.025921 0.000000
# 6 0.000000 0.000000 0.000000 0.000000 0.000000 0.059460
#
#
# Mechanical properties :
#
#
# Convention : Reuss Voigt Hill
#
# Bulk Modulus (GPa) = 57.66610 64.14630 60.90620
# Shear Modulus (GPa) = 22.85659 25.98636 24.42148
#
# Velocity S-wave (km/s) = 3.41156 3.63764 3.52641
# Velocity P-wave (km/s) = 6.69942 7.09274 6.89888
#
# Compressibility (1/GPa) = 0.01734121
#
# Stress axis : x y z
#
# Youngs Moduli (GPa) = 58.22683 49.47057 99.42391
#
# Poissons Ratio (x) = 0.36824 0.51105
# Poissons Ratio (y) = 0.43342 0.24546
# Poissons Ratio (z) = 0.29929 0.12213
#
# Static dielectric constant tensor:
#      x y z
#    x 3.585410 0.000000 0.000000 
#    y 0.000000 3.430320 0.000000 
#    z 0.000000 0.000000 3.782370 
# 
# 
# High freq. dielectric constant tensor:
#      x y z
#    x 1.755010 0.000000 0.000000 
#    y 0.000000 1.750120 0.000000 
#    z 0.000000 0.000000 1.781560 
# 
# From -- ./inp_files/22310.got.cif
#   From: 2010.03.12/outbox.cif.g09.slc.cpg/sg51_12_cif.got.tgz:22310.got - 2010.04.16 13:43:02.
