data_PCOD8209734
_publ_section_title
;
Structure prediction by ZEFSAII (Michael W. Deem and Ramdas Pophale) SiO2 
 PCOD8209734
Probable space group: P M M A
;
_chemical_formula_sum "Si O2"
_cell_formula_units_Z 56
_cell_length_a 14.795704
_cell_length_b 9.627750
_cell_length_c 21.683064
_cell_angle_alpha 90.000000
_cell_angle_beta 90.000000
_cell_angle_gamma 90.000000
_cell_volume 3088.738138
_symmetry_space_group_name_H-M "P M M A"
_symmetry_group_IT_number 51
_symmetry_cell_setting 'orthorhombic'
loop_
_space_group_symop_operation_xyz
x,y,z
1/2-x,-y,z
1/2+x,-y,-z
-x,y,-z
-x,-y,-z
1/2+x,y,-z
1/2-x,y,z
x,-y,z
loop_
_atom_site_type_symbol
_atom_site_label
_atom_site_fract_x
_atom_site_fract_y
_atom_site_fract_z
Si Si1 0.519882 0.837677 0.703112
Si Si2 0.750000 0.660315 0.016753
Si Si3 0.446997 0.660389 0.937647
Si Si4 0.250000 0.838855 0.105680
Si Si5 0.350189 0.842310 0.626796
Si Si6 0.649681 0.655448 0.623205
Si Si7 0.101936 0.340009 0.511956
Si Si8 0.056303 0.162963 0.158768
O O1 0.419081 0.798498 0.680902
O O2 0.588825 0.764925 0.657608
O O3 0.534427 0.784926 0.772465
O O4 0.540255 0.000000 0.699195
O O5 0.750000 0.500000 0.995668
O O6 0.659884 0.693594 0.056001
O O7 0.750000 0.751805 0.956149
O O8 0.462547 0.500000 0.919935
O O9 0.487438 0.756190 0.884787
O O10 0.500000 0.697327 0.000000
O O11 0.339109 0.800863 0.144920
O O12 0.250000 0.000000 0.087169
O O13 0.250000 0.826639 0.655040
O O14 0.356629 0.748690 0.566605
O O15 0.369903 0.000000 0.606029
O O16 0.750000 0.664890 0.651039
O O17 0.609476 0.500000 0.632140
O O18 0.656174 0.689566 0.550650
O O19 0.108339 0.500000 0.532286
O O20 0.000000 0.293394 0.500000
O O21 0.037357 0.000000 0.150405
#
# Coordination Sequence:
#
# PCOD8209734 Si02
#       8
#     8   4   8   4   8   8   8   8
#     4  10  22  39  57  78 109 148 185 225 271 322
#     4  10  20  36  58  86 116 144 179 222 273 324
#     4  10  20  36  59  84 112 145 180 223 271 320
#     4  10  20  34  56  84 114 144 179 222 267 324
#     4  10  21  37  57  80 107 142 187 233 276 327
#     4  10  21  36  54  80 111 141 177 224 276 330
#     4  10  19  34  57  81 108 140 177 226 280 331
#     4  10  22  38  56  82 114 148 185 225 270 322
#
# _framework density 18.130382000000001
#
# number of rings (size 3 to 8) (size 9 to 14) (size 15 to 20)
#    0.000    2.000    2.857    0.429    1.000    3.429 
#    1.286    0.000    0.000    0.000    0.000    0.000 
#    0.000    0.000    0.000    0.000    0.000    0.000 
#
# Total GULP energy -694449.787274 kJ/mol
# GULP energy per Si atom -12400.889058 kJ/mol
# Density = 1.808912 g / cm^3
# Si number density = 18.130382 Si / 1000 Ang^3
#
#
#
# Elastic Constant Matrix: (Units=GPa)
#
#
# Indices 1 2 3 4 5 6 
#
# 1 141.0518 45.3386 64.0979 0.0000 0.0000 0.0000
# 2 45.3386 52.6073 49.3906 0.0000 0.0000 0.0000
# 3 64.0979 49.3906 104.4960 0.0000 0.0000 0.0000
# 4 0.0000 0.0000 0.0000 -18.0569 0.0000 0.0000
# 5 0.0000 0.0000 0.0000 0.0000 2.6419 0.0000
# 6 0.0000 0.0000 0.0000 0.0000 0.0000 27.9595
#
#
#
# Elastic Compliance Matrix: (Units=1/GPa)
#
#
# Indices 1 2 3 4 5 6 
#
# 1 0.010638 -0.005469 -0.003941 0.000000 0.000000 0.000000
# 2 -0.005469 0.036984 -0.014126 0.000000 0.000000 0.000000
# 3 -0.003941 -0.014126 0.018664 0.000000 0.000000 0.000000
# 4 0.000000 0.000000 0.000000 -0.055381 0.000000 0.000000
# 5 0.000000 0.000000 0.000000 0.000000 0.378515 0.000000
# 6 0.000000 0.000000 0.000000 0.000000 0.000000 0.035766
#
#
# Mechanical properties :
#
#
# Convention : Reuss Voigt Hill
#
# Bulk Modulus (GPa) = 52.04251 68.42324 60.23288
# Shear Modulus (GPa) = 10.44575 11.79744 11.12160
#
# Velocity S-wave (km/s) = 2.40291 2.55365 2.47942
# Velocity P-wave (km/s) = 6.03867 6.82029 6.44134
#
# Compressibility (1/GPa) = 0.01921506
#
# Stress axis : x y z
#
# Youngs Moduli (GPa) = 94.00156 27.03843 53.57932
#
# Poissons Ratio (x) = 0.14786 0.21114
# Poissons Ratio (y) = 0.51405 0.75689
# Poissons Ratio (z) = 0.37043 0.38196
#
# Static dielectric constant tensor:
#      x y z
#    x 3.528330 0.000000 0.000000 
#    y 0.000000 3.318230 0.000000 
#    z 0.000000 0.000000 3.253500 
# 
# 
# High freq. dielectric constant tensor:
#      x y z
#    x 1.719150 0.000000 0.000000 
#    y 0.000000 1.699650 0.000000 
#    z 0.000000 0.000000 1.688850 
# 
# From -- ./inp_files/33558.got.cif
#   From: 2010.03.12/outbox.cif.g09.slc.cpg/sg51_17_cif.got.tgz:33558.got - 2010.04.16 13:43:02.
