data_PCOD8209075
_publ_section_title
;
Structure prediction by ZEFSAII (Michael W. Deem and Ramdas Pophale) SiO2 
 PCOD8209075
Probable space group: P M M A
;
_chemical_formula_sum "Si O2"
_cell_formula_units_Z 64
_cell_length_a 17.933482
_cell_length_b 8.990371
_cell_length_c 21.570180
_cell_angle_alpha 90.000000
_cell_angle_beta 90.000000
_cell_angle_gamma 90.000000
_cell_volume 3477.731142
_symmetry_space_group_name_H-M "P M M A"
_symmetry_group_IT_number 51
_symmetry_cell_setting 'orthorhombic'
loop_
_space_group_symop_operation_xyz
x,y,z
1/2-x,-y,z
1/2+x,-y,-z
-x,y,-z
-x,-y,-z
1/2+x,y,-z
1/2-x,y,z
x,-y,z
loop_
_atom_site_type_symbol
_atom_site_label
_atom_site_fract_x
_atom_site_fract_y
_atom_site_fract_z
Si Si1 0.835858 0.673908 0.505676
Si Si2 0.960783 0.172616 0.191083
Si Si3 0.332162 0.174449 0.723950
Si Si4 0.405283 0.674009 0.252464
Si Si5 0.968688 0.173946 0.935941
Si Si6 0.405584 0.175386 0.378355
Si Si7 0.422053 0.175723 0.604883
Si Si8 0.666160 0.326657 0.875295
O O1 0.750000 0.705185 0.488045
O O2 0.852411 0.500000 0.511136
O O3 0.853417 0.750202 0.570752
O O4 0.889249 0.743008 0.454365
O O5 0.876093 0.208471 0.211865
O O6 0.012357 0.273843 0.233882
O O7 0.972149 0.211126 0.118685
O O8 0.980721 0.000000 0.204495
O O9 0.250000 0.249255 0.727206
O O10 0.378409 0.235954 0.665359
O O11 0.323142 0.000000 0.715167
O O12 0.406316 0.500000 0.267495
O O13 0.377663 0.762773 0.312425
O O14 0.349772 0.713973 0.196201
O O15 0.888361 0.242355 0.921875
O O16 0.956178 0.000000 0.943187
O O17 0.000000 0.242142 0.000000
O O18 0.491602 0.219433 0.389182
O O19 0.393987 0.000000 0.380164
O O20 0.412416 0.000000 0.595991
O O21 0.750000 0.277588 0.891304
O O22 0.653333 0.500000 0.886035
#
# Coordination Sequence:
#
# PCOD8209075 Si02
#       8
#     8   8   8   8   8   8   8   8
#     4  11  25  41  54  74 106 140 174 216 267 318
#     4   9  16  31  51  73 105 139 176 217 256 312
#     4   9  16  28  50  77 101 130 169 214 263 310
#     4  10  19  32  53  79 106 138 173 216 270 319
#     4   9  18  32  52  79 110 145 183 224 266 309
#     4  11  22  37  58  82 105 135 177 220 264 319
#     4  10  20  36  57  78 101 132 175 221 261 314
#     4   9  19  35  54  78 108 143 184 225 265 316
#
# _framework density 18.402802000000001
#
# number of rings (size 3 to 8) (size 9 to 14) (size 15 to 20)
#    0.000    2.250    1.250    1.875    0.000    5.500 
#    0.000    1.875    0.000    2.625    0.000    0.000 
#    0.000    0.000    0.000    0.000    0.000    0.000 
#
# Total GULP energy -793621.292564 kJ/mol
# GULP energy per Si atom -12400.332696 kJ/mol
# Density = 1.836092 g / cm^3
# Si number density = 18.402802 Si / 1000 Ang^3
#
#
#
# Elastic Constant Matrix: (Units=GPa)
#
#
# Indices 1 2 3 4 5 6 
#
# 1 78.2241 25.8961 38.5006 0.0000 0.0000 0.0000
# 2 25.8961 44.1124 32.4851 0.0000 0.0000 0.0000
# 3 38.5006 32.4851 123.8097 0.0000 0.0000 0.0000
# 4 0.0000 0.0000 0.0000 23.8855 0.0000 0.0000
# 5 0.0000 0.0000 0.0000 0.0000 23.5692 0.0000
# 6 0.0000 0.0000 0.0000 0.0000 0.0000 24.6767
#
#
#
# Elastic Compliance Matrix: (Units=1/GPa)
#
#
# Indices 1 2 3 4 5 6 
#
# 1 0.016880 -0.007491 -0.003284 0.000000 0.000000 0.000000
# 2 -0.007491 0.031423 -0.005915 0.000000 0.000000 0.000000
# 3 -0.003284 -0.005915 0.010650 0.000000 0.000000 0.000000
# 4 0.000000 0.000000 0.000000 0.041866 0.000000 0.000000
# 5 0.000000 0.000000 0.000000 0.000000 0.042428 0.000000
# 6 0.000000 0.000000 0.000000 0.000000 0.000000 0.040524
#
#
# Mechanical properties :
#
#
# Convention : Reuss Voigt Hill
#
# Bulk Modulus (GPa) = 39.10376 48.87886 43.99131
# Shear Modulus (GPa) = 22.15564 24.37724 23.26644
#
# Velocity S-wave (km/s) = 3.47353 3.64352 3.55954
# Velocity P-wave (km/s) = 6.11409 6.65722 6.39143
#
# Compressibility (1/GPa) = 0.02557299
#
# Stress axis : x y z
#
# Youngs Moduli (GPa) = 59.24214 31.82364 93.89657
#
# Poissons Ratio (x) = 0.23840 0.30831
# Poissons Ratio (y) = 0.44380 0.55542
# Poissons Ratio (z) = 0.19452 0.18824
#
# Static dielectric constant tensor:
#      x y z
#    x 3.498810 0.000000 0.000000 
#    y 0.000000 3.264590 0.000000 
#    z 0.000000 0.000000 3.540560 
# 
# 
# High freq. dielectric constant tensor:
#      x y z
#    x 1.711390 0.000000 0.000000 
#    y 0.000000 1.700210 0.000000 
#    z 0.000000 0.000000 1.714470 
# 
# From -- ./inp_files/33958.got.cif
#   From: 2010.03.12/outbox.cif.g09.slc.cpg/sg51_17_cif.got.tgz:33958.got - 2010.04.16 13:43:02.
