data_PCOD8209468
_publ_section_title
;
Structure prediction by ZEFSAII (Michael W. Deem and Ramdas Pophale) SiO2 
 PCOD8209468
Probable space group: P M M A
;
_chemical_formula_sum "Si O2"
_cell_formula_units_Z 64
_cell_length_a 8.812549
_cell_length_b 19.577905
_cell_length_c 20.635699
_cell_angle_alpha 90.000000
_cell_angle_beta 90.000000
_cell_angle_gamma 90.000000
_cell_volume 3560.302884
_symmetry_space_group_name_H-M "P M M A"
_symmetry_group_IT_number 51
_symmetry_cell_setting 'orthorhombic'
loop_
_space_group_symop_operation_xyz
x,y,z
1/2-x,-y,z
1/2+x,-y,-z
-x,y,-z
-x,-y,-z
1/2+x,y,-z
1/2-x,y,z
x,-y,z
loop_
_atom_site_type_symbol
_atom_site_label
_atom_site_fract_x
_atom_site_fract_y
_atom_site_fract_z
Si Si1 0.929929 0.426059 0.241869
Si Si2 0.427611 0.790793 0.682607
Si Si3 0.069817 0.925951 0.128536
Si Si4 0.428544 0.708900 0.434590
Si Si5 0.073264 0.577288 0.611371
Si Si6 0.070550 0.788793 0.067313
Si Si7 0.072768 0.077204 0.275399
Si Si8 0.571404 0.286163 0.185643
O O1 0.750000 0.426136 0.244437
O O2 0.988219 0.500000 0.215228
O O3 0.986746 0.415413 0.315079
O O4 0.985467 0.363982 0.197033
O O5 0.250000 0.785197 0.669549
O O6 0.512077 0.749676 0.627126
O O7 0.479840 0.869757 0.680528
O O8 0.472004 0.758908 0.752030
O O9 0.250000 0.925357 0.129791
O O10 0.007866 0.865145 0.083350
O O11 0.012565 0.915168 0.201827
O O12 0.011594 0.000000 0.102580
O O13 0.500000 0.740613 0.500000
O O14 0.250000 0.715927 0.438358
O O15 0.475624 0.629275 0.431279
O O16 0.250000 0.597475 0.606384
O O17 0.046559 0.500000 0.586452
O O18 0.250000 0.787812 0.061539
O O19 0.020656 0.738028 0.123577
O O20 0.000000 0.763970 0.000000
O O21 0.250000 0.094997 0.279894
O O22 0.042218 0.000000 0.300223
O O23 0.750000 0.282022 0.171311
#
# Coordination Sequence:
#
# PCOD8209468 Si02
#       8
#     8   8   8   8   8   8   8   8
#     4   8  14  28  53  81 107 136 171 215 267 319
#     4  11  21  35  57  84 113 142 181 228 275 325
#     4   8  15  29  49  73 103 139 177 216 258 310
#     4  12  25  39  56  78 111 149 190 231 276 327
#     4   9  17  33  56  81 112 148 184 221 268 325
#     4  11  22  35  52  74 106 143 182 222 270 321
#     4   9  17  32  55  82 111 143 181 222 268 321
#     4  10  19  33  55  81 108 138 177 221 267 322
#
# _framework density 17.975999000000002
#
# number of rings (size 3 to 8) (size 9 to 14) (size 15 to 20)
#    0.000    2.250    2.500    3.375    0.000    1.500 
#    0.000    0.000    0.000    2.250    0.000    0.000 
#    0.000    0.000    0.000    0.000    0.000    0.000 
#
# Total GULP energy -793426.523567 kJ/mol
# GULP energy per Si atom -12397.289431 kJ/mol
# Density = 1.793508 g / cm^3
# Si number density = 17.975999 Si / 1000 Ang^3
#
#
#
# Elastic Constant Matrix: (Units=GPa)
#
#
# Indices 1 2 3 4 5 6 
#
# 1 74.8292 39.7558 43.5406 0.0000 0.0000 0.0000
# 2 39.7558 113.9388 47.6071 0.0000 0.0000 0.0000
# 3 43.5406 47.6071 92.7981 0.0000 0.0000 0.0000
# 4 0.0000 0.0000 0.0000 16.8877 0.0000 0.0000
# 5 0.0000 0.0000 0.0000 0.0000 24.3636 0.0000
# 6 0.0000 0.0000 0.0000 0.0000 0.0000 27.0954
#
#
#
# Elastic Compliance Matrix: (Units=1/GPa)
#
#
# Indices 1 2 3 4 5 6 
#
# 1 0.019604 -0.003815 -0.007241 0.000000 0.000000 0.000000
# 2 -0.003815 0.011914 -0.004322 0.000000 0.000000 0.000000
# 3 -0.007241 -0.004322 0.016391 0.000000 0.000000 0.000000
# 4 0.000000 0.000000 0.000000 0.059215 0.000000 0.000000
# 5 0.000000 0.000000 0.000000 0.000000 0.041045 0.000000
# 6 0.000000 0.000000 0.000000 0.000000 0.000000 0.036907
#
#
# Mechanical properties :
#
#
# Convention : Reuss Voigt Hill
#
# Bulk Modulus (GPa) = 58.29994 60.37478 59.33736
# Shear Modulus (GPa) = 22.56854 23.71352 23.14103
#
# Velocity S-wave (km/s) = 3.54712 3.63599 3.59183
# Velocity P-wave (km/s) = 7.01987 7.16146 7.09102
#
# Compressibility (1/GPa) = 0.01715268
#
# Stress axis : x y z
#
# Youngs Moduli (GPa) = 51.01067 83.93805 61.00972
#
# Poissons Ratio (x) = 0.32019 0.44177
# Poissons Ratio (y) = 0.19459 0.26369
# Poissons Ratio (z) = 0.36937 0.36278
#
# Static dielectric constant tensor:
#      x y z
#    x 3.041070 0.000000 0.000000 
#    y 0.000000 3.787680 0.000000 
#    z 0.000000 0.000000 3.143610 
# 
# 
# High freq. dielectric constant tensor:
#      x y z
#    x 1.674730 0.000000 0.000000 
#    y 0.000000 1.703940 0.000000 
#    z 0.000000 0.000000 1.672260 
# 
# From -- ./inp_files/28413.got.cif
#   From: 2010.03.12/outbox.cif.g09.slc.cpg/sg51_15_cif.got.tgz:28413.got - 2010.04.16 13:43:02.
