data_PCOD8209481
_publ_section_title
;
Structure prediction by ZEFSAII (Michael W. Deem and Ramdas Pophale) SiO2 
 PCOD8209481
Probable space group: P M M A
;
_chemical_formula_sum "Si O2"
_cell_formula_units_Z 64
_cell_length_a 9.208633
_cell_length_b 25.327637
_cell_length_c 14.357818
_cell_angle_alpha 90.000000
_cell_angle_beta 90.000000
_cell_angle_gamma 90.000000
_cell_volume 3348.715729
_symmetry_space_group_name_H-M "P M M A"
_symmetry_group_IT_number 51
_symmetry_cell_setting 'orthorhombic'
loop_
_space_group_symop_operation_xyz
x,y,z
1/2-x,-y,z
1/2+x,-y,-z
-x,y,-z
-x,-y,-z
1/2+x,y,-z
1/2-x,y,z
x,-y,z
loop_
_atom_site_type_symbol
_atom_site_label
_atom_site_fract_x
_atom_site_fract_y
_atom_site_fract_z
Si Si1 0.078672 0.653774 0.098228
Si Si2 0.413162 0.937215 0.411879
Si Si3 0.920418 0.404956 0.408181
Si Si4 0.916812 0.282831 0.411087
Si Si5 0.585081 0.440674 0.768505
Si Si6 0.919365 0.060362 0.228887
Si Si7 0.582376 0.848515 0.094888
Si Si8 0.918928 0.255295 0.207522
O O1 0.250000 0.661007 0.083001
O O2 0.039647 0.599190 0.149668
O O3 0.020304 0.702065 0.158886
O O4 0.000000 0.653485 0.000000
O O5 0.500000 0.913664 0.500000
O O6 0.250000 0.914451 0.412604
O O7 0.492623 0.919216 0.317989
O O8 0.410969 0.000000 0.418022
O O9 0.750000 0.415397 0.417936
O O10 0.959101 0.343641 0.394573
O O11 0.000000 0.427144 0.500000
O O12 0.979189 0.435697 0.319035
O O13 0.750000 0.276785 0.436080
O O14 0.957909 0.251717 0.317014
O O15 0.000000 0.258747 0.500000
O O16 0.750000 0.428584 0.736110
O O17 0.570927 0.500000 0.808397
O O18 0.750000 0.066991 0.252804
O O19 0.965344 0.096207 0.141430
O O20 0.957873 0.000000 0.203405
O O21 0.750000 0.849542 0.069024
O O22 0.545915 0.801713 0.165874
O O23 0.500000 0.838872 0.000000
O O24 0.750000 0.271441 0.194123
#
# Coordination Sequence:
#
# PCOD8209481 Si02
#       8
#     8   8   8   8   8   8   8   8
#     4  11  23  38  59  83 107 139 181 227 277 328
#     4   9  16  27  47  76 107 141 181 223 266 315
#     4  10  19  33  55  82 111 145 183 222 268 321
#     4   9  18  32  54  82 111 141 174 215 262 316
#     4  10  22  39  56  78 110 145 183 227 271 320
#     4   9  18  34  54  77 108 147 187 226 272 326
#     4  10  22  38  57  80 109 143 181 229 280 326
#     4  10  20  38  60  83 112 143 179 223 271 324
#
# _framework density 19.111802999999998
#
# number of rings (size 3 to 8) (size 9 to 14) (size 15 to 20)
#    0.000    2.250    1.250    1.500    0.000    6.000 
#    0.000    0.625    0.000    1.500    0.000    0.000 
#    0.000    0.000    0.000    0.000    0.000    0.000 
#
# Total GULP energy -793733.935229 kJ/mol
# GULP energy per Si atom -12402.092738 kJ/mol
# Density = 1.906830 g / cm^3
# Si number density = 19.111803 Si / 1000 Ang^3
#
#
#
# Elastic Constant Matrix: (Units=GPa)
#
#
# Indices 1 2 3 4 5 6 
#
# 1 85.1974 40.2974 62.2748 0.0000 0.0000 0.0000
# 2 40.2974 86.9334 57.4099 0.0000 0.0000 0.0000
# 3 62.2748 57.4099 146.3037 0.0000 0.0000 0.0000
# 4 0.0000 0.0000 0.0000 4.2880 0.0000 0.0000
# 5 0.0000 0.0000 0.0000 0.0000 37.2812 0.0000
# 6 0.0000 0.0000 0.0000 0.0000 0.0000 18.3407
#
#
#
# Elastic Compliance Matrix: (Units=1/GPa)
#
#
# Indices 1 2 3 4 5 6 
#
# 1 0.018253 -0.004495 -0.006006 0.000000 0.000000 0.000000
# 2 -0.004495 0.016634 -0.004614 0.000000 0.000000 0.000000
# 3 -0.006006 -0.004614 0.011202 0.000000 0.000000 0.000000
# 4 0.000000 0.000000 0.000000 0.233207 0.000000 0.000000
# 5 0.000000 0.000000 0.000000 0.000000 0.026823 0.000000
# 6 0.000000 0.000000 0.000000 0.000000 0.000000 0.054523
#
#
# Mechanical properties :
#
#
# Convention : Reuss Voigt Hill
#
# Bulk Modulus (GPa) = 63.05256 70.93320 66.99288
# Shear Modulus (GPa) = 12.62121 22.54548 17.58335
#
# Velocity S-wave (km/s) = 2.57259 3.43835 3.03648
# Velocity P-wave (km/s) = 6.47204 7.27725 6.88643
#
# Compressibility (1/GPa) = 0.01585978
#
# Stress axis : x y z
#
# Youngs Moduli (GPa) = 54.78402 60.11931 89.27049
#
# Poissons Ratio (x) = 0.27024 0.53614
# Poissons Ratio (y) = 0.24626 0.41187
# Poissons Ratio (z) = 0.32902 0.27737
#
# Static dielectric constant tensor:
#      x y z
#    x 3.553970 0.000000 0.000000 
#    y 0.000000 3.384940 0.000000 
#    z 0.000000 0.000000 3.547620 
# 
# 
# High freq. dielectric constant tensor:
#      x y z
#    x 1.744850 0.000000 0.000000 
#    y 0.000000 1.726530 0.000000 
#    z 0.000000 0.000000 1.748460 
# 
# From -- ./inp_files/22205.got.cif
#   From: 2010.03.12/outbox.cif.g09.slc.cpg/sg51_12_cif.got.tgz:22205.got - 2010.04.16 13:43:02.
