data_PCOD8209292
_publ_section_title
;
Structure prediction by ZEFSAII (Michael W. Deem and Ramdas Pophale) SiO2 
 PCOD8209292
Probable space group: P M M A
;
_chemical_formula_sum "Si O2"
_cell_formula_units_Z 48
_cell_length_a 30.847786
_cell_length_b 8.644669
_cell_length_c 9.845487
_cell_angle_alpha 90.000000
_cell_angle_beta 90.000000
_cell_angle_gamma 90.000000
_cell_volume 2625.485182
_symmetry_space_group_name_H-M "P M M A"
_symmetry_group_IT_number 51
_symmetry_cell_setting 'orthorhombic'
loop_
_space_group_symop_operation_xyz
x,y,z
1/2-x,-y,z
1/2+x,-y,-z
-x,y,-z
-x,-y,-z
1/2+x,y,-z
1/2-x,y,z
x,-y,z
loop_
_atom_site_type_symbol
_atom_site_label
_atom_site_fract_x
_atom_site_fract_y
_atom_site_fract_z
Si Si1 0.636058 0.320784 0.630712
Si Si2 0.136793 0.183977 0.662310
Si Si3 0.700147 0.679052 0.122432
Si Si4 0.543415 0.826690 0.337513
Si Si5 0.950841 0.824942 0.659634
Si Si6 0.699343 0.821850 0.839888
O O1 0.635945 0.500000 0.592411
O O2 0.644157 0.222378 0.495326
O O3 0.590292 0.277397 0.704048
O O4 0.674497 0.285448 0.734171
O O5 0.172970 0.269679 0.747981
O O6 0.089050 0.246487 0.713758
O O7 0.140257 0.000000 0.680175
O O8 0.750000 0.712591 0.158350
O O9 0.692173 0.500000 0.090361
O O10 0.685301 0.776857 0.992052
O O11 0.497373 0.750119 0.289718
O O12 0.546940 0.828145 0.498571
O O13 0.540823 0.000000 0.281908
O O14 0.944790 0.000000 0.715119
O O15 0.750000 0.789416 0.819024
O O16 0.687336 0.000000 0.814636
#
# Coordination Sequence:
#
# PCOD8209292 Si02
#       6
#     8   8   8   8   8   8
#     4  11  21  32  49  77 109 136 165 207 258 299
#     4  10  19  33  53  77 104 135 173 211 247 292
#     4  10  21  37  55  76 103 133 164 203 255 308
#     4   7  12  24  45  70  96 129 167 206 244 286
#     4   8  13  26  46  68  97 132 168 203 243 294
#     4  10  21  38  58  76  95 128 173 211 247 301
#
# _framework density 18.282333999999999
#
# number of rings (size 3 to 8) (size 9 to 14) (size 15 to 20)
#    0.000    2.667    0.000    5.000    0.000    2.667 
#    0.000    7.500    0.000    1.000    0.000    7.000 
#    0.000    0.000    0.000    0.000    0.000    0.000 
#
# Total GULP energy -594703.370253 kJ/mol
# GULP energy per Si atom -12389.653547 kJ/mol
# Density = 1.824072 g / cm^3
# Si number density = 18.282334 Si / 1000 Ang^3
#
#
#
# Elastic Constant Matrix: (Units=GPa)
#
#
# Indices 1 2 3 4 5 6 
#
# 1 109.3834 29.7412 45.2204 0.0000 0.0000 0.0000
# 2 29.7412 53.7096 5.9918 0.0000 0.0000 0.0000
# 3 45.2204 5.9918 47.1659 0.0000 0.0000 0.0000
# 4 0.0000 0.0000 0.0000 24.3108 0.0000 0.0000
# 5 0.0000 0.0000 0.0000 0.0000 -0.7728 0.0000
# 6 0.0000 0.0000 0.0000 0.0000 0.0000 19.1629
#
#
#
# Elastic Compliance Matrix: (Units=1/GPa)
#
#
# Indices 1 2 3 4 5 6 
#
# 1 0.018131 -0.008217 -0.016340 0.000000 0.000000 0.000000
# 2 -0.008217 0.022610 0.005006 0.000000 0.000000 0.000000
# 3 -0.016340 0.005006 0.036231 0.000000 0.000000 0.000000
# 4 0.000000 0.000000 0.000000 0.041134 0.000000 0.000000
# 5 0.000000 0.000000 0.000000 0.000000 -1.294009 0.000000
# 6 0.000000 0.000000 0.000000 0.000000 0.000000 0.052184
#
#
# Mechanical properties :
#
#
# Convention : Reuss Voigt Hill
#
# Bulk Modulus (GPa) = 26.40515 41.35174 33.87845
# Shear Modulus (GPa) = -4.66422 17.16056 6.24817
#
# Velocity S-wave (km/s) = -1.59898 3.06705 1.85068
# Velocity P-wave (km/s) = 3.32646 5.93379 4.81016
#
# Compressibility (1/GPa) = 0.03787139
#
# Stress axis : x y z
#
# Youngs Moduli (GPa) = 55.15293 44.22741 27.60033
#
# Poissons Ratio (x) = 0.36343 0.45098
# Poissons Ratio (y) = 0.45320 -0.13817
# Poissons Ratio (z) = 0.90118 -0.22140
#
# Static dielectric constant tensor:
#      x y z
#    x 4.070680 0.000000 0.000000 
#    y 0.000000 3.236840 0.000000 
#    z 0.000000 0.000000 2.923190 
# 
# 
# High freq. dielectric constant tensor:
#      x y z
#    x 1.732020 0.000000 0.000000 
#    y 0.000000 1.695220 0.000000 
#    z 0.000000 0.000000 1.660870 
# 
# From -- ./inp_files/12845.got.cif
#   From: 2010.03.12/outbox.cif.g09.slc.cpg/sg51_7_cif.got.tgz:12845.got - 2010.04.16 13:43:02.
