data_PCOD8209317
_publ_section_title
;
Structure prediction by ZEFSAII (Michael W. Deem and Ramdas Pophale) SiO2 
 PCOD8209317
Probable space group: P M M A
;
_chemical_formula_sum "Si O2"
_cell_formula_units_Z 64
_cell_length_a 9.216840
_cell_length_b 22.159771
_cell_length_c 16.148691
_cell_angle_alpha 90.000000
_cell_angle_beta 90.000000
_cell_angle_gamma 90.000000
_cell_volume 3298.258125
_symmetry_space_group_name_H-M "P M M A"
_symmetry_group_IT_number 51
_symmetry_cell_setting 'orthorhombic'
loop_
_space_group_symop_operation_xyz
x,y,z
1/2-x,-y,z
1/2+x,-y,-z
-x,y,-z
-x,-y,-z
1/2+x,y,-z
1/2-x,y,z
x,-y,z
loop_
_atom_site_type_symbol
_atom_site_label
_atom_site_fract_x
_atom_site_fract_y
_atom_site_fract_z
Si Si1 0.079220 0.568742 0.240848
Si Si2 0.912030 0.223052 0.867494
Si Si3 0.080105 0.932475 0.257340
Si Si4 0.921470 0.182543 0.287271
Si Si5 0.919908 0.356693 0.917542
Si Si6 0.413585 0.251622 0.422020
Si Si7 0.587233 0.394552 0.579766
Si Si8 0.590321 0.904611 0.925135
O O1 0.250000 0.579548 0.246244
O O2 0.038320 0.500000 0.220058
O O3 0.018708 0.609978 0.165316
O O4 0.014993 0.586022 0.331864
O O5 0.750000 0.229046 0.826151
O O6 0.954020 0.285643 0.910546
O O7 0.907626 0.168404 0.932985
O O8 0.036667 0.204504 0.803700
O O9 0.250000 0.915544 0.263799
O O10 0.026984 0.927320 0.162371
O O11 0.986846 0.883846 0.308978
O O12 0.050152 0.000000 0.291064
O O13 0.750000 0.181242 0.299416
O O14 0.995000 0.232499 0.343479
O O15 0.750000 0.370125 0.928337
O O16 0.000000 0.381256 0.000000
O O17 0.500000 0.224960 0.500000
O O18 0.250000 0.225318 0.420652
O O19 0.409140 0.323088 0.423984
O O20 0.500000 0.420245 0.500000
O O21 0.750000 0.421096 0.573544
O O22 0.750000 0.931605 0.934416
O O23 0.500000 0.932728 0.000000
#
# Coordination Sequence:
#
# PCOD8209317 Si02
#       8
#     8   8   8   8   8   8   8   8
#     4   9  18  33  52  74 103 142 183 217 258 319
#     4   9  18  33  50  69  97 132 169 208 258 319
#     4   9  19  36  53  68  93 134 177 210 246 295
#     4  11  21  32  51  79 106 132 166 210 258 304
#     4  10  20  34  53  75 100 135 179 227 276 322
#     4  10  19  33  53  78 108 137 166 201 248 306
#     4   9  18  33  55  81 108 138 171 210 257 313
#     4   9  17  28  44  67  94 123 156 199 249 300
#
# _framework density 19.404183
#
# number of rings (size 3 to 8) (size 9 to 14) (size 15 to 20)
#    0.000    2.500    0.000    3.375    0.000    6.000 
#    0.000    0.625    0.000    1.125    0.000    0.000 
#    0.000    0.000    0.000    0.000    0.000    0.000 
#
# Total GULP energy -793223.879315 kJ/mol
# GULP energy per Si atom -12394.123114 kJ/mol
# Density = 1.936002 g / cm^3
# Si number density = 19.404183 Si / 1000 Ang^3
#
#
#
# Elastic Constant Matrix: (Units=GPa)
#
#
# Indices 1 2 3 4 5 6 
#
# 1 86.6732 19.4668 31.9645 0.0000 0.0000 0.0000
# 2 19.4668 54.1182 22.3858 0.0000 0.0000 0.0000
# 3 31.9645 22.3858 91.6480 0.0000 0.0000 0.0000
# 4 0.0000 0.0000 0.0000 11.1172 0.0000 0.0000
# 5 0.0000 0.0000 0.0000 0.0000 34.0834 0.0000
# 6 0.0000 0.0000 0.0000 0.0000 0.0000 14.5442
#
#
#
# Elastic Compliance Matrix: (Units=1/GPa)
#
#
# Indices 1 2 3 4 5 6 
#
# 1 0.013749 -0.003295 -0.003991 0.000000 0.000000 0.000000
# 2 -0.003295 0.021345 -0.004064 0.000000 0.000000 0.000000
# 3 -0.003991 -0.004064 0.013296 0.000000 0.000000 0.000000
# 4 0.000000 0.000000 0.000000 0.089951 0.000000 0.000000
# 5 0.000000 0.000000 0.000000 0.000000 0.029340 0.000000
# 6 0.000000 0.000000 0.000000 0.000000 0.000000 0.068756
#
#
# Mechanical properties :
#
#
# Convention : Reuss Voigt Hill
#
# Bulk Modulus (GPa) = 38.92599 42.23041 40.57820
# Shear Modulus (GPa) = 18.67766 22.52377 20.60071
#
# Velocity S-wave (km/s) = 3.10588 3.41070 3.26185
# Velocity P-wave (km/s) = 5.74162 6.10912 5.92821
#
# Compressibility (1/GPa) = 0.02568978
#
# Stress axis : x y z
#
# Youngs Moduli (GPa) = 72.73060 46.85032 75.21123
#
# Poissons Ratio (x) = 0.15438 0.30014
# Poissons Ratio (y) = 0.23965 0.30569
# Poissons Ratio (z) = 0.29024 0.19042
#
# Static dielectric constant tensor:
#      x y z
#    x 3.870930 0.000000 0.000000 
#    y 0.000000 3.521220 0.000000 
#    z 0.000000 0.000000 3.545770 
# 
# 
# High freq. dielectric constant tensor:
#      x y z
#    x 1.732410 0.000000 0.000000 
#    y 0.000000 1.752430 0.000000 
#    z 0.000000 0.000000 1.741390 
# 
# From -- ./inp_files/22316.got.cif
#   From: 2010.03.12/outbox.cif.g09.slc.cpg/sg51_12_cif.got.tgz:22316.got - 2010.04.16 13:43:02.
