data_PCOD8209351
_publ_section_title
;
Structure prediction by ZEFSAII (Michael W. Deem and Ramdas Pophale) SiO2 
 PCOD8209351
Probable space group: P M M A
;
_chemical_formula_sum "Si O2"
_cell_formula_units_Z 48
_cell_length_a 9.642368
_cell_length_b 7.866094
_cell_length_c 33.811094
_cell_angle_alpha 90.000000
_cell_angle_beta 90.000000
_cell_angle_gamma 90.000000
_cell_volume 2564.496185
_symmetry_space_group_name_H-M "P M M A"
_symmetry_group_IT_number 51
_symmetry_cell_setting 'orthorhombic'
loop_
_space_group_symop_operation_xyz
x,y,z
1/2-x,-y,z
1/2+x,-y,-z
-x,y,-z
-x,-y,-z
1/2+x,y,-z
1/2-x,y,z
x,-y,z
loop_
_atom_site_type_symbol
_atom_site_label
_atom_site_fract_x
_atom_site_fract_y
_atom_site_fract_z
Si Si1 0.596257 0.306788 0.324538
Si Si2 0.593283 0.805927 0.743746
Si Si3 0.911242 0.000000 0.039202
Si Si4 0.085934 0.187274 0.593108
Si Si5 0.093253 0.699082 0.171265
Si Si6 0.589053 0.695155 0.097110
Si Si7 0.916006 0.500000 0.459814
O O1 0.750000 0.235023 0.314199
O O2 0.608341 0.500000 0.338317
O O3 0.501865 0.298310 0.285901
O O4 0.528709 0.209154 0.362058
O O5 0.750000 0.733952 0.741392
O O6 0.539144 0.787678 0.788693
O O7 0.586944 0.000000 0.730507
O O8 0.949458 0.827208 0.062610
O O9 0.750000 0.000000 0.027901
O O10 0.000000 0.000000 0.000000
O O11 0.250000 0.205458 0.596014
O O12 0.031822 0.332411 0.563598
O O13 0.041206 0.000000 0.577433
O O14 0.250000 0.757443 0.161255
O O15 0.084860 0.500000 0.178423
O O16 0.995771 0.755068 0.135367
O O17 0.750000 0.708880 0.108149
O O18 0.551178 0.500000 0.084559
O O19 0.750000 0.500000 0.467163
O O20 0.000000 0.500000 0.500000
#
# Coordination Sequence:
#
# PCOD8209351 Si02
#       7
#     8   8   4   8   8   8   4
#     4  10  19  33  54  78 102 134 182 229 267 316
#     4  10  21  34  48  73 109 145 179 220 269 320
#     4  10  22  38  56  82 110 138 174 218 268 320
#     4   9  17  32  55  79 105 138 174 217 267 317
#     4   9  18  33  52  74 101 136 178 217 259 313
#     4   9  19  36  56  78 107 140 174 217 266 313
#     4  10  20  36  56  80 108 138 176 218 266 324
#
# _framework density 18.717127000000001
#
# number of rings (size 3 to 8) (size 9 to 14) (size 15 to 20)
#    0.000    2.500    0.833    1.000    1.167    4.000 
#    0.000    2.500    0.000    1.000    0.000    0.000 
#    0.000    0.000    0.000    0.000    0.000    0.000 
#
# Total GULP energy -595086.290068 kJ/mol
# GULP energy per Si atom -12397.631043 kJ/mol
# Density = 1.867453 g / cm^3
# Si number density = 18.717127 Si / 1000 Ang^3
#
#
#
# Elastic Constant Matrix: (Units=GPa)
#
#
# Indices 1 2 3 4 5 6 
#
# 1 57.5154 31.3215 64.7299 0.0000 0.0000 0.0000
# 2 31.3215 107.5954 63.8307 0.0000 0.0000 0.0000
# 3 64.7299 63.8307 149.2729 0.0000 0.0000 0.0000
# 4 0.0000 0.0000 0.0000 26.7117 0.0000 0.0000
# 5 0.0000 0.0000 0.0000 0.0000 37.0535 0.0000
# 6 0.0000 0.0000 0.0000 0.0000 0.0000 17.7593
#
#
#
# Elastic Compliance Matrix: (Units=1/GPa)
#
#
# Indices 1 2 3 4 5 6 
#
# 1 0.034152 -0.001549 -0.014147 0.000000 0.000000 0.000000
# 2 -0.001549 0.012523 -0.004683 0.000000 0.000000 0.000000
# 3 -0.014147 -0.004683 0.014836 0.000000 0.000000 0.000000
# 4 0.000000 0.000000 0.000000 0.037437 0.000000 0.000000
# 5 0.000000 0.000000 0.000000 0.000000 0.026988 0.000000
# 6 0.000000 0.000000 0.000000 0.000000 0.000000 0.056308
#
#
# Mechanical properties :
#
#
# Convention : Reuss Voigt Hill
#
# Bulk Modulus (GPa) = 48.18653 70.46088 59.32370
# Shear Modulus (GPa) = 21.74656 26.60501 24.17578
#
# Velocity S-wave (km/s) = 3.41230 3.77427 3.59784
# Velocity P-wave (km/s) = 6.42849 7.53129 7.00164
#
# Compressibility (1/GPa) = 0.02075269
#
# Stress axis : x y z
#
# Youngs Moduli (GPa) = 29.28109 79.85016 67.40148
#
# Poissons Ratio (x) = 0.12369 0.95353
# Poissons Ratio (y) = 0.04536 0.31567
# Poissons Ratio (z) = 0.41424 0.37397
#
# Static dielectric constant tensor:
#      x y z
#    x 3.228420 0.000000 0.000000 
#    y 0.000000 3.642680 0.000000 
#    z 0.000000 0.000000 3.304610 
# 
# 
# High freq. dielectric constant tensor:
#      x y z
#    x 1.699030 0.000000 0.000000 
#    y 0.000000 1.739840 0.000000 
#    z 0.000000 0.000000 1.720910 
# 
# From -- ./inp_files/37174.got.cif
#   From: 2010.03.12/outbox.cif.g09.slc.cpg/sg51_19_cif.got.tgz:37174.got - 2010.04.16 13:43:02.
