data_PCOD8209457
_publ_section_title
;
Structure prediction by ZEFSAII (Michael W. Deem and Ramdas Pophale) SiO2 
 PCOD8209457
Probable space group: P M M A
;
_chemical_formula_sum "Si O2"
_cell_formula_units_Z 64
_cell_length_a 32.784326
_cell_length_b 9.042974
_cell_length_c 11.485514
_cell_angle_alpha 90.000000
_cell_angle_beta 90.000000
_cell_angle_gamma 90.000000
_cell_volume 3405.085155
_symmetry_space_group_name_H-M "P M M A"
_symmetry_group_IT_number 51
_symmetry_cell_setting 'orthorhombic'
loop_
_space_group_symop_operation_xyz
x,y,z
1/2-x,-y,z
1/2+x,-y,-z
-x,y,-z
-x,-y,-z
1/2+x,y,-z
1/2-x,y,z
x,-y,z
loop_
_atom_site_type_symbol
_atom_site_label
_atom_site_fract_x
_atom_site_fract_y
_atom_site_fract_z
Si Si1 0.202246 0.164753 0.513527
Si Si2 0.645671 0.330517 0.652133
Si Si3 0.444535 0.673759 0.737647
Si Si4 0.938452 0.330561 0.527185
Si Si5 0.870172 0.674982 0.100930
Si Si6 0.475308 0.826814 0.263273
Si Si7 0.203239 0.173756 0.777418
Si Si8 0.108307 0.826074 0.138985
O O1 0.250000 0.159863 0.493247
O O2 0.184589 0.278292 0.420258
O O3 0.192754 0.218708 0.644685
O O4 0.183943 0.000000 0.494393
O O5 0.651469 0.500000 0.690043
O O6 0.607493 0.308328 0.568116
O O7 0.640991 0.231744 0.767256
O O8 0.451396 0.500000 0.749109
O O9 0.439955 0.726172 0.604636
O O10 0.403928 0.723358 0.804777
O O11 0.484043 0.755067 0.792179
O O12 0.952559 0.500000 0.537504
O O13 0.969082 0.236735 0.606759
O O14 0.867018 0.500000 0.088571
O O15 0.826127 0.736637 0.137007
O O16 0.883921 0.743153 0.980000
O O17 0.437264 0.785309 0.181210
O O18 0.481309 0.000000 0.272864
O O19 0.250000 0.216040 0.807065
O O20 0.196419 0.000000 0.795846
O O21 0.114263 0.000000 0.122498
#
# Coordination Sequence:
#
# PCOD8209457 Si02
#       8
#     8   8   8   8   8   8   8   8
#     4   9  18  33  54  82 115 146 174 208 258 322
#     4  10  19  33  55  80 106 138 178 223 268 315
#     4  10  21  35  52  77 110 144 175 214 268 325
#     4   9  18  33  52  75 106 141 173 211 267 328
#     4  11  23  38  57  82 109 140 184 230 270 316
#     4  10  21  35  53  78 105 137 180 226 268 313
#     4   9  19  37  60  85 114 147 178 211 261 321
#     4  10  22  40  57  74 103 143 184 226 273 322
#
# _framework density 18.795418000000002
#
# number of rings (size 3 to 8) (size 9 to 14) (size 15 to 20)
#    0.000    2.250    0.000    3.375    0.000    7.500 
#    0.000    4.375    0.000    3.750    0.000    0.000 
#    0.000    0.000    0.000    0.000    0.000    0.000 
#
# Total GULP energy -793769.513020 kJ/mol
# GULP energy per Si atom -12402.648641 kJ/mol
# Density = 1.875264 g / cm^3
# Si number density = 18.795418 Si / 1000 Ang^3
#
#
#
# Elastic Constant Matrix: (Units=GPa)
#
#
# Indices 1 2 3 4 5 6 
#
# 1 91.0435 52.8346 67.4504 0.0000 0.0000 0.0000
# 2 52.8346 73.4360 54.9283 0.0000 0.0000 0.0000
# 3 67.4504 54.9283 116.5215 0.0000 0.0000 0.0000
# 4 0.0000 0.0000 0.0000 29.2464 0.0000 0.0000
# 5 0.0000 0.0000 0.0000 0.0000 21.3064 0.0000
# 6 0.0000 0.0000 0.0000 0.0000 0.0000 34.5749
#
#
#
# Elastic Compliance Matrix: (Units=1/GPa)
#
#
# Indices 1 2 3 4 5 6 
#
# 1 0.023425 -0.010366 -0.008674 0.000000 0.000000 0.000000
# 2 -0.010366 0.025621 -0.006077 0.000000 0.000000 0.000000
# 3 -0.008674 -0.006077 0.016468 0.000000 0.000000 0.000000
# 4 0.000000 0.000000 0.000000 0.034192 0.000000 0.000000
# 5 0.000000 0.000000 0.000000 0.000000 0.046934 0.000000
# 6 0.000000 0.000000 0.000000 0.000000 0.000000 0.028923
#
#
# Mechanical properties :
#
#
# Convention : Reuss Voigt Hill
#
# Bulk Modulus (GPa) = 65.44344 70.15863 67.80103
# Shear Modulus (GPa) = 21.65535 24.07806 22.86671
#
# Velocity S-wave (km/s) = 3.39803 3.58307 3.49178
# Velocity P-wave (km/s) = 7.09154 7.38420 7.23935
#
# Compressibility (1/GPa) = 0.01528037
#
# Stress axis : x y z
#
# Youngs Moduli (GPa) = 42.68889 39.03073 60.72499
#
# Poissons Ratio (x) = 0.40459 0.52670
# Poissons Ratio (y) = 0.44252 0.36903
# Poissons Ratio (z) = 0.37026 0.23719
#
# Static dielectric constant tensor:
#      x y z
#    x 3.457930 0.000000 0.000000 
#    y 0.000000 3.446980 0.000000 
#    z 0.000000 0.000000 3.423450 
# 
# 
# High freq. dielectric constant tensor:
#      x y z
#    x 1.732250 0.000000 0.000000 
#    y 0.000000 1.731700 0.000000 
#    z 0.000000 0.000000 1.722390 
# 
# From -- ./inp_files/19656.got.cif
#   From: 2010.03.12/outbox.cif.g09.slc.cpg/sg51_10_cif.got.tgz:19656.got - 2010.04.16 13:43:02.
