data_PCOD8209521
_publ_section_title
;
Structure prediction by ZEFSAII (Michael W. Deem and Ramdas Pophale) SiO2 
 PCOD8209521
Probable space group: P M M A
;
_chemical_formula_sum "Si O2"
_cell_formula_units_Z 48
_cell_length_a 9.691756
_cell_length_b 8.876584
_cell_length_c 29.277964
_cell_angle_alpha 90.000000
_cell_angle_beta 90.000000
_cell_angle_gamma 90.000000
_cell_volume 2518.774057
_symmetry_space_group_name_H-M "P M M A"
_symmetry_group_IT_number 51
_symmetry_cell_setting 'orthorhombic'
loop_
_space_group_symop_operation_xyz
x,y,z
1/2-x,-y,z
1/2+x,-y,-z
-x,y,-z
-x,-y,-z
1/2+x,y,-z
1/2-x,y,z
x,-y,z
loop_
_atom_site_type_symbol
_atom_site_label
_atom_site_fract_x
_atom_site_fract_y
_atom_site_fract_z
Si Si1 0.590387 0.333910 0.192298
Si Si2 0.024239 0.178390 0.900434
Si Si3 0.092188 0.322176 0.626386
Si Si4 0.750000 0.323368 0.931663
Si Si5 0.085908 0.168612 0.719554
Si Si6 0.750000 0.676356 0.038700
Si Si7 0.908146 0.320785 0.542025
O O1 0.750000 0.356006 0.202543
O O2 0.523989 0.500000 0.183624
O O3 0.575643 0.224968 0.149266
O O4 0.522069 0.257452 0.236996
O O5 0.115412 0.249541 0.940260
O O6 0.874514 0.243389 0.906939
O O7 0.028787 0.000000 0.904994
O O8 0.250000 0.273263 0.614490
O O9 0.085196 0.500000 0.632263
O O10 0.039024 0.249171 0.673182
O O11 0.987171 0.265482 0.587445
O O12 0.750000 0.500000 0.921356
O O13 0.750000 0.291180 0.985257
O O14 0.250000 0.165368 0.722825
O O15 0.025611 0.000000 0.720032
O O16 0.750000 0.500000 0.050185
O O17 0.750000 0.258144 0.540456
O O18 0.903209 0.500000 0.540082
O O19 0.000000 0.258649 0.500000
#
# Coordination Sequence:
#
# PCOD8209521 Si02
#       7
#     8   8   8   4   8   4   8
#     4  10  19  33  56  83 112 144 183 227 275 332
#     4  12  24  38  60  88 118 149 187 237 289 340
#     4   9  16  27  45  70  99 130 167 210 260 315
#     4  11  25  43  61  81 115 155 193 233 282 343
#     4   9  17  29  48  75 105 134 171 220 270 316
#     4  11  23  41  63  87 113 151 195 235 280 337
#     4   9  16  26  43  69 101 135 171 214 261 309
#
# _framework density 19.056889999999999
#
# number of rings (size 3 to 8) (size 9 to 14) (size 15 to 20)
#    0.000    2.000    0.833    4.000    0.000    8.000 
#    0.000    0.000    1.833    1.000    0.000    0.000 
#    0.000    0.000    0.000    0.000    0.000    0.000 
#
# Total GULP energy -595136.183923 kJ/mol
# GULP energy per Si atom -12398.670498 kJ/mol
# Density = 1.901352 g / cm^3
# Si number density = 19.056890 Si / 1000 Ang^3
#
#
#
# Elastic Constant Matrix: (Units=GPa)
#
#
# Indices 1 2 3 4 5 6 
#
# 1 72.9075 16.8200 19.5736 0.0000 0.0000 0.0000
# 2 16.8200 85.4138 45.8206 0.0000 0.0000 0.0000
# 3 19.5736 45.8206 109.8513 0.0000 0.0000 0.0000
# 4 0.0000 0.0000 0.0000 9.0374 0.0000 0.0000
# 5 0.0000 0.0000 0.0000 0.0000 19.5266 0.0000
# 6 0.0000 0.0000 0.0000 0.0000 0.0000 19.5182
#
#
#
# Elastic Compliance Matrix: (Units=1/GPa)
#
#
# Indices 1 2 3 4 5 6 
#
# 1 0.014643 -0.001912 -0.001812 0.000000 0.000000 0.000000
# 2 -0.001912 0.015332 -0.006055 0.000000 0.000000 0.000000
# 3 -0.001812 -0.006055 0.011952 0.000000 0.000000 0.000000
# 4 0.000000 0.000000 0.000000 0.110652 0.000000 0.000000
# 5 0.000000 0.000000 0.000000 0.000000 0.051212 0.000000
# 6 0.000000 0.000000 0.000000 0.000000 0.000000 0.051234
#
#
# Mechanical properties :
#
#
# Convention : Reuss Voigt Hill
#
# Bulk Modulus (GPa) = 44.70098 48.06680 46.38389
# Shear Modulus (GPa) = 17.72805 22.01365 19.87085
#
# Velocity S-wave (km/s) = 3.05334 3.40244 3.23261
# Velocity P-wave (km/s) = 5.99483 6.38068 6.19076
#
# Compressibility (1/GPa) = 0.02237088
#
# Stress axis : x y z
#
# Youngs Moduli (GPa) = 68.28982 65.22215 83.67120
#
# Poissons Ratio (x) = 0.12468 0.15160
# Poissons Ratio (y) = 0.13055 0.50660
# Poissons Ratio (z) = 0.12373 0.39490
#
# Static dielectric constant tensor:
#      x y z
#    x 3.342640 0.000000 0.000000 
#    y 0.000000 3.513040 0.000000 
#    z 0.000000 0.000000 3.627610 
# 
# 
# High freq. dielectric constant tensor:
#      x y z
#    x 1.712150 0.000000 0.000000 
#    y 0.000000 1.732820 0.000000 
#    z 0.000000 0.000000 1.755420 
# 
# From -- ./inp_files/37191.got.cif
#   From: 2010.03.12/outbox.cif.g09.slc.cpg/sg51_19_cif.got.tgz:37191.got - 2010.04.16 13:43:02.
