data_PCOD8209719
_publ_section_title
;
Structure prediction by ZEFSAII (Michael W. Deem and Ramdas Pophale) SiO2 
 PCOD8209719
Probable space group: P M M A
;
_chemical_formula_sum "Si O2"
_cell_formula_units_Z 40
_cell_length_a 20.631389
_cell_length_b 10.316107
_cell_length_c 10.451607
_cell_angle_alpha 90.000000
_cell_angle_beta 90.000000
_cell_angle_gamma 90.000000
_cell_volume 2224.474219
_symmetry_space_group_name_H-M "P M M A"
_symmetry_group_IT_number 51
_symmetry_cell_setting 'orthorhombic'
loop_
_space_group_symop_operation_xyz
x,y,z
1/2-x,-y,z
1/2+x,-y,-z
-x,y,-z
-x,-y,-z
1/2+x,y,-z
1/2-x,y,z
x,-y,z
loop_
_atom_site_type_symbol
_atom_site_label
_atom_site_fract_x
_atom_site_fract_y
_atom_site_fract_z
Si Si1 0.098229 0.000000 0.533915
Si Si2 0.323643 0.747505 0.471799
Si Si3 0.956396 0.255054 0.874798
Si Si4 0.394820 0.500000 0.534675
Si Si5 0.986416 0.500000 0.707487
Si Si6 0.013502 0.000000 0.283704
Si Si7 0.323325 0.345844 0.185093
O O1 0.140986 0.873014 0.523476
O O2 0.050100 0.000000 0.416276
O O3 0.061957 0.000000 0.672330
O O4 0.250000 0.765137 0.510222
O O5 0.350566 0.625417 0.548311
O O6 0.331742 0.724974 0.320613
O O7 0.879192 0.281374 0.904997
O O8 0.980446 0.372210 0.789719
O O9 0.967082 0.123336 0.799006
O O10 0.000000 0.249522 0.000000
O O11 0.441960 0.500000 0.653743
O O12 0.432830 0.500000 0.401679
O O13 0.250000 0.321255 0.131549
O O14 0.335478 0.500000 0.200881
#
# Coordination Sequence:
#
# PCOD8209719 Si02
#       7
#     4   8   8   4   4   4   8
#     4  11  21  36  56  79 118 140 181 231 281 356
#     4  11  19  32  54  83 114 144 182 231 285 340
#     4  12  22  38  58  84 115 148 198 236 274 334
#     4  11  19  34  56  81 120 140 177 231 283 352
#     4  11  21  34  56  85 110 150 183 225 289 330
#     4  11  23  38  54  83 114 150 177 229 297 328
#     4  10  19  34  56  85 117 143 182 239 291 327
#
# _framework density 17.981777000000001
#
# number of rings (size 3 to 8) (size 9 to 14) (size 15 to 20)
#    0.000    1.000    6.000    2.400    0.000    3.200 
#    0.000    0.500    0.000    7.200    0.000    0.000 
#    0.000    0.000    0.000    0.000    0.000    0.000 
#
# Total GULP energy -495851.394234 kJ/mol
# GULP energy per Si atom -12396.284856 kJ/mol
# Density = 1.794085 g / cm^3
# Si number density = 17.981777 Si / 1000 Ang^3
#
#
#
# Elastic Constant Matrix: (Units=GPa)
#
#
# Indices 1 2 3 4 5 6 
#
# 1 164.5092 65.3136 46.4631 0.0000 0.0000 0.0000
# 2 65.3136 157.6907 34.8411 0.0000 0.0000 0.0000
# 3 46.4631 34.8411 46.0214 0.0000 0.0000 0.0000
# 4 0.0000 0.0000 0.0000 20.6959 0.0000 0.0000
# 5 0.0000 0.0000 0.0000 0.0000 28.7830 0.0000
# 6 0.0000 0.0000 0.0000 0.0000 0.0000 34.5294
#
#
#
# Elastic Compliance Matrix: (Units=1/GPa)
#
#
# Indices 1 2 3 4 5 6 
#
# 1 0.009035 -0.002074 -0.007552 0.000000 0.000000 0.000000
# 2 -0.002074 0.008091 -0.004032 0.000000 0.000000 0.000000
# 3 -0.007552 -0.004032 0.032406 0.000000 0.000000 0.000000
# 4 0.000000 0.000000 0.000000 0.048319 0.000000 0.000000
# 5 0.000000 0.000000 0.000000 0.000000 0.034743 0.000000
# 6 0.000000 0.000000 0.000000 0.000000 0.000000 0.028961
#
#
# Mechanical properties :
#
#
# Convention : Reuss Voigt Hill
#
# Bulk Modulus (GPa) = 45.01047 73.49523 59.25285
# Shear Modulus (GPa) = 25.47453 31.57523 28.52488
#
# Velocity S-wave (km/s) = 3.76797 4.19496 3.98719
# Velocity P-wave (km/s) = 6.63443 8.02648 7.36342
#
# Compressibility (1/GPa) = 0.02221705
#
# Stress axis : x y z
#
# Youngs Moduli (GPa) = 110.68313 123.59008 30.85874
#
# Poissons Ratio (x) = 0.25628 0.23304
# Poissons Ratio (y) = 0.22951 0.12443
# Poissons Ratio (z) = 0.83584 0.49833
#
# Static dielectric constant tensor:
#      x y z
#    x 3.834750 0.000000 0.000000 
#    y 0.000000 3.723520 0.000000 
#    z 0.000000 0.000000 3.101610 
# 
# 
# High freq. dielectric constant tensor:
#      x y z
#    x 1.717220 0.000000 0.000000 
#    y 0.000000 1.713160 0.000000 
#    z 0.000000 0.000000 1.652080 
# 
# From -- ./inp_files/18025.got.cif
#   From: 2010.03.12/outbox.cif.g09.slc.cpg/sg51_10_cif.got.tgz:18025.got - 2010.04.16 13:43:02.
