data_PCOD8209108
_publ_section_title
;
Structure prediction by ZEFSAII (Michael W. Deem and Ramdas Pophale) SiO2 
 PCOD8209108
Probable space group: P M M A
;
_chemical_formula_sum "Si O2"
_cell_formula_units_Z 56
_cell_length_a 8.694957
_cell_length_b 14.561516
_cell_length_c 23.326595
_cell_angle_alpha 90.000000
_cell_angle_beta 90.000000
_cell_angle_gamma 90.000000
_cell_volume 2953.421142
_symmetry_space_group_name_H-M "P M M A"
_symmetry_group_IT_number 51
_symmetry_cell_setting 'orthorhombic'
loop_
_space_group_symop_operation_xyz
x,y,z
1/2-x,-y,z
1/2+x,-y,-z
-x,y,-z
-x,-y,-z
1/2+x,y,-z
1/2-x,y,z
x,-y,z
loop_
_atom_site_type_symbol
_atom_site_label
_atom_site_fract_x
_atom_site_fract_y
_atom_site_fract_z
Si Si1 0.070519 0.355503 0.850215
Si Si2 0.432441 0.104102 0.561023
Si Si3 0.572391 0.237869 0.339521
Si Si4 0.567730 0.500000 0.935713
Si Si5 0.421305 0.102343 0.261928
Si Si6 0.576517 0.835171 0.864039
Si Si7 0.426158 0.604755 0.272792
Si Si8 0.932300 0.000000 0.938489
O O1 0.250000 0.377267 0.854373
O O2 0.984475 0.411556 0.899713
O O3 0.039027 0.249511 0.862162
O O4 0.016538 0.380920 0.786278
O O5 0.500000 0.132621 0.500000
O O6 0.250000 0.107311 0.558383
O O7 0.493779 0.180802 0.605923
O O8 0.486330 0.000000 0.577770
O O9 0.750000 0.261178 0.347867
O O10 0.548303 0.172222 0.285140
O O11 0.486244 0.333368 0.325910
O O12 0.750000 0.500000 0.941186
O O13 0.500000 0.500000 0.000000
O O14 0.250000 0.126877 0.285352
O O15 0.421388 0.108141 0.194228
O O16 0.467694 0.000000 0.280971
O O17 0.750000 0.801254 0.878840
O O18 0.507970 0.906493 0.909624
O O19 0.250000 0.631141 0.260224
O O20 0.443632 0.500000 0.293249
O O21 0.750000 0.000000 0.936595
O O22 0.000000 0.000000 0.000000
#
# Coordination Sequence:
#
# PCOD8209108 Si02
#       8
#     8   8   8   4   8   8   8   4
#     4  12  24  39  62  91 118 149 190 238 295 357
#     4   9  19  36  57  84 122 164 203 242 289 344
#     4  11  22  35  55  87 122 153 191 246 300 347
#     4  12  26  46  68  90 116 150 189 240 297 358
#     4  10  19  32  53  80 111 150 192 231 282 346
#     4  10  20  37  58  80 111 150 190 236 287 341
#     4  11  23  39  60  85 116 155 196 241 295 356
#     4  10  22  40  60  80 108 150 195 240 283 338
#
# _framework density 18.961061000000001
#
# number of rings (size 3 to 8) (size 9 to 14) (size 15 to 20)
#    0.000    1.429    2.857    3.214    0.000    4.000 
#    0.000    2.857    0.000    0.429    0.000    0.000 
#    0.000    0.000    0.000    0.000    0.000    0.000 
#
# Total GULP energy -694309.494180 kJ/mol
# GULP energy per Si atom -12398.383825 kJ/mol
# Density = 1.891791 g / cm^3
# Si number density = 18.961061 Si / 1000 Ang^3
#
#
#
# Elastic Constant Matrix: (Units=GPa)
#
#
# Indices 1 2 3 4 5 6 
#
# 1 84.2865 39.9607 34.5642 0.0000 0.0000 0.0000
# 2 39.9607 130.2942 54.4135 0.0000 0.0000 0.0000
# 3 34.5642 54.4135 113.3071 0.0000 0.0000 0.0000
# 4 0.0000 0.0000 0.0000 26.6309 0.0000 0.0000
# 5 0.0000 0.0000 0.0000 0.0000 30.9345 0.0000
# 6 0.0000 0.0000 0.0000 0.0000 0.0000 19.9734
#
#
#
# Elastic Compliance Matrix: (Units=1/GPa)
#
#
# Indices 1 2 3 4 5 6 
#
# 1 0.014598 -0.003274 -0.002881 0.000000 0.000000 0.000000
# 2 -0.003274 0.010335 -0.003964 0.000000 0.000000 0.000000
# 3 -0.002881 -0.003964 0.011608 0.000000 0.000000 0.000000
# 4 0.000000 0.000000 0.000000 0.037550 0.000000 0.000000
# 5 0.000000 0.000000 0.000000 0.000000 0.032326 0.000000
# 6 0.000000 0.000000 0.000000 0.000000 0.000000 0.050067
#
#
# Mechanical properties :
#
#
# Convention : Reuss Voigt Hill
#
# Bulk Modulus (GPa) = 61.34039 65.08495 63.21267
# Shear Modulus (GPa) = 27.44896 28.77106 28.11001
#
# Velocity S-wave (km/s) = 3.80893 3.89958 3.85452
# Velocity P-wave (km/s) = 7.19478 7.39430 7.29522
#
# Compressibility (1/GPa) = 0.01630247
#
# Stress axis : x y z
#
# Youngs Moduli (GPa) = 68.50307 96.76208 86.14670
#
# Poissons Ratio (x) = 0.31680 0.24817
# Poissons Ratio (y) = 0.22428 0.34151
# Poissons Ratio (z) = 0.19734 0.38359
#
# Static dielectric constant tensor:
#      x y z
#    x 3.317930 0.000000 0.000000 
#    y 0.000000 3.631830 0.000000 
#    z 0.000000 0.000000 3.415440 
# 
# 
# High freq. dielectric constant tensor:
#      x y z
#    x 1.735360 0.000000 0.000000 
#    y 0.000000 1.745360 0.000000 
#    z 0.000000 0.000000 1.722220 
# 
# From -- ./inp_files/32049.got.cif
#   From: 2010.03.12/outbox.cif.g09.slc.cpg/sg51_17_cif.got.tgz:32049.got - 2010.04.16 13:43:02.
