data_PCOD8209118
_publ_section_title
;
Structure prediction by ZEFSAII (Michael W. Deem and Ramdas Pophale) SiO2 
 PCOD8209118
Probable space group: P M M A
;
_chemical_formula_sum "Si O2"
_cell_formula_units_Z 48
_cell_length_a 14.494590
_cell_length_b 8.885111
_cell_length_c 20.350338
_cell_angle_alpha 90.000000
_cell_angle_beta 90.000000
_cell_angle_gamma 90.000000
_cell_volume 2620.839465
_symmetry_space_group_name_H-M "P M M A"
_symmetry_group_IT_number 51
_symmetry_cell_setting 'orthorhombic'
loop_
_space_group_symop_operation_xyz
x,y,z
1/2-x,-y,z
1/2+x,-y,-z
-x,y,-z
-x,-y,-z
1/2+x,y,-z
1/2-x,y,z
x,-y,z
loop_
_atom_site_type_symbol
_atom_site_label
_atom_site_fract_x
_atom_site_fract_y
_atom_site_fract_z
Si Si1 0.557807 0.176757 0.176487
Si Si2 0.447703 0.325749 0.064308
Si Si3 0.555155 0.822678 0.326013
Si Si4 0.561487 0.677774 0.562118
Si Si5 0.250000 0.822440 0.876109
Si Si6 0.750000 0.328253 0.986343
Si Si7 0.750000 0.822349 0.377656
Si Si8 0.250000 0.179252 0.474228
O O1 0.479739 0.243356 0.129803
O O2 0.531595 0.217111 0.250999
O O3 0.658537 0.244811 0.158510
O O4 0.560037 0.000000 0.165529
O O5 0.472535 0.500000 0.071890
O O6 0.338887 0.296284 0.058269
O O7 0.500000 0.260568 0.000000
O O8 0.486780 0.728201 0.370993
O O9 0.659382 0.766485 0.339632
O O10 0.544425 0.000000 0.340988
O O11 0.500000 0.730469 0.500000
O O12 0.576106 0.500000 0.561694
O O13 0.659826 0.758653 0.561566
O O14 0.250000 0.000000 0.867944
O O15 0.250000 0.781973 0.952314
O O16 0.750000 0.500000 0.012440
O O17 0.750000 0.757922 0.451415
O O18 0.750000 0.000000 0.380578
O O19 0.250000 0.000000 0.470785
#
# Coordination Sequence:
#
# PCOD8209118 Si02
#       8
#     8   8   8   8   4   4   4   4
#     4  10  21  35  55  83 115 146 181 229 280 328
#     4  10  20  35  56  78 106 144 186 228 272 332
#     4  10  20  37  58  83 114 150 191 231 278 340
#     4  11  23  38  57  84 119 152 186 234 284 333
#     4  10  19  32  53  83 115 143 172 223 286 329
#     4  10  20  35  54  80 107 139 183 228 271 323
#     4   9  17  31  57  86 112 142 183 233 278 332
#     4  11  21  36  62  89 110 146 194 236 279 334
#
# _framework density 18.314741000000001
#
# number of rings (size 3 to 8) (size 9 to 14) (size 15 to 20)
#    0.000    1.833    3.333    1.250    0.000    4.333 
#    0.000    1.250    0.000    6.000    0.000    0.000 
#    0.000    0.000    0.000    0.000    0.000    0.000 
#
# Total GULP energy -595333.338589 kJ/mol
# GULP energy per Si atom -12402.777887 kJ/mol
# Density = 1.827306 g / cm^3
# Si number density = 18.314741 Si / 1000 Ang^3
#
#
#
# Elastic Constant Matrix: (Units=GPa)
#
#
# Indices 1 2 3 4 5 6 
#
# 1 140.9335 35.8423 64.9531 0.0000 0.0000 0.0000
# 2 35.8423 41.0612 37.1997 0.0000 0.0000 0.0000
# 3 64.9531 37.1997 130.6601 0.0000 0.0000 0.0000
# 4 0.0000 0.0000 0.0000 25.6632 0.0000 0.0000
# 5 0.0000 0.0000 0.0000 0.0000 24.7210 0.0000
# 6 0.0000 0.0000 0.0000 0.0000 0.0000 23.1643
#
#
#
# Elastic Compliance Matrix: (Units=1/GPa)
#
#
# Indices 1 2 3 4 5 6 
#
# 1 0.010125 -0.005765 -0.003392 0.000000 0.000000 0.000000
# 2 -0.005765 0.036102 -0.007412 0.000000 0.000000 0.000000
# 3 -0.003392 -0.007412 0.011450 0.000000 0.000000 0.000000
# 4 0.000000 0.000000 0.000000 0.038966 0.000000 0.000000
# 5 0.000000 0.000000 0.000000 0.000000 0.040451 0.000000
# 6 0.000000 0.000000 0.000000 0.000000 0.000000 0.043170
#
#
# Mechanical properties :
#
#
# Convention : Reuss Voigt Hill
#
# Bulk Modulus (GPa) = 40.75368 65.40500 53.07934
# Shear Modulus (GPa) = 22.56496 26.35367 24.45932
#
# Velocity S-wave (km/s) = 3.51389 3.79744 3.65841
# Velocity P-wave (km/s) = 6.22602 7.41732 6.84763
#
# Compressibility (1/GPa) = 0.02453766
#
# Stress axis : x y z
#
# Youngs Moduli (GPa) = 98.76535 27.69956 87.33650
#
# Poissons Ratio (x) = 0.15969 0.29624
# Poissons Ratio (y) = 0.56940 0.64737
# Poissons Ratio (z) = 0.33500 0.20532
#
# Static dielectric constant tensor:
#      x y z
#    x 3.538270 0.000000 0.000000 
#    y 0.000000 3.198800 0.000000 
#    z 0.000000 0.000000 3.317620 
# 
# 
# High freq. dielectric constant tensor:
#      x y z
#    x 1.717670 0.000000 0.000000 
#    y 0.000000 1.694250 0.000000 
#    z 0.000000 0.000000 1.706410 
# 
# From -- ./inp_files/29702.got.cif
#   From: 2010.03.12/outbox.cif.g09.slc.cpg/sg51_15_cif.got.tgz:29702.got - 2010.04.16 13:43:02.
