data_PCOD8209302
_publ_section_title
;
Structure prediction by ZEFSAII (Michael W. Deem and Ramdas Pophale) SiO2 
 PCOD8209302
Probable space group: P M M A
;
_chemical_formula_sum "Si O2"
_cell_formula_units_Z 56
_cell_length_a 15.387900
_cell_length_b 19.509410
_cell_length_c 9.844584
_cell_angle_alpha 90.000000
_cell_angle_beta 90.000000
_cell_angle_gamma 90.000000
_cell_volume 2955.431243
_symmetry_space_group_name_H-M "P M M A"
_symmetry_group_IT_number 51
_symmetry_cell_setting 'orthorhombic'
loop_
_space_group_symop_operation_xyz
x,y,z
1/2-x,-y,z
1/2+x,-y,-z
-x,y,-z
-x,-y,-z
1/2+x,y,-z
1/2-x,y,z
x,-y,z
loop_
_atom_site_type_symbol
_atom_site_label
_atom_site_fract_x
_atom_site_fract_y
_atom_site_fract_z
Si Si1 0.097378 0.574974 0.976679
Si Si2 0.850849 0.078803 0.849839
Si Si3 0.152702 0.424782 0.270569
Si Si4 0.155318 0.303390 0.808135
Si Si5 0.980546 0.690580 0.646189
Si Si6 0.416901 0.173193 0.916693
Si Si7 0.023698 0.845086 0.344048
O O1 0.088190 0.500000 0.905002
O O2 0.153495 0.625626 0.886974
O O3 0.153433 0.565839 0.110690
O O4 0.000000 0.604956 0.000000
O O5 0.750000 0.088404 0.820061
O O6 0.899271 0.109298 0.717860
O O7 0.877880 0.000000 0.863977
O O8 0.874229 0.112742 0.995003
O O9 0.250000 0.404204 0.320135
O O10 0.127396 0.500000 0.334683
O O11 0.084455 0.364314 0.292743
O O12 0.250000 0.298925 0.735200
O O13 0.147837 0.237676 0.908010
O O14 0.075966 0.303664 0.706974
O O15 0.940310 0.766933 0.650142
O O16 0.000000 0.661700 0.500000
O O17 0.442822 0.148086 0.763163
O O18 0.500000 0.200366 0.000000
O O19 0.000000 0.868326 0.500000
#
# Coordination Sequence:
#
# PCOD8209302 Si02
#       7
#     8   8   8   8   8   8   8
#     4  10  19  33  53  77 108 140 174 224 282 333
#     4  10  21  37  58  87 118 146 183 231 281 335
#     4  10  21  36  55  79 106 141 185 230 279 334
#     4  11  21  33  54  81 108 139 180 227 278 332
#     4  10  22  39  56  77 109 145 186 231 275 326
#     4   9  19  35  57  82 113 148 187 229 276 333
#     4   9  20  38  58  82 112 152 193 229 275 336
#
# _framework density 18.948164999999999
#
# number of rings (size 3 to 8) (size 9 to 14) (size 15 to 20)
#    0.000    2.143    1.429    1.286    4.000    5.143 
#    0.000    6.429    0.000    1.714    0.000    0.000 
#    0.000    0.000    0.000    0.000    0.000    0.000 
#
# Total GULP energy -693736.958289 kJ/mol
# GULP energy per Si atom -12388.159969 kJ/mol
# Density = 1.890504 g / cm^3
# Si number density = 18.948165 Si / 1000 Ang^3
#
#
#
# Elastic Constant Matrix: (Units=GPa)
#
#
# Indices 1 2 3 4 5 6 
#
# 1 118.7614 57.4241 28.5722 0.0000 0.0000 0.0000
# 2 57.4241 118.6185 44.0128 0.0000 0.0000 0.0000
# 3 28.5722 44.0128 104.7325 0.0000 0.0000 0.0000
# 4 0.0000 0.0000 0.0000 20.9274 0.0000 0.0000
# 5 0.0000 0.0000 0.0000 0.0000 -11.9445 0.0000
# 6 0.0000 0.0000 0.0000 0.0000 0.0000 -59.9701
#
#
#
# Elastic Compliance Matrix: (Units=1/GPa)
#
#
# Indices 1 2 3 4 5 6 
#
# 1 0.011066 -0.005020 -0.000909 0.000000 0.000000 0.000000
# 2 -0.005020 0.012265 -0.003785 0.000000 0.000000 0.000000
# 3 -0.000909 -0.003785 0.011387 0.000000 0.000000 0.000000
# 4 0.000000 0.000000 0.000000 0.047784 0.000000 0.000000
# 5 0.000000 0.000000 0.000000 0.000000 -0.083720 0.000000
# 6 0.000000 0.000000 0.000000 0.000000 0.000000 -0.016675
#
#
# Mechanical properties :
#
#
# Convention : Reuss Voigt Hill
#
# Bulk Modulus (GPa) = 65.40295 66.90340 66.15318
# Shear Modulus (GPa) = 754.01130 3.94279 378.97704
#
# Velocity S-wave (km/s) = 19.96992 1.44407 14.15773
# Velocity P-wave (km/s) = 23.79752 6.17784 17.38516
#
# Compressibility (1/GPa) = 0.01528983
#
# Stress axis : x y z
#
# Youngs Moduli (GPa) = 90.36486 81.53411 87.82151
#
# Poissons Ratio (x) = 0.40928 0.07987
# Poissons Ratio (y) = 0.45361 0.33238
# Poissons Ratio (z) = 0.08218 0.30858
#
# Static dielectric constant tensor:
#      x y z
#    x 3.391670 0.000000 0.000000 
#    y 0.000000 3.776280 0.000000 
#    z 0.000000 0.000000 3.417760 
# 
# 
# High freq. dielectric constant tensor:
#      x y z
#    x 1.735080 0.000000 0.000000 
#    y 0.000000 1.742360 0.000000 
#    z 0.000000 0.000000 1.715760 
# 
# From -- ./inp_files/8516.got.cif
#   From: 2010.03.12/outbox.cif.g09.slc.cpg/sg51_5_cif.got.tgz:8516.got - 2010.04.16 13:43:02.
