data_PCOD8209228
_publ_section_title
;
Structure prediction by ZEFSAII (Michael W. Deem and Ramdas Pophale) SiO2 
 PCOD8209228
Probable space group: P M M A
;
_chemical_formula_sum "Si O2"
_cell_formula_units_Z 64
_cell_length_a 9.398807
_cell_length_b 14.841274
_cell_length_c 23.678040
_cell_angle_alpha 90.000000
_cell_angle_beta 90.000000
_cell_angle_gamma 90.000000
_cell_volume 3302.856192
_symmetry_space_group_name_H-M "P M M A"
_symmetry_group_IT_number 51
_symmetry_cell_setting 'orthorhombic'
loop_
_space_group_symop_operation_xyz
x,y,z
1/2-x,-y,z
1/2+x,-y,-z
-x,y,-z
-x,-y,-z
1/2+x,y,-z
1/2-x,y,z
x,-y,z
loop_
_atom_site_type_symbol
_atom_site_label
_atom_site_fract_x
_atom_site_fract_y
_atom_site_fract_z
Si Si1 0.915630 0.602573 0.556240
Si Si2 0.408455 0.104726 0.948758
Si Si3 0.581631 0.733372 0.658175
Si Si4 0.917559 0.897710 0.295295
Si Si5 0.910284 0.598046 0.273925
Si Si6 0.909461 0.850965 0.172743
Si Si7 0.406304 0.605996 0.049669
Si Si8 0.095098 0.353987 0.846663
O O1 0.750000 0.610335 0.542488
O O2 0.951889 0.500000 0.576722
O O3 0.960461 0.678366 0.601688
O O4 0.000000 0.626780 0.500000
O O5 0.250000 0.149092 0.949327
O O6 0.483327 0.121328 0.887180
O O7 0.395217 0.000000 0.960702
O O8 0.500000 0.148796 0.000000
O O9 0.750000 0.748638 0.663062
O O10 0.502856 0.830247 0.662793
O O11 0.527926 0.670324 0.708661
O O12 0.750000 0.872461 0.296755
O O13 0.977695 0.890513 0.230533
O O14 0.942843 0.000000 0.316629
O O15 0.750000 0.631197 0.289833
O O16 0.940072 0.500000 0.301863
O O17 0.923132 0.581728 0.206862
O O18 0.750000 0.890306 0.169101
O O19 0.913779 0.744849 0.179326
O O20 0.250000 0.649366 0.047289
O O21 0.397289 0.500000 0.040908
O O22 0.471510 0.628292 0.109747
O O23 0.500000 0.650218 0.000000
O O24 0.250000 0.370397 0.875715
#
# Coordination Sequence:
#
# PCOD8209228 Si02
#       8
#     8   8   8   8   8   8   8   8
#     4   9  19  36  58  87 123 163 201 235 277 329
#     4   9  17  30  48  69  92 121 159 206 265 330
#     4  11  22  36  56  85 123 157 189 235 289 341
#     4  10  20  37  61  84 109 148 199 248 291 343
#     4  10  20  34  54  80 111 149 190 229 272 330
#     4   9  17  32  53  75 100 131 173 224 276 333
#     4  10  21  36  52  69  91 124 170 220 271 332
#     4  10  19  33  52  73 101 132 168 219 274 328
#
# _framework density 19.377167
#
# number of rings (size 3 to 8) (size 9 to 14) (size 15 to 20)
#    0.000    2.250    1.250    1.875    0.000    5.750 
#    0.000    3.750    0.000    1.875    0.000    0.000 
#    0.000    0.000    0.000    0.000    0.000    0.000 
#
# Total GULP energy -793124.598567 kJ/mol
# GULP energy per Si atom -12392.571853 kJ/mol
# Density = 1.933306 g / cm^3
# Si number density = 19.377167 Si / 1000 Ang^3
#
#
#
# Elastic Constant Matrix: (Units=GPa)
#
#
# Indices 1 2 3 4 5 6 
#
# 1 98.4803 43.7615 54.6439 0.0000 0.0000 0.0000
# 2 43.7615 92.0136 42.3274 0.0000 0.0000 0.0000
# 3 54.6439 42.3274 108.1453 0.0000 0.0000 0.0000
# 4 0.0000 0.0000 0.0000 28.4334 0.0000 0.0000
# 5 0.0000 0.0000 0.0000 0.0000 34.5763 0.0000
# 6 0.0000 0.0000 0.0000 0.0000 0.0000 24.6585
#
#
#
# Elastic Compliance Matrix: (Units=1/GPa)
#
#
# Indices 1 2 3 4 5 6 
#
# 1 0.015568 -0.004617 -0.006059 0.000000 0.000000 0.000000
# 2 -0.004617 0.014623 -0.003391 0.000000 0.000000 0.000000
# 3 -0.006059 -0.003391 0.013636 0.000000 0.000000 0.000000
# 4 0.000000 0.000000 0.000000 0.035170 0.000000 0.000000
# 5 0.000000 0.000000 0.000000 0.000000 0.028922 0.000000
# 6 0.000000 0.000000 0.000000 0.000000 0.000000 0.040554
#
#
# Mechanical properties :
#
#
# Convention : Reuss Voigt Hill
#
# Bulk Modulus (GPa) = 63.72082 64.45610 64.08846
# Shear Modulus (GPa) = 27.49712 28.06072 27.77892
#
# Velocity S-wave (km/s) = 3.77111 3.80956 3.79039
# Velocity P-wave (km/s) = 7.20539 7.25855 7.23202
#
# Compressibility (1/GPa) = 0.01569346
#
# Stress axis : x y z
#
# Youngs Moduli (GPa) = 64.23454 68.38323 73.33757
#
# Poissons Ratio (x) = 0.31571 0.44437
# Poissons Ratio (y) = 0.29655 0.24867
# Poissons Ratio (z) = 0.38921 0.23187
#
# Static dielectric constant tensor:
#      x y z
#    x 3.751660 0.000000 0.000000 
#    y 0.000000 3.515540 0.000000 
#    z 0.000000 0.000000 3.420530 
# 
# 
# High freq. dielectric constant tensor:
#      x y z
#    x 1.732600 0.000000 0.000000 
#    y 0.000000 1.752860 0.000000 
#    z 0.000000 0.000000 1.737780 
# 
# From -- ./inp_files/34848.got.cif
#   From: 2010.03.12/outbox.cif.g09.slc.cpg/sg51_18_cif.got.tgz:34848.got - 2010.04.16 13:43:02.
