data_PCOD8209672
_publ_section_title
;
Structure prediction by ZEFSAII (Michael W. Deem and Ramdas Pophale) SiO2 
 PCOD8209672
Probable space group: P M M A
;
_chemical_formula_sum "Si O2"
_cell_formula_units_Z 64
_cell_length_a 18.782812
_cell_length_b 9.199187
_cell_length_c 19.726481
_cell_angle_alpha 90.000000
_cell_angle_beta 90.000000
_cell_angle_gamma 90.000000
_cell_volume 3408.471581
_symmetry_space_group_name_H-M "P M M A"
_symmetry_group_IT_number 51
_symmetry_cell_setting 'orthorhombic'
loop_
_space_group_symop_operation_xyz
x,y,z
1/2-x,-y,z
1/2+x,-y,-z
-x,y,-z
-x,-y,-z
1/2+x,y,-z
1/2-x,y,z
x,-y,z
loop_
_atom_site_type_symbol
_atom_site_label
_atom_site_fract_x
_atom_site_fract_y
_atom_site_fract_z
Si Si1 0.423098 0.832131 0.841157
Si Si2 0.167813 0.666748 0.473998
Si Si3 0.084279 0.827255 0.589822
Si Si4 0.830316 0.330062 0.894755
Si Si5 0.919531 0.832257 0.005998
Si Si6 0.828660 0.172303 0.280255
Si Si7 0.443924 0.330138 0.212960
Si Si8 0.948074 0.332177 0.633030
O O1 0.393522 0.810008 0.916807
O O2 0.363422 0.772593 0.789659
O O3 0.495890 0.747013 0.830835
O O4 0.440173 0.000000 0.826305
O O5 0.250000 0.712443 0.464940
O O6 0.161233 0.500000 0.498732
O O7 0.130643 0.771469 0.527583
O O8 0.128787 0.687311 0.401882
O O9 0.123145 0.773318 0.657953
O O10 0.005575 0.759144 0.590114
O O11 0.077570 0.000000 0.584957
O O12 0.750000 0.271931 0.887668
O O13 0.832211 0.500000 0.909903
O O14 0.869516 0.294010 0.823944
O O15 0.866930 0.254793 0.958403
O O16 0.917293 0.000000 0.983733
O O17 0.000000 0.772740 0.000000
O O18 0.750000 0.241380 0.286590
O O19 0.822889 0.000000 0.281406
O O20 0.460169 0.500000 0.212394
O O21 0.441572 0.272225 0.290200
O O22 0.972033 0.500000 0.632113
#
# Coordination Sequence:
#
# PCOD8209672 Si02
#       8
#     8   8   8   8   8   8   8   8
#     4  10  19  34  56  80 107 141 183 227 270 329
#     4  10  22  39  57  79 111 149 185 227 280 332
#     4  11  21  35  58  84 111 146 184 227 275 332
#     4  10  22  38  56  82 115 150 188 232 283 335
#     4  10  20  34  56  83 110 144 186 230 275 330
#     4   9  18  32  51  77 107 138 173 216 268 321
#     4  10  20  35  57  82 109 144 185 231 277 325
#     4  10  21  37  58  83 110 143 188 235 277 329
#
# _framework density 18.776744999999998
#
# number of rings (size 3 to 8) (size 9 to 14) (size 15 to 20)
#    0.000    2.000    2.500    1.125    0.000    4.750 
#    0.000    3.750    0.000    1.125    0.000    3.500 
#    0.000    0.000    0.000    0.000    0.000    0.000 
#
# Total GULP energy -793728.418598 kJ/mol
# GULP energy per Si atom -12402.006541 kJ/mol
# Density = 1.873401 g / cm^3
# Si number density = 18.776745 Si / 1000 Ang^3
#
#
#
# Elastic Constant Matrix: (Units=GPa)
#
#
# Indices 1 2 3 4 5 6 
#
# 1 142.5892 41.5069 48.3591 0.0000 0.0000 0.0000
# 2 41.5069 44.8954 32.9666 0.0000 0.0000 0.0000
# 3 48.3591 32.9666 94.6870 0.0000 0.0000 0.0000
# 4 0.0000 0.0000 0.0000 26.4209 0.0000 0.0000
# 5 0.0000 0.0000 0.0000 0.0000 31.5483 0.0000
# 6 0.0000 0.0000 0.0000 0.0000 0.0000 19.2913
#
#
#
# Elastic Compliance Matrix: (Units=1/GPa)
#
#
# Indices 1 2 3 4 5 6 
#
# 1 0.010032 -0.007406 -0.002545 0.000000 0.000000 0.000000
# 2 -0.007406 0.035392 -0.008540 0.000000 0.000000 0.000000
# 3 -0.002545 -0.008540 0.014834 0.000000 0.000000 0.000000
# 4 0.000000 0.000000 0.000000 0.037849 0.000000 0.000000
# 5 0.000000 0.000000 0.000000 0.000000 0.031697 0.000000
# 6 0.000000 0.000000 0.000000 0.000000 0.000000 0.051837
#
#
# Mechanical properties :
#
#
# Convention : Reuss Voigt Hill
#
# Bulk Modulus (GPa) = 42.96212 58.64852 50.80532
# Shear Modulus (GPa) = 22.08657 26.07471 24.08064
#
# Velocity S-wave (km/s) = 3.43340 3.73053 3.58505
# Velocity P-wave (km/s) = 6.21674 7.06104 6.65230
#
# Compressibility (1/GPa) = 0.02327632
#
# Stress axis : x y z
#
# Youngs Moduli (GPa) = 99.67888 28.25515 67.41179
#
# Poissons Ratio (x) = 0.20926 0.17157
# Poissons Ratio (y) = 0.73823 0.57567
# Poissons Ratio (z) = 0.25370 0.24129
#
# Static dielectric constant tensor:
#      x y z
#    x 3.601170 0.000000 0.000000 
#    y 0.000000 3.249230 0.000000 
#    z 0.000000 0.000000 3.594860 
# 
# 
# High freq. dielectric constant tensor:
#      x y z
#    x 1.731600 0.000000 0.000000 
#    y 0.000000 1.709230 0.000000 
#    z 0.000000 0.000000 1.740880 
# 
# From -- ./inp_files/33980.got.cif
#   From: 2010.03.12/outbox.cif.g09.slc.cpg/sg51_17_cif.got.tgz:33980.got - 2010.04.16 13:43:02.
