data_PCOD8209938
_publ_section_title
;
Structure prediction by ZEFSAII (Michael W. Deem and Ramdas Pophale) SiO2 
 PCOD8209938
Probable space group: P M M A
;
_chemical_formula_sum "Si O2"
_cell_formula_units_Z 48
_cell_length_a 17.005765
_cell_length_b 28.026075
_cell_length_c 5.080958
_cell_angle_alpha 90.000000
_cell_angle_beta 90.000000
_cell_angle_gamma 90.000000
_cell_volume 2421.609202
_symmetry_space_group_name_H-M "P M M A"
_symmetry_group_IT_number 51
_symmetry_cell_setting 'orthorhombic'
loop_
_space_group_symop_operation_xyz
x,y,z
1/2-x,-y,z
1/2+x,-y,-z
-x,y,-z
-x,-y,-z
1/2+x,y,-z
1/2-x,y,z
x,-y,z
loop_
_atom_site_type_symbol
_atom_site_label
_atom_site_fract_x
_atom_site_fract_y
_atom_site_fract_z
Si Si1 0.842016 0.304000 0.410060
Si Si2 0.052178 0.946548 0.256516
Si Si3 0.156674 0.198927 0.724606
Si Si4 0.590878 0.350770 0.916399
Si Si5 0.156842 0.141857 0.222919
Si Si6 0.946753 0.551600 0.748393
O O1 0.750000 0.303126 0.481140
O O2 0.873580 0.252996 0.306302
O O3 0.888875 0.315125 0.678204
O O4 0.856963 0.341494 0.175143
O O5 0.125531 0.911857 0.212791
O O6 0.000000 0.928643 0.500000
O O7 0.084788 0.000000 0.310933
O O8 0.000000 0.945998 0.000000
O O9 0.250000 0.199816 0.733980
O O10 0.126135 0.167211 0.484587
O O11 0.122921 0.174404 0.986881
O O12 0.611665 0.404252 0.809002
O O13 0.500000 0.345891 0.000000
O O14 0.250000 0.138306 0.208255
O O15 0.903906 0.500000 0.695071
O O16 0.000000 0.566117 0.500000
O O17 0.000000 0.544620 0.000000
#
# Coordination Sequence:
#
# PCOD8209938 Si02
#       6
#     8   8   8   8   8   8
#     4  11  22  38  58  79 111 154 189 217 275 352
#     4  10  21  37  55  77 109 143 170 205 264 328
#     4   9  19  35  55  78 105 141 180 218 261 317
#     4  11  21  36  57  84 113 140 183 242 281 314
#     4  10  19  35  58  80 102 133 181 228 257 296
#     4   9  17  31  53  79 106 140 180 222 273 329
#
# _framework density 19.821529999999999
#
# number of rings (size 3 to 8) (size 9 to 14) (size 15 to 20)
#    0.000    2.000    0.000    5.000    0.000    3.000 
#    0.000    8.333    0.000    9.000    0.000    0.000 
#    0.000    0.000    0.000    0.000    0.000    0.000 
#
# Total GULP energy -595028.054996 kJ/mol
# GULP energy per Si atom -12396.417812 kJ/mol
# Density = 1.977642 g / cm^3
# Si number density = 19.821530 Si / 1000 Ang^3
#
#
#
# Elastic Constant Matrix: (Units=GPa)
#
#
# Indices 1 2 3 4 5 6 
#
# 1 41.4572 42.4437 23.7088 0.0000 0.0000 0.0000
# 2 42.4437 128.3984 25.9637 0.0000 0.0000 0.0000
# 3 23.7088 25.9637 121.0305 0.0000 0.0000 0.0000
# 4 0.0000 0.0000 0.0000 36.8041 0.0000 0.0000
# 5 0.0000 0.0000 0.0000 0.0000 22.7066 0.0000
# 6 0.0000 0.0000 0.0000 0.0000 0.0000 27.1064
#
#
#
# Elastic Compliance Matrix: (Units=1/GPa)
#
#
# Indices 1 2 3 4 5 6 
#
# 1 0.039292 -0.011950 -0.005133 0.000000 0.000000 0.000000
# 2 -0.011950 0.011776 -0.000185 0.000000 0.000000 0.000000
# 3 -0.005133 -0.000185 0.009308 0.000000 0.000000 0.000000
# 4 0.000000 0.000000 0.000000 0.027171 0.000000 0.000000
# 5 0.000000 0.000000 0.000000 0.000000 0.044040 0.000000
# 6 0.000000 0.000000 0.000000 0.000000 0.000000 0.036892
#
#
# Mechanical properties :
#
#
# Convention : Reuss Voigt Hill
#
# Bulk Modulus (GPa) = 38.70323 52.79093 45.74708
# Shear Modulus (GPa) = 23.62634 30.57475 27.10055
#
# Velocity S-wave (km/s) = 3.45621 3.93173 3.70162
# Velocity P-wave (km/s) = 5.95781 6.87767 6.43420
#
# Compressibility (1/GPa) = 0.02583764
#
# Stress axis : x y z
#
# Youngs Moduli (GPa) = 25.45072 84.91805 107.43820
#
# Poissons Ratio (x) = 1.01480 0.55151
# Poissons Ratio (y) = 0.30414 0.01990
# Poissons Ratio (z) = 0.13065 0.01573
#
# Static dielectric constant tensor:
#      x y z
#    x 3.112390 0.000000 0.000000 
#    y 0.000000 4.171990 0.000000 
#    z 0.000000 0.000000 3.885960 
# 
# 
# High freq. dielectric constant tensor:
#      x y z
#    x 1.720480 0.000000 0.000000 
#    y 0.000000 1.790430 0.000000 
#    z 0.000000 0.000000 1.799900 
# 
# From -- ./inp_files/1447.got.cif
#   From: 2010.03.12/outbox.cif.g09.slc.cpg/sg51_1_cif.got.tgz:1447.got - 2010.04.16 13:43:02.
