data_PCOD8209446
_publ_section_title
;
Structure prediction by ZEFSAII (Michael W. Deem and Ramdas Pophale) SiO2 
 PCOD8209446
Probable space group: P M M A
;
_chemical_formula_sum "Si O2"
_cell_formula_units_Z 40
_cell_length_a 18.066716
_cell_length_b 8.531862
_cell_length_c 13.749347
_cell_angle_alpha 90.000000
_cell_angle_beta 90.000000
_cell_angle_gamma 90.000000
_cell_volume 2119.361851
_symmetry_space_group_name_H-M "P M M A"
_symmetry_group_IT_number 51
_symmetry_cell_setting 'orthorhombic'
loop_
_space_group_symop_operation_xyz
x,y,z
1/2-x,-y,z
1/2+x,-y,-z
-x,y,-z
-x,-y,-z
1/2+x,y,-z
1/2-x,y,z
x,-y,z
loop_
_atom_site_type_symbol
_atom_site_label
_atom_site_fract_x
_atom_site_fract_y
_atom_site_fract_z
Si Si1 0.333485 0.182246 0.687618
Si Si2 0.393299 0.316318 0.879317
Si Si3 0.963172 0.182446 0.797485
Si Si4 0.024304 0.316865 0.606056
Si Si5 0.665207 0.684680 0.911671
O O1 0.250000 0.223756 0.656416
O O2 0.344885 0.224125 0.800423
O O3 0.388713 0.281460 0.619985
O O4 0.350783 0.000000 0.672982
O O5 0.379911 0.500000 0.864474
O O6 0.479937 0.277762 0.865963
O O7 0.366358 0.260314 0.984515
O O8 0.880153 0.228942 0.826958
O O9 0.975569 0.224135 0.684734
O O10 0.977154 0.000000 0.813309
O O11 0.009498 0.500000 0.620163
O O12 0.000000 0.258801 0.500000
O O13 0.750000 0.737685 0.902235
O O14 0.656422 0.500000 0.898656
#
# Coordination Sequence:
#
# PCOD8209446 Si02
#       5
#     8   8   8   8   8
#     4  10  20  33  52  81 113 140 168 211 266 316
#     4  10  19  33  55  79 105 141 181 217 256 304
#     4  11  22  35  54  79 107 139 173 214 265 316
#     4  10  21  38  60  81 101 133 177 220 263 312
#     4  10  21  36  53  75 106 144 183 220 256 299
#
# _framework density 18.873605999999999
#
# number of rings (size 3 to 8) (size 9 to 14) (size 15 to 20)
#    0.000    1.800    0.000    7.200    0.000    8.400 
#    0.000    1.000    0.000    1.200    0.000    0.000 
#    0.000    0.000    0.000    0.000    0.000    0.000 
#
# Total GULP energy -496164.490757 kJ/mol
# GULP energy per Si atom -12404.112269 kJ/mol
# Density = 1.883065 g / cm^3
# Si number density = 18.873606 Si / 1000 Ang^3
#
#
#
# Elastic Constant Matrix: (Units=GPa)
#
#
# Indices 1 2 3 4 5 6 
#
# 1 122.3395 20.4601 72.5515 0.0000 0.0000 0.0000
# 2 20.4601 42.0183 21.6317 0.0000 0.0000 0.0000
# 3 72.5515 21.6317 109.1448 0.0000 0.0000 0.0000
# 4 0.0000 0.0000 0.0000 7.5237 0.0000 0.0000
# 5 0.0000 0.0000 0.0000 0.0000 19.9476 0.0000
# 6 0.0000 0.0000 0.0000 0.0000 0.0000 29.5357
#
#
#
# Elastic Compliance Matrix: (Units=1/GPa)
#
#
# Indices 1 2 3 4 5 6 
#
# 1 0.013674 -0.002204 -0.008653 0.000000 0.000000 0.000000
# 2 -0.002204 0.026859 -0.003858 0.000000 0.000000 0.000000
# 3 -0.008653 -0.003858 0.015678 0.000000 0.000000 0.000000
# 4 0.000000 0.000000 0.000000 0.132913 0.000000 0.000000
# 5 0.000000 0.000000 0.000000 0.000000 0.050131 0.000000
# 6 0.000000 0.000000 0.000000 0.000000 0.000000 0.033857
#
#
# Mechanical properties :
#
#
# Convention : Reuss Voigt Hill
#
# Bulk Modulus (GPa) = 37.33909 55.86547 46.60228
# Shear Modulus (GPa) = 16.05295 21.99203 19.02249
#
# Velocity S-wave (km/s) = 2.91958 3.41724 3.17817
# Velocity P-wave (km/s) = 5.58498 6.72563 6.18167
#
# Compressibility (1/GPa) = 0.02678159
#
# Stress axis : x y z
#
# Youngs Moduli (GPa) = 73.13252 37.23207 63.78182
#
# Poissons Ratio (x) = 0.08205 0.55188
# Poissons Ratio (y) = 0.16116 0.24609
# Poissons Ratio (z) = 0.63279 0.14365
#
# Static dielectric constant tensor:
#      x y z
#    x 3.527270 0.000000 0.000000 
#    y 0.000000 3.426430 0.000000 
#    z 0.000000 0.000000 3.373850 
# 
# 
# High freq. dielectric constant tensor:
#      x y z
#    x 1.735300 0.000000 0.000000 
#    y 0.000000 1.740020 0.000000 
#    z 0.000000 0.000000 1.717790 
# 
# From -- ./inp_files/24553.got.cif
#   From: 2010.03.12/outbox.cif.g09.slc.cpg/sg51_13_cif.got.tgz:24553.got - 2010.04.16 13:43:02.
