data_PCOD8209629
_publ_section_title
;
Structure prediction by ZEFSAII (Michael W. Deem and Ramdas Pophale) SiO2 
 PCOD8209629
Probable space group: P M M A
;
_chemical_formula_sum "Si O2"
_cell_formula_units_Z 56
_cell_length_a 8.986210
_cell_length_b 19.337615
_cell_length_c 16.018572
_cell_angle_alpha 90.000000
_cell_angle_beta 90.000000
_cell_angle_gamma 90.000000
_cell_volume 2783.577200
_symmetry_space_group_name_H-M "P M M A"
_symmetry_group_IT_number 51
_symmetry_cell_setting 'orthorhombic'
loop_
_space_group_symop_operation_xyz
x,y,z
1/2-x,-y,z
1/2+x,-y,-z
-x,y,-z
-x,-y,-z
1/2+x,y,-z
1/2-x,y,z
x,-y,z
loop_
_atom_site_type_symbol
_atom_site_label
_atom_site_fract_x
_atom_site_fract_y
_atom_site_fract_z
Si Si1 0.575284 0.285473 0.661601
Si Si2 0.424683 0.280859 0.155945
Si Si3 0.077052 0.424547 0.086323
Si Si4 0.574115 0.155670 0.083872
Si Si5 0.920779 0.081162 0.253623
Si Si6 0.423828 0.574940 0.411885
Si Si7 0.925394 0.144420 0.585780
O O1 0.750000 0.295741 0.670351
O O2 0.517596 0.260563 0.751747
O O3 0.505519 0.360150 0.637972
O O4 0.534971 0.225944 0.595161
O O5 0.250000 0.266184 0.141380
O O6 0.463108 0.362353 0.148517
O O7 0.518246 0.234915 0.091355
O O8 0.250000 0.425489 0.067513
O O9 0.027045 0.500000 0.122677
O O10 0.000000 0.408204 0.000000
O O11 0.750000 0.152433 0.073129
O O12 0.520968 0.114829 0.166960
O O13 0.500000 0.123425 0.000000
O O14 0.750000 0.102596 0.269846
O O15 0.016035 0.103699 0.333707
O O16 0.938645 0.000000 0.242094
O O17 0.500000 0.572823 0.500000
O O18 0.250000 0.587508 0.426055
O O19 0.450612 0.500000 0.366651
O O20 0.750000 0.131754 0.579573
O O21 0.000000 0.117422 0.500000
#
# Coordination Sequence:
#
# PCOD8209629 Si02
#       7
#     8   8   8   8   8   8   8
#     4   9  18  32  52  79 110 145 188 239 287 336
#     4  10  19  34  55  79 111 147 191 242 289 341
#     4   9  18  31  48  71 101 140 185 234 285 336
#     4  11  23  39  62  90 120 154 193 236 288 345
#     4  10  23  44  66  90 121 153 190 237 286 342
#     4   9  17  30  48  71 102 142 187 234 284 337
#     4  11  22  38  62  90 122 158 198 240 289 344
#
# _framework density 20.117999000000001
#
# number of rings (size 3 to 8) (size 9 to 14) (size 15 to 20)
#    0.000    2.143    1.429    1.714    0.000    3.714 
#    0.000    4.286    0.000    0.000    0.000    4.000 
#    0.000    0.000    0.000    0.000    0.000    0.000 
#
# Total GULP energy -694060.676525 kJ/mol
# GULP energy per Si atom -12393.940652 kJ/mol
# Density = 2.007221 g / cm^3
# Si number density = 20.117999 Si / 1000 Ang^3
#
#
#
# Elastic Constant Matrix: (Units=GPa)
#
#
# Indices 1 2 3 4 5 6 
#
# 1 55.4441 33.5320 45.3257 0.0000 0.0000 0.0000
# 2 33.5320 90.2261 42.4850 0.0000 0.0000 0.0000
# 3 45.3257 42.4850 134.9452 0.0000 0.0000 0.0000
# 4 0.0000 0.0000 0.0000 22.9016 0.0000 0.0000
# 5 0.0000 0.0000 0.0000 0.0000 29.4606 0.0000
# 6 0.0000 0.0000 0.0000 0.0000 0.0000 23.5255
#
#
#
# Elastic Compliance Matrix: (Units=1/GPa)
#
#
# Indices 1 2 3 4 5 6 
#
# 1 0.028255 -0.007082 -0.007261 0.000000 0.000000 0.000000
# 2 -0.007082 0.014787 -0.002277 0.000000 0.000000 0.000000
# 3 -0.007261 -0.002277 0.010566 0.000000 0.000000 0.000000
# 4 0.000000 0.000000 0.000000 0.043665 0.000000 0.000000
# 5 0.000000 0.000000 0.000000 0.000000 0.033944 0.000000
# 6 0.000000 0.000000 0.000000 0.000000 0.000000 0.042507
#
#
# Mechanical properties :
#
#
# Convention : Reuss Voigt Hill
#
# Bulk Modulus (GPa) = 49.09349 58.14456 53.61903
# Shear Modulus (GPa) = 23.39151 25.79572 24.59362
#
# Velocity S-wave (km/s) = 3.41356 3.58470 3.50017
# Velocity P-wave (km/s) = 6.32394 6.78954 6.56088
#
# Compressibility (1/GPa) = 0.02036930
#
# Stress axis : x y z
#
# Youngs Moduli (GPa) = 35.39205 67.62558 94.64338
#
# Poissons Ratio (x) = 0.47892 0.68718
# Poissons Ratio (y) = 0.25064 0.21549
# Poissons Ratio (z) = 0.25697 0.15397
#
# Static dielectric constant tensor:
#      x y z
#    x 3.443880 0.000000 0.000000 
#    y 0.000000 3.969390 0.000000 
#    z 0.000000 0.000000 4.397410 
# 
# 
# High freq. dielectric constant tensor:
#      x y z
#    x 1.762690 0.000000 0.000000 
#    y 0.000000 1.795060 0.000000 
#    z 0.000000 0.000000 1.783990 
# 
# From -- ./inp_files/21790.got.cif
#   From: 2010.03.12/outbox.cif.g09.slc.cpg/sg51_11_cif.got.tgz:21790.got - 2010.04.16 13:43:02.
