data_PCOD8209412
_publ_section_title
;
Structure prediction by ZEFSAII (Michael W. Deem and Ramdas Pophale) SiO2 
 PCOD8209412
Probable space group: P M M A
;
_chemical_formula_sum "Si O2"
_cell_formula_units_Z 64
_cell_length_a 8.803316
_cell_length_b 24.410957
_cell_length_c 15.272095
_cell_angle_alpha 90.000000
_cell_angle_beta 90.000000
_cell_angle_gamma 90.000000
_cell_volume 3281.933024
_symmetry_space_group_name_H-M "P M M A"
_symmetry_group_IT_number 51
_symmetry_cell_setting 'orthorhombic'
loop_
_space_group_symop_operation_xyz
x,y,z
1/2-x,-y,z
1/2+x,-y,-z
-x,y,-z
-x,-y,-z
1/2+x,y,-z
1/2-x,y,z
x,-y,z
loop_
_atom_site_type_symbol
_atom_site_label
_atom_site_fract_x
_atom_site_fract_y
_atom_site_fract_z
Si Si1 0.931077 0.853447 0.219341
Si Si2 0.425065 0.562276 0.763767
Si Si3 0.074862 0.742371 0.193103
Si Si4 0.071278 0.599883 0.412592
Si Si5 0.574193 0.064351 0.909003
Si Si6 0.924831 0.290510 0.368428
Si Si7 0.576063 0.637072 0.908759
Si Si8 0.076865 0.167948 0.586512
O O1 0.750000 0.847435 0.215084
O O2 0.987846 0.855062 0.320940
O O3 0.006808 0.801834 0.169464
O O4 0.986642 0.908092 0.171727
O O5 0.250000 0.578276 0.752749
O O6 0.445230 0.500000 0.795941
O O7 0.505271 0.569001 0.670739
O O8 0.498653 0.602270 0.833370
O O9 0.250000 0.748109 0.223274
O O10 0.060944 0.702116 0.109982
O O11 0.974382 0.715214 0.268333
O O12 0.250000 0.592358 0.413909
O O13 0.000000 0.573042 0.500000
O O14 0.030309 0.664340 0.413227
O O15 0.750000 0.081627 0.909153
O O16 0.553007 0.000000 0.896099
O O17 0.500000 0.083868 0.000000
O O18 0.750000 0.309710 0.371396
O O19 0.947425 0.233101 0.417340
O O20 0.750000 0.618971 0.913189
O O21 0.500000 0.622650 0.000000
O O22 0.250000 0.150726 0.580580
O O23 0.000000 0.141770 0.500000
#
# Coordination Sequence:
#
# PCOD8209412 Si02
#       8
#     8   8   8   8   8   8   8   8
#     4  10  21  36  56  85 121 160 200 243 293 347
#     4  11  25  45  67  88 113 147 188 240 297 352
#     4  10  20  35  56  85 119 156 195 235 287 345
#     4  12  24  38  59  87 117 152 191 235 288 348
#     4  10  21  38  61  88 117 152 196 246 299 354
#     4  10  19  33  54  81 115 153 192 236 285 342
#     4  11  24  41  64  91 118 152 192 236 290 351
#     4   9  19  32  49  78 114 155 196 237 285 333
#
# _framework density 19.500703000000001
#
# number of rings (size 3 to 8) (size 9 to 14) (size 15 to 20)
#    0.000    1.625    1.250    4.500    0.000    8.250 
#    0.000    1.250    0.000    0.375    0.000    0.000 
#    0.000    0.000    0.000    0.000    0.000    0.000 
#
# Total GULP energy -793686.889876 kJ/mol
# GULP energy per Si atom -12401.357654 kJ/mol
# Density = 1.945632 g / cm^3
# Si number density = 19.500703 Si / 1000 Ang^3
#
#
#
# Elastic Constant Matrix: (Units=GPa)
#
#
# Indices 1 2 3 4 5 6 
#
# 1 132.7011 36.1127 57.4742 0.0000 0.0000 0.0000
# 2 36.1127 61.5697 43.3479 0.0000 0.0000 0.0000
# 3 57.4742 43.3479 116.6724 0.0000 0.0000 0.0000
# 4 0.0000 0.0000 0.0000 5.3994 0.0000 0.0000
# 5 0.0000 0.0000 0.0000 0.0000 36.9816 0.0000
# 6 0.0000 0.0000 0.0000 0.0000 0.0000 28.7900
#
#
#
# Elastic Compliance Matrix: (Units=1/GPa)
#
#
# Indices 1 2 3 4 5 6 
#
# 1 0.010040 -0.003259 -0.003735 0.000000 0.000000 0.000000
# 2 -0.003259 0.023053 -0.006959 0.000000 0.000000 0.000000
# 3 -0.003735 -0.006959 0.012997 0.000000 0.000000 0.000000
# 4 0.000000 0.000000 0.000000 0.185207 0.000000 0.000000
# 5 0.000000 0.000000 0.000000 0.000000 0.027040 0.000000
# 6 0.000000 0.000000 0.000000 0.000000 0.000000 0.034734
#
#
# Mechanical properties :
#
#
# Convention : Reuss Voigt Hill
#
# Bulk Modulus (GPa) = 54.99802 64.97919 59.98861
# Shear Modulus (GPa) = 15.28860 25.83476 20.56168
#
# Velocity S-wave (km/s) = 2.80304 3.64374 3.25069
# Velocity P-wave (km/s) = 6.22418 7.14817 6.70211
#
# Compressibility (1/GPa) = 0.01818247
#
# Stress axis : x y z
#
# Youngs Moduli (GPa) = 99.59742 43.37779 76.94301
#
# Poissons Ratio (x) = 0.14139 0.28739
# Poissons Ratio (y) = 0.32463 0.53548
# Poissons Ratio (z) = 0.37200 0.30189
#
# Static dielectric constant tensor:
#      x y z
#    x 3.654570 0.000000 0.000000 
#    y 0.000000 3.422680 0.000000 
#    z 0.000000 0.000000 3.577920 
# 
# 
# High freq. dielectric constant tensor:
#      x y z
#    x 1.773990 0.000000 0.000000 
#    y 0.000000 1.737640 0.000000 
#    z 0.000000 0.000000 1.762350 
# 
# From -- ./inp_files/22355.got.cif
#   From: 2010.03.12/outbox.cif.g09.slc.cpg/sg51_12_cif.got.tgz:22355.got - 2010.04.16 13:43:02.
