data_PCOD8209418
_publ_section_title
;
Structure prediction by ZEFSAII (Michael W. Deem and Ramdas Pophale) SiO2 
 PCOD8209418
Probable space group: P M M A
;
_chemical_formula_sum "Si O2"
_cell_formula_units_Z 44
_cell_length_a 8.557889
_cell_length_b 28.606288
_cell_length_c 8.968092
_cell_angle_alpha 90.000000
_cell_angle_beta 90.000000
_cell_angle_gamma 90.000000
_cell_volume 2195.473557
_symmetry_space_group_name_H-M "P M M A"
_symmetry_group_IT_number 51
_symmetry_cell_setting 'orthorhombic'
loop_
_space_group_symop_operation_xyz
x,y,z
1/2-x,-y,z
1/2+x,-y,-z
-x,y,-z
-x,-y,-z
1/2+x,y,-z
1/2-x,y,z
x,-y,z
loop_
_atom_site_type_symbol
_atom_site_label
_atom_site_fract_x
_atom_site_fract_y
_atom_site_fract_z
Si Si1 0.933574 0.049243 0.663258
Si Si2 0.435711 0.591055 0.837303
Si Si3 0.065514 0.763204 0.836765
Si Si4 0.935700 0.150984 0.666915
Si Si5 0.565337 0.322473 0.662130
Si Si6 0.565874 0.500000 0.337067
O O1 0.750000 0.049865 0.649068
O O2 0.984085 0.099283 0.732448
O O3 0.000000 0.047405 0.500000
O O4 0.985672 0.000000 0.746604
O O5 0.250000 0.596650 0.836868
O O6 0.512843 0.637529 0.774309
O O7 0.494449 0.546504 0.744084
O O8 0.500000 0.582498 0.000000
O O9 0.250000 0.759301 0.842755
O O10 0.014546 0.814271 0.783361
O O11 0.000028 0.726753 0.717492
O O12 0.000000 0.752129 0.000000
O O13 0.750000 0.158702 0.664298
O O14 0.000000 0.158867 0.500000
O O15 0.500000 0.334368 0.500000
O O16 0.750000 0.319724 0.654916
O O17 0.750000 0.500000 0.342008
O O18 0.500000 0.500000 0.500000
#
# Coordination Sequence:
#
# PCOD8209418 Si02
#       6
#     8   8   8   8   8   4
#     4   8  14  25  44  72 106 142 180 224 274 327
#     4  11  23  41  63  92 125 162 202 244 293 346
#     4  12  25  42  61  83 112 148 189 235 287 344
#     4  10  19  33  54  82 114 148 187 232 281 335
#     4  12  25  43  65  91 120 153 192 238 288 342
#     4  10  23  40  62  90 124 162 205 250 295 344
#
# _framework density 20.041232000000001
#
# number of rings (size 3 to 8) (size 9 to 14) (size 15 to 20)
#    0.000    1.455    0.000    6.273    0.000    3.636 
#    0.000    0.000    0.000    0.545    0.000    0.000 
#    0.000    0.000    0.000    0.000    0.000    0.000 
#
# Total GULP energy -545380.591730 kJ/mol
# GULP energy per Si atom -12395.013448 kJ/mol
# Density = 1.999562 g / cm^3
# Si number density = 20.041232 Si / 1000 Ang^3
#
#
#
# Elastic Constant Matrix: (Units=GPa)
#
#
# Indices 1 2 3 4 5 6 
#
# 1 115.7793 40.7005 31.8126 0.0000 0.0000 0.0000
# 2 40.7005 145.5318 36.9151 0.0000 0.0000 0.0000
# 3 31.8126 36.9151 97.0883 0.0000 0.0000 0.0000
# 4 0.0000 0.0000 0.0000 9.9112 0.0000 0.0000
# 5 0.0000 0.0000 0.0000 0.0000 34.7257 0.0000
# 6 0.0000 0.0000 0.0000 0.0000 0.0000 19.0522
#
#
#
# Elastic Compliance Matrix: (Units=1/GPa)
#
#
# Indices 1 2 3 4 5 6 
#
# 1 0.010087 -0.002194 -0.002471 0.000000 0.000000 0.000000
# 2 -0.002194 0.008082 -0.002354 0.000000 0.000000 0.000000
# 3 -0.002471 -0.002354 0.012005 0.000000 0.000000 0.000000
# 4 0.000000 0.000000 0.000000 0.100896 0.000000 0.000000
# 5 0.000000 0.000000 0.000000 0.000000 0.028797 0.000000
# 6 0.000000 0.000000 0.000000 0.000000 0.000000 0.052487
#
#
# Mechanical properties :
#
#
# Convention : Reuss Voigt Hill
#
# Bulk Modulus (GPa) = 61.97495 64.13953 63.05724
# Shear Modulus (GPa) = 21.57297 29.33590 25.45443
#
# Velocity S-wave (km/s) = 3.28446 3.83008 3.56772
# Velocity P-wave (km/s) = 6.73605 7.18559 6.96445
#
# Compressibility (1/GPa) = 0.01613555
#
# Stress axis : x y z
#
# Youngs Moduli (GPa) = 99.13291 123.72954 83.30145
#
# Poissons Ratio (x) = 0.27151 0.20584
# Poissons Ratio (y) = 0.21753 0.19609
# Poissons Ratio (z) = 0.24496 0.29126
#
# Static dielectric constant tensor:
#      x y z
#    x 3.807870 0.000000 0.000000 
#    y 0.000000 4.407690 0.000000 
#    z 0.000000 0.000000 3.454620 
# 
# 
# High freq. dielectric constant tensor:
#      x y z
#    x 1.793130 0.000000 0.000000 
#    y 0.000000 1.815370 0.000000 
#    z 0.000000 0.000000 1.760040 
# 
# From -- ./inp_files/5820.got.cif
#   From: 2010.03.12/outbox.cif.g09.slc.cpg/sg51_3_cif.got.tgz:5820.got - 2010.04.16 13:43:02.
