data_PCOD8209325
_publ_section_title
;
Structure prediction by ZEFSAII (Michael W. Deem and Ramdas Pophale) SiO2 
 PCOD8209325
Probable space group: P M M A
;
_chemical_formula_sum "Si O2"
_cell_formula_units_Z 64
_cell_length_a 20.505420
_cell_length_b 8.546988
_cell_length_c 19.607561
_cell_angle_alpha 90.000000
_cell_angle_beta 90.000000
_cell_angle_gamma 90.000000
_cell_volume 3436.412880
_symmetry_space_group_name_H-M "P M M A"
_symmetry_group_IT_number 51
_symmetry_cell_setting 'orthorhombic'
loop_
_space_group_symop_operation_xyz
x,y,z
1/2-x,-y,z
1/2+x,-y,-z
-x,y,-z
-x,-y,-z
1/2+x,y,-z
1/2-x,y,z
x,-y,z
loop_
_atom_site_type_symbol
_atom_site_label
_atom_site_fract_x
_atom_site_fract_y
_atom_site_fract_z
Si Si1 0.823703 0.317409 0.538022
Si Si2 0.625236 0.315474 0.679435
Si Si3 0.561007 0.318026 0.045726
Si Si4 0.370984 0.683524 0.171568
Si Si5 0.987531 0.182065 0.177239
Si Si6 0.824064 0.820433 0.962886
Si Si7 0.939366 0.817282 0.455003
Si Si8 0.521353 0.315770 0.317529
O O1 0.750000 0.286799 0.513847
O O2 0.842480 0.500000 0.532151
O O3 0.830084 0.259518 0.616676
O O4 0.871264 0.216471 0.491670
O O5 0.622396 0.500000 0.682439
O O6 0.652422 0.258896 0.752963
O O7 0.551850 0.253857 0.667675
O O8 0.555182 0.500000 0.062851
O O9 0.562062 0.220477 0.115935
O O10 0.500000 0.261541 0.000000
O O11 0.628431 0.287846 0.006744
O O12 0.358878 0.500000 0.160003
O O13 0.447797 0.716150 0.164074
O O14 0.329645 0.779156 0.116908
O O15 0.953562 0.231767 0.248557
O O16 0.005155 0.000000 0.178122
O O17 0.750000 0.790087 0.986608
O O18 0.844100 0.000000 0.973574
O O19 0.935337 0.732130 0.382162
O O20 0.000000 0.752034 0.500000
O O21 0.947900 0.000000 0.442590
O O22 0.525316 0.500000 0.306140
#
# Coordination Sequence:
#
# PCOD8209325 Si02
#       8
#     8   8   8   8   8   8   8   8
#     4  10  20  35  55  79 108 147 191 231 277 332
#     4   8  16  30  50  77 108 142 183 228 268 317
#     4  11  22  37  60  86 111 145 192 237 276 329
#     4  10  19  33  53  80 111 150 194 230 271 326
#     4  11  21  34  56  85 118 147 178 228 286 334
#     4  11  24  39  55  80 114 152 191 233 286 340
#     4  11  22  35  54  82 112 145 187 232 283 333
#     4  10  19  34  57  82 111 145 186 231 277 327
#
# _framework density 18.624072000000002
#
# number of rings (size 3 to 8) (size 9 to 14) (size 15 to 20)
#    0.000    1.750    2.500    3.750    0.000    2.750 
#    0.000    1.875    0.000    0.750    0.000    0.000 
#    0.000    0.000    0.000    0.000    0.000    0.000 
#
# Total GULP energy -793676.452356 kJ/mol
# GULP energy per Si atom -12401.194568 kJ/mol
# Density = 1.858168 g / cm^3
# Si number density = 18.624072 Si / 1000 Ang^3
#
#
#
# Elastic Constant Matrix: (Units=GPa)
#
#
# Indices 1 2 3 4 5 6 
#
# 1 72.5066 18.0270 37.3770 0.0000 0.0000 0.0000
# 2 18.0270 58.5503 28.3454 0.0000 0.0000 0.0000
# 3 37.3770 28.3454 117.8592 0.0000 0.0000 0.0000
# 4 0.0000 0.0000 0.0000 27.3982 0.0000 0.0000
# 5 0.0000 0.0000 0.0000 0.0000 23.9303 0.0000
# 6 0.0000 0.0000 0.0000 0.0000 0.0000 21.1464
#
#
#
# Elastic Compliance Matrix: (Units=1/GPa)
#
#
# Indices 1 2 3 4 5 6 
#
# 1 0.016928 -0.002957 -0.004657 0.000000 0.000000 0.000000
# 2 -0.002957 0.019847 -0.003835 0.000000 0.000000 0.000000
# 3 -0.004657 -0.003835 0.010884 0.000000 0.000000 0.000000
# 4 0.000000 0.000000 0.000000 0.036499 0.000000 0.000000
# 5 0.000000 0.000000 0.000000 0.000000 0.041788 0.000000
# 6 0.000000 0.000000 0.000000 0.000000 0.000000 0.047289
#
#
# Mechanical properties :
#
#
# Convention : Reuss Voigt Hill
#
# Bulk Modulus (GPa) = 40.38933 46.26833 43.32883
# Shear Modulus (GPa) = 24.46339 25.50609 24.98474
#
# Velocity S-wave (km/s) = 3.62821 3.70472 3.66666
# Velocity P-wave (km/s) = 6.26782 6.57246 6.42194
#
# Compressibility (1/GPa) = 0.02475901
#
# Stress axis : x y z
#
# Youngs Moduli (GPa) = 59.07426 50.38653 91.87781
#
# Poissons Ratio (x) = 0.14901 0.42789
# Poissons Ratio (y) = 0.17470 0.35238
# Poissons Ratio (z) = 0.27512 0.19325
#
# Static dielectric constant tensor:
#      x y z
#    x 3.106040 0.000000 0.000000 
#    y 0.000000 3.275970 0.000000 
#    z 0.000000 0.000000 3.645300 
# 
# 
# High freq. dielectric constant tensor:
#      x y z
#    x 1.687830 0.000000 0.000000 
#    y 0.000000 1.719500 0.000000 
#    z 0.000000 0.000000 1.731120 
# 
# From -- ./inp_files/30515.got.cif
#   From: 2010.03.12/outbox.cif.g09.slc.cpg/sg51_16_cif.got.tgz:30515.got - 2010.04.16 13:43:02.
