data_PCOD8209752
_publ_section_title
;
Structure prediction by ZEFSAII (Michael W. Deem and Ramdas Pophale) SiO2 
 PCOD8209752
Probable space group: P M M A
;
_chemical_formula_sum "Si O2"
_cell_formula_units_Z 64
_cell_length_a 8.917760
_cell_length_b 22.980589
_cell_length_c 16.171818
_cell_angle_alpha 90.000000
_cell_angle_beta 90.000000
_cell_angle_gamma 90.000000
_cell_volume 3314.177624
_symmetry_space_group_name_H-M "P M M A"
_symmetry_group_IT_number 51
_symmetry_cell_setting 'orthorhombic'
loop_
_space_group_symop_operation_xyz
x,y,z
1/2-x,-y,z
1/2+x,-y,-z
-x,y,-z
-x,-y,-z
1/2+x,y,-z
1/2-x,y,z
x,-y,z
loop_
_atom_site_type_symbol
_atom_site_label
_atom_site_fract_x
_atom_site_fract_y
_atom_site_fract_z
Si Si1 0.927345 0.065436 0.762217
Si Si2 0.915013 0.683505 0.694787
Si Si3 0.428808 0.886721 0.413730
Si Si4 0.075526 0.390940 0.920627
Si Si5 0.082973 0.276471 0.119729
Si Si6 0.575338 0.763532 0.419591
Si Si7 0.928195 0.145250 0.913606
Si Si8 0.078648 0.435687 0.236750
O O1 0.750000 0.071689 0.760502
O O2 0.985006 0.079762 0.668858
O O3 0.989867 0.107409 0.835258
O O4 0.978721 0.000000 0.783648
O O5 0.750000 0.692033 0.653050
O O6 0.909094 0.712672 0.783527
O O7 0.955955 0.614694 0.696617
O O8 0.050964 0.715156 0.649538
O O9 0.500000 0.911699 0.500000
O O10 0.250000 0.889194 0.423168
O O11 0.483206 0.821352 0.398835
O O12 0.250000 0.395479 0.929979
O O13 0.028937 0.323042 0.919394
O O14 0.027033 0.427359 0.841377
O O15 0.000000 0.420956 0.000000
O O16 0.250000 0.284212 0.081890
O O17 0.021634 0.211790 0.101793
O O18 0.500000 0.735328 0.500000
O O19 0.750000 0.777979 0.430585
O O20 0.750000 0.138930 0.920044
O O21 0.000000 0.122922 0.000000
O O22 0.250000 0.428207 0.206436
O O23 0.051041 0.500000 0.275271
#
# Coordination Sequence:
#
# PCOD8209752 Si02
#       8
#     8   8   8   8   8   8   8   8
#     4   9  19  36  56  76 102 141 183 216 255 316
#     4   9  17  32  54  78 104 133 167 208 254 305
#     4  10  19  34  57  83 110 139 171 211 262 319
#     4  11  21  32  48  71 100 132 166 209 258 307
#     4   9  18  33  52  74 101 133 168 209 261 320
#     4  11  21  33  52  79 110 139 167 202 248 303
#     4  10  20  34  53  76 102 136 179 224 268 313
#     4   9  19  36  55  73  96 131 172 209 249 300
#
# _framework density 19.310974000000002
#
# number of rings (size 3 to 8) (size 9 to 14) (size 15 to 20)
#    0.000    2.250    0.000    5.250    0.000    6.500 
#    0.000    2.500    0.000    3.000    0.000    0.000 
#    0.000    0.000    0.000    0.000    0.000    0.000 
#
# Total GULP energy -793205.907087 kJ/mol
# GULP energy per Si atom -12393.842298 kJ/mol
# Density = 1.926702 g / cm^3
# Si number density = 19.310974 Si / 1000 Ang^3
#
#
#
# Elastic Constant Matrix: (Units=GPa)
#
#
# Indices 1 2 3 4 5 6 
#
# 1 74.1420 11.7892 18.7122 0.0000 0.0000 0.0000
# 2 11.7892 82.5631 35.9512 0.0000 0.0000 0.0000
# 3 18.7122 35.9512 83.0783 0.0000 0.0000 0.0000
# 4 0.0000 0.0000 0.0000 0.4772 0.0000 0.0000
# 5 0.0000 0.0000 0.0000 0.0000 31.6617 0.0000
# 6 0.0000 0.0000 0.0000 0.0000 0.0000 12.4035
#
#
#
# Elastic Compliance Matrix: (Units=1/GPa)
#
#
# Indices 1 2 3 4 5 6 
#
# 1 0.014342 -0.000790 -0.002888 0.000000 0.000000 0.000000
# 2 -0.000790 0.014968 -0.006299 0.000000 0.000000 0.000000
# 3 -0.002888 -0.006299 0.015413 0.000000 0.000000 0.000000
# 4 0.000000 0.000000 0.000000 2.095711 0.000000 0.000000
# 5 0.000000 0.000000 0.000000 0.000000 0.031584 0.000000
# 6 0.000000 0.000000 0.000000 0.000000 0.000000 0.080622
#
#
# Mechanical properties :
#
#
# Convention : Reuss Voigt Hill
#
# Bulk Modulus (GPa) = 40.37512 41.40985 40.89249
# Shear Modulus (GPa) = 2.19216 20.46386 11.32801
#
# Velocity S-wave (km/s) = 1.06661 3.25884 2.42463
# Velocity P-wave (km/s) = 4.74027 5.97078 5.39075
#
# Compressibility (1/GPa) = 0.02476773
#
# Stress axis : x y z
#
# Youngs Moduli (GPa) = 69.72392 66.81065 64.87903
#
# Poissons Ratio (x) = 0.05279 0.18740
# Poissons Ratio (y) = 0.05510 0.40868
# Poissons Ratio (z) = 0.20139 0.42085
#
# Static dielectric constant tensor:
#      x y z
#    x 3.390940 0.000000 0.000000 
#    y 0.000000 3.594660 0.000000 
#    z 0.000000 0.000000 3.717450 
# 
# 
# High freq. dielectric constant tensor:
#      x y z
#    x 1.735660 0.000000 0.000000 
#    y 0.000000 1.747070 0.000000 
#    z 0.000000 0.000000 1.743940 
# 
# From -- ./inp_files/22262.got.cif
#   From: 2010.03.12/outbox.cif.g09.slc.cpg/sg51_12_cif.got.tgz:22262.got - 2010.04.16 13:43:02.
