data_PCOD8209899
_publ_section_title
;
Structure prediction by ZEFSAII (Michael W. Deem and Ramdas Pophale) SiO2 
 PCOD8209899
Probable space group: P M M A
;
_chemical_formula_sum "Si O2"
_cell_formula_units_Z 48
_cell_length_a 8.931515
_cell_length_b 10.318080
_cell_length_c 28.289843
_cell_angle_alpha 90.000000
_cell_angle_beta 90.000000
_cell_angle_gamma 90.000000
_cell_volume 2607.081213
_symmetry_space_group_name_H-M "P M M A"
_symmetry_group_IT_number 51
_symmetry_cell_setting 'orthorhombic'
loop_
_space_group_symop_operation_xyz
x,y,z
1/2-x,-y,z
1/2+x,-y,-z
-x,y,-z
-x,-y,-z
1/2+x,y,-z
1/2-x,y,z
x,-y,z
loop_
_atom_site_type_symbol
_atom_site_label
_atom_site_fract_x
_atom_site_fract_y
_atom_site_fract_z
Si Si1 0.926573 0.000000 0.703959
Si Si2 0.072465 0.500000 0.716610
Si Si3 0.426787 0.500000 0.610383
Si Si4 0.076235 0.852683 0.139423
Si Si5 0.073948 0.749835 0.240746
Si Si6 0.928596 0.000000 0.594912
Si Si7 0.581063 0.154342 0.046301
Si Si8 0.570775 0.746142 0.449554
O O1 0.989457 0.871725 0.729451
O O2 0.750000 0.000000 0.710301
O O3 0.975900 0.000000 0.649615
O O4 0.250000 0.500000 0.716388
O O5 0.007236 0.500000 0.663301
O O6 0.015189 0.625032 0.743543
O O7 0.250000 0.500000 0.611956
O O8 0.482199 0.628810 0.583897
O O9 0.250000 0.849124 0.127139
O O10 0.038678 0.769357 0.185566
O O11 0.991816 0.791265 0.094435
O O12 0.024497 0.000000 0.149298
O O13 0.250000 0.730327 0.249711
O O14 0.000141 0.123757 0.570522
O O15 0.750000 0.000000 0.588031
O O16 0.750000 0.202946 0.044489
O O17 0.567307 0.000000 0.046403
O O18 0.500000 0.211726 0.000000
O O19 0.500000 0.716132 0.500000
O O20 0.750000 0.758847 0.453076
#
# Coordination Sequence:
#
# PCOD8209899 Si02
#       8
#     4   4   4   8   8   4   8   8
#     4   9  18  34  58  83 106 135 180 226 262 307
#     4  11  23  38  54  78 111 143 176 216 263 316
#     4   9  21  40  60  80 106 139 175 218 267 316
#     4   9  16  28  48  72 100 134 173 217 266 314
#     4  10  19  35  56  79 105 140 180 222 268 315
#     4  11  22  36  55  83 114 143 175 214 259 313
#     4   9  16  25  39  63  98 136 174 215 262 313
#     4  11  22  39  60  82 108 139 175 216 263 315
#
# _framework density 18.411394999999999
#
# number of rings (size 3 to 8) (size 9 to 14) (size 15 to 20)
#    0.000    2.167    0.833    3.000    0.000    2.667 
#    0.000    5.000    0.000    0.000    0.000    0.583 
#    0.000    0.000    0.000    0.000    0.000    0.000 
#
# Total GULP energy -595241.681795 kJ/mol
# GULP energy per Si atom -12400.868371 kJ/mol
# Density = 1.836949 g / cm^3
# Si number density = 18.411395 Si / 1000 Ang^3
#
#
#
# Elastic Constant Matrix: (Units=GPa)
#
#
# Indices 1 2 3 4 5 6 
#
# 1 79.5695 40.5292 67.3938 0.0000 0.0000 0.0000
# 2 40.5292 120.8124 65.1572 0.0000 0.0000 0.0000
# 3 67.3938 65.1572 166.3784 0.0000 0.0000 0.0000
# 4 0.0000 0.0000 0.0000 14.8659 0.0000 0.0000
# 5 0.0000 0.0000 0.0000 0.0000 28.0200 0.0000
# 6 0.0000 0.0000 0.0000 0.0000 0.0000 -21.5460
#
#
#
# Elastic Compliance Matrix: (Units=1/GPa)
#
#
# Indices 1 2 3 4 5 6 
#
# 1 0.019931 -0.002957 -0.006915 0.000000 0.000000 0.000000
# 2 -0.002957 0.010932 -0.003084 0.000000 0.000000 0.000000
# 3 -0.006915 -0.003084 0.010019 0.000000 0.000000 0.000000
# 4 0.000000 0.000000 0.000000 0.067268 0.000000 0.000000
# 5 0.000000 0.000000 0.000000 0.000000 0.035689 0.000000
# 6 0.000000 0.000000 0.000000 0.000000 0.000000 -0.046412
#
#
# Mechanical properties :
#
#
# Convention : Reuss Voigt Hill
#
# Bulk Modulus (GPa) = 66.79609 79.21341 73.00475
# Shear Modulus (GPa) = 38.96256 17.17999 28.07127
#
# Velocity S-wave (km/s) = 4.60523 3.05801 3.90894
# Velocity P-wave (km/s) = 8.03965 7.45561 7.75313
#
# Compressibility (1/GPa) = 0.01497094
#
# Stress axis : x y z
#
# Youngs Moduli (GPa) = 50.17365 91.47236 99.80839
#
# Poissons Ratio (x) = 0.27045 0.69021
# Poissons Ratio (y) = 0.14834 0.30778
# Poissons Ratio (z) = 0.34697 0.28207
#
# Static dielectric constant tensor:
#      x y z
#    x 3.281460 0.000000 0.000000 
#    y 0.000000 3.259510 0.000000 
#    z 0.000000 0.000000 3.712890 
# 
# 
# High freq. dielectric constant tensor:
#      x y z
#    x 1.703930 0.000000 0.000000 
#    y 0.000000 1.689030 0.000000 
#    z 0.000000 0.000000 1.734810 
# 
# From -- ./inp_files/37250.got.cif
#   From: 2010.03.12/outbox.cif.g09.slc.cpg/sg51_19_cif.got.tgz:37250.got - 2010.04.16 13:43:02.
