data_PCOD8209385
_publ_section_title
;
Structure prediction by ZEFSAII (Michael W. Deem and Ramdas Pophale) SiO2 
 PCOD8209385
Probable space group: P M M A
;
_chemical_formula_sum "Si O2"
_cell_formula_units_Z 48
_cell_length_a 8.936276
_cell_length_b 30.681164
_cell_length_c 9.587378
_cell_angle_alpha 90.000000
_cell_angle_beta 90.000000
_cell_angle_gamma 90.000000
_cell_volume 2628.622714
_symmetry_space_group_name_H-M "P M M A"
_symmetry_group_IT_number 51
_symmetry_cell_setting 'orthorhombic'
loop_
_space_group_symop_operation_xyz
x,y,z
1/2-x,-y,z
1/2+x,-y,-z
-x,y,-z
-x,-y,-z
1/2+x,y,-z
1/2-x,y,z
x,-y,z
loop_
_atom_site_type_symbol
_atom_site_label
_atom_site_fract_x
_atom_site_fract_y
_atom_site_fract_z
Si Si1 0.925996 0.116273 0.349388
Si Si2 0.075028 0.450858 0.358884
Si Si3 0.076479 0.050365 0.144104
Si Si4 0.427174 0.624074 0.151008
Si Si5 0.578953 0.789907 0.355363
Si Si6 0.572928 0.694960 0.347222
O O1 0.750000 0.106845 0.361497
O O2 0.957644 0.164204 0.276442
O O3 0.000000 0.115394 0.500000
O O4 0.001524 0.078445 0.263024
O O5 0.250000 0.449439 0.386215
O O6 0.019493 0.500000 0.326196
O O7 0.030324 0.420889 0.228555
O O8 0.000000 0.432727 0.500000
O O9 0.250000 0.061830 0.132416
O O10 0.049736 0.000000 0.181618
O O11 0.000000 0.063074 0.000000
O O12 0.250000 0.630396 0.137321
O O13 0.495122 0.663388 0.238513
O O14 0.500000 0.622576 0.000000
O O15 0.500000 0.790613 0.500000
O O16 0.750000 0.789972 0.396231
O O17 0.541087 0.743638 0.281833
O O18 0.500000 0.689354 0.500000
O O19 0.750000 0.685140 0.358290
#
# Coordination Sequence:
#
# PCOD8209385 Si02
#       6
#     8   8   8   8   8   8
#     4  10  19  33  54  80 108 136 170 212 258 306
#     4   9  19  36  57  80 105 134 171 214 258 307
#     4  10  21  37  55  75 101 135 174 214 258 309
#     4  11  23  37  53  76 107 141 177 217 263 311
#     4   8  16  30  50  76 104 134 168 209 255 304
#     4  10  19  34  56  80 106 137 175 215 257 306
#
# _framework density 18.260514000000001
#
# number of rings (size 3 to 8) (size 9 to 14) (size 15 to 20)
#    0.000    2.333    0.000    2.500    0.000    5.667 
#    0.000    0.833    0.000    0.000    0.000    0.000 
#    0.000    0.000    0.000    0.000    0.000    0.000 
#
# Total GULP energy -594779.888212 kJ/mol
# GULP energy per Si atom -12391.247671 kJ/mol
# Density = 1.821895 g / cm^3
# Si number density = 18.260514 Si / 1000 Ang^3
#
#
#
# Elastic Constant Matrix: (Units=GPa)
#
#
# Indices 1 2 3 4 5 6 
#
# 1 93.5631 65.9798 59.3747 0.0000 0.0000 0.0000
# 2 65.9798 126.9033 78.6838 0.0000 0.0000 0.0000
# 3 59.3747 78.6838 117.0867 0.0000 0.0000 0.0000
# 4 0.0000 0.0000 0.0000 -29.9238 0.0000 0.0000
# 5 0.0000 0.0000 0.0000 0.0000 33.5076 0.0000
# 6 0.0000 0.0000 0.0000 0.0000 0.0000 -24.8488
#
#
#
# Elastic Compliance Matrix: (Units=1/GPa)
#
#
# Indices 1 2 3 4 5 6 
#
# 1 0.018428 -0.006492 -0.004982 0.000000 0.000000 0.000000
# 2 -0.006492 0.015796 -0.007323 0.000000 0.000000 0.000000
# 3 -0.004982 -0.007323 0.015988 0.000000 0.000000 0.000000
# 4 0.000000 0.000000 0.000000 -0.033418 0.000000 0.000000
# 5 0.000000 0.000000 0.000000 0.000000 0.029844 0.000000
# 6 0.000000 0.000000 0.000000 0.000000 0.000000 -0.040243
#
#
# Mechanical properties :
#
#
# Convention : Reuss Voigt Hill
#
# Bulk Modulus (GPa) = 79.25279 82.84774 81.05027
# Shear Modulus (GPa) = 103.74953 4.64800 54.19876
#
# Velocity S-wave (km/s) = 7.54584 1.59716 5.45392
# Velocity P-wave (km/s) = 10.92772 6.99068 9.17291
#
# Compressibility (1/GPa) = 0.01261785
#
# Stress axis : x y z
#
# Youngs Moduli (GPa) = 54.26663 63.30845 62.54651
#
# Poissons Ratio (x) = 0.41099 0.31161
# Poissons Ratio (y) = 0.35229 0.45802
# Poissons Ratio (z) = 0.27035 0.46360
#
# Static dielectric constant tensor:
#      x y z
#    x 3.586820 0.000000 0.000000 
#    y 0.000000 4.142800 0.000000 
#    z 0.000000 0.000000 3.091610 
# 
# 
# High freq. dielectric constant tensor:
#      x y z
#    x 1.722680 0.000000 0.000000 
#    y 0.000000 1.731400 0.000000 
#    z 0.000000 0.000000 1.677000 
# 
# From -- ./inp_files/6061.got.cif
#   From: 2010.03.12/outbox.cif.g09.slc.cpg/sg51_4_cif.got.tgz:6061.got - 2010.04.16 13:43:02.
