data_PCOD8209647
_publ_section_title
;
Structure prediction by ZEFSAII (Michael W. Deem and Ramdas Pophale) SiO2 
 PCOD8209647
Probable space group: P M M A
;
_chemical_formula_sum "Si O2"
_cell_formula_units_Z 56
_cell_length_a 9.364291
_cell_length_b 21.600709
_cell_length_c 14.723449
_cell_angle_alpha 90.000000
_cell_angle_beta 90.000000
_cell_angle_gamma 90.000000
_cell_volume 2978.190430
_symmetry_space_group_name_H-M "P M M A"
_symmetry_group_IT_number 51
_symmetry_cell_setting 'orthorhombic'
loop_
_space_group_symop_operation_xyz
x,y,z
1/2-x,-y,z
1/2+x,-y,-z
-x,y,-z
-x,-y,-z
1/2+x,y,-z
1/2-x,y,z
x,-y,z
loop_
_atom_site_type_symbol
_atom_site_label
_atom_site_fract_x
_atom_site_fract_y
_atom_site_fract_z
Si Si1 0.923262 0.619730 0.402917
Si Si2 0.920385 0.295684 0.732882
Si Si3 0.957621 0.500000 0.895294
Si Si4 0.912370 0.500000 0.295136
Si Si5 0.081135 0.846066 0.250729
Si Si6 0.415107 0.929897 0.410130
Si Si7 0.915786 0.929934 0.909457
Si Si8 0.404058 0.635415 0.088688
O O1 0.750000 0.624888 0.412275
O O2 0.976568 0.561262 0.342473
O O3 0.000000 0.614171 0.500000
O O4 0.988266 0.679449 0.352022
O O5 0.750000 0.304001 0.716035
O O6 0.966414 0.224823 0.745642
O O7 0.971628 0.330054 0.824946
O O8 0.075957 0.500000 0.814896
O O9 0.873817 0.436043 0.883048
O O10 0.000000 0.500000 0.000000
O O11 0.750000 0.500000 0.322109
O O12 0.250000 0.852696 0.250423
O O13 0.020232 0.882673 0.337023
O O14 0.021521 0.880545 0.161908
O O15 0.500000 0.915743 0.500000
O O16 0.250000 0.916934 0.430058
O O17 0.438403 0.000000 0.375505
O O18 0.750000 0.918580 0.929188
O O19 0.941305 0.000000 0.873841
O O20 0.000000 0.916549 0.000000
O O21 0.250000 0.664999 0.065836
O O22 0.500000 0.643245 0.000000
#
# Coordination Sequence:
#
# PCOD8209647 Si02
#       8
#     8   8   4   4   8   8   8   8
#     4  11  23  41  62  85 110 143 182 228 279 328
#     4  10  21  38  56  79 109 145 185 226 270 323
#     4  10  19  34  55  85 111 140 176 217 269 318
#     4  10  21  38  62  87 114 143 180 228 275 327
#     4   9  18  33  54  76 104 142 181 218 262 320
#     4   9  17  31  52  77 102 131 169 214 263 313
#     4   9  17  31  52  78 107 142 183 227 273 321
#     4  10  21  35  54  79 108 142 179 220 267 320
#
# _framework density 18.803363999999998
#
# number of rings (size 3 to 8) (size 9 to 14) (size 15 to 20)
#    0.000    2.286    1.429    1.286    0.000    5.714 
#    0.000    4.643    0.000    3.429    0.000    0.000 
#    0.000    0.000    0.000    0.000    0.000    0.000 
#
# Total GULP energy -693934.802087 kJ/mol
# GULP energy per Si atom -12391.692894 kJ/mol
# Density = 1.876057 g / cm^3
# Si number density = 18.803364 Si / 1000 Ang^3
#
#
#
# Elastic Constant Matrix: (Units=GPa)
#
#
# Indices 1 2 3 4 5 6 
#
# 1 57.7000 32.4773 47.7326 0.0000 0.0000 0.0000
# 2 32.4773 138.5727 84.6284 0.0000 0.0000 0.0000
# 3 47.7326 84.6284 151.3348 0.0000 0.0000 0.0000
# 4 0.0000 0.0000 0.0000 1.4774 0.0000 0.0000
# 5 0.0000 0.0000 0.0000 0.0000 26.6175 0.0000
# 6 0.0000 0.0000 0.0000 0.0000 0.0000 20.5338
#
#
#
# Elastic Compliance Matrix: (Units=1/GPa)
#
#
# Indices 1 2 3 4 5 6 
#
# 1 0.023653 -0.001499 -0.006622 0.000000 0.000000 0.000000
# 2 -0.001499 0.011054 -0.005709 0.000000 0.000000 0.000000
# 3 -0.006622 -0.005709 0.011889 0.000000 0.000000 0.000000
# 4 0.000000 0.000000 0.000000 0.676874 0.000000 0.000000
# 5 0.000000 0.000000 0.000000 0.000000 0.037569 0.000000
# 6 0.000000 0.000000 0.000000 0.000000 0.000000 0.048700
#
#
# Mechanical properties :
#
#
# Convention : Reuss Voigt Hill
#
# Bulk Modulus (GPa) = 52.80961 75.25381 64.03171
# Shear Modulus (GPa) = 5.92620 21.91035 13.91828
#
# Velocity S-wave (km/s) = 1.77722 3.41726 2.72362
# Velocity P-wave (km/s) = 5.68837 7.46181 6.63461
#
# Compressibility (1/GPa) = 0.01893595
#
# Stress axis : x y z
#
# Youngs Moduli (GPa) = 42.27793 90.46266 84.11213
#
# Poissons Ratio (x) = 0.13565 0.55698
# Poissons Ratio (y) = 0.06339 0.48018
# Poissons Ratio (z) = 0.27996 0.51643
#
# Static dielectric constant tensor:
#      x y z
#    x 3.173110 0.000000 0.000000 
#    y 0.000000 3.728210 0.000000 
#    z 0.000000 0.000000 3.504870 
# 
# 
# High freq. dielectric constant tensor:
#      x y z
#    x 1.704750 0.000000 0.000000 
#    y 0.000000 1.735110 0.000000 
#    z 0.000000 0.000000 1.739320 
# 
# From -- ./inp_files/21901.got.cif
#   From: 2010.03.12/outbox.cif.g09.slc.cpg/sg51_11_cif.got.tgz:21901.got - 2010.04.16 13:43:02.
