data_PCOD8209101
_publ_section_title
;
Structure prediction by ZEFSAII (Michael W. Deem and Ramdas Pophale) SiO2 
 PCOD8209101
Probable space group: P M M A
;
_chemical_formula_sum "Si O2"
_cell_formula_units_Z 48
_cell_length_a 8.893736
_cell_length_b 30.888016
_cell_length_c 9.123485
_cell_angle_alpha 90.000000
_cell_angle_beta 90.000000
_cell_angle_gamma 90.000000
_cell_volume 2506.311286
_symmetry_space_group_name_H-M "P M M A"
_symmetry_group_IT_number 51
_symmetry_cell_setting 'orthorhombic'
loop_
_space_group_symop_operation_xyz
x,y,z
1/2-x,-y,z
1/2+x,-y,-z
-x,y,-z
-x,-y,-z
1/2+x,y,-z
1/2-x,y,z
x,-y,z
loop_
_atom_site_type_symbol
_atom_site_label
_atom_site_fract_x
_atom_site_fract_y
_atom_site_fract_z
Si Si1 0.925983 0.548522 0.649996
Si Si2 0.925119 0.045641 0.655741
Si Si3 0.572090 0.860230 0.659873
Si Si4 0.924053 0.701639 0.345616
Si Si5 0.576421 0.213567 0.153261
Si Si6 0.072739 0.372202 0.157023
O O1 0.750000 0.549365 0.622008
O O2 0.982052 0.500000 0.689965
O O3 0.970251 0.580184 0.782777
O O4 0.000000 0.565172 0.500000
O O5 0.750000 0.046268 0.626267
O O6 0.968338 0.091861 0.728425
O O7 0.000000 0.044064 0.500000
O O8 0.968456 0.000000 0.741104
O O9 0.500000 0.853668 0.500000
O O10 0.750000 0.852821 0.645249
O O11 0.504637 0.826911 0.773817
O O12 0.750000 0.689300 0.366236
O O13 0.944439 0.744701 0.252716
O O14 0.000000 0.710862 0.500000
O O15 0.008678 0.662475 0.268840
O O16 0.750000 0.201967 0.128910
O O17 0.500000 0.224402 0.000000
O O18 0.250000 0.365692 0.142765
O O19 0.000000 0.365543 0.000000
#
# Coordination Sequence:
#
# PCOD8209101 Si02
#       6
#     8   8   8   8   8   8
#     4   9  19  36  57  82 112 147 188 232 277 325
#     4   8  14  25  43  70 103 137 173 215 263 312
#     4  10  19  32  53  80 110 143 180 223 268 318
#     4  11  24  41  62  86 112 143 180 223 271 324
#     4  11  24  40  58  80 108 142 179 222 272 325
#     4  11  23  38  58  84 116 151 187 229 276 327
#
# _framework density 19.151651000000001
#
# number of rings (size 3 to 8) (size 9 to 14) (size 15 to 20)
#    0.000    2.000    0.000    3.500    0.000    9.000 
#    0.000    0.000    0.000    0.500    0.000    0.000 
#    0.000    0.000    0.000    0.000    0.000    0.000 
#
# Total GULP energy -594911.323638 kJ/mol
# GULP energy per Si atom -12393.985909 kJ/mol
# Density = 1.910806 g / cm^3
# Si number density = 19.151651 Si / 1000 Ang^3
#
#
#
# Elastic Constant Matrix: (Units=GPa)
#
#
# Indices 1 2 3 4 5 6 
#
# 1 97.3212 60.3522 53.5138 0.0000 0.0000 0.0000
# 2 60.3522 115.9323 42.9552 0.0000 0.0000 0.0000
# 3 53.5138 42.9552 103.0732 0.0000 0.0000 0.0000
# 4 0.0000 0.0000 0.0000 -140.2136 0.0000 0.0000
# 5 0.0000 0.0000 0.0000 0.0000 31.5458 0.0000
# 6 0.0000 0.0000 0.0000 0.0000 0.0000 19.6031
#
#
#
# Elastic Compliance Matrix: (Units=1/GPa)
#
#
# Indices 1 2 3 4 5 6 
#
# 1 0.018259 -0.007087 -0.006526 0.000000 0.000000 0.000000
# 2 -0.007087 0.012952 -0.001718 0.000000 0.000000 0.000000
# 3 -0.006526 -0.001718 0.013806 0.000000 0.000000 0.000000
# 4 0.000000 0.000000 0.000000 -0.007132 0.000000 0.000000
# 5 0.000000 0.000000 0.000000 0.000000 0.031700 0.000000
# 6 0.000000 0.000000 0.000000 0.000000 0.000000 0.051012
#
#
# Mechanical properties :
#
#
# Convention : Reuss Voigt Hill
#
# Bulk Modulus (GPa) = 69.66704 69.99655 69.83180
# Shear Modulus (GPa) = 32.04227 -7.17922 12.43153
#
# Velocity S-wave (km/s) = 4.09477 -1.93824 2.55053
# Velocity P-wave (km/s) = 7.66888 5.62307 6.72423
#
# Compressibility (1/GPa) = 0.01435399
#
# Stress axis : x y z
#
# Youngs Moduli (GPa) = 54.76853 77.20995 72.43197
#
# Poissons Ratio (x) = 0.54719 0.47270
# Poissons Ratio (y) = 0.38815 0.12444
# Poissons Ratio (z) = 0.35742 0.13265
#
# Static dielectric constant tensor:
#      x y z
#    x 3.703890 0.000000 0.000000 
#    y 0.000000 4.241310 0.000000 
#    z 0.000000 0.000000 3.265940 
# 
# 
# High freq. dielectric constant tensor:
#      x y z
#    x 1.756400 0.000000 0.000000 
#    y 0.000000 1.773140 0.000000 
#    z 0.000000 0.000000 1.719480 
# 
# From -- ./inp_files/6016.got.cif
#   From: 2010.03.12/outbox.cif.g09.slc.cpg/sg51_4_cif.got.tgz:6016.got - 2010.04.16 13:43:02.
