data_PCOD8209644
_publ_section_title
;
Structure prediction by ZEFSAII (Michael W. Deem and Ramdas Pophale) SiO2 
 PCOD8209644
Probable space group: P M M A
;
_chemical_formula_sum "Si O2"
_cell_formula_units_Z 56
_cell_length_a 19.385973
_cell_length_b 8.937009
_cell_length_c 16.664308
_cell_angle_alpha 90.000000
_cell_angle_beta 90.000000
_cell_angle_gamma 90.000000
_cell_volume 2887.134941
_symmetry_space_group_name_H-M "P M M A"
_symmetry_group_IT_number 51
_symmetry_cell_setting 'orthorhombic'
loop_
_space_group_symop_operation_xyz
x,y,z
1/2-x,-y,z
1/2+x,-y,-z
-x,y,-z
-x,-y,-z
1/2+x,y,-z
1/2-x,y,z
x,-y,z
loop_
_atom_site_type_symbol
_atom_site_label
_atom_site_fract_x
_atom_site_fract_y
_atom_site_fract_z
Si Si1 0.011836 0.833350 0.409876
Si Si2 0.750000 0.823332 0.592226
Si Si3 0.750000 0.178235 0.410535
Si Si4 0.578873 0.322417 0.855235
Si Si5 0.828934 0.321755 0.001815
Si Si6 0.077614 0.322583 0.851614
Si Si7 0.374640 0.674190 0.319121
Si Si8 0.123542 0.167240 0.692566
O O1 0.940298 0.840142 0.365633
O O2 0.000000 0.780477 0.500000
O O3 0.056666 0.705582 0.368701
O O4 0.046520 0.000000 0.407855
O O5 0.750000 0.756627 0.501460
O O6 0.684715 0.769982 0.641504
O O7 0.750000 0.000000 0.588258
O O8 0.815529 0.237504 0.360936
O O9 0.750000 0.000000 0.416032
O O10 0.574748 0.500000 0.859520
O O11 0.629063 0.260136 0.924761
O O12 0.500456 0.258915 0.864070
O O13 0.612575 0.270571 0.771692
O O14 0.750000 0.259587 0.002408
O O15 0.826807 0.500000 0.000227
O O16 0.871272 0.263324 0.078973
O O17 0.074825 0.500000 0.852297
O O18 0.109430 0.271522 0.768004
O O19 0.355676 0.500000 0.322025
O O20 0.142274 0.000000 0.723118
#
# Coordination Sequence:
#
# PCOD8209644 Si02
#       8
#     8   4   4   8   8   8   8   8
#     4  10  20  36  58  82 110 150 197 237 275 333
#     4  11  23  41  61  80 111 154 198 239 279 339
#     4   9  20  39  59  78 105 150 198 231 273 335
#     4   9  18  33  53  79 115 149 178 222 279 335
#     4   9  18  31  53  83 110 143 186 226 265 326
#     4  10  19  34  55  83 113 143 181 225 277 332
#     4  11  22  36  57  87 117 147 186 236 294 341
#     4  10  20  35  57  82 109 145 188 231 279 334
#
# _framework density 19.396391999999999
#
# number of rings (size 3 to 8) (size 9 to 14) (size 15 to 20)
#    0.000    2.143    1.429    1.929    2.000    4.286 
#    0.000    2.857    0.000    3.429    0.000    0.000 
#    0.000    0.000    0.000    0.000    0.000    0.000 
#
# Total GULP energy -694291.106990 kJ/mol
# GULP energy per Si atom -12398.055482 kJ/mol
# Density = 1.935224 g / cm^3
# Si number density = 19.396392 Si / 1000 Ang^3
#
#
#
# Elastic Constant Matrix: (Units=GPa)
#
#
# Indices 1 2 3 4 5 6 
#
# 1 152.4118 20.1627 83.0630 0.0000 0.0000 0.0000
# 2 20.1627 20.4667 21.6195 0.0000 0.0000 0.0000
# 3 83.0630 21.6195 179.9039 0.0000 0.0000 0.0000
# 4 0.0000 0.0000 0.0000 -2.0420 0.0000 0.0000
# 5 0.0000 0.0000 0.0000 0.0000 36.2964 0.0000
# 6 0.0000 0.0000 0.0000 0.0000 0.0000 24.2261
#
#
#
# Elastic Compliance Matrix: (Units=1/GPa)
#
#
# Indices 1 2 3 4 5 6 
#
# 1 0.009237 -0.005263 -0.003632 0.000000 0.000000 0.000000
# 2 -0.005263 0.058963 -0.004656 0.000000 0.000000 0.000000
# 3 -0.003632 -0.004656 0.007795 0.000000 0.000000 0.000000
# 4 0.000000 0.000000 0.000000 -0.489720 0.000000 0.000000
# 5 0.000000 0.000000 0.000000 0.000000 0.027551 0.000000
# 6 0.000000 0.000000 0.000000 0.000000 0.000000 0.041278
#
#
# Mechanical properties :
#
#
# Convention : Reuss Voigt Hill
#
# Bulk Modulus (GPa) = 20.45292 66.94141 43.69716
# Shear Modulus (GPa) = -16.58390 26.89192 5.15401
#
# Velocity S-wave (km/s) = -2.92721 3.72753 1.63186
# Velocity P-wave (km/s) = 0.92582 7.28788 5.11156
#
# Compressibility (1/GPa) = 0.04889278
#
# Stress axis : x y z
#
# Youngs Moduli (GPa) = 108.26030 16.95989 128.28581
#
# Poissons Ratio (x) = 0.08926 0.46598
# Poissons Ratio (y) = 0.56976 0.59727
# Poissons Ratio (z) = 0.39324 0.07896
#
# Static dielectric constant tensor:
#      x y z
#    x 3.859310 0.000000 0.000000 
#    y 0.000000 3.173360 0.000000 
#    z 0.000000 0.000000 3.837210 
# 
# 
# High freq. dielectric constant tensor:
#      x y z
#    x 1.769540 0.000000 0.000000 
#    y 0.000000 1.707750 0.000000 
#    z 0.000000 0.000000 1.771070 
# 
# From -- ./inp_files/25866.got.cif
#   From: 2010.03.12/outbox.cif.g09.slc.cpg/sg51_13_cif.got.tgz:25866.got - 2010.04.16 13:43:02.
