data_PCOD8209239
_publ_section_title
;
Structure prediction by ZEFSAII (Michael W. Deem and Ramdas Pophale) SiO2 
 PCOD8209239
Probable space group: P M M A
;
_chemical_formula_sum "Si O2"
_cell_formula_units_Z 48
_cell_length_a 30.677297
_cell_length_b 9.265703
_cell_length_c 9.484805
_cell_angle_alpha 90.000000
_cell_angle_beta 90.000000
_cell_angle_gamma 90.000000
_cell_volume 2696.024738
_symmetry_space_group_name_H-M "P M M A"
_symmetry_group_IT_number 51
_symmetry_cell_setting 'orthorhombic'
loop_
_space_group_symop_operation_xyz
x,y,z
1/2-x,-y,z
1/2+x,-y,-z
-x,y,-z
-x,-y,-z
1/2+x,y,-z
1/2-x,y,z
x,-y,z
loop_
_atom_site_type_symbol
_atom_site_label
_atom_site_fract_x
_atom_site_fract_y
_atom_site_fract_z
Si Si1 0.299637 0.167130 0.193049
Si Si2 0.489362 0.831795 0.659120
Si Si3 0.567232 0.668598 0.762779
Si Si4 0.390526 0.834833 0.729903
Si Si5 0.131954 0.835809 0.422858
Si Si6 0.635435 0.331161 0.998687
O O1 0.250000 0.219000 0.207708
O O2 0.322567 0.195273 0.343929
O O3 0.302691 0.000000 0.150105
O O4 0.322472 0.258454 0.071028
O O5 0.500000 0.783097 0.500000
O O6 0.520150 0.744413 0.767154
O O7 0.440053 0.791603 0.696074
O O8 0.498838 0.000000 0.679290
O O9 0.560835 0.500000 0.739355
O O10 0.594585 0.730272 0.632162
O O11 0.592179 0.703324 0.908191
O O12 0.361595 0.811296 0.589357
O O13 0.370814 0.730497 0.846168
O O14 0.387722 0.000000 0.782369
O O15 0.115879 0.000000 0.395134
O O16 0.644595 0.500000 0.007917
#
# Coordination Sequence:
#
# PCOD8209239 Si02
#       6
#     8   8   8   8   8   8
#     4   9  18  35  61  86 103 128 170 215 260 315
#     4  10  19  33  52  75 104 139 182 226 266 306
#     4  10  20  33  50  74 103 140 183 221 259 305
#     4  10  20  34  53  77 106 141 178 219 266 312
#     4   9  17  33  55  77 105 135 169 216 264 310
#     4  10  22  37  52  75 110 146 176 213 263 316
#
# _framework density 17.803991
#
# number of rings (size 3 to 8) (size 9 to 14) (size 15 to 20)
#    0.000    2.333    1.667    1.000    0.000    4.667 
#    0.000    4.167    0.000    3.000    0.000    0.000 
#    0.000    0.000    0.000    0.000    0.000    0.000 
#
# Total GULP energy -595306.912053 kJ/mol
# GULP energy per Si atom -12402.227334 kJ/mol
# Density = 1.776347 g / cm^3
# Si number density = 17.803991 Si / 1000 Ang^3
#
#
#
# Elastic Constant Matrix: (Units=GPa)
#
#
# Indices 1 2 3 4 5 6 
#
# 1 122.2511 52.7502 60.4750 0.0000 0.0000 0.0000
# 2 52.7502 71.0938 51.6433 0.0000 0.0000 0.0000
# 3 60.4750 51.6433 112.3625 0.0000 0.0000 0.0000
# 4 0.0000 0.0000 0.0000 24.1705 0.0000 0.0000
# 5 0.0000 0.0000 0.0000 0.0000 20.7075 0.0000
# 6 0.0000 0.0000 0.0000 0.0000 0.0000 20.9656
#
#
#
# Elastic Compliance Matrix: (Units=1/GPa)
#
#
# Indices 1 2 3 4 5 6 
#
# 1 0.013063 -0.006883 -0.003867 0.000000 0.000000 0.000000
# 2 -0.006883 0.024743 -0.007667 0.000000 0.000000 0.000000
# 3 -0.003867 -0.007667 0.014505 0.000000 0.000000 0.000000
# 4 0.000000 0.000000 0.000000 0.041373 0.000000 0.000000
# 5 0.000000 0.000000 0.000000 0.000000 0.048292 0.000000
# 6 0.000000 0.000000 0.000000 0.000000 0.000000 0.047697
#
#
# Mechanical properties :
#
#
# Convention : Reuss Voigt Hill
#
# Bulk Modulus (GPa) = 64.61889 70.60495 67.61192
# Shear Modulus (GPa) = 21.58273 22.55798 22.07036
#
# Velocity S-wave (km/s) = 3.48550 3.56338 3.52466
# Velocity P-wave (km/s) = 7.25063 7.52816 7.39070
#
# Compressibility (1/GPa) = 0.01547535
#
# Stress axis : x y z
#
# Youngs Moduli (GPa) = 76.55262 40.41542 68.94149
#
# Poissons Ratio (x) = 0.27820 0.26659
# Poissons Ratio (y) = 0.52695 0.52861
# Poissons Ratio (z) = 0.29602 0.30988
#
# Static dielectric constant tensor:
#      x y z
#    x 3.275110 0.000000 0.000000 
#    y 0.000000 3.275720 0.000000 
#    z 0.000000 0.000000 3.248260 
# 
# 
# High freq. dielectric constant tensor:
#      x y z
#    x 1.678080 0.000000 0.000000 
#    y 0.000000 1.687790 0.000000 
#    z 0.000000 0.000000 1.682590 
# 
# From -- ./inp_files/12830.got.cif
#   From: 2010.03.12/outbox.cif.g09.slc.cpg/sg51_7_cif.got.tgz:12830.got - 2010.04.16 13:43:02.
