data_PCOD8209374
_publ_section_title
;
Structure prediction by ZEFSAII (Michael W. Deem and Ramdas Pophale) SiO2 
 PCOD8209374
Probable space group: P M M A
;
_chemical_formula_sum "Si O2"
_cell_formula_units_Z 40
_cell_length_a 8.793684
_cell_length_b 18.450092
_cell_length_c 13.525905
_cell_angle_alpha 90.000000
_cell_angle_beta 90.000000
_cell_angle_gamma 90.000000
_cell_volume 2194.500702
_symmetry_space_group_name_H-M "P M M A"
_symmetry_group_IT_number 51
_symmetry_cell_setting 'orthorhombic'
loop_
_space_group_symop_operation_xyz
x,y,z
1/2-x,-y,z
1/2+x,-y,-z
-x,y,-z
-x,-y,-z
1/2+x,y,-z
1/2-x,y,z
x,-y,z
loop_
_atom_site_type_symbol
_atom_site_label
_atom_site_fract_x
_atom_site_fract_y
_atom_site_fract_z
Si Si1 0.930148 0.000000 0.608095
Si Si2 0.070488 0.138310 0.709428
Si Si3 0.070965 0.791936 0.106146
Si Si4 0.427490 0.355109 0.213528
Si Si5 0.427631 0.713514 0.604786
Si Si6 0.929868 0.500000 0.892821
O O1 0.000000 0.000000 0.500000
O O2 0.983795 0.930094 0.666975
O O3 0.750000 0.000000 0.598563
O O4 0.250000 0.123954 0.712351
O O5 0.027504 0.205951 0.639764
O O6 0.009518 0.152359 0.819437
O O7 0.250000 0.807159 0.104491
O O8 0.033762 0.709799 0.138206
O O9 0.000000 0.806483 0.000000
O O10 0.250000 0.358172 0.237052
O O11 0.513147 0.345050 0.316822
O O12 0.487212 0.429216 0.165354
O O13 0.500000 0.696457 0.500000
O O14 0.250000 0.704401 0.594823
O O15 0.750000 0.500000 0.904002
O O16 0.000000 0.500000 0.000000
#
# Coordination Sequence:
#
# PCOD8209374 Si02
#       6
#     4   8   8   8   8   4
#     4  12  24  38  57  82 111 142 174 212 260 312
#     4  10  21  37  56  80 108 139 176 218 262 312
#     4  10  19  33  54  79 107 141 178 219 263 311
#     4   9  19  34  52  76 107 139 176 218 261 310
#     4  10  20  34  55  79 104 136 175 217 262 310
#     4  10  20  34  53  78 107 140 173 214 264 312
#
# _framework density 18.22738
#
# number of rings (size 3 to 8) (size 9 to 14) (size 15 to 20)
#    0.000    2.000    0.000    3.900    0.000    5.600 
#    0.000    1.000    0.000    0.000    0.000    0.000 
#    0.000    0.000    0.000    0.000    0.000    0.000 
#
# Total GULP energy -496179.326998 kJ/mol
# GULP energy per Si atom -12404.483175 kJ/mol
# Density = 1.818589 g / cm^3
# Si number density = 18.227380 Si / 1000 Ang^3
#
#
#
# Elastic Constant Matrix: (Units=GPa)
#
#
# Indices 1 2 3 4 5 6 
#
# 1 85.0413 54.6872 65.0726 0.0000 0.0000 0.0000
# 2 54.6872 130.2903 81.7289 0.0000 0.0000 0.0000
# 3 65.0726 81.7289 176.1095 0.0000 0.0000 0.0000
# 4 0.0000 0.0000 0.0000 34.4098 0.0000 0.0000
# 5 0.0000 0.0000 0.0000 0.0000 38.6785 0.0000
# 6 0.0000 0.0000 0.0000 0.0000 0.0000 25.2450
#
#
#
# Elastic Compliance Matrix: (Units=1/GPa)
#
#
# Indices 1 2 3 4 5 6 
#
# 1 0.018347 -0.004864 -0.004522 0.000000 0.000000 0.000000
# 2 -0.004864 0.012117 -0.003826 0.000000 0.000000 0.000000
# 3 -0.004522 -0.003826 0.009125 0.000000 0.000000 0.000000
# 4 0.000000 0.000000 0.000000 0.029062 0.000000 0.000000
# 5 0.000000 0.000000 0.000000 0.000000 0.025854 0.000000
# 6 0.000000 0.000000 0.000000 0.000000 0.000000 0.039612
#
#
# Mechanical properties :
#
#
# Convention : Reuss Voigt Hill
#
# Bulk Modulus (GPa) = 75.96188 88.26873 82.11530
# Shear Modulus (GPa) = 30.31623 32.33014 31.32319
#
# Velocity S-wave (km/s) = 4.08269 4.21612 4.14994
# Velocity P-wave (km/s) = 7.99935 8.49897 8.25294
#
# Compressibility (1/GPa) = 0.01316450
#
# Stress axis : x y z
#
# Youngs Moduli (GPa) = 54.50425 82.53028 109.59470
#
# Poissons Ratio (x) = 0.40147 0.49556
# Poissons Ratio (y) = 0.26514 0.41928
# Poissons Ratio (z) = 0.24646 0.31574
#
# Static dielectric constant tensor:
#      x y z
#    x 3.544260 0.000000 0.000000 
#    y 0.000000 3.457050 0.000000 
#    z 0.000000 0.000000 3.404950 
# 
# 
# High freq. dielectric constant tensor:
#      x y z
#    x 1.717350 0.000000 0.000000 
#    y 0.000000 1.697840 0.000000 
#    z 0.000000 0.000000 1.716110 
# 
# From -- ./inp_files/14290.got.cif
#   From: 2010.03.12/outbox.cif.g09.slc.cpg/sg51_8_cif.got.tgz:14290.got - 2010.04.16 13:43:02.
