data_PCOD8209947
_publ_section_title
;
Structure prediction by ZEFSAII (Michael W. Deem and Ramdas Pophale) SiO2 
 PCOD8209947
Probable space group: P M M A
;
_chemical_formula_sum "Si O2"
_cell_formula_units_Z 48
_cell_length_a 14.631416
_cell_length_b 16.478672
_cell_length_c 9.950267
_cell_angle_alpha 90.000000
_cell_angle_beta 90.000000
_cell_angle_gamma 90.000000
_cell_volume 2399.072112
_symmetry_space_group_name_H-M "P M M A"
_symmetry_group_IT_number 51
_symmetry_cell_setting 'orthorhombic'
loop_
_space_group_symop_operation_xyz
x,y,z
1/2-x,-y,z
1/2+x,-y,-z
-x,y,-z
-x,-y,-z
1/2+x,y,-z
1/2-x,y,z
x,-y,z
loop_
_atom_site_type_symbol
_atom_site_label
_atom_site_fract_x
_atom_site_fract_y
_atom_site_fract_z
Si Si1 0.852531 0.589228 0.352020
Si Si2 0.353817 0.804014 0.806765
Si Si3 0.352666 0.765968 0.226851
Si Si4 0.606464 0.245748 0.481515
Si Si5 0.983888 0.340065 0.146068
Si Si6 0.856632 0.911393 0.956294
O O1 0.750000 0.596422 0.289394
O O2 0.864134 0.500000 0.419570
O O3 0.863391 0.660783 0.460169
O O4 0.931684 0.595747 0.239571
O O5 0.250000 0.777873 0.835545
O O6 0.368248 0.811013 0.646040
O O7 0.417553 0.736404 0.872323
O O8 0.375948 0.886746 0.887828
O O9 0.250000 0.745150 0.175010
O O10 0.345866 0.788376 0.384944
O O11 0.419571 0.688655 0.210046
O O12 0.394974 0.843018 0.146115
O O13 0.500000 0.242562 0.500000
O O14 0.000000 0.379621 0.000000
O O15 0.750000 0.918808 0.928250
O O16 0.902451 0.000000 0.931443
#
# Coordination Sequence:
#
# PCOD8209947 Si02
#       6
#     8   8   8   8   8   8
#     4  10  22  40  61  85 115 152 192 236 289 345
#     4  10  19  35  58  82 111 151 197 238 280 342
#     4  11  21  35  56  85 117 152 190 238 291 341
#     4  11  20  36  60  83 114 149 194 241 283 339
#     4  11  20  34  58  86 115 150 193 235 281 340
#     4   9  19  36  59  86 115 151 195 241 292 345
#
# _framework density 20.007736999999999
#
# number of rings (size 3 to 8) (size 9 to 14) (size 15 to 20)
#    0.000    1.667    5.000    3.000    0.000    1.333 
#    0.000    2.500    0.000    5.500    0.000    0.000 
#    0.000    0.000    0.000    0.000    0.000    0.000 
#
# Total GULP energy -594761.397178 kJ/mol
# GULP energy per Si atom -12390.862441 kJ/mol
# Density = 1.996220 g / cm^3
# Si number density = 20.007737 Si / 1000 Ang^3
#
#
#
# Elastic Constant Matrix: (Units=GPa)
#
#
# Indices 1 2 3 4 5 6 
#
# 1 105.9756 19.5136 12.7240 0.0000 0.0000 0.0000
# 2 19.5136 81.5300 43.8297 0.0000 0.0000 0.0000
# 3 12.7240 43.8297 136.9519 0.0000 0.0000 0.0000
# 4 0.0000 0.0000 0.0000 15.1383 0.0000 0.0000
# 5 0.0000 0.0000 0.0000 0.0000 11.1675 0.0000
# 6 0.0000 0.0000 0.0000 0.0000 0.0000 9.6521
#
#
#
# Elastic Compliance Matrix: (Units=1/GPa)
#
#
# Indices 1 2 3 4 5 6 
#
# 1 0.009875 -0.002259 -0.000195 0.000000 0.000000 0.000000
# 2 -0.002259 0.015331 -0.004697 0.000000 0.000000 0.000000
# 3 -0.000195 -0.004697 0.008823 0.000000 0.000000 0.000000
# 4 0.000000 0.000000 0.000000 0.066058 0.000000 0.000000
# 5 0.000000 0.000000 0.000000 0.000000 0.089545 0.000000
# 6 0.000000 0.000000 0.000000 0.000000 0.000000 0.103604
#
#
# Mechanical properties :
#
#
# Convention : Reuss Voigt Hill
#
# Bulk Modulus (GPa) = 50.68665 52.95469 51.82067
# Shear Modulus (GPa) = 15.91781 23.75092 19.83436
#
# Velocity S-wave (km/s) = 2.82367 3.44915 3.15196
# Velocity P-wave (km/s) = 6.00161 6.51051 6.26123
#
# Compressibility (1/GPa) = 0.01972906
#
# Stress axis : x y z
#
# Youngs Moduli (GPa) = 101.26117 65.22748 113.34020
#
# Poissons Ratio (x) = 0.14735 0.02205
# Poissons Ratio (y) = 0.22875 0.53231
# Poissons Ratio (z) = 0.01970 0.30635
#
# Static dielectric constant tensor:
#      x y z
#    x 3.820020 0.000000 0.000000 
#    y 0.000000 3.891540 0.000000 
#    z 0.000000 0.000000 4.378930 
# 
# 
# High freq. dielectric constant tensor:
#      x y z
#    x 1.799690 0.000000 0.000000 
#    y 0.000000 1.741710 0.000000 
#    z 0.000000 0.000000 1.776250 
# 
# From -- ./inp_files/16472.got.cif
#   From: 2010.03.12/outbox.cif.g09.slc.cpg/sg51_9_cif.got.tgz:16472.got - 2010.04.16 13:43:02.
