data_PCOD8209079
_publ_section_title
;
Structure prediction by ZEFSAII (Michael W. Deem and Ramdas Pophale) SiO2 
 PCOD8209079
Probable space group: P M M A
;
_chemical_formula_sum "Si O2"
_cell_formula_units_Z 56
_cell_length_a 8.918694
_cell_length_b 18.614310
_cell_length_c 18.769987
_cell_angle_alpha 90.000000
_cell_angle_beta 90.000000
_cell_angle_gamma 90.000000
_cell_volume 3116.105678
_symmetry_space_group_name_H-M "P M M A"
_symmetry_group_IT_number 51
_symmetry_cell_setting 'orthorhombic'
loop_
_space_group_symop_operation_xyz
x,y,z
1/2-x,-y,z
1/2+x,-y,-z
-x,y,-z
-x,-y,-z
1/2+x,y,-z
1/2-x,y,z
x,-y,z
loop_
_atom_site_type_symbol
_atom_site_label
_atom_site_fract_x
_atom_site_fract_y
_atom_site_fract_z
Si Si1 0.927493 0.230800 0.077433
Si Si2 0.577286 0.416967 0.296250
Si Si3 0.427551 0.702753 0.209035
Si Si4 0.422644 0.203076 0.341177
Si Si5 0.575000 0.346305 0.575354
Si Si6 0.575780 0.924773 0.075317
Si Si7 0.425716 0.917748 0.574398
O O1 0.750000 0.243720 0.071868
O O2 0.968498 0.151334 0.110615
O O3 0.000507 0.286158 0.131831
O O4 0.000000 0.241755 0.000000
O O5 0.750000 0.392501 0.299075
O O6 0.561748 0.500000 0.276193
O O7 0.490768 0.372710 0.235984
O O8 0.502271 0.403024 0.372430
O O9 0.250000 0.696708 0.202865
O O10 0.472028 0.766853 0.263749
O O11 0.250000 0.179865 0.340419
O O12 0.452558 0.265120 0.398783
O O13 0.518467 0.132968 0.361514
O O14 0.500000 0.356968 0.500000
O O15 0.750000 0.364185 0.571579
O O16 0.750000 0.922473 0.059701
O O17 0.535062 0.000000 0.117929
O O18 0.500000 0.928807 0.000000
O O19 0.500000 0.894279 0.500000
O O20 0.250000 0.907744 0.565257
O O21 0.467912 0.000000 0.593453
#
# Coordination Sequence:
#
# PCOD8209079 Si02
#       7
#     8   8   8   8   8   8   8
#     4  10  19  32  53  79 107 138 173 215 259 304
#     4  10  21  37  57  80 105 135 170 206 249 303
#     4  10  21  37  56  78 104 134 170 209 253 308
#     4   9  19  34  51  71  97 132 172 214 258 304
#     4  10  20  33  51  77 107 138 173 211 252 299
#     4   8  14  25  42  66  96 129 163 199 241 288
#     4  10  20  32  48  71  98 132 175 221 267 311
#
# _framework density 17.971150000000002
#
# number of rings (size 3 to 8) (size 9 to 14) (size 15 to 20)
#    0.000    2.429    0.000    3.429    0.000    7.429 
#    0.000    0.714    0.000    3.000    0.000    0.000 
#    0.000    0.000    0.000    0.000    0.000    0.000 
#
# Total GULP energy -694053.419298 kJ/mol
# GULP energy per Si atom -12393.811059 kJ/mol
# Density = 1.793025 g / cm^3
# Si number density = 17.971150 Si / 1000 Ang^3
#
#
#
# Elastic Constant Matrix: (Units=GPa)
#
#
# Indices 1 2 3 4 5 6 
#
# 1 98.3222 50.6525 52.9175 0.0000 0.0000 0.0000
# 2 50.6525 87.2631 54.2669 0.0000 0.0000 0.0000
# 3 52.9175 54.2669 109.1466 0.0000 0.0000 0.0000
# 4 0.0000 0.0000 0.0000 20.2326 0.0000 0.0000
# 5 0.0000 0.0000 0.0000 0.0000 29.7505 0.0000
# 6 0.0000 0.0000 0.0000 0.0000 0.0000 28.0478
#
#
#
# Elastic Compliance Matrix: (Units=1/GPa)
#
#
# Indices 1 2 3 4 5 6 
#
# 1 0.015914 -0.006426 -0.004521 0.000000 0.000000 0.000000
# 2 -0.006426 0.019184 -0.006422 0.000000 0.000000 0.000000
# 3 -0.004521 -0.006422 0.014547 0.000000 0.000000 0.000000
# 4 0.000000 0.000000 0.000000 0.049425 0.000000 0.000000
# 5 0.000000 0.000000 0.000000 0.000000 0.033613 0.000000
# 6 0.000000 0.000000 0.000000 0.000000 0.000000 0.035653
#
#
# Mechanical properties :
#
#
# Convention : Reuss Voigt Hill
#
# Bulk Modulus (GPa) = 67.08553 67.82287 67.45420
# Shear Modulus (GPa) = 24.03343 24.73251 24.38297
#
# Velocity S-wave (km/s) = 3.66092 3.71379 3.68745
# Velocity P-wave (km/s) = 7.43508 7.49743 7.46632
#
# Compressibility (1/GPa) = 0.01490634
#
# Stress axis : x y z
#
# Youngs Moduli (GPa) = 62.83667 52.12760 68.74338
#
# Poissons Ratio (x) = 0.33499 0.31076
# Poissons Ratio (y) = 0.40381 0.44149
# Poissons Ratio (z) = 0.28406 0.33478
#
# Static dielectric constant tensor:
#      x y z
#    x 3.391010 0.000000 0.000000 
#    y 0.000000 3.473600 0.000000 
#    z 0.000000 0.000000 3.085560 
# 
# 
# High freq. dielectric constant tensor:
#      x y z
#    x 1.710050 0.000000 0.000000 
#    y 0.000000 1.694710 0.000000 
#    z 0.000000 0.000000 1.669180 
# 
# From -- ./inp_files/28236.got.cif
#   From: 2010.03.12/outbox.cif.g09.slc.cpg/sg51_15_cif.got.tgz:28236.got - 2010.04.16 13:43:02.
