data_PCOD8209666
_publ_section_title
;
Structure prediction by ZEFSAII (Michael W. Deem and Ramdas Pophale) SiO2 
 PCOD8209666
Probable space group: P M M A
;
_chemical_formula_sum "Si O2"
_cell_formula_units_Z 48
_cell_length_a 15.465258
_cell_length_b 8.912677
_cell_length_c 17.867690
_cell_angle_alpha 90.000000
_cell_angle_beta 90.000000
_cell_angle_gamma 90.000000
_cell_volume 2462.826093
_symmetry_space_group_name_H-M "P M M A"
_symmetry_group_IT_number 51
_symmetry_cell_setting 'orthorhombic'
loop_
_space_group_symop_operation_xyz
x,y,z
1/2-x,-y,z
1/2+x,-y,-z
-x,y,-z
-x,-y,-z
1/2+x,y,-z
1/2-x,y,z
x,-y,z
loop_
_atom_site_type_symbol
_atom_site_label
_atom_site_fract_x
_atom_site_fract_y
_atom_site_fract_z
Si Si1 0.750000 0.178355 0.550061
Si Si2 0.250000 0.323153 0.964135
Si Si3 0.909497 0.823381 0.289547
Si Si4 0.750000 0.676270 0.711318
Si Si5 0.910245 0.827268 0.786485
Si Si6 0.587601 0.173399 0.961315
Si Si7 0.250000 0.322143 0.793807
Si Si8 0.915206 0.821595 0.459563
O O1 0.750000 0.244017 0.632058
O O2 0.666947 0.237797 0.505282
O O3 0.750000 0.000000 0.556391
O O4 0.250000 0.500000 0.965701
O O5 0.250000 0.263619 0.879127
O O6 0.333953 0.267732 0.007060
O O7 0.835323 0.738447 0.245504
O O8 0.909845 0.764069 0.374635
O O9 0.001407 0.781928 0.254137
O O10 0.890658 0.000000 0.284962
O O11 0.750000 0.500000 0.699335
O O12 0.834425 0.722493 0.757129
O O13 0.922382 0.798078 0.873738
O O14 0.886194 0.000000 0.769590
O O15 0.605189 0.000000 0.979878
O O16 0.500000 0.229929 0.000000
O O17 0.250000 0.500000 0.789344
O O18 0.000000 0.755308 0.500000
O O19 0.918536 0.000000 0.459738
#
# Coordination Sequence:
#
# PCOD8209666 Si02
#       8
#     4   4   8   4   8   8   4   8
#     4  10  19  34  56  79 108 144 183 230 278 324
#     4  11  24  39  56  81 114 155 194 227 274 334
#     4  10  20  37  63  89 111 143 189 234 278 333
#     4  12  25  38  55  81 115 154 193 230 274 334
#     4  10  21  38  61  87 114 145 184 233 285 333
#     4  10  21  38  61  88 114 143 184 234 285 333
#     4  11  24  39  55  81 119 155 186 227 280 334
#     4   9  17  31  55  85 110 136 178 231 280 326
#
# _framework density 19.489805
#
# number of rings (size 3 to 8) (size 9 to 14) (size 15 to 20)
#    0.000    1.833    0.000    4.250    0.000   10.333 
#    0.000    1.667    0.000    2.000    0.000    0.000 
#    0.000    0.000    0.000    0.000    0.000    0.000 
#
# Total GULP energy -595413.186722 kJ/mol
# GULP energy per Si atom -12404.441390 kJ/mol
# Density = 1.944545 g / cm^3
# Si number density = 19.489805 Si / 1000 Ang^3
#
#
#
# Elastic Constant Matrix: (Units=GPa)
#
#
# Indices 1 2 3 4 5 6 
#
# 1 150.1653 32.1590 57.9980 0.0000 0.0000 0.0000
# 2 32.1590 35.9367 22.5833 0.0000 0.0000 0.0000
# 3 57.9980 22.5833 121.4450 0.0000 0.0000 0.0000
# 4 0.0000 0.0000 0.0000 18.3482 0.0000 0.0000
# 5 0.0000 0.0000 0.0000 0.0000 34.3023 0.0000
# 6 0.0000 0.0000 0.0000 0.0000 0.0000 30.0425
#
#
#
# Elastic Compliance Matrix: (Units=1/GPa)
#
#
# Indices 1 2 3 4 5 6 
#
# 1 0.009253 -0.006232 -0.003260 0.000000 0.000000 0.000000
# 2 -0.006232 0.035706 -0.003664 0.000000 0.000000 0.000000
# 3 -0.003260 -0.003664 0.010472 0.000000 0.000000 0.000000
# 4 0.000000 0.000000 0.000000 0.054501 0.000000 0.000000
# 5 0.000000 0.000000 0.000000 0.000000 0.029153 0.000000
# 6 0.000000 0.000000 0.000000 0.000000 0.000000 0.033286
#
#
# Mechanical properties :
#
#
# Convention : Reuss Voigt Hill
#
# Bulk Modulus (GPa) = 34.34040 59.22529 46.78284
# Shear Modulus (GPa) = 23.99365 29.52571 26.75968
#
# Velocity S-wave (km/s) = 3.51249 3.89643 3.70943
# Velocity P-wave (km/s) = 5.84021 7.12016 6.51171
#
# Compressibility (1/GPa) = 0.02912022
#
# Stress axis : x y z
#
# Youngs Moduli (GPa) = 108.07270 28.00686 95.48929
#
# Poissons Ratio (x) = 0.17453 0.31131
# Poissons Ratio (y) = 0.67347 0.34984
# Poissons Ratio (z) = 0.35233 0.10261
#
# Static dielectric constant tensor:
#      x y z
#    x 3.746460 0.000000 0.000000 
#    y 0.000000 3.293910 0.000000 
#    z 0.000000 0.000000 3.823800 
# 
# 
# High freq. dielectric constant tensor:
#      x y z
#    x 1.778800 0.000000 0.000000 
#    y 0.000000 1.727620 0.000000 
#    z 0.000000 0.000000 1.781870 
# 
# From -- ./inp_files/29679.got.cif
#   From: 2010.03.12/outbox.cif.g09.slc.cpg/sg51_15_cif.got.tgz:29679.got - 2010.04.16 13:43:02.
