data_PCOD8209310
_publ_section_title
;
Structure prediction by ZEFSAII (Michael W. Deem and Ramdas Pophale) SiO2 
 PCOD8209310
Probable space group: P M M A
;
_chemical_formula_sum "Si O2"
_cell_formula_units_Z 48
_cell_length_a 8.966351
_cell_length_b 31.308053
_cell_length_c 9.098860
_cell_angle_alpha 90.000000
_cell_angle_beta 90.000000
_cell_angle_gamma 90.000000
_cell_volume 2554.222811
_symmetry_space_group_name_H-M "P M M A"
_symmetry_group_IT_number 51
_symmetry_cell_setting 'orthorhombic'
loop_
_space_group_symop_operation_xyz
x,y,z
1/2-x,-y,z
1/2+x,-y,-z
-x,y,-z
-x,-y,-z
1/2+x,y,-z
1/2-x,y,z
x,-y,z
loop_
_atom_site_type_symbol
_atom_site_label
_atom_site_fract_x
_atom_site_fract_y
_atom_site_fract_z
Si Si1 0.575369 0.835857 0.657454
Si Si2 0.425989 0.662883 0.156278
Si Si3 0.574983 0.000000 0.156246
Si Si4 0.574370 0.418538 0.657334
Si Si5 0.572957 0.918136 0.340536
Si Si6 0.576460 0.741919 0.656423
Si Si7 0.426047 0.500000 0.157717
O O1 0.500000 0.833708 0.500000
O O2 0.750000 0.846193 0.644116
O O3 0.492691 0.875247 0.739932
O O4 0.547856 0.789018 0.728460
O O5 0.250000 0.663143 0.133352
O O6 0.477104 0.624459 0.261247
O O7 0.483854 0.707009 0.228769
O O8 0.500000 0.656562 0.000000
O O9 0.522709 0.041706 0.244327
O O10 0.750000 0.000000 0.132990
O O11 0.500000 0.000000 0.000000
O O12 0.500000 0.420775 0.500000
O O13 0.750000 0.419742 0.633991
O O14 0.519596 0.458490 0.753703
O O15 0.500000 0.923620 0.500000
O O16 0.750000 0.914725 0.355788
O O17 0.500000 0.735848 0.500000
O O18 0.750000 0.734808 0.626256
O O19 0.250000 0.500000 0.135396
O O20 0.500000 0.500000 0.000000
#
# Coordination Sequence:
#
# PCOD8209310 Si02
#       7
#     8   8   4   8   8   8   4
#     4   9  16  28  48  74 101 129 161 203 249 293
#     4  10  21  36  52  74 103 136 173 213 254 303
#     4  10  23  38  52  72 100 132 167 204 246 296
#     4  10  21  36  55  79 106 135 174 217 258 305
#     4  10  19  33  53  78 102 128 165 206 246 295
#     4   9  18  32  51  75 102 130 166 207 249 298
#     4  10  21  36  54  80 110 140 173 212 256 308
#
# _framework density 18.79241
#
# number of rings (size 3 to 8) (size 9 to 14) (size 15 to 20)
#    0.000    2.333    0.000    3.500    0.000    4.000 
#    0.000    0.833    0.000    4.000    0.000    0.000 
#    0.000    0.000    0.000    0.000    0.000    0.000 
#
# Total GULP energy -595037.794090 kJ/mol
# GULP energy per Si atom -12396.620710 kJ/mol
# Density = 1.874964 g / cm^3
# Si number density = 18.792410 Si / 1000 Ang^3
#
#
#
# Elastic Constant Matrix: (Units=GPa)
#
#
# Indices 1 2 3 4 5 6 
#
# 1 56.8322 52.2319 42.6266 0.0000 0.0000 0.0000
# 2 52.2319 200.4189 84.9973 0.0000 0.0000 0.0000
# 3 42.6266 84.9973 128.6159 0.0000 0.0000 0.0000
# 4 0.0000 0.0000 0.0000 6.7678 0.0000 0.0000
# 5 0.0000 0.0000 0.0000 0.0000 32.1748 0.0000
# 6 0.0000 0.0000 0.0000 0.0000 0.0000 21.1845
#
#
#
# Elastic Compliance Matrix: (Units=1/GPa)
#
#
# Indices 1 2 3 4 5 6 
#
# 1 0.025846 -0.004311 -0.005717 0.000000 0.000000 0.000000
# 2 -0.004311 0.007652 -0.003628 0.000000 0.000000 0.000000
# 3 -0.005717 -0.003628 0.012067 0.000000 0.000000 0.000000
# 4 0.000000 0.000000 0.000000 0.147758 0.000000 0.000000
# 5 0.000000 0.000000 0.000000 0.000000 0.031080 0.000000
# 6 0.000000 0.000000 0.000000 0.000000 0.000000 0.047204
#
#
# Mechanical properties :
#
#
# Convention : Reuss Voigt Hill
#
# Bulk Modulus (GPa) = 54.78574 82.84206 68.81390
# Shear Modulus (GPa) = 16.39324 25.75951 21.07637
#
# Velocity S-wave (km/s) = 2.95673 3.70637 3.35257
# Velocity P-wave (km/s) = 6.39318 7.90535 7.18914
#
# Compressibility (1/GPa) = 0.01825293
#
# Stress axis : x y z
#
# Youngs Moduli (GPa) = 38.69102 130.69015 82.86869
#
# Poissons Ratio (x) = 0.56344 0.47374
# Poissons Ratio (y) = 0.16681 0.30063
# Poissons Ratio (z) = 0.22119 0.47412
#
# Static dielectric constant tensor:
#      x y z
#    x 3.395970 0.000000 0.000000 
#    y 0.000000 4.448940 0.000000 
#    z 0.000000 0.000000 3.144250 
# 
# 
# High freq. dielectric constant tensor:
#      x y z
#    x 1.727520 0.000000 0.000000 
#    y 0.000000 1.760120 0.000000 
#    z 0.000000 0.000000 1.703040 
# 
# From -- ./inp_files/6108.got.cif
#   From: 2010.03.12/outbox.cif.g09.slc.cpg/sg51_4_cif.got.tgz:6108.got - 2010.04.16 13:43:02.
