data_PCOD8209323
_publ_section_title
;
Structure prediction by ZEFSAII (Michael W. Deem and Ramdas Pophale) SiO2 
 PCOD8209323
Probable space group: P M M A
;
_chemical_formula_sum "Si O2"
_cell_formula_units_Z 48
_cell_length_a 8.868250
_cell_length_b 20.390122
_cell_length_c 14.523377
_cell_angle_alpha 90.000000
_cell_angle_beta 90.000000
_cell_angle_gamma 90.000000
_cell_volume 2626.185281
_symmetry_space_group_name_H-M "P M M A"
_symmetry_group_IT_number 51
_symmetry_cell_setting 'orthorhombic'
loop_
_space_group_symop_operation_xyz
x,y,z
1/2-x,-y,z
1/2+x,-y,-z
-x,y,-z
-x,-y,-z
1/2+x,y,-z
1/2-x,y,z
x,-y,z
loop_
_atom_site_type_symbol
_atom_site_label
_atom_site_fract_x
_atom_site_fract_y
_atom_site_fract_z
Si Si1 0.426114 0.926674 0.406294
Si Si2 0.070924 0.572800 0.715538
Si Si3 0.429328 0.694983 0.599406
Si Si4 0.074298 0.221744 0.906057
Si Si5 0.076185 0.375754 0.907454
Si Si6 0.427795 0.191981 0.279697
O O1 0.500000 0.900609 0.500000
O O2 0.250000 0.926980 0.424098
O O3 0.469474 0.877662 0.324676
O O4 0.484249 0.000000 0.381308
O O5 0.250000 0.577000 0.721634
O O6 0.016284 0.500000 0.686404
O O7 0.014536 0.624911 0.639672
O O8 0.005755 0.589651 0.817030
O O9 0.500000 0.705813 0.500000
O O10 0.250000 0.698590 0.591978
O O11 0.484708 0.750902 0.667787
O O12 0.250000 0.203435 0.904168
O O13 0.047744 0.298912 0.895686
O O14 0.987178 0.186122 0.823824
O O15 0.000000 0.195746 0.000000
O O16 0.250000 0.393054 0.916941
O O17 0.000000 0.403230 0.000000
O O18 0.250000 0.206640 0.282137
#
# Coordination Sequence:
#
# PCOD8209323 Si02
#       6
#     8   8   8   8   8   8
#     4   9  19  35  54  79 111 144 178 215 259 311
#     4   9  18  34  53  71  98 137 175 213 264 319
#     4  11  22  37  54  76 103 135 176 223 270 315
#     4  10  19  33  53  80 110 141 175 218 265 312
#     4   9  17  31  50  74 100 131 166 207 258 310
#     4  11  21  34  56  83 109 141 176 216 263 312
#
# _framework density 18.277460999999999
#
# number of rings (size 3 to 8) (size 9 to 14) (size 15 to 20)
#    0.000    2.167    1.667    2.000    0.000    4.000 
#    0.000    0.000    0.000    4.000    0.000    0.000 
#    0.000    0.000    0.000    0.000    0.000    0.000 
#
# Total GULP energy -595208.578217 kJ/mol
# GULP energy per Si atom -12400.178713 kJ/mol
# Density = 1.823586 g / cm^3
# Si number density = 18.277461 Si / 1000 Ang^3
#
#
#
# Elastic Constant Matrix: (Units=GPa)
#
#
# Indices 1 2 3 4 5 6 
#
# 1 57.4658 36.2210 40.8909 0.0000 0.0000 0.0000
# 2 36.2210 86.5521 54.7923 0.0000 0.0000 0.0000
# 3 40.8909 54.7923 141.8606 0.0000 0.0000 0.0000
# 4 0.0000 0.0000 0.0000 15.6348 0.0000 0.0000
# 5 0.0000 0.0000 0.0000 0.0000 33.9024 0.0000
# 6 0.0000 0.0000 0.0000 0.0000 0.0000 18.4343
#
#
#
# Elastic Compliance Matrix: (Units=1/GPa)
#
#
# Indices 1 2 3 4 5 6 
#
# 1 0.025447 -0.007949 -0.004265 0.000000 0.000000 0.000000
# 2 -0.007949 0.017776 -0.004575 0.000000 0.000000 0.000000
# 3 -0.004265 -0.004575 0.010045 0.000000 0.000000 0.000000
# 4 0.000000 0.000000 0.000000 0.063960 0.000000 0.000000
# 5 0.000000 0.000000 0.000000 0.000000 0.029496 0.000000
# 6 0.000000 0.000000 0.000000 0.000000 0.000000 0.054247
#
#
# Mechanical properties :
#
#
# Convention : Reuss Voigt Hill
#
# Bulk Modulus (GPa) = 50.78375 61.07633 55.93004
# Shear Modulus (GPa) = 20.73719 23.85924 22.29822
#
# Velocity S-wave (km/s) = 3.37200 3.61694 3.49662
# Velocity P-wave (km/s) = 6.55788 7.13665 6.85338
#
# Compressibility (1/GPa) = 0.01969134
#
# Stress axis : x y z
#
# Youngs Moduli (GPa) = 39.29772 56.25425 99.54900
#
# Poissons Ratio (x) = 0.44719 0.42453
# Poissons Ratio (y) = 0.31240 0.45539
# Poissons Ratio (z) = 0.16759 0.25734
#
# Static dielectric constant tensor:
#      x y z
#    x 3.275190 0.000000 0.000000 
#    y 0.000000 3.480050 0.000000 
#    z 0.000000 0.000000 3.537770 
# 
# 
# High freq. dielectric constant tensor:
#      x y z
#    x 1.697980 0.000000 0.000000 
#    y 0.000000 1.693700 0.000000 
#    z 0.000000 0.000000 1.717250 
# 
# From -- ./inp_files/21090.got.cif
#   From: 2010.03.12/outbox.cif.g09.slc.cpg/sg51_11_cif.got.tgz:21090.got - 2010.04.16 13:43:02.
