data_PCOD8209393
_publ_section_title
;
Structure prediction by ZEFSAII (Michael W. Deem and Ramdas Pophale) SiO2 
 PCOD8209393
Probable space group: P M M A
;
_chemical_formula_sum "Si O2"
_cell_formula_units_Z 64
_cell_length_a 9.117161
_cell_length_b 24.372879
_cell_length_c 15.179091
_cell_angle_alpha 90.000000
_cell_angle_beta 90.000000
_cell_angle_gamma 90.000000
_cell_volume 3372.968001
_symmetry_space_group_name_H-M "P M M A"
_symmetry_group_IT_number 51
_symmetry_cell_setting 'orthorhombic'
loop_
_space_group_symop_operation_xyz
x,y,z
1/2-x,-y,z
1/2+x,-y,-z
-x,y,-z
-x,-y,-z
1/2+x,y,-z
1/2-x,y,z
x,-y,z
loop_
_atom_site_type_symbol
_atom_site_label
_atom_site_fract_x
_atom_site_fract_y
_atom_site_fract_z
Si Si1 0.580621 0.064648 0.588872
Si Si2 0.419557 0.359052 0.411109
Si Si3 0.580468 0.252038 0.689125
Si Si4 0.075298 0.142575 0.718881
Si Si5 0.915976 0.165337 0.084184
Si Si6 0.418653 0.403676 0.913940
Si Si7 0.582243 0.562235 0.741906
Si Si8 0.414832 0.716180 0.855394
O O1 0.500000 0.084339 0.500000
O O2 0.750000 0.083147 0.584111
O O3 0.500583 0.091133 0.672529
O O4 0.565938 0.000000 0.601083
O O5 0.500000 0.375118 0.500000
O O6 0.250000 0.372398 0.424482
O O7 0.445012 0.294768 0.390084
O O8 0.481725 0.397432 0.332969
O O9 0.750000 0.234532 0.696630
O O10 0.481884 0.198302 0.672790
O O11 0.533818 0.283146 0.778035
O O12 0.250000 0.139663 0.708490
O O13 0.026983 0.142063 0.821790
O O14 0.750000 0.146946 0.071590
O O15 0.935438 0.231019 0.082527
O O16 0.000000 0.140078 0.000000
O O17 0.250000 0.420882 0.919848
O O18 0.485889 0.431807 0.828672
O O19 0.439049 0.338012 0.912249
O O20 0.500000 0.426649 0.000000
O O21 0.750000 0.578151 0.764494
O O22 0.570917 0.500000 0.707323
O O23 0.250000 0.717772 0.814305
#
# Coordination Sequence:
#
# PCOD8209393 Si02
#       8
#     8   8   8   8   8   8   8   8
#     4  10  21  38  61  88 116 149 192 239 288 339
#     4  10  22  38  58  84 109 140 179 222 278 337
#     4  10  19  33  54  80 112 147 185 225 273 331
#     4  10  21  36  55  83 119 155 193 235 281 333
#     4   9  18  31  48  75 111 149 188 227 273 322
#     4  11  22  35  56  83 111 142 180 224 275 335
#     4  10  22  42  62  79 105 139 179 230 281 334
#     4   9  18  32  50  76 108 143 180 222 272 326
#
# _framework density 18.974387
#
# number of rings (size 3 to 8) (size 9 to 14) (size 15 to 20)
#    0.000    2.125    1.250    2.625    0.000    6.500 
#    0.000    1.250    0.000    0.375    0.000    0.000 
#    0.000    0.000    0.000    0.000    0.000    0.000 
#
# Total GULP energy -793658.506081 kJ/mol
# GULP energy per Si atom -12400.914158 kJ/mol
# Density = 1.893120 g / cm^3
# Si number density = 18.974387 Si / 1000 Ang^3
#
#
#
# Elastic Constant Matrix: (Units=GPa)
#
#
# Indices 1 2 3 4 5 6 
#
# 1 98.5802 36.8851 57.9751 0.0000 0.0000 0.0000
# 2 36.8851 55.3506 42.8244 0.0000 0.0000 0.0000
# 3 57.9751 42.8244 121.7814 0.0000 0.0000 0.0000
# 4 0.0000 0.0000 0.0000 17.4352 0.0000 0.0000
# 5 0.0000 0.0000 0.0000 0.0000 38.9198 0.0000
# 6 0.0000 0.0000 0.0000 0.0000 0.0000 25.7641
#
#
#
# Elastic Compliance Matrix: (Units=1/GPa)
#
#
# Indices 1 2 3 4 5 6 
#
# 1 0.015570 -0.006376 -0.005170 0.000000 0.000000 0.000000
# 2 -0.006376 0.027430 -0.006611 0.000000 0.000000 0.000000
# 3 -0.005170 -0.006611 0.012997 0.000000 0.000000 0.000000
# 4 0.000000 0.000000 0.000000 0.057355 0.000000 0.000000
# 5 0.000000 0.000000 0.000000 0.000000 0.025694 0.000000
# 6 0.000000 0.000000 0.000000 0.000000 0.000000 0.038814
#
#
# Mechanical properties :
#
#
# Convention : Reuss Voigt Hill
#
# Bulk Modulus (GPa) = 50.80142 61.23127 56.01634
# Shear Modulus (GPa) = 22.65165 25.62567 24.13866
#
# Velocity S-wave (km/s) = 3.45889 3.67896 3.57062
# Velocity P-wave (km/s) = 6.54093 7.09837 6.82534
#
# Compressibility (1/GPa) = 0.01968449
#
# Stress axis : x y z
#
# Youngs Moduli (GPa) = 64.22514 36.45677 76.93837
#
# Poissons Ratio (x) = 0.23243 0.39780
# Poissons Ratio (y) = 0.40947 0.50860
# Poissons Ratio (z) = 0.33207 0.24100
#
# Static dielectric constant tensor:
#      x y z
#    x 3.549560 0.000000 0.000000 
#    y 0.000000 3.322830 0.000000 
#    z 0.000000 0.000000 3.339290 
# 
# 
# High freq. dielectric constant tensor:
#      x y z
#    x 1.743270 0.000000 0.000000 
#    y 0.000000 1.720810 0.000000 
#    z 0.000000 0.000000 1.730920 
# 
# From -- ./inp_files/22290.got.cif
#   From: 2010.03.12/outbox.cif.g09.slc.cpg/sg51_12_cif.got.tgz:22290.got - 2010.04.16 13:43:02.
