data_PCOD8209086
_publ_section_title
;
Structure prediction by ZEFSAII (Michael W. Deem and Ramdas Pophale) SiO2 
 PCOD8209086
Probable space group: P M M A
;
_chemical_formula_sum "Si O2"
_cell_formula_units_Z 48
_cell_length_a 9.166247
_cell_length_b 20.228085
_cell_length_c 14.356254
_cell_angle_alpha 90.000000
_cell_angle_beta 90.000000
_cell_angle_gamma 90.000000
_cell_volume 2661.873786
_symmetry_space_group_name_H-M "P M M A"
_symmetry_group_IT_number 51
_symmetry_cell_setting 'orthorhombic'
loop_
_space_group_symop_operation_xyz
x,y,z
1/2-x,-y,z
1/2+x,-y,-z
-x,y,-z
-x,-y,-z
1/2+x,y,-z
1/2-x,y,z
x,-y,z
loop_
_atom_site_type_symbol
_atom_site_label
_atom_site_fract_x
_atom_site_fract_y
_atom_site_fract_z
Si Si1 0.918454 0.119348 0.590403
Si Si2 0.081689 0.075577 0.208988
Si Si3 0.419784 0.690643 0.772319
Si Si4 0.920380 0.726869 0.591732
Si Si5 0.077920 0.813896 0.902750
Si Si6 0.580434 0.574610 0.092794
O O1 0.750000 0.106620 0.571544
O O2 0.970779 0.082436 0.683861
O O3 0.955507 0.196060 0.604299
O O4 0.000000 0.090264 0.500000
O O5 0.250000 0.099147 0.200747
O O6 0.981624 0.118626 0.141563
O O7 0.064038 0.000000 0.177393
O O8 0.250000 0.692691 0.745200
O O9 0.515884 0.688975 0.680021
O O10 0.460992 0.753319 0.835405
O O11 0.463295 0.623344 0.824377
O O12 0.750000 0.712351 0.582992
O O13 0.000000 0.699284 0.500000
O O14 0.250000 0.820879 0.919257
O O15 0.000000 0.800001 0.000000
O O16 0.750000 0.580093 0.070418
O O17 0.535441 0.500000 0.121230
O O18 0.500000 0.597994 0.000000
#
# Coordination Sequence:
#
# PCOD8209086 Si02
#       6
#     8   8   8   8   8   8
#     4   9  18  32  51  76 103 132 166 207 257 309
#     4  10  21  38  56  74 101 136 174 216 262 313
#     4  10  20  34  54  81 109 139 175 215 259 307
#     4  10  19  32  53  79 108 139 172 215 262 310
#     4  11  23  37  55  77 103 133 172 218 262 310
#     4   9  18  33  53  79 112 146 178 214 258 309
#
# _framework density 18.032409999999999
#
# number of rings (size 3 to 8) (size 9 to 14) (size 15 to 20)
#    0.000    2.167    1.667    1.500    0.000    3.667 
#    0.000    0.000    0.000    0.500    0.000    0.000 
#    0.000    0.000    0.000    0.000    0.000    0.000 
#
# Total GULP energy -595352.706986 kJ/mol
# GULP energy per Si atom -12403.181396 kJ/mol
# Density = 1.799137 g / cm^3
# Si number density = 18.032410 Si / 1000 Ang^3
#
#
#
# Elastic Constant Matrix: (Units=GPa)
#
#
# Indices 1 2 3 4 5 6 
#
# 1 77.6049 41.7659 66.2994 0.0000 0.0000 0.0000
# 2 41.7659 79.1516 52.1695 0.0000 0.0000 0.0000
# 3 66.2994 52.1695 133.2560 0.0000 0.0000 0.0000
# 4 0.0000 0.0000 0.0000 9.0911 0.0000 0.0000
# 5 0.0000 0.0000 0.0000 0.0000 40.5573 0.0000
# 6 0.0000 0.0000 0.0000 0.0000 0.0000 21.6397
#
#
#
# Elastic Compliance Matrix: (Units=1/GPa)
#
#
# Indices 1 2 3 4 5 6 
#
# 1 0.024775 -0.006670 -0.009715 0.000000 0.000000 0.000000
# 2 -0.006670 0.018823 -0.004051 0.000000 0.000000 0.000000
# 3 -0.009715 -0.004051 0.013924 0.000000 0.000000 0.000000
# 4 0.000000 0.000000 0.000000 0.109997 0.000000 0.000000
# 5 0.000000 0.000000 0.000000 0.000000 0.024656 0.000000
# 6 0.000000 0.000000 0.000000 0.000000 0.000000 0.046211
#
#
# Mechanical properties :
#
#
# Convention : Reuss Voigt Hill
#
# Bulk Modulus (GPa) = 60.05749 67.83136 63.94443
# Shear Modulus (GPa) = 17.55554 22.90948 20.23251
#
# Velocity S-wave (km/s) = 3.12357 3.56822 3.35327
# Velocity P-wave (km/s) = 6.81076 7.39421 7.10847
#
# Compressibility (1/GPa) = 0.01665071
#
# Stress axis : x y z
#
# Youngs Moduli (GPa) = 40.36261 53.12544 71.81830
#
# Poissons Ratio (x) = 0.35433 0.69775
# Poissons Ratio (y) = 0.26921 0.29093
# Poissons Ratio (z) = 0.39214 0.21521
#
# Static dielectric constant tensor:
#      x y z
#    x 3.321090 0.000000 0.000000 
#    y 0.000000 3.274060 0.000000 
#    z 0.000000 0.000000 3.399310 
# 
# 
# High freq. dielectric constant tensor:
#      x y z
#    x 1.699190 0.000000 0.000000 
#    y 0.000000 1.682300 0.000000 
#    z 0.000000 0.000000 1.703040 
# 
# From -- ./inp_files/21095.got.cif
#   From: 2010.03.12/outbox.cif.g09.slc.cpg/sg51_11_cif.got.tgz:21095.got - 2010.04.16 13:43:02.
