data_PCOD8209198
_publ_section_title
;
Structure prediction by ZEFSAII (Michael W. Deem and Ramdas Pophale) SiO2 
 PCOD8209198
Probable space group: P M M A
;
_chemical_formula_sum "Si O2"
_cell_formula_units_Z 48
_cell_length_a 19.105716
_cell_length_b 16.402825
_cell_length_c 8.818862
_cell_angle_alpha 90.000000
_cell_angle_beta 90.000000
_cell_angle_gamma 90.000000
_cell_volume 2763.723020
_symmetry_space_group_name_H-M "P M M A"
_symmetry_group_IT_number 51
_symmetry_cell_setting 'orthorhombic'
loop_
_space_group_symop_operation_xyz
x,y,z
1/2-x,-y,z
1/2+x,-y,-z
-x,y,-z
-x,-y,-z
1/2+x,y,-z
1/2-x,y,z
x,-y,z
loop_
_atom_site_type_symbol
_atom_site_label
_atom_site_fract_x
_atom_site_fract_y
_atom_site_fract_z
Si Si1 0.090502 0.738892 0.350383
Si Si2 0.672309 0.837956 0.879604
Si Si3 0.568077 0.908280 0.091944
Si Si4 0.331775 0.407722 0.209192
Si Si5 0.327354 0.320844 0.915253
Si Si6 0.431528 0.242412 0.699112
O O1 0.131110 0.813940 0.272783
O O2 0.125891 0.651688 0.320218
O O3 0.092686 0.759761 0.526637
O O4 0.012176 0.732664 0.285069
O O5 0.750000 0.869135 0.837387
O O6 0.632352 0.907863 0.973100
O O7 0.675728 0.759446 0.984431
O O8 0.580967 0.847572 0.232045
O O9 0.559413 0.000000 0.155756
O O10 0.500000 0.878992 0.000000
O O11 0.250000 0.390548 0.236630
O O12 0.352436 0.500000 0.250596
O O13 0.349300 0.392953 0.030926
O O14 0.250000 0.337289 0.843902
O O15 0.385124 0.310853 0.784468
#
# Coordination Sequence:
#
# PCOD8209198 Si02
#       6
#     8   8   8   8   8   8
#     4  10  19  33  50  76 107 140 173 210 254 318
#     4   9  17  31  52  74  98 133 176 214 253 308
#     4  10  19  34  55  77 101 135 177 221 266 305
#     4   9  18  34  55  77 102 134 173 216 260 306
#     4   8  16  30  50  73  96 130 174 214 251 301
#     4  10  20  33  51  76 108 137 174 214 257 312
#
# _framework density 17.367878000000001
#
# number of rings (size 3 to 8) (size 9 to 14) (size 15 to 20)
#    0.000    2.667    1.667    1.500    0.000    1.667 
#    0.000    6.667    0.000    2.000    0.000    0.000 
#    0.000    0.000    0.000    0.000    0.000    0.000 
#
# Total GULP energy -595058.946528 kJ/mol
# GULP energy per Si atom -12397.061386 kJ/mol
# Density = 1.732835 g / cm^3
# Si number density = 17.367878 Si / 1000 Ang^3
#
#
#
# Elastic Constant Matrix: (Units=GPa)
#
#
# Indices 1 2 3 4 5 6 
#
# 1 119.5082 30.6011 66.8449 0.0000 0.0000 0.0000
# 2 30.6011 84.2487 43.8898 0.0000 0.0000 0.0000
# 3 66.8449 43.8898 102.0556 0.0000 0.0000 0.0000
# 4 0.0000 0.0000 0.0000 18.7097 0.0000 0.0000
# 5 0.0000 0.0000 0.0000 0.0000 28.5224 0.0000
# 6 0.0000 0.0000 0.0000 0.0000 0.0000 21.2543
#
#
#
# Elastic Compliance Matrix: (Units=1/GPa)
#
#
# Indices 1 2 3 4 5 6 
#
# 1 0.013215 -0.000375 -0.008494 0.000000 0.000000 0.000000
# 2 -0.000375 0.015307 -0.006338 0.000000 0.000000 0.000000
# 3 -0.008494 -0.006338 0.018088 0.000000 0.000000 0.000000
# 4 0.000000 0.000000 0.000000 0.053448 0.000000 0.000000
# 5 0.000000 0.000000 0.000000 0.000000 0.035060 0.000000
# 6 0.000000 0.000000 0.000000 0.000000 0.000000 0.047049
#
#
# Mechanical properties :
#
#
# Convention : Reuss Voigt Hill
#
# Bulk Modulus (GPa) = 61.74150 65.38712 63.56431
# Shear Modulus (GPa) = 22.93790 24.66237 23.80014
#
# Velocity S-wave (km/s) = 3.63810 3.77238 3.70585
# Velocity P-wave (km/s) = 7.29891 7.53024 7.41548
#
# Compressibility (1/GPa) = 0.01619656
#
# Stress axis : x y z
#
# Youngs Moduli (GPa) = 75.67316 65.32814 55.28604
#
# Poissons Ratio (x) = 0.02448 0.46962
# Poissons Ratio (y) = 0.02836 0.35038
# Poissons Ratio (z) = 0.64279 0.41402
#
# Static dielectric constant tensor:
#      x y z
#    x 3.575330 0.000000 0.000000 
#    y 0.000000 3.099510 0.000000 
#    z 0.000000 0.000000 3.125420 
# 
# 
# High freq. dielectric constant tensor:
#      x y z
#    x 1.683080 0.000000 0.000000 
#    y 0.000000 1.649840 0.000000 
#    z 0.000000 0.000000 1.654900 
# 
# From -- ./inp_files/9800.got.cif
#   From: 2010.03.12/outbox.cif.g09.slc.cpg/sg51_5_cif.got.tgz:9800.got - 2010.04.16 13:43:02.
