data_PCOD8209992
_publ_section_title
;
Structure prediction by ZEFSAII (Michael W. Deem and Ramdas Pophale) SiO2 
 PCOD8209992
Probable space group: P M M A
;
_chemical_formula_sum "Si O2"
_cell_formula_units_Z 64
_cell_length_a 8.959706
_cell_length_b 25.399294
_cell_length_c 14.330984
_cell_angle_alpha 90.000000
_cell_angle_beta 90.000000
_cell_angle_gamma 90.000000
_cell_volume 3261.304993
_symmetry_space_group_name_H-M "P M M A"
_symmetry_group_IT_number 51
_symmetry_cell_setting 'orthorhombic'
loop_
_space_group_symop_operation_xyz
x,y,z
1/2-x,-y,z
1/2+x,-y,-z
-x,y,-z
-x,-y,-z
1/2+x,y,-z
1/2-x,y,z
x,-y,z
loop_
_atom_site_type_symbol
_atom_site_label
_atom_site_fract_x
_atom_site_fract_y
_atom_site_fract_z
Si Si1 0.924278 0.845501 0.598282
Si Si2 0.917032 0.937308 0.090539
Si Si3 0.078423 0.440663 0.729882
Si Si4 0.421449 0.243703 0.709868
Si Si5 0.924743 0.347552 0.400809
Si Si6 0.924308 0.714061 0.091938
Si Si7 0.572226 0.602133 0.904970
Si Si8 0.924399 0.940651 0.723031
O O1 0.750000 0.839342 0.583357
O O2 0.966404 0.903598 0.636026
O O3 0.000000 0.835317 0.500000
O O4 0.976100 0.802899 0.673094
O O5 0.750000 0.914884 0.090510
O O6 0.995954 0.918183 0.184892
O O7 0.919055 0.000000 0.086318
O O8 0.000000 0.913862 0.000000
O O9 0.250000 0.427209 0.756207
O O10 0.063271 0.500000 0.691220
O O11 0.021036 0.400947 0.649870
O O12 0.976250 0.435678 0.821099
O O13 0.250000 0.231315 0.685121
O O14 0.471943 0.298365 0.663119
O O15 0.444830 0.246773 0.821196
O O16 0.750000 0.348881 0.417782
O O17 0.000000 0.341906 0.500000
O O18 0.750000 0.702194 0.073595
O O19 0.008025 0.659979 0.115243
O O20 0.000000 0.739975 0.000000
O O21 0.750000 0.603644 0.913734
O O22 0.500000 0.579598 0.000000
O O23 0.750000 0.939376 0.744789
O O24 0.977643 0.000000 0.698622
#
# Coordination Sequence:
#
# PCOD8209992 Si02
#       8
#     8   8   8   8   8   8   8   8
#     4  11  24  40  60  86 115 147 190 238 289 343
#     4   9  16  27  48  79 112 147 187 230 275 327
#     4  10  21  39  59  79 111 152 192 238 288 339
#     4  10  21  39  62  85 116 151 187 233 281 335
#     4  10  21  38  58  83 110 143 188 233 285 340
#     4  10  19  35  59  88 119 151 188 228 276 335
#     4  11  21  34  56  84 116 151 189 232 279 337
#     4   9  19  37  58  81 113 153 194 237 283 336
#
# _framework density 19.624047000000001
#
# number of rings (size 3 to 8) (size 9 to 14) (size 15 to 20)
#    0.000    2.000    1.250    3.375    0.000    6.500 
#    0.000    0.625    0.000    1.500    0.000    0.000 
#    0.000    0.000    0.000    0.000    0.000    0.000 
#
# Total GULP energy -793719.582880 kJ/mol
# GULP energy per Si atom -12401.868482 kJ/mol
# Density = 1.957938 g / cm^3
# Si number density = 19.624047 Si / 1000 Ang^3
#
#
#
# Elastic Constant Matrix: (Units=GPa)
#
#
# Indices 1 2 3 4 5 6 
#
# 1 93.4811 39.4720 49.2425 0.0000 0.0000 0.0000
# 2 39.4720 86.6615 46.5049 0.0000 0.0000 0.0000
# 3 49.2425 46.5049 123.9147 0.0000 0.0000 0.0000
# 4 0.0000 0.0000 0.0000 22.4417 0.0000 0.0000
# 5 0.0000 0.0000 0.0000 0.0000 35.0334 0.0000
# 6 0.0000 0.0000 0.0000 0.0000 0.0000 22.7648
#
#
#
# Elastic Compliance Matrix: (Units=1/GPa)
#
#
# Indices 1 2 3 4 5 6 
#
# 1 0.014805 -0.004490 -0.004198 0.000000 0.000000 0.000000
# 2 -0.004490 0.015811 -0.004149 0.000000 0.000000 0.000000
# 3 -0.004198 -0.004149 0.011296 0.000000 0.000000 0.000000
# 4 0.000000 0.000000 0.000000 0.044560 0.000000 0.000000
# 5 0.000000 0.000000 0.000000 0.000000 0.028544 0.000000
# 6 0.000000 0.000000 0.000000 0.000000 0.000000 0.043928
#
#
# Mechanical properties :
#
#
# Convention : Reuss Voigt Hill
#
# Bulk Modulus (GPa) = 61.59248 63.83289 62.71269
# Shear Modulus (GPa) = 26.31153 27.30384 26.80769
#
# Velocity S-wave (km/s) = 3.66564 3.73412 3.70004
# Velocity P-wave (km/s) = 7.02640 7.15472 7.09085
#
# Compressibility (1/GPa) = 0.01623575
#
# Stress axis : x y z
#
# Youngs Moduli (GPa) = 67.54571 63.24674 88.53007
#
# Poissons Ratio (x) = 0.28400 0.37165
# Poissons Ratio (y) = 0.30331 0.36735
# Poissons Ratio (z) = 0.28356 0.26244
#
# Static dielectric constant tensor:
#      x y z
#    x 3.599030 0.000000 0.000000 
#    y 0.000000 3.438280 0.000000 
#    z 0.000000 0.000000 3.660580 
# 
# 
# High freq. dielectric constant tensor:
#      x y z
#    x 1.765760 0.000000 0.000000 
#    y 0.000000 1.746440 0.000000 
#    z 0.000000 0.000000 1.771250 
# 
# From -- ./inp_files/22325.got.cif
#   From: 2010.03.12/outbox.cif.g09.slc.cpg/sg51_12_cif.got.tgz:22325.got - 2010.04.16 13:43:02.
