data_PCOD8209264
_publ_section_title
;
Structure prediction by ZEFSAII (Michael W. Deem and Ramdas Pophale) SiO2 
 PCOD8209264
Probable space group: P M M A
;
_chemical_formula_sum "Si O2"
_cell_formula_units_Z 36
_cell_length_a 9.434714
_cell_length_b 10.354780
_cell_length_c 19.317102
_cell_angle_alpha 90.000000
_cell_angle_beta 90.000000
_cell_angle_gamma 90.000000
_cell_volume 1887.172455
_symmetry_space_group_name_H-M "P M M A"
_symmetry_group_IT_number 51
_symmetry_cell_setting 'orthorhombic'
loop_
_space_group_symop_operation_xyz
x,y,z
1/2-x,-y,z
1/2+x,-y,-z
-x,y,-z
-x,-y,-z
1/2+x,y,-z
1/2-x,y,z
x,-y,z
loop_
_atom_site_type_symbol
_atom_site_label
_atom_site_fract_x
_atom_site_fract_y
_atom_site_fract_z
Si Si1 0.909051 0.000000 0.432168
Si Si2 0.915556 0.353087 0.069627
Si Si3 0.581743 0.145495 0.181843
Si Si4 0.585645 0.235351 0.331566
Si Si5 0.093292 0.352285 0.438243
O O1 0.941938 0.120295 0.384013
O O2 0.000000 0.000000 0.500000
O O3 0.750000 0.000000 0.458452
O O4 0.750000 0.332614 0.054493
O O5 0.943659 0.500000 0.096171
O O6 0.972006 0.248946 0.125285
O O7 0.000000 0.325276 0.000000
O O8 0.750000 0.140091 0.182828
O O9 0.528386 0.195242 0.256181
O O10 0.523136 0.000000 0.166629
O O11 0.750000 0.278851 0.328257
O O12 0.487250 0.347089 0.363898
O O13 0.250000 0.286193 0.435163
O O14 0.115503 0.500000 0.457759
O O15 0.000000 0.286255 0.500000
#
# Coordination Sequence:
#
# PCOD8209264 Si02
#       5
#     4   8   8   8   8
#     4  10  20  32  48  72  99 130 168 210 257 304
#     4   9  18  33  54  80 108 139 177 218 261 313
#     4   9  17  32  54  78 107 141 176 217 263 313
#     4  10  19  33  53  75 101 133 171 214 262 315
#     4  10  21  36  52  72 100 133 172 219 268 317
#
# _framework density 19.076158
#
# number of rings (size 3 to 8) (size 9 to 14) (size 15 to 20)
#    0.000    2.444    1.111    1.333    0.000    5.333 
#    0.000    3.333    0.000    4.000    0.000    0.000 
#    0.000    0.000    0.000    0.000    0.000    0.000 
#
# Total GULP energy -446192.805886 kJ/mol
# GULP energy per Si atom -12394.244608 kJ/mol
# Density = 1.903274 g / cm^3
# Si number density = 19.076158 Si / 1000 Ang^3
#
#
#
# Elastic Constant Matrix: (Units=GPa)
#
#
# Indices 1 2 3 4 5 6 
#
# 1 77.2828 35.1225 55.4148 0.0000 0.0000 0.0000
# 2 35.1225 81.4424 72.1371 0.0000 0.0000 0.0000
# 3 55.4148 72.1371 161.4590 0.0000 0.0000 0.0000
# 4 0.0000 0.0000 0.0000 40.5041 0.0000 0.0000
# 5 0.0000 0.0000 0.0000 0.0000 28.1511 0.0000
# 6 0.0000 0.0000 0.0000 0.0000 0.0000 17.5557
#
#
#
# Elastic Compliance Matrix: (Units=1/GPa)
#
#
# Indices 1 2 3 4 5 6 
#
# 1 0.017831 -0.003755 -0.004442 0.000000 0.000000 0.000000
# 2 -0.003755 0.021111 -0.008143 0.000000 0.000000 0.000000
# 3 -0.004442 -0.008143 0.011356 0.000000 0.000000 0.000000
# 4 0.000000 0.000000 0.000000 0.024689 0.000000 0.000000
# 5 0.000000 0.000000 0.000000 0.000000 0.035523 0.000000
# 6 0.000000 0.000000 0.000000 0.000000 0.000000 0.056961
#
#
# Mechanical properties :
#
#
# Convention : Reuss Voigt Hill
#
# Bulk Modulus (GPa) = 56.76190 71.72589 64.24389
# Shear Modulus (GPa) = 24.26892 27.74284 26.00588
#
# Velocity S-wave (km/s) = 3.57068 3.81769 3.69625
# Velocity P-wave (km/s) = 6.84249 7.55741 7.20882
#
# Compressibility (1/GPa) = 0.01761745
#
# Stress axis : x y z
#
# Youngs Moduli (GPa) = 56.08103 47.36914 88.05665
#
# Poissons Ratio (x) = 0.17788 0.39116
# Poissons Ratio (y) = 0.21060 0.71705
# Poissons Ratio (z) = 0.24912 0.38573
#
# Static dielectric constant tensor:
#      x y z
#    x 3.383330 0.000000 0.000000 
#    y 0.000000 3.939440 0.000000 
#    z 0.000000 0.000000 12.414280 
# 
# 
# High freq. dielectric constant tensor:
#      x y z
#    x 1.715490 0.000000 0.000000 
#    y 0.000000 1.744480 0.000000 
#    z 0.000000 0.000000 1.738050 
# 
# From -- ./inp_files/27033.got.cif
#   From: 2010.03.12/outbox.cif.g09.slc.cpg/sg51_14_cif.got.tgz:27033.got - 2010.04.16 13:43:02.
