data_PCOD8209969
_publ_section_title
;
Structure prediction by ZEFSAII (Michael W. Deem and Ramdas Pophale) SiO2 
 PCOD8209969
Probable space group: P M M A
;
_chemical_formula_sum "Si O2"
_cell_formula_units_Z 40
_cell_length_a 10.034466
_cell_length_b 9.270680
_cell_length_c 24.533251
_cell_angle_alpha 90.000000
_cell_angle_beta 90.000000
_cell_angle_gamma 90.000000
_cell_volume 2282.238138
_symmetry_space_group_name_H-M "P M M A"
_symmetry_group_IT_number 51
_symmetry_cell_setting 'orthorhombic'
loop_
_space_group_symop_operation_xyz
x,y,z
1/2-x,-y,z
1/2+x,-y,-z
-x,y,-z
-x,-y,-z
1/2+x,y,-z
1/2-x,y,z
x,-y,z
loop_
_atom_site_type_symbol
_atom_site_label
_atom_site_fract_x
_atom_site_fract_y
_atom_site_fract_z
Si Si1 0.102361 0.671311 0.729434
Si Si2 0.408504 0.660334 0.847762
Si Si3 0.485434 0.333698 0.382023
Si Si4 0.750000 0.171355 0.561168
Si Si5 0.097297 0.169912 0.952474
Si Si6 0.750000 0.662041 0.450958
O O1 0.250000 0.738839 0.720890
O O2 0.116641 0.500000 0.728666
O O3 0.041620 0.718401 0.788452
O O4 0.005578 0.719155 0.680401
O O5 0.250000 0.655825 0.845111
O O6 0.464758 0.500000 0.859322
O O7 0.457091 0.763958 0.896049
O O8 0.436978 0.500000 0.384662
O O9 0.379289 0.228999 0.408453
O O10 0.622558 0.314013 0.413703
O O11 0.750000 0.223328 0.499119
O O12 0.750000 0.000000 0.561990
O O13 0.250000 0.217816 0.964870
O O14 0.087463 0.000000 0.946390
O O15 0.000000 0.226673 0.000000
O O16 0.750000 0.500000 0.475783
#
# Coordination Sequence:
#
# PCOD8209969 Si02
#       6
#     8   8   8   4   8   4
#     4   8  13  26  51  80 101 118 152 205 254 291
#     4   8  14  25  45  73 100 122 148 191 246 291
#     4  10  19  35  59  81  99 127 169 212 250 295
#     4  12  26  38  48  70 110 146 167 196 249 306
#     4   9  17  29  45  65  91 125 164 198 230 272
#     4  10  20  36  60  84  98 120 171 220 249 290
#
# _framework density 17.526655000000002
#
# number of rings (size 3 to 8) (size 9 to 14) (size 15 to 20)
#    0.000    2.800    1.000    2.700    0.000    3.600 
#    0.000    1.000    2.200    1.200    0.000    0.000 
#    0.000    0.000    0.000    0.000    0.000    0.000 
#
# Total GULP energy -495774.807594 kJ/mol
# GULP energy per Si atom -12394.370190 kJ/mol
# Density = 1.748676 g / cm^3
# Si number density = 17.526655 Si / 1000 Ang^3
#
#
#
# Elastic Constant Matrix: (Units=GPa)
#
#
# Indices 1 2 3 4 5 6 
#
# 1 70.8114 37.9939 49.8997 0.0000 0.0000 0.0000
# 2 37.9939 66.0885 55.4662 0.0000 0.0000 0.0000
# 3 49.8997 55.4662 168.9079 0.0000 0.0000 0.0000
# 4 0.0000 0.0000 0.0000 4.4447 0.0000 0.0000
# 5 0.0000 0.0000 0.0000 0.0000 12.7038 0.0000
# 6 0.0000 0.0000 0.0000 0.0000 0.0000 12.7197
#
#
#
# Elastic Compliance Matrix: (Units=1/GPa)
#
#
# Indices 1 2 3 4 5 6 
#
# 1 0.021590 -0.009745 -0.003178 0.000000 0.000000 0.000000
# 2 -0.009745 0.025286 -0.005425 0.000000 0.000000 0.000000
# 3 -0.003178 -0.005425 0.008641 0.000000 0.000000 0.000000
# 4 0.000000 0.000000 0.000000 0.224990 0.000000 0.000000
# 5 0.000000 0.000000 0.000000 0.000000 0.078716 0.000000
# 6 0.000000 0.000000 0.000000 0.000000 0.000000 0.078618
#
#
# Mechanical properties :
#
#
# Convention : Reuss Voigt Hill
#
# Bulk Modulus (GPa) = 53.12988 65.83637 59.48312
# Shear Modulus (GPa) = 10.39910 16.80349 13.60130
#
# Velocity S-wave (km/s) = 2.43848 3.09971 2.78876
# Velocity P-wave (km/s) = 6.18933 7.10324 6.66198
#
# Compressibility (1/GPa) = 0.01882180
#
# Stress axis : x y z
#
# Youngs Moduli (GPa) = 46.31725 39.54737 115.73100
#
# Poissons Ratio (x) = 0.38537 0.36784
# Poissons Ratio (y) = 0.45134 0.62781
# Poissons Ratio (z) = 0.14721 0.21453
#
# Static dielectric constant tensor:
#      x y z
#    x 3.036220 0.000000 0.000000 
#    y 0.000000 3.028350 0.000000 
#    z 0.000000 0.000000 3.787580 
# 
# 
# High freq. dielectric constant tensor:
#      x y z
#    x 1.647350 0.000000 0.000000 
#    y 0.000000 1.645470 0.000000 
#    z 0.000000 0.000000 1.697310 
# 
# From -- ./inp_files/36036.got.cif
#   From: 2010.03.12/outbox.cif.g09.slc.cpg/sg51_19_cif.got.tgz:36036.got - 2010.04.16 13:43:02.
