data_PCOD8209350
_publ_section_title
;
Structure prediction by ZEFSAII (Michael W. Deem and Ramdas Pophale) SiO2 
 PCOD8209350
Probable space group: P M M A
;
_chemical_formula_sum "Si O2"
_cell_formula_units_Z 56
_cell_length_a 14.744437
_cell_length_b 9.008454
_cell_length_c 22.685955
_cell_angle_alpha 90.000000
_cell_angle_beta 90.000000
_cell_angle_gamma 90.000000
_cell_volume 3013.252501
_symmetry_space_group_name_H-M "P M M A"
_symmetry_group_IT_number 51
_symmetry_cell_setting 'orthorhombic'
loop_
_space_group_symop_operation_xyz
x,y,z
1/2-x,-y,z
1/2+x,-y,-z
-x,y,-z
-x,-y,-z
1/2+x,y,-z
1/2-x,y,z
x,-y,z
loop_
_atom_site_type_symbol
_atom_site_label
_atom_site_fract_x
_atom_site_fract_y
_atom_site_fract_z
Si Si1 0.028126 0.676750 0.587788
Si Si2 0.647094 0.323595 0.520476
Si Si3 0.920094 0.827068 0.165634
Si Si4 0.250000 0.676013 0.036590
Si Si5 0.112552 0.173808 0.119923
Si Si6 0.653633 0.333930 0.766660
Si Si7 0.034335 0.327849 0.717373
Si Si8 0.250000 0.174183 0.912104
O O1 0.023079 0.500000 0.589256
O O2 0.106100 0.729463 0.542552
O O3 0.057676 0.736499 0.652539
O O4 0.926448 0.732796 0.569204
O O5 0.750000 0.258699 0.529732
O O6 0.652820 0.500000 0.521729
O O7 0.912535 0.751237 0.229701
O O8 0.835659 0.780060 0.126690
O O9 0.007648 0.778236 0.127530
O O10 0.923374 0.000000 0.178948
O O11 0.250000 0.500000 0.041353
O O12 0.341532 0.739072 0.066176
O O13 0.250000 0.725587 0.969384
O O14 0.161235 0.217100 0.180426
O O15 0.124204 0.000000 0.107464
O O16 0.750000 0.325746 0.732155
O O17 0.638969 0.500000 0.793065
O O18 0.573192 0.296149 0.722381
O O19 0.059072 0.500000 0.721863
O O20 0.250000 0.000000 0.928806
#
# Coordination Sequence:
#
# PCOD8209350 Si02
#       8
#     8   8   8   4   8   8   8   4
#     4   8  14  24  37  59  91 125 162 201 245 294
#     4   8  13  22  37  57  88 128 164 202 244 288
#     4   9  20  38  58  76  99 133 172 211 251 297
#     4  12  24  36  54  82 110 134 163 202 251 306
#     4  10  19  33  54  78 101 130 167 205 246 299
#     4   9  16  26  42  66  97 130 161 198 251 304
#     4   9  17  29  46  70 101 131 162 208 257 303
#     4  10  22  42  60  74  98 134 173 212 249 292
#
# _framework density 18.584568999999998
#
# number of rings (size 3 to 8) (size 9 to 14) (size 15 to 20)
#    0.000    2.857    0.714    1.929    0.000    2.286 
#    1.286    5.714    0.000    0.000    0.000    2.000 
#    0.000    1.143    0.000    0.000    0.000    0.000 
#
# Total GULP energy -693863.454314 kJ/mol
# GULP energy per Si atom -12390.418827 kJ/mol
# Density = 1.854227 g / cm^3
# Si number density = 18.584569 Si / 1000 Ang^3
#
#
#
# Elastic Constant Matrix: (Units=GPa)
#
#
# Indices 1 2 3 4 5 6 
#
# 1 98.3446 19.2140 41.4064 0.0000 0.0000 0.0000
# 2 19.2140 46.2699 38.5090 0.0000 0.0000 0.0000
# 3 41.4064 38.5090 132.5362 0.0000 0.0000 0.0000
# 4 0.0000 0.0000 0.0000 6.2171 0.0000 0.0000
# 5 0.0000 0.0000 0.0000 0.0000 20.6679 0.0000
# 6 0.0000 0.0000 0.0000 0.0000 0.0000 13.0031
#
#
#
# Elastic Compliance Matrix: (Units=1/GPa)
#
#
# Indices 1 2 3 4 5 6 
#
# 1 0.011914 -0.002439 -0.003013 0.000000 0.000000 0.000000
# 2 -0.002439 0.029005 -0.007665 0.000000 0.000000 0.000000
# 3 -0.003013 -0.007665 0.010714 0.000000 0.000000 0.000000
# 4 0.000000 0.000000 0.000000 0.160847 0.000000 0.000000
# 5 0.000000 0.000000 0.000000 0.000000 0.048384 0.000000
# 6 0.000000 0.000000 0.000000 0.000000 0.000000 0.076905
#
#
# Mechanical properties :
#
#
# Convention : Reuss Voigt Hill
#
# Bulk Modulus (GPa) = 39.37599 52.82328 46.09964
# Shear Modulus (GPa) = 13.42390 19.84569 16.63479
#
# Velocity S-wave (km/s) = 2.69051 3.27136 2.99505
# Velocity P-wave (km/s) = 5.55745 6.53865 6.06791
#
# Compressibility (1/GPa) = 0.02539619
#
# Stress axis : x y z
#
# Youngs Moduli (GPa) = 83.93777 34.47676 93.33836
#
# Poissons Ratio (x) = 0.08410 0.28125
# Poissons Ratio (y) = 0.20476 0.71548
# Poissons Ratio (z) = 0.25292 0.26428
#
# Static dielectric constant tensor:
#      x y z
#    x 3.928550 0.000000 0.000000 
#    y 0.000000 3.077360 0.000000 
#    z 0.000000 0.000000 3.451450 
# 
# 
# High freq. dielectric constant tensor:
#      x y z
#    x 1.725420 0.000000 0.000000 
#    y 0.000000 1.681300 0.000000 
#    z 0.000000 0.000000 1.713140 
# 
# From -- ./inp_files/33560.got.cif
#   From: 2010.03.12/outbox.cif.g09.slc.cpg/sg51_17_cif.got.tgz:33560.got - 2010.04.16 13:43:02.
