data_PCOD8209793
_publ_section_title
;
Structure prediction by ZEFSAII (Michael W. Deem and Ramdas Pophale) SiO2 
 PCOD8209793
Probable space group: P M M A
;
_chemical_formula_sum "Si O2"
_cell_formula_units_Z 64
_cell_length_a 14.486028
_cell_length_b 9.170097
_cell_length_c 25.890411
_cell_angle_alpha 90.000000
_cell_angle_beta 90.000000
_cell_angle_gamma 90.000000
_cell_volume 3439.237715
_symmetry_space_group_name_H-M "P M M A"
_symmetry_group_IT_number 51
_symmetry_cell_setting 'orthorhombic'
loop_
_space_group_symop_operation_xyz
x,y,z
1/2-x,-y,z
1/2+x,-y,-z
-x,y,-z
-x,-y,-z
1/2+x,y,-z
1/2-x,y,z
x,-y,z
loop_
_atom_site_type_symbol
_atom_site_label
_atom_site_fract_x
_atom_site_fract_y
_atom_site_fract_z
Si Si1 0.991427 0.829403 0.558243
Si Si2 0.357329 0.829326 0.641144
Si Si3 0.891586 0.663905 0.002541
Si Si4 0.644560 0.669054 0.629183
Si Si5 0.351931 0.163949 0.097736
Si Si6 0.145789 0.335495 0.883880
Si Si7 0.000630 0.173370 0.821285
Si Si8 0.494073 0.670859 0.713913
O O1 0.901227 0.754496 0.581960
O O2 0.000000 0.771057 0.500000
O O3 0.085874 0.791158 0.588995
O O4 0.971953 0.000000 0.559374
O O5 0.250000 0.783958 0.633843
O O6 0.402411 0.739136 0.688023
O O7 0.365577 0.000000 0.654402
O O8 0.854346 0.500000 0.996966
O O9 0.859875 0.727188 0.057814
O O10 0.848344 0.753578 0.956273
O O11 0.000000 0.672727 0.000000
O O12 0.750000 0.722230 0.637805
O O13 0.641854 0.500000 0.614786
O O14 0.585435 0.700724 0.680384
O O15 0.250000 0.169277 0.122381
O O16 0.421390 0.231117 0.139708
O O17 0.383690 0.000000 0.085438
O O18 0.250000 0.340419 0.864692
O O19 0.102810 0.500000 0.881919
O O20 0.096900 0.225091 0.845030
O O21 0.984397 0.250713 0.767240
O O22 0.999209 0.000000 0.813663
O O23 0.475767 0.500000 0.722444
#
# Coordination Sequence:
#
# PCOD8209793 Si02
#       8
#     8   8   8   8   8   8   8   8
#     4   9  18  32  52  82 117 149 183 222 263 309
#     4   9  18  34  55  78 107 144 183 221 263 312
#     4  10  19  34  58  82 106 136 172 213 257 308
#     4   9  19  36  56  79 108 143 183 224 267 317
#     4  10  22  38  55  78 108 140 173 210 256 313
#     4  10  21  37  56  79 107 138 173 213 258 311
#     4  11  23  38  56  78 106 137 173 217 266 318
#     4  10  21  37  57  78 103 135 175 224 273 318
#
# _framework density 18.608775000000001
#
# number of rings (size 3 to 8) (size 9 to 14) (size 15 to 20)
#    0.000    2.250    1.250    1.125    0.000    5.000 
#    0.000    1.250    0.000    0.000    0.000    0.000 
#    0.000    0.000    0.000    0.000    0.000    0.000 
#
# Total GULP energy -793615.283693 kJ/mol
# GULP energy per Si atom -12400.238808 kJ/mol
# Density = 1.856642 g / cm^3
# Si number density = 18.608775 Si / 1000 Ang^3
#
#
#
# Elastic Constant Matrix: (Units=GPa)
#
#
# Indices 1 2 3 4 5 6 
#
# 1 124.1429 38.6423 47.8196 0.0000 0.0000 0.0000
# 2 38.6423 64.9746 52.1516 0.0000 0.0000 0.0000
# 3 47.8196 52.1516 129.7280 0.0000 0.0000 0.0000
# 4 0.0000 0.0000 0.0000 30.0043 0.0000 0.0000
# 5 0.0000 0.0000 0.0000 0.0000 -7.7589 0.0000
# 6 0.0000 0.0000 0.0000 0.0000 0.0000 34.8097
#
#
#
# Elastic Compliance Matrix: (Units=1/GPa)
#
#
# Indices 1 2 3 4 5 6 
#
# 1 0.010210 -0.004505 -0.001952 0.000000 0.000000 0.000000
# 2 -0.004505 0.024710 -0.008273 0.000000 0.000000 0.000000
# 3 -0.001952 -0.008273 0.011754 0.000000 0.000000 0.000000
# 4 0.000000 0.000000 0.000000 0.033329 0.000000 0.000000
# 5 0.000000 0.000000 0.000000 0.000000 -0.128885 0.000000
# 6 0.000000 0.000000 0.000000 0.000000 0.000000 0.028728
#
#
# Mechanical properties :
#
#
# Convention : Reuss Voigt Hill
#
# Bulk Modulus (GPa) = 58.09570 66.23026 62.16298
# Shear Modulus (GPa) = 332.37617 23.42650 177.90134
#
# Velocity S-wave (km/s) = 13.37910 3.55194 9.78817
# Velocity P-wave (km/s) = 16.43029 7.24499 12.69733
#
# Compressibility (1/GPa) = 0.01721298
#
# Stress axis : x y z
#
# Youngs Moduli (GPa) = 97.94780 40.46920 85.07759
#
# Poissons Ratio (x) = 0.18231 0.16611
# Poissons Ratio (y) = 0.44124 0.70386
# Poissons Ratio (z) = 0.19123 0.33481
#
# Static dielectric constant tensor:
#      x y z
#    x 3.525510 0.000000 0.000000 
#    y 0.000000 3.413450 0.000000 
#    z 0.000000 0.000000 3.417660 
# 
# 
# High freq. dielectric constant tensor:
#      x y z
#    x 1.729420 0.000000 0.000000 
#    y 0.000000 1.717130 0.000000 
#    z 0.000000 0.000000 1.719130 
# 
# From -- ./inp_files/35832.got.cif
#   From: 2010.03.12/outbox.cif.g09.slc.cpg/sg51_18_cif.got.tgz:35832.got - 2010.04.16 13:43:02.
