data_PCOD8209774
_publ_section_title
;
Structure prediction by ZEFSAII (Michael W. Deem and Ramdas Pophale) SiO2 
 PCOD8209774
Probable space group: P M M A
;
_chemical_formula_sum "Si O2"
_cell_formula_units_Z 56
_cell_length_a 15.544854
_cell_length_b 8.798268
_cell_length_c 20.011910
_cell_angle_alpha 90.000000
_cell_angle_beta 90.000000
_cell_angle_gamma 90.000000
_cell_volume 2736.984735
_symmetry_space_group_name_H-M "P M M A"
_symmetry_group_IT_number 51
_symmetry_cell_setting 'orthorhombic'
loop_
_space_group_symop_operation_xyz
x,y,z
1/2-x,-y,z
1/2+x,-y,-z
-x,y,-z
-x,-y,-z
1/2+x,y,-z
1/2-x,y,z
x,-y,z
loop_
_atom_site_type_symbol
_atom_site_label
_atom_site_fract_x
_atom_site_fract_y
_atom_site_fract_z
Si Si1 0.844053 0.329479 0.127168
Si Si2 0.507277 0.822021 0.925769
Si Si3 0.250000 0.327588 0.623549
Si Si4 0.072355 0.320700 0.446732
Si Si5 0.153098 0.819345 0.174417
Si Si6 0.943486 0.824478 0.695467
Si Si7 0.393904 0.668669 0.728218
Si Si8 0.250000 0.824109 0.488922
O O1 0.750000 0.285577 0.097508
O O2 0.869867 0.500000 0.103742
O O3 0.834673 0.323734 0.206818
O O4 0.915247 0.209049 0.106553
O O5 0.585785 0.751664 0.880933
O O6 0.523028 0.000000 0.930916
O O7 0.500000 0.749765 0.000000
O O8 0.250000 0.500000 0.594317
O O9 0.164430 0.298318 0.664698
O O10 0.250000 0.200199 0.567553
O O11 0.079277 0.500000 0.453583
O O12 0.050459 0.276720 0.370915
O O13 0.164897 0.249660 0.459265
O O14 0.000000 0.261070 0.500000
O O15 0.250000 0.760007 0.159048
O O16 0.128672 0.771341 0.250615
O O17 0.148947 0.000000 0.170454
O O18 0.033498 0.797816 0.733183
O O19 0.931018 0.000000 0.675813
O O20 0.435776 0.500000 0.722077
O O21 0.250000 0.000000 0.470136
#
# Coordination Sequence:
#
# PCOD8209774 Si02
#       8
#     8   8   4   8   8   8   8   4
#     4  10  20  36  58  86 120 158 198 241 292 351
#     4  10  21  38  61  89 121 160 203 245 296 359
#     4  10  20  36  58  84 116 157 200 239 294 371
#     4  11  25  45  65  87 120 164 209 253 307 372
#     4   9  19  36  57  84 119 156 196 245 302 358
#     4  11  22  36  60  88 116 152 201 255 310 361
#     4  10  19  34  57  84 116 155 197 241 297 360
#     4  12  26  42  62  90 124 159 202 253 310 367
#
# _framework density 20.460473
#
# number of rings (size 3 to 8) (size 9 to 14) (size 15 to 20)
#    0.000    1.714    2.143    2.357    1.000    6.286 
#    0.000    1.429    0.000    2.143    0.000    0.000 
#    0.000    0.000    0.000    0.000    0.000    0.000 
#
# Total GULP energy -694093.070361 kJ/mol
# GULP energy per Si atom -12394.519114 kJ/mol
# Density = 2.041390 g / cm^3
# Si number density = 20.460473 Si / 1000 Ang^3
#
#
#
# Elastic Constant Matrix: (Units=GPa)
#
#
# Indices 1 2 3 4 5 6 
#
# 1 148.0154 25.6460 49.1693 0.0000 0.0000 0.0000
# 2 25.6460 40.8902 21.1289 0.0000 0.0000 0.0000
# 3 49.1693 21.1289 112.9639 0.0000 0.0000 0.0000
# 4 0.0000 0.0000 0.0000 19.0513 0.0000 0.0000
# 5 0.0000 0.0000 0.0000 0.0000 11.2230 0.0000
# 6 0.0000 0.0000 0.0000 0.0000 0.0000 27.5510
#
#
#
# Elastic Compliance Matrix: (Units=1/GPa)
#
#
# Indices 1 2 3 4 5 6 
#
# 1 0.008383 -0.003733 -0.002951 0.000000 0.000000 0.000000
# 2 -0.003733 0.028735 -0.003750 0.000000 0.000000 0.000000
# 3 -0.002951 -0.003750 0.010838 0.000000 0.000000 0.000000
# 4 0.000000 0.000000 0.000000 0.052490 0.000000 0.000000
# 5 0.000000 0.000000 0.000000 0.000000 0.089103 0.000000
# 6 0.000000 0.000000 0.000000 0.000000 0.000000 0.036296
#
#
# Mechanical properties :
#
#
# Convention : Reuss Voigt Hill
#
# Bulk Modulus (GPa) = 36.91541 54.86198 45.88869
# Shear Modulus (GPa) = 19.55102 25.29341 22.42221
#
# Velocity S-wave (km/s) = 3.09455 3.51979 3.31400
# Velocity P-wave (km/s) = 5.55426 6.58714 6.09263
#
# Compressibility (1/GPa) = 0.02708896
#
# Stress axis : x y z
#
# Youngs Moduli (GPa) = 119.28845 34.80114 92.26774
#
# Poissons Ratio (x) = 0.12992 0.27225
# Poissons Ratio (y) = 0.44532 0.34597
# Poissons Ratio (z) = 0.35197 0.13049
#
# Static dielectric constant tensor:
#      x y z
#    x 3.976740 0.000000 0.000000 
#    y 0.000000 3.426320 0.000000 
#    z 0.000000 0.000000 3.929940 
# 
# 
# High freq. dielectric constant tensor:
#      x y z
#    x 1.809850 0.000000 0.000000 
#    y 0.000000 1.771320 0.000000 
#    z 0.000000 0.000000 1.804490 
# 
# From -- ./inp_files/33544.got.cif
#   From: 2010.03.12/outbox.cif.g09.slc.cpg/sg51_17_cif.got.tgz:33544.got - 2010.04.16 13:43:02.
