data_PCOD8209721
_publ_section_title
;
Structure prediction by ZEFSAII (Michael W. Deem and Ramdas Pophale) SiO2 
 PCOD8209721
Probable space group: P M M A
;
_chemical_formula_sum "Si O2"
_cell_formula_units_Z 64
_cell_length_a 14.896089
_cell_length_b 22.093650
_cell_length_c 9.389535
_cell_angle_alpha 90.000000
_cell_angle_beta 90.000000
_cell_angle_gamma 90.000000
_cell_volume 3090.180256
_symmetry_space_group_name_H-M "P M M A"
_symmetry_group_IT_number 51
_symmetry_cell_setting 'orthorhombic'
loop_
_space_group_symop_operation_xyz
x,y,z
1/2-x,-y,z
1/2+x,-y,-z
-x,y,-z
-x,-y,-z
1/2+x,y,-z
1/2-x,y,z
x,-y,z
loop_
_atom_site_type_symbol
_atom_site_label
_atom_site_fract_x
_atom_site_fract_y
_atom_site_fract_z
Si Si1 0.145676 0.566657 0.308473
Si Si2 0.593956 0.648674 0.939903
Si Si3 0.855527 0.851502 0.153731
Si Si4 0.350471 0.283636 0.797440
Si Si5 0.146257 0.117809 0.169402
Si Si6 0.853046 0.331386 0.488828
Si Si7 0.486799 0.931013 0.662980
Si Si8 0.147677 0.748712 0.254347
O O1 0.250000 0.560566 0.339734
O O2 0.100230 0.500000 0.316449
O O3 0.136286 0.594015 0.149641
O O4 0.101785 0.611486 0.427473
O O5 0.581103 0.708044 0.841068
O O6 0.500000 0.626125 0.000000
O O7 0.653580 0.668644 0.074036
O O8 0.750000 0.856182 0.187885
O O9 0.890981 0.781757 0.158443
O O10 0.909789 0.889598 0.269224
O O11 0.875400 0.878770 0.997951
O O12 0.250000 0.270268 0.745472
O O13 0.401021 0.315358 0.661951
O O14 0.250000 0.098952 0.195265
O O15 0.123191 0.181736 0.241668
O O16 0.080034 0.071476 0.247859
O O17 0.750000 0.349374 0.463858
O O18 0.861634 0.270533 0.582072
O O19 0.500000 0.909858 0.500000
O O20 0.452820 0.000000 0.667217
O O21 0.250000 0.736751 0.199093
#
# Coordination Sequence:
#
# PCOD8209721 Si02
#       8
#     8   8   8   8   8   8   8   8
#     4   9  18  36  58  76 104 153 202 237 277 341
#     4  11  21  31  51  82 117 152 185 232 288 345
#     4  10  22  39  64  94 122 159 201 253 316 374
#     4  10  19  34  56  86 118 143 180 242 302 351
#     4  10  21  38  65  94 121 159 205 252 305 368
#     4   8  16  30  53  81 107 138 182 234 288 338
#     4  11  27  46  62  87 124 165 206 253 303 365
#     4   9  17  33  54  79 110 146 184 230 286 348
#
# _framework density 20.710764999999999
#
# number of rings (size 3 to 8) (size 9 to 14) (size 15 to 20)
#    0.000    2.250    1.250    2.250    3.500    2.250 
#    0.000    5.625    0.000    3.000    0.000    0.000 
#    0.000    0.000    0.000    0.000    0.000    0.000 
#
# Total GULP energy -793230.554529 kJ/mol
# GULP energy per Si atom -12394.227415 kJ/mol
# Density = 2.066363 g / cm^3
# Si number density = 20.710765 Si / 1000 Ang^3
#
#
#
# Elastic Constant Matrix: (Units=GPa)
#
#
# Indices 1 2 3 4 5 6 
#
# 1 48.8005 21.9422 31.0416 0.0000 0.0000 0.0000
# 2 21.9422 98.1390 54.4047 0.0000 0.0000 0.0000
# 3 31.0416 54.4047 151.5348 0.0000 0.0000 0.0000
# 4 0.0000 0.0000 0.0000 21.4752 0.0000 0.0000
# 5 0.0000 0.0000 0.0000 0.0000 22.1841 0.0000
# 6 0.0000 0.0000 0.0000 0.0000 0.0000 17.2670
#
#
#
# Elastic Compliance Matrix: (Units=1/GPa)
#
#
# Indices 1 2 3 4 5 6 
#
# 1 0.024415 -0.003354 -0.003797 0.000000 0.000000 0.000000
# 2 -0.003354 0.013182 -0.004046 0.000000 0.000000 0.000000
# 3 -0.003797 -0.004046 0.008830 0.000000 0.000000 0.000000
# 4 0.000000 0.000000 0.000000 0.046565 0.000000 0.000000
# 5 0.000000 0.000000 0.000000 0.000000 0.045077 0.000000
# 6 0.000000 0.000000 0.000000 0.000000 0.000000 0.057914
#
#
# Mechanical properties :
#
#
# Convention : Reuss Voigt Hill
#
# Bulk Modulus (GPa) = 41.60900 57.02794 49.31847
# Shear Modulus (GPa) = 22.08599 24.92433 23.50516
#
# Velocity S-wave (km/s) = 3.26912 3.47284 3.37252
# Velocity P-wave (km/s) = 5.86376 6.60878 6.24739
#
# Compressibility (1/GPa) = 0.02403326
#
# Stress axis : x y z
#
# Youngs Moduli (GPa) = 40.95857 75.85941 113.25617
#
# Poissons Ratio (x) = 0.25441 0.43007
# Poissons Ratio (y) = 0.13736 0.45821
# Poissons Ratio (z) = 0.15553 0.30691
#
# Static dielectric constant tensor:
#      x y z
#    x 3.465870 0.000000 0.000000 
#    y 0.000000 3.801850 0.000000 
#    z 0.000000 0.000000 3.867060 
# 
# 
# High freq. dielectric constant tensor:
#      x y z
#    x 1.790240 0.000000 0.000000 
#    y 0.000000 1.793760 0.000000 
#    z 0.000000 0.000000 1.819530 
# 
# From -- ./inp_files/8751.got.cif
#   From: 2010.03.12/outbox.cif.g09.slc.cpg/sg51_5_cif.got.tgz:8751.got - 2010.04.16 13:43:02.
