data_PCOD8209298
_publ_section_title
;
Structure prediction by ZEFSAII (Michael W. Deem and Ramdas Pophale) SiO2 
 PCOD8209298
Probable space group: P M M A
;
_chemical_formula_sum "Si O2"
_cell_formula_units_Z 64
_cell_length_a 18.820855
_cell_length_b 9.191538
_cell_length_c 19.587124
_cell_angle_alpha 90.000000
_cell_angle_beta 90.000000
_cell_angle_gamma 90.000000
_cell_volume 3388.427584
_symmetry_space_group_name_H-M "P M M A"
_symmetry_group_IT_number 51
_symmetry_cell_setting 'orthorhombic'
loop_
_space_group_symop_operation_xyz
x,y,z
1/2-x,-y,z
1/2+x,-y,-z
-x,y,-z
-x,-y,-z
1/2+x,y,-z
1/2-x,y,z
x,-y,z
loop_
_atom_site_type_symbol
_atom_site_label
_atom_site_fract_x
_atom_site_fract_y
_atom_site_fract_z
Si Si1 0.545790 0.832051 0.366760
Si Si2 0.171360 0.327505 0.283686
Si Si3 0.585517 0.327440 0.846182
Si Si4 0.545591 0.169777 0.211193
Si Si5 0.586499 0.327240 0.584414
Si Si6 0.669938 0.831720 0.113776
Si Si7 0.331804 0.833115 0.533380
Si Si8 0.831320 0.670992 0.979256
O O1 0.544681 0.772960 0.289112
O O2 0.492257 0.740977 0.414780
O O3 0.625354 0.812039 0.395930
O O4 0.522429 0.000000 0.369644
O O5 0.250000 0.259792 0.290283
O O6 0.176118 0.500000 0.283794
O O7 0.136943 0.271218 0.213835
O O8 0.124171 0.273299 0.346473
O O9 0.576386 0.500000 0.843607
O O10 0.509370 0.254996 0.836255
O O11 0.619312 0.275149 0.917315
O O12 0.623032 0.202639 0.180185
O O13 0.527216 0.000000 0.208589
O O14 0.579823 0.500000 0.578959
O O15 0.633808 0.270945 0.522563
O O16 0.750000 0.782666 0.131757
O O17 0.666397 0.000000 0.093995
O O18 0.640809 0.744972 0.048297
O O19 0.250000 0.788065 0.545985
O O20 0.337312 0.000000 0.508380
O O21 0.750000 0.716142 0.963505
O O22 0.838007 0.500000 0.988900
#
# Coordination Sequence:
#
# PCOD8209298 Si02
#       8
#     8   8   8   8   8   8   8   8
#     4  10  21  38  58  79 108 145 183 224 271 323
#     4   9  17  30  50  76 105 138 175 213 255 304
#     4  10  19  33  53  77 107 141 178 218 262 318
#     4  10  21  36  55  79 107 139 178 224 268 314
#     4  11  21  35  57  84 112 144 179 220 267 322
#     4   9  19  36  56  77 103 138 179 223 271 319
#     4  10  22  39  58  81 109 142 181 226 274 322
#     4   9  18  33  54  79 106 139 179 221 264 313
#
# _framework density 18.887816999999998
#
# number of rings (size 3 to 8) (size 9 to 14) (size 15 to 20)
#    0.000    2.250    1.250    1.500    0.000    6.250 
#    0.000    5.000    0.000    1.875    0.000    3.500 
#    0.000    0.000    0.000    0.000    0.000    0.000 
#
# Total GULP energy -793713.829576 kJ/mol
# GULP energy per Si atom -12401.778587 kJ/mol
# Density = 1.884483 g / cm^3
# Si number density = 18.887817 Si / 1000 Ang^3
#
#
#
# Elastic Constant Matrix: (Units=GPa)
#
#
# Indices 1 2 3 4 5 6 
#
# 1 127.0259 38.4377 52.9531 0.0000 0.0000 0.0000
# 2 38.4377 45.1717 34.7483 0.0000 0.0000 0.0000
# 3 52.9531 34.7483 90.8116 0.0000 0.0000 0.0000
# 4 0.0000 0.0000 0.0000 28.6026 0.0000 0.0000
# 5 0.0000 0.0000 0.0000 0.0000 35.3232 0.0000
# 6 0.0000 0.0000 0.0000 0.0000 0.0000 25.3918
#
#
#
# Elastic Compliance Matrix: (Units=1/GPa)
#
#
# Indices 1 2 3 4 5 6 
#
# 1 0.011657 -0.006647 -0.004254 0.000000 0.000000 0.000000
# 2 -0.006647 0.035162 -0.009579 0.000000 0.000000 0.000000
# 3 -0.004254 -0.009579 0.017157 0.000000 0.000000 0.000000
# 4 0.000000 0.000000 0.000000 0.034962 0.000000 0.000000
# 5 0.000000 0.000000 0.000000 0.000000 0.028310 0.000000
# 6 0.000000 0.000000 0.000000 0.000000 0.000000 0.039383
#
#
# Mechanical properties :
#
#
# Convention : Reuss Voigt Hill
#
# Bulk Modulus (GPa) = 43.44478 57.25414 50.34946
# Shear Modulus (GPa) = 23.22741 26.98821 25.10781
#
# Velocity S-wave (km/s) = 3.51059 3.78414 3.64993
# Velocity P-wave (km/s) = 6.28361 7.03360 6.66915
#
# Compressibility (1/GPa) = 0.02301773
#
# Stress axis : x y z
#
# Youngs Moduli (GPa) = 85.78455 28.43969 58.28356
#
# Poissons Ratio (x) = 0.18904 0.24794
# Poissons Ratio (y) = 0.57021 0.55827
# Poissons Ratio (z) = 0.36492 0.27241
#
# Static dielectric constant tensor:
#      x y z
#    x 3.595930 0.000000 0.000000 
#    y 0.000000 3.255540 0.000000 
#    z 0.000000 0.000000 3.545640 
# 
# 
# High freq. dielectric constant tensor:
#      x y z
#    x 1.740370 0.000000 0.000000 
#    y 0.000000 1.713110 0.000000 
#    z 0.000000 0.000000 1.738240 
# 
# From -- ./inp_files/33976.got.cif
#   From: 2010.03.12/outbox.cif.g09.slc.cpg/sg51_17_cif.got.tgz:33976.got - 2010.04.16 13:43:02.
