data_PCOD8209589
_publ_section_title
;
Structure prediction by ZEFSAII (Michael W. Deem and Ramdas Pophale) SiO2 
 PCOD8209589
Probable space group: P M M A
;
_chemical_formula_sum "Si O2"
_cell_formula_units_Z 64
_cell_length_a 24.063093
_cell_length_b 8.924549
_cell_length_c 16.123146
_cell_angle_alpha 90.000000
_cell_angle_beta 90.000000
_cell_angle_gamma 90.000000
_cell_volume 3462.481922
_symmetry_space_group_name_H-M "P M M A"
_symmetry_group_IT_number 51
_symmetry_cell_setting 'orthorhombic'
loop_
_space_group_symop_operation_xyz
x,y,z
1/2-x,-y,z
1/2+x,-y,-z
-x,y,-z
-x,-y,-z
1/2+x,y,-z
1/2-x,y,z
x,-y,z
loop_
_atom_site_type_symbol
_atom_site_label
_atom_site_fract_x
_atom_site_fract_y
_atom_site_fract_z
Si Si1 0.611797 0.823237 0.122737
Si Si2 0.106527 0.332566 0.632204
Si Si3 0.978527 0.675725 0.225976
Si Si4 0.686806 0.173676 0.969186
Si Si5 0.943811 0.329290 0.540373
Si Si6 0.186334 0.675022 0.204049
Si Si7 0.810394 0.175870 0.268101
Si Si8 0.414536 0.177363 0.291155
O O1 0.553992 0.740087 0.144937
O O2 0.656012 0.764208 0.189478
O O3 0.601234 0.000000 0.129158
O O4 0.639173 0.779575 0.034933
O O5 0.122338 0.500000 0.660170
O O6 0.052502 0.284943 0.686881
O O7 0.100027 0.324395 0.533862
O O8 0.157711 0.222953 0.648974
O O9 0.986802 0.500000 0.213264
O O10 0.038798 0.752657 0.230827
O O11 0.750000 0.199580 0.003552
O O12 0.675470 0.275448 0.890011
O O13 0.679677 0.000000 0.944727
O O14 0.952740 0.500000 0.573539
O O15 0.923809 0.224260 0.613909
O O16 0.000000 0.266161 0.500000
O O17 0.250000 0.710588 0.229440
O O18 0.173229 0.500000 0.211893
O O19 0.146173 0.765373 0.265061
O O20 0.750000 0.251648 0.267301
O O21 0.804665 0.000000 0.264714
O O22 0.417071 0.000000 0.283507
#
# Coordination Sequence:
#
# PCOD8209589 Si02
#       8
#     8   8   8   8   8   8   8   8
#     4   9  17  30  50  79 112 145 183 224 268 319
#     4   9  18  32  51  74 102 138 177 218 262 309
#     4  10  19  34  53  77 111 148 182 219 268 322
#     4   9  17  32  56  83 112 146 184 228 277 327
#     4  10  19  36  58  80 108 141 179 221 266 320
#     4  10  22  41  63  84 108 141 182 227 275 326
#     4   9  17  29  46  70 105 146 181 215 259 312
#     4  12  24  37  58  86 112 140 178 225 277 331
#
# _framework density 18.48385
#
# number of rings (size 3 to 8) (size 9 to 14) (size 15 to 20)
#    0.000    2.250    1.250    2.250    0.000    4.250 
#    0.000    1.250    0.000    6.750    0.000    0.000 
#    0.000    0.000    0.000    0.000    0.000    0.000 
#
# Total GULP energy -793454.623853 kJ/mol
# GULP energy per Si atom -12397.728498 kJ/mol
# Density = 1.844178 g / cm^3
# Si number density = 18.483850 Si / 1000 Ang^3
#
#
#
# Elastic Constant Matrix: (Units=GPa)
#
#
# Indices 1 2 3 4 5 6 
#
# 1 112.5494 51.9287 50.5936 0.0000 0.0000 0.0000
# 2 51.9287 84.0753 41.1769 0.0000 0.0000 0.0000
# 3 50.5936 41.1769 81.9926 0.0000 0.0000 0.0000
# 4 0.0000 0.0000 0.0000 30.9117 0.0000 0.0000
# 5 0.0000 0.0000 0.0000 0.0000 23.6571 0.0000
# 6 0.0000 0.0000 0.0000 0.0000 0.0000 28.0763
#
#
#
# Elastic Compliance Matrix: (Units=1/GPa)
#
#
# Indices 1 2 3 4 5 6 
#
# 1 0.014238 -0.005956 -0.005794 0.000000 0.000000 0.000000
# 2 -0.005956 0.018265 -0.005498 0.000000 0.000000 0.000000
# 3 -0.005794 -0.005498 0.018533 0.000000 0.000000 0.000000
# 4 0.000000 0.000000 0.000000 0.032350 0.000000 0.000000
# 5 0.000000 0.000000 0.000000 0.000000 0.042271 0.000000
# 6 0.000000 0.000000 0.000000 0.000000 0.000000 0.035617
#
#
# Mechanical properties :
#
#
# Convention : Reuss Voigt Hill
#
# Bulk Modulus (GPa) = 60.46101 62.89060 61.67580
# Shear Modulus (GPa) = 24.84067 25.52356 25.18212
#
# Velocity S-wave (km/s) = 3.66992 3.72002 3.69505
# Velocity P-wave (km/s) = 7.12313 7.24913 7.18640
#
# Compressibility (1/GPa) = 0.01653959
#
# Stress axis : x y z
#
# Youngs Moduli (GPa) = 70.23631 54.74829 53.95911
#
# Poissons Ratio (x) = 0.32608 0.31265
# Poissons Ratio (y) = 0.41833 0.29665
# Poissons Ratio (z) = 0.40696 0.30099
#
# Static dielectric constant tensor:
#      x y z
#    x 3.569890 0.000000 0.000000 
#    y 0.000000 3.337920 0.000000 
#    z 0.000000 0.000000 3.274040 
# 
# 
# High freq. dielectric constant tensor:
#      x y z
#    x 1.715070 0.000000 0.000000 
#    y 0.000000 1.712800 0.000000 
#    z 0.000000 0.000000 1.703040 
# 
# From -- ./inp_files/26168.got.cif
#   From: 2010.03.12/outbox.cif.g09.slc.cpg/sg51_14_cif.got.tgz:26168.got - 2010.04.16 13:43:02.
