data_PCOD8209455
_publ_section_title
;
Structure prediction by ZEFSAII (Michael W. Deem and Ramdas Pophale) SiO2 
 PCOD8209455
Probable space group: P M M A
;
_chemical_formula_sum "Si O2"
_cell_formula_units_Z 40
_cell_length_a 18.653276
_cell_length_b 9.533706
_cell_length_c 12.373890
_cell_angle_alpha 90.000000
_cell_angle_beta 90.000000
_cell_angle_gamma 90.000000
_cell_volume 2200.508864
_symmetry_space_group_name_H-M "P M M A"
_symmetry_group_IT_number 51
_symmetry_cell_setting 'orthorhombic'
loop_
_space_group_symop_operation_xyz
x,y,z
1/2-x,-y,z
1/2+x,-y,-z
-x,y,-z
-x,-y,-z
1/2+x,y,-z
1/2-x,y,z
x,-y,z
loop_
_atom_site_type_symbol
_atom_site_label
_atom_site_fract_x
_atom_site_fract_y
_atom_site_fract_z
Si Si1 0.569528 0.162518 0.277893
Si Si2 0.569728 0.339155 0.064276
Si Si3 0.668313 0.660880 0.868149
Si Si4 0.094143 0.162377 0.313470
Si Si5 0.331046 0.833188 0.529957
O O1 0.582536 0.247176 0.169224
O O2 0.490521 0.184559 0.326175
O O3 0.624980 0.221677 0.366759
O O4 0.583863 0.000000 0.251905
O O5 0.557681 0.500000 0.099809
O O6 0.500000 0.284396 0.000000
O O7 0.639440 0.321820 0.989587
O O8 0.750000 0.713210 0.865800
O O9 0.661746 0.500000 0.830580
O O10 0.620909 0.753997 0.789724
O O11 0.132377 0.223137 0.420357
O O12 0.113582 0.000000 0.295612
O O13 0.250000 0.775587 0.536517
O O14 0.333038 0.000000 0.528544
#
# Coordination Sequence:
#
# PCOD8209455 Si02
#       5
#     8   8   8   8   8
#     4  10  20  33  54  81 106 135 176 220 258 304
#     4  10  20  36  55  74 102 140 175 209 258 315
#     4  10  21  36  54  77 105 137 174 217 264 310
#     4  10  19  33  55  80 106 136 174 216 259 310
#     4   9  18  33  52  76 108 142 173 211 263 313
#
# _framework density 18.177613999999998
#
# number of rings (size 3 to 8) (size 9 to 14) (size 15 to 20)
#    0.000    2.200    2.000    1.200    0.000    5.600 
#    0.000    1.000    0.000    3.600    0.000    0.000 
#    0.000    0.000    0.000    0.000    0.000    0.000 
#
# Total GULP energy -496113.849616 kJ/mol
# GULP energy per Si atom -12402.846240 kJ/mol
# Density = 1.813624 g / cm^3
# Si number density = 18.177614 Si / 1000 Ang^3
#
#
#
# Elastic Constant Matrix: (Units=GPa)
#
#
# Indices 1 2 3 4 5 6 
#
# 1 107.9644 32.1397 53.8092 0.0000 0.0000 0.0000
# 2 32.1397 46.5073 47.0552 0.0000 0.0000 0.0000
# 3 53.8092 47.0552 127.1584 0.0000 0.0000 0.0000
# 4 0.0000 0.0000 0.0000 -47.7052 0.0000 0.0000
# 5 0.0000 0.0000 0.0000 0.0000 31.2198 0.0000
# 6 0.0000 0.0000 0.0000 0.0000 0.0000 17.4544
#
#
#
# Elastic Compliance Matrix: (Units=1/GPa)
#
#
# Indices 1 2 3 4 5 6 
#
# 1 0.012491 -0.005250 -0.003343 0.000000 0.000000 0.000000
# 2 -0.005250 0.036577 -0.011314 0.000000 0.000000 0.000000
# 3 -0.003343 -0.011314 0.013466 0.000000 0.000000 0.000000
# 4 0.000000 0.000000 0.000000 -0.020962 0.000000 0.000000
# 5 0.000000 0.000000 0.000000 0.000000 0.032031 0.000000
# 6 0.000000 0.000000 0.000000 0.000000 0.000000 0.057292
#
#
# Mechanical properties :
#
#
# Convention : Reuss Voigt Hill
#
# Bulk Modulus (GPa) = 44.01337 60.84870 52.43103
# Shear Modulus (GPa) = 28.04537 10.10220 19.07378
#
# Velocity S-wave (km/s) = 3.93218 2.35999 3.24281
# Velocity P-wave (km/s) = 6.69937 6.40104 6.55190
#
# Compressibility (1/GPa) = 0.02272037
#
# Stress axis : x y z
#
# Youngs Moduli (GPa) = 80.05525 27.33949 74.26282
#
# Poissons Ratio (x) = 0.14353 0.24828
# Poissons Ratio (y) = 0.42027 0.84020
# Poissons Ratio (z) = 0.26765 0.30932
#
# Static dielectric constant tensor:
#      x y z
#    x 3.566670 0.000000 0.000000 
#    y 0.000000 3.106200 0.000000 
#    z 0.000000 0.000000 3.344510 
# 
# 
# High freq. dielectric constant tensor:
#      x y z
#    x 1.717200 0.000000 0.000000 
#    y 0.000000 1.675630 0.000000 
#    z 0.000000 0.000000 1.709420 
# 
# From -- ./inp_files/9286.got.cif
#   From: 2010.03.12/outbox.cif.g09.slc.cpg/sg51_5_cif.got.tgz:9286.got - 2010.04.16 13:43:02.
