data_PCOD8209844
_publ_section_title
;
Structure prediction by ZEFSAII (Michael W. Deem and Ramdas Pophale) SiO2 
 PCOD8209844
Probable space group: P M M A
;
_chemical_formula_sum "Si O2"
_cell_formula_units_Z 64
_cell_length_a 23.588705
_cell_length_b 8.963237
_cell_length_c 15.349938
_cell_angle_alpha 90.000000
_cell_angle_beta 90.000000
_cell_angle_gamma 90.000000
_cell_volume 3245.455097
_symmetry_space_group_name_H-M "P M M A"
_symmetry_group_IT_number 51
_symmetry_cell_setting 'orthorhombic'
loop_
_space_group_symop_operation_xyz
x,y,z
1/2-x,-y,z
1/2+x,-y,-z
-x,y,-z
-x,-y,-z
1/2+x,y,-z
1/2-x,y,z
x,-y,z
loop_
_atom_site_type_symbol
_atom_site_label
_atom_site_fract_x
_atom_site_fract_y
_atom_site_fract_z
Si Si1 0.383981 0.676205 0.408386
Si Si2 0.316170 0.173180 0.254093
Si Si3 0.500158 0.670681 0.824875
Si Si4 0.122074 0.326760 0.101651
Si Si5 0.620665 0.172235 0.417069
Si Si6 0.118992 0.328648 0.903546
Si Si7 0.995917 0.171548 0.645419
Si Si8 0.185794 0.176655 0.752126
O O1 0.381038 0.500000 0.408639
O O2 0.348177 0.734882 0.327645
O O3 0.358058 0.737979 0.498472
O O4 0.448753 0.727480 0.399655
O O5 0.250000 0.204427 0.263251
O O6 0.336500 0.227209 0.159713
O O7 0.330960 0.000000 0.265094
O O8 0.501158 0.500000 0.790743
O O9 0.556875 0.709018 0.877120
O O10 0.447692 0.699196 0.888966
O O11 0.493893 0.781632 0.744459
O O12 0.135487 0.500000 0.118717
O O13 0.133718 0.282406 0.001950
O O14 0.553514 0.193428 0.407793
O O15 0.652357 0.238425 0.332300
O O16 0.636912 0.000000 0.430587
O O17 0.134335 0.500000 0.886200
O O18 0.156916 0.230970 0.840104
O O19 0.976019 0.000000 0.643057
O O20 0.250000 0.235825 0.748036
O O21 0.183182 0.000000 0.752460
#
# Coordination Sequence:
#
# PCOD8209844 Si02
#       8
#     8   8   8   8   8   8   8   8
#     4  12  25  40  62  92 123 155 194 242 300 361
#     4  11  25  44  64  86 116 157 203 250 299 352
#     4  10  19  34  59  89 122 158 195 239 297 356
#     4  10  21  38  61  90 122 159 197 242 298 354
#     4  10  22  40  61  88 121 158 200 245 297 352
#     4  10  21  37  60  90 125 159 196 242 297 358
#     4  11  21  36  61  90 123 158 196 242 293 353
#     4  10  22  41  62  84 115 157 204 250 295 345
#
# _framework density 19.719884
#
# number of rings (size 3 to 8) (size 9 to 14) (size 15 to 20)
#    0.000    1.500    2.500    2.625    0.000    7.250 
#    0.000    3.750    0.000    2.250    0.000    0.000 
#    0.000    0.000    0.000    0.000    0.000    0.000 
#
# Total GULP energy -793912.700092 kJ/mol
# GULP energy per Si atom -12404.885939 kJ/mol
# Density = 1.967500 g / cm^3
# Si number density = 19.719884 Si / 1000 Ang^3
#
#
#
# Elastic Constant Matrix: (Units=GPa)
#
#
# Indices 1 2 3 4 5 6 
#
# 1 64.7893 33.3424 24.9900 0.0000 0.0000 0.0000
# 2 33.3424 78.1791 44.2487 0.0000 0.0000 0.0000
# 3 24.9900 44.2487 130.7860 0.0000 0.0000 0.0000
# 4 0.0000 0.0000 0.0000 37.3810 0.0000 0.0000
# 5 0.0000 0.0000 0.0000 0.0000 4.9774 0.0000
# 6 0.0000 0.0000 0.0000 0.0000 0.0000 24.7939
#
#
#
# Elastic Compliance Matrix: (Units=1/GPa)
#
#
# Indices 1 2 3 4 5 6 
#
# 1 0.019914 -0.007841 -0.001152 0.000000 0.000000 0.000000
# 2 -0.007841 0.018908 -0.004899 0.000000 0.000000 0.000000
# 3 -0.001152 -0.004899 0.009524 0.000000 0.000000 0.000000
# 4 0.000000 0.000000 0.000000 0.026752 0.000000 0.000000
# 5 0.000000 0.000000 0.000000 0.000000 0.200906 0.000000
# 6 0.000000 0.000000 0.000000 0.000000 0.000000 0.040332
#
#
# Mechanical properties :
#
#
# Convention : Reuss Voigt Hill
#
# Bulk Modulus (GPa) = 48.63441 53.21296 50.92368
# Shear Modulus (GPa) = 14.24605 24.84204 19.54404
#
# Velocity S-wave (km/s) = 2.69070 3.55314 3.15156
# Velocity P-wave (km/s) = 5.86254 6.62390 6.25482
#
# Compressibility (1/GPa) = 0.02056157
#
# Stress axis : x y z
#
# Youngs Moduli (GPa) = 50.21521 52.88781 105.00135
#
# Poissons Ratio (x) = 0.41469 0.12099
# Poissons Ratio (y) = 0.39374 0.51439
# Poissons Ratio (z) = 0.05786 0.25909
#
# Static dielectric constant tensor:
#      x y z
#    x 3.658910 0.000000 0.000000 
#    y 0.000000 3.556250 0.000000 
#    z 0.000000 0.000000 3.722160 
# 
# 
# High freq. dielectric constant tensor:
#      x y z
#    x 1.767990 0.000000 0.000000 
#    y 0.000000 1.762460 0.000000 
#    z 0.000000 0.000000 1.782050 
# 
# From -- ./inp_files/26352.got.cif
#   From: 2010.03.12/outbox.cif.g09.slc.cpg/sg51_14_cif.got.tgz:26352.got - 2010.04.16 13:43:02.
