data_PCOD8209796
_publ_section_title
;
Structure prediction by ZEFSAII (Michael W. Deem and Ramdas Pophale) SiO2 
 PCOD8209796
Probable space group: P M M A
;
_chemical_formula_sum "Si O2"
_cell_formula_units_Z 64
_cell_length_a 15.386200
_cell_length_b 9.201706
_cell_length_c 23.901942
_cell_angle_alpha 90.000000
_cell_angle_beta 90.000000
_cell_angle_gamma 90.000000
_cell_volume 3384.019951
_symmetry_space_group_name_H-M "P M M A"
_symmetry_group_IT_number 51
_symmetry_cell_setting 'orthorhombic'
loop_
_space_group_symop_operation_xyz
x,y,z
1/2-x,-y,z
1/2+x,-y,-z
-x,y,-z
-x,-y,-z
1/2+x,y,-z
1/2-x,y,z
x,-y,z
loop_
_atom_site_type_symbol
_atom_site_label
_atom_site_fract_x
_atom_site_fract_y
_atom_site_fract_z
Si Si1 0.997698 0.327029 0.313860
Si Si2 0.400859 0.830174 0.498939
Si Si3 0.347374 0.666966 0.107876
Si Si4 0.847615 0.667004 0.110878
Si Si5 0.346740 0.332409 0.391544
Si Si6 0.399133 0.829100 0.998824
Si Si7 0.502498 0.671933 0.811463
Si Si8 0.651147 0.832817 0.377840
O O1 0.992219 0.500000 0.313770
O O2 0.005401 0.263513 0.251039
O O3 0.909793 0.267072 0.340473
O O4 0.082007 0.271103 0.347993
O O5 0.500000 0.776789 0.500000
O O6 0.350074 0.749964 0.450074
O O7 0.356571 0.787925 0.557367
O O8 0.394335 0.000000 0.486416
O O9 0.250000 0.679670 0.132470
O O10 0.370193 0.500000 0.093060
O O11 0.414213 0.729403 0.153954
O O12 0.352630 0.761029 0.052150
O O13 0.750000 0.682395 0.134880
O O14 0.868539 0.500000 0.095032
O O15 0.855715 0.763813 0.056060
O O16 0.914156 0.723866 0.158101
O O17 0.250000 0.311275 0.365909
O O18 0.366345 0.500000 0.403793
O O19 0.383068 0.000000 0.999196
O O20 0.500000 0.787943 0.000000
O O21 0.506077 0.500000 0.807472
O O22 0.750000 0.808361 0.358171
O O23 0.622400 0.000000 0.370454
#
# Coordination Sequence:
#
# PCOD8209796 Si02
#       8
#     8   8   8   8   8   8   8   8
#     4  10  21  37  57  80 108 145 185 224 268 318
#     4  10  19  34  58  82 106 140 181 224 269 322
#     4  10  20  35  58  84 107 138 179 219 264 317
#     4  10  20  35  57  81 105 138 178 219 264 314
#     4  10  21  35  53  81 115 146 177 219 272 326
#     4  11  22  35  54  81 112 144 174 212 267 323
#     4   9  19  36  56  79 107 139 178 225 264 304
#     4  10  21  37  56  80 110 142 178 224 276 325
#
# _framework density 18.912417999999999
#
# number of rings (size 3 to 8) (size 9 to 14) (size 15 to 20)
#    0.000    2.000    2.500    1.125    0.000    5.250 
#    0.000    5.000    0.000    0.000    0.000    1.750 
#    0.000    0.000    0.000    0.000    0.000    0.000 
#
# Total GULP energy -793742.802364 kJ/mol
# GULP energy per Si atom -12402.231287 kJ/mol
# Density = 1.886937 g / cm^3
# Si number density = 18.912418 Si / 1000 Ang^3
#
#
#
# Elastic Constant Matrix: (Units=GPa)
#
#
# Indices 1 2 3 4 5 6 
#
# 1 134.2049 30.4189 61.1097 0.0000 0.0000 0.0000
# 2 30.4189 38.9653 32.5967 0.0000 0.0000 0.0000
# 3 61.1097 32.5967 138.8274 0.0000 0.0000 0.0000
# 4 0.0000 0.0000 0.0000 -3.2071 0.0000 0.0000
# 5 0.0000 0.0000 0.0000 0.0000 10.2121 0.0000
# 6 0.0000 0.0000 0.0000 0.0000 0.0000 22.4140
#
#
#
# Elastic Compliance Matrix: (Units=1/GPa)
#
#
# Indices 1 2 3 4 5 6 
#
# 1 0.010095 -0.005181 -0.003227 0.000000 0.000000 0.000000
# 2 -0.005181 0.034596 -0.005843 0.000000 0.000000 0.000000
# 3 -0.003227 -0.005843 0.009996 0.000000 0.000000 0.000000
# 4 0.000000 0.000000 0.000000 -0.311811 0.000000 0.000000
# 5 0.000000 0.000000 0.000000 0.000000 0.097923 0.000000
# 6 0.000000 0.000000 0.000000 0.000000 0.000000 0.044615
#
#
# Mechanical properties :
#
#
# Convention : Reuss Voigt Hill
#
# Bulk Modulus (GPa) = 38.18955 62.24980 50.21967
# Shear Modulus (GPa) = -64.63654 18.40862 -23.11396
#
# Velocity S-wave (km/s) = -5.85243 3.12326 -3.49973
# Velocity P-wave (km/s) = 5.04294 6.78178 3.20634
#
# Compressibility (1/GPa) = 0.02618518
#
# Stress axis : x y z
#
# Youngs Moduli (GPa) = 99.05746 28.90481 100.04427
#
# Poissons Ratio (x) = 0.14976 0.32286
# Poissons Ratio (y) = 0.51324 0.58451
# Poissons Ratio (z) = 0.31968 0.16888
#
# Static dielectric constant tensor:
#      x y z
#    x 3.660310 0.000000 0.000000 
#    y 0.000000 3.226270 0.000000 
#    z 0.000000 0.000000 3.511020 
# 
# 
# High freq. dielectric constant tensor:
#      x y z
#    x 1.753140 0.000000 0.000000 
#    y 0.000000 1.710570 0.000000 
#    z 0.000000 0.000000 1.727700 
# 
# From -- ./inp_files/35855.got.cif
#   From: 2010.03.12/outbox.cif.g09.slc.cpg/sg51_18_cif.got.tgz:35855.got - 2010.04.16 13:43:02.
