data_PCOD8209809
_publ_section_title
;
Structure prediction by ZEFSAII (Michael W. Deem and Ramdas Pophale) SiO2 
 PCOD8209809
Probable space group: P M M A
;
_chemical_formula_sum "Si O2"
_cell_formula_units_Z 64
_cell_length_a 15.003269
_cell_length_b 9.667451
_cell_length_c 23.854005
_cell_angle_alpha 90.000000
_cell_angle_beta 90.000000
_cell_angle_gamma 90.000000
_cell_volume 3459.865223
_symmetry_space_group_name_H-M "P M M A"
_symmetry_group_IT_number 51
_symmetry_cell_setting 'orthorhombic'
loop_
_space_group_symop_operation_xyz
x,y,z
1/2-x,-y,z
1/2+x,-y,-z
-x,y,-z
-x,-y,-z
1/2+x,y,-z
1/2-x,y,z
x,-y,z
loop_
_atom_site_type_symbol
_atom_site_label
_atom_site_fract_x
_atom_site_fract_y
_atom_site_fract_z
Si Si1 0.994545 0.337963 0.815900
Si Si2 0.648701 0.842294 0.875613
Si Si3 0.651017 0.342641 0.102456
Si Si4 0.104399 0.841349 0.000110
Si Si5 0.648524 0.659899 0.609845
Si Si6 0.146802 0.838107 0.615913
Si Si7 0.513087 0.660478 0.312769
Si Si8 0.144378 0.152429 0.490944
O O1 0.974859 0.500000 0.822543
O O2 0.080613 0.290365 0.851452
O O3 0.011997 0.297797 0.751968
O O4 0.908621 0.255958 0.836398
O O5 0.750000 0.830241 0.854977
O O6 0.642400 0.793979 0.940046
O O7 0.613596 0.000000 0.870533
O O8 0.750000 0.331430 0.128892
O O9 0.629139 0.500000 0.085140
O O10 0.649174 0.251053 0.047035
O O11 0.129261 0.000000 0.987522
O O12 0.000000 0.816000 0.000000
O O13 0.750000 0.704629 0.625403
O O14 0.645433 0.500000 0.593403
O O15 0.584739 0.693733 0.662122
O O16 0.610660 0.741265 0.555893
O O17 0.250000 0.796926 0.623716
O O18 0.089418 0.750121 0.658877
O O19 0.112907 0.801774 0.552935
O O20 0.133174 0.000000 0.627987
O O21 0.537203 0.500000 0.321300
O O22 0.250000 0.146033 0.491852
O O23 0.106152 0.000000 0.476448
#
# Coordination Sequence:
#
# PCOD8209809 Si02
#       8
#     8   8   8   8   8   8   8   8
#     4  10  22  39  56  76 106 143 184 226 266 312
#     4  10  21  37  57  82 111 141 176 220 267 316
#     4  10  21  36  55  80 109 141 178 221 267 316
#     4  10  19  34  58  84 111 142 173 212 265 322
#     4   9  18  33  52  75 105 138 174 219 267 316
#     4   9  19  36  56  79 108 140 174 216 265 318
#     4  10  22  37  54  78 105 140 183 224 266 312
#     4   8  15  30  52  77 105 136 171 212 263 322
#
# _framework density 18.497831000000001
#
# number of rings (size 3 to 8) (size 9 to 14) (size 15 to 20)
#    0.000    2.500    1.250    1.125    0.000    5.000 
#    0.000    6.250    0.000    1.500    0.000    0.000 
#    0.000    0.000    0.000    0.000    0.000    0.000 
#
# Total GULP energy -793620.615087 kJ/mol
# GULP energy per Si atom -12400.322111 kJ/mol
# Density = 1.845573 g / cm^3
# Si number density = 18.497831 Si / 1000 Ang^3
#
#
#
# Elastic Constant Matrix: (Units=GPa)
#
#
# Indices 1 2 3 4 5 6 
#
# 1 81.1620 39.0015 42.2450 0.0000 0.0000 0.0000
# 2 39.0015 62.5079 55.5078 0.0000 0.0000 0.0000
# 3 42.2450 55.5078 116.8089 0.0000 0.0000 0.0000
# 4 0.0000 0.0000 0.0000 14.8173 0.0000 0.0000
# 5 0.0000 0.0000 0.0000 0.0000 31.7168 0.0000
# 6 0.0000 0.0000 0.0000 0.0000 0.0000 28.6268
#
#
#
# Elastic Compliance Matrix: (Units=1/GPa)
#
#
# Indices 1 2 3 4 5 6 
#
# 1 0.017867 -0.009359 -0.002014 0.000000 0.000000 0.000000
# 2 -0.009359 0.032580 -0.012097 0.000000 0.000000 0.000000
# 3 -0.002014 -0.012097 0.015038 0.000000 0.000000 0.000000
# 4 0.000000 0.000000 0.000000 0.067489 0.000000 0.000000
# 5 0.000000 0.000000 0.000000 0.000000 0.031529 0.000000
# 6 0.000000 0.000000 0.000000 0.000000 0.000000 0.034932
#
#
# Mechanical properties :
#
#
# Convention : Reuss Voigt Hill
#
# Bulk Modulus (GPa) = 53.92686 59.33192 56.62939
# Shear Modulus (GPa) = 19.79741 23.28047 21.53894
#
# Velocity S-wave (km/s) = 3.27503 3.55146 3.41604
# Velocity P-wave (km/s) = 6.59677 6.99727 6.79997
#
# Compressibility (1/GPa) = 0.01854363
#
# Stress axis : x y z
#
# Youngs Moduli (GPa) = 55.96916 30.69338 66.49789
#
# Poissons Ratio (x) = 0.28727 0.13394
# Poissons Ratio (y) = 0.52384 0.80444
# Poissons Ratio (z) = 0.11273 0.37131
#
# Static dielectric constant tensor:
#      x y z
#    x 3.433620 0.000000 0.000000 
#    y 0.000000 3.496190 0.000000 
#    z 0.000000 0.000000 3.381120 
# 
# 
# High freq. dielectric constant tensor:
#      x y z
#    x 1.723470 0.000000 0.000000 
#    y 0.000000 1.712480 0.000000 
#    z 0.000000 0.000000 1.710320 
# 
# From -- ./inp_files/35679.got.cif
#   From: 2010.03.12/outbox.cif.g09.slc.cpg/sg51_18_cif.got.tgz:35679.got - 2010.04.16 13:43:02.
