data_PCOD8209183
_publ_section_title
;
Structure prediction by ZEFSAII (Michael W. Deem and Ramdas Pophale) SiO2 
 PCOD8209183
Probable space group: P M M A
;
_chemical_formula_sum "Si O2"
_cell_formula_units_Z 52
_cell_length_a 9.100663
_cell_length_b 12.659643
_cell_length_c 30.085329
_cell_angle_alpha 90.000000
_cell_angle_beta 90.000000
_cell_angle_gamma 90.000000
_cell_volume 3466.165191
_symmetry_space_group_name_H-M "P M M A"
_symmetry_group_IT_number 51
_symmetry_cell_setting 'orthorhombic'
loop_
_space_group_symop_operation_xyz
x,y,z
1/2-x,-y,z
1/2+x,-y,-z
-x,y,-z
-x,-y,-z
1/2+x,y,-z
1/2-x,y,z
x,-y,z
loop_
_atom_site_type_symbol
_atom_site_label
_atom_site_fract_x
_atom_site_fract_y
_atom_site_fract_z
Si Si1 0.583949 0.625928 0.043350
Si Si2 0.420486 0.118011 0.455713
Si Si3 0.415940 0.625975 0.130027
Si Si4 0.078967 0.315997 0.399472
Si Si5 0.084200 0.374086 0.783750
Si Si6 0.425658 0.500000 0.547944
Si Si7 0.918751 0.622234 0.697582
O O1 0.750000 0.669324 0.042998
O O2 0.583846 0.500000 0.043308
O O3 0.502292 0.669302 0.087101
O O4 0.500000 0.669343 0.000000
O O5 0.500000 0.158267 0.500000
O O6 0.250000 0.118272 0.467043
O O7 0.456584 0.197846 0.415841
O O8 0.473613 0.000000 0.442137
O O9 0.250000 0.669042 0.128536
O O10 0.417337 0.500000 0.130135
O O11 0.493927 0.670396 0.174279
O O12 0.250000 0.347376 0.407004
O O13 0.040675 0.315827 0.347301
O O14 0.976182 0.396688 0.425599
O O15 0.250000 0.332463 0.787425
O O16 0.077686 0.500000 0.783843
O O17 0.014729 0.331199 0.737948
O O18 0.250000 0.500000 0.543041
O O19 0.500000 0.500000 0.500000
O O20 0.750000 0.637765 0.711116
O O21 0.954547 0.500000 0.688698
#
# Coordination Sequence:
#
# PCOD8209183 Si02
#       7
#     8   8   8   8   8   4   8
#     4   9  15  21  28  38  53  73  99 135 180 226
#     4   9  18  32  50  69  87 108 135 166 198 234
#     4   9  15  22  31  42  56  77 107 140 177 222
#     4  10  19  33  49  65  87 111 136 164 199 239
#     4   9  16  24  34  48  66  87 113 146 180 218
#     4  12  24  34  46  64  88 112 138 164 195 236
#     4   9  16  27  41  55  74 100 125 150 184 229
#
# _framework density 15.002171000000001
#
# number of rings (size 3 to 8) (size 9 to 14) (size 15 to 20)
#    0.000    2.615    0.769    2.538    0.000    8.000 
#    0.000    0.000    0.000    0.000    0.000    0.000 
#    0.000    0.000    0.000    0.000    0.000    0.000 
#
# Total GULP energy -644728.416140 kJ/mol
# GULP energy per Si atom -12398.623387 kJ/mol
# Density = 1.496803 g / cm^3
# Si number density = 15.002171 Si / 1000 Ang^3
#
#
#
# Elastic Constant Matrix: (Units=GPa)
#
#
# Indices 1 2 3 4 5 6 
#
# 1 115.5261 22.8737 76.6748 0.0000 0.0000 0.0000
# 2 22.8737 34.5349 32.9506 0.0000 0.0000 0.0000
# 3 76.6748 32.9506 153.1263 0.0000 0.0000 0.0000
# 4 0.0000 0.0000 0.0000 6.3936 0.0000 0.0000
# 5 0.0000 0.0000 0.0000 0.0000 31.6503 0.0000
# 6 0.0000 0.0000 0.0000 0.0000 0.0000 7.0367
#
#
#
# Elastic Compliance Matrix: (Units=1/GPa)
#
#
# Indices 1 2 3 4 5 6 
#
# 1 0.013218 -0.003070 -0.005958 0.000000 0.000000 0.000000
# 2 -0.003070 0.037150 -0.006457 0.000000 0.000000 0.000000
# 3 -0.005958 -0.006457 0.010903 0.000000 0.000000 0.000000
# 4 0.000000 0.000000 0.000000 0.156407 0.000000 0.000000
# 5 0.000000 0.000000 0.000000 0.000000 0.031595 0.000000
# 6 0.000000 0.000000 0.000000 0.000000 0.000000 0.142113
#
#
# Mechanical properties :
#
#
# Convention : Reuss Voigt Hill
#
# Bulk Modulus (GPa) = 33.00149 63.13172 48.06661
# Shear Modulus (GPa) = 11.56181 20.39532 15.97856
#
# Velocity S-wave (km/s) = 2.77912 3.69113 3.26710
# Velocity P-wave (km/s) = 5.68714 7.76782 6.80744
#
# Compressibility (1/GPa) = 0.03030166
#
# Stress axis : x y z
#
# Youngs Moduli (GPa) = 75.65218 26.91765 91.71434
#
# Poissons Ratio (x) = 0.08264 0.54645
# Poissons Ratio (y) = 0.23227 0.59219
# Poissons Ratio (z) = 0.45075 0.17380
#
# Static dielectric constant tensor:
#      x y z
#    x 3.041730 0.000000 0.000000 
#    y 0.000000 2.402170 0.000000 
#    z 0.000000 0.000000 3.083080 
# 
# 
# High freq. dielectric constant tensor:
#      x y z
#    x 1.586870 0.000000 0.000000 
#    y 0.000000 1.491560 0.000000 
#    z 0.000000 0.000000 1.587710 
# 
# From -- ./inp_files/36353.got.cif
#   From: 2010.03.12/outbox.cif.g09.slc.cpg/sg51_19_cif.got.tgz:36353.got - 2010.04.16 13:43:02.
