data_PCOD8209008
_publ_section_title
;
Structure prediction by ZEFSAII (Michael W. Deem and Ramdas Pophale) SiO2 
 PCOD8209008
Probable space group: P M M A
;
_chemical_formula_sum "Si O2"
_cell_formula_units_Z 64
_cell_length_a 9.050745
_cell_length_b 28.279314
_cell_length_c 13.734695
_cell_angle_alpha 90.000000
_cell_angle_beta 90.000000
_cell_angle_gamma 90.000000
_cell_volume 3515.379525
_symmetry_space_group_name_H-M "P M M A"
_symmetry_group_IT_number 51
_symmetry_cell_setting 'orthorhombic'
loop_
_space_group_symop_operation_xyz
x,y,z
1/2-x,-y,z
1/2+x,-y,-z
-x,y,-z
-x,-y,-z
1/2+x,y,-z
1/2-x,y,z
x,-y,z
loop_
_atom_site_type_symbol
_atom_site_label
_atom_site_fract_x
_atom_site_fract_y
_atom_site_fract_z
Si Si1 0.423620 0.780246 0.725363
Si Si2 0.914931 0.943717 0.092972
Si Si3 0.922067 0.143365 0.600898
Si Si4 0.423097 0.729755 0.103692
Si Si5 0.420665 0.361429 0.229607
Si Si6 0.577136 0.446653 0.900749
Si Si7 0.578356 0.687674 0.397305
Si Si8 0.919503 0.052945 0.715890
O O1 0.250000 0.788577 0.741322
O O2 0.500508 0.827265 0.685899
O O3 0.499734 0.768558 0.827850
O O4 0.454446 0.738873 0.647875
O O5 0.750000 0.923269 0.091329
O O6 0.990500 0.927033 0.192464
O O7 0.916039 0.000000 0.087608
O O8 0.000000 0.922307 0.000000
O O9 0.750000 0.157154 0.593460
O O10 0.943651 0.087822 0.624946
O O11 0.000000 0.155227 0.500000
O O12 0.250000 0.741327 0.094198
O O13 0.450493 0.677949 0.147786
O O14 0.500000 0.732118 0.000000
O O15 0.250000 0.361535 0.260959
O O16 0.471405 0.411798 0.185952
O O17 0.516747 0.352592 0.325602
O O18 0.750000 0.442115 0.920007
O O19 0.531473 0.500000 0.871178
O O20 0.500000 0.430770 0.000000
O O21 0.500000 0.683860 0.500000
O O22 0.750000 0.678544 0.412654
O O23 0.750000 0.052112 0.749000
O O24 0.971576 0.000000 0.685394
#
# Coordination Sequence:
#
# PCOD8209008 Si02
#       8
#     8   8   8   8   8   8   8   8
#     4  10  21  37  56  78 104 134 168 206 251 302
#     4   9  16  27  47  74 101 129 160 195 236 281
#     4  11  23  38  57  79 103 133 168 206 250 298
#     4  10  19  32  52  78 109 142 174 209 252 303
#     4   9  18  31  48  72 103 138 174 214 258 303
#     4   9  17  29  46  70 101 137 175 214 256 302
#     4  10  20  33  52  76 100 128 164 209 258 307
#     4   9  19  36  55  76 104 135 167 204 244 288
#
# _framework density 18.205715999999999
#
# number of rings (size 3 to 8) (size 9 to 14) (size 15 to 20)
#    0.000    2.375    0.000    2.625    0.000    6.250 
#    0.000    0.625    0.000    3.375    0.000    0.000 
#    0.000    0.000    0.000    0.000    0.000    0.000 
#
# Total GULP energy -793718.271417 kJ/mol
# GULP energy per Si atom -12401.847991 kJ/mol
# Density = 1.816428 g / cm^3
# Si number density = 18.205716 Si / 1000 Ang^3
#
#
#
# Elastic Constant Matrix: (Units=GPa)
#
#
# Indices 1 2 3 4 5 6 
#
# 1 109.9613 42.1755 68.1101 0.0000 0.0000 0.0000
# 2 42.1755 77.3217 44.6709 0.0000 0.0000 0.0000
# 3 68.1101 44.6709 126.5081 0.0000 0.0000 0.0000
# 4 0.0000 0.0000 0.0000 23.4375 0.0000 0.0000
# 5 0.0000 0.0000 0.0000 0.0000 37.8251 0.0000
# 6 0.0000 0.0000 0.0000 0.0000 0.0000 22.0338
#
#
#
# Elastic Compliance Matrix: (Units=1/GPa)
#
#
# Indices 1 2 3 4 5 6 
#
# 1 0.014716 -0.004334 -0.006393 0.000000 0.000000 0.000000
# 2 -0.004334 0.017524 -0.003855 0.000000 0.000000 0.000000
# 3 -0.006393 -0.003855 0.012707 0.000000 0.000000 0.000000
# 4 0.000000 0.000000 0.000000 0.042667 0.000000 0.000000
# 5 0.000000 0.000000 0.000000 0.000000 0.026437 0.000000
# 6 0.000000 0.000000 0.000000 0.000000 0.000000 0.045385
#
#
# Mechanical properties :
#
#
# Convention : Reuss Voigt Hill
#
# Bulk Modulus (GPa) = 63.34989 69.30045 66.32517
# Shear Modulus (GPa) = 25.79194 27.24827 26.52010
#
# Velocity S-wave (km/s) = 3.76798 3.87290 3.82080
# Velocity P-wave (km/s) = 7.33502 7.62542 7.48163
#
# Compressibility (1/GPa) = 0.01578535
#
# Stress axis : x y z
#
# Youngs Moduli (GPa) = 67.95405 57.06561 78.69464
#
# Poissons Ratio (x) = 0.24730 0.50306
# Poissons Ratio (y) = 0.29449 0.30333
# Poissons Ratio (z) = 0.43440 0.21996
#
# Static dielectric constant tensor:
#      x y z
#    x 3.506610 0.000000 0.000000 
#    y 0.000000 3.320480 0.000000 
#    z 0.000000 0.000000 3.276670 
# 
# 
# High freq. dielectric constant tensor:
#      x y z
#    x 1.716280 0.000000 0.000000 
#    y 0.000000 1.687160 0.000000 
#    z 0.000000 0.000000 1.701770 
# 
# From -- ./inp_files/14847.got.cif
#   From: 2010.03.12/outbox.cif.g09.slc.cpg/sg51_8_cif.got.tgz:14847.got - 2010.04.16 13:43:02.
