data_PCOD8209957
_publ_section_title
;
Structure prediction by ZEFSAII (Michael W. Deem and Ramdas Pophale) SiO2 
 PCOD8209957
Probable space group: P M M A
;
_chemical_formula_sum "Si O2"
_cell_formula_units_Z 56
_cell_length_a 15.422285
_cell_length_b 9.508164
_cell_length_c 19.568541
_cell_angle_alpha 90.000000
_cell_angle_beta 90.000000
_cell_angle_gamma 90.000000
_cell_volume 2869.484182
_symmetry_space_group_name_H-M "P M M A"
_symmetry_group_IT_number 51
_symmetry_cell_setting 'orthorhombic'
loop_
_space_group_symop_operation_xyz
x,y,z
1/2-x,-y,z
1/2+x,-y,-z
-x,y,-z
-x,-y,-z
1/2+x,y,-z
1/2-x,y,z
x,-y,z
loop_
_atom_site_type_symbol
_atom_site_label
_atom_site_fract_x
_atom_site_fract_y
_atom_site_fract_z
Si Si1 0.844596 0.656036 0.126418
Si Si2 0.500586 0.833718 0.922394
Si Si3 0.250000 0.153895 0.650952
Si Si4 0.082991 0.335797 0.453545
Si Si5 0.151471 0.836507 0.179138
Si Si6 0.927400 0.661217 0.705597
Si Si7 0.379667 0.655345 0.722022
Si Si8 0.250000 0.842989 0.491940
O O1 0.750000 0.689916 0.093508
O O2 0.876223 0.500000 0.103117
O O3 0.829066 0.657106 0.207292
O O4 0.913082 0.774212 0.108995
O O5 0.585870 0.782057 0.880486
O O6 0.494530 0.000000 0.919649
O O7 0.500000 0.778336 0.000000
O O8 0.162921 0.235342 0.670687
O O9 0.250000 0.135196 0.571488
O O10 0.250000 0.000000 0.686308
O O11 0.104647 0.500000 0.464917
O O12 0.066016 0.301607 0.374234
O O13 0.165003 0.242762 0.472244
O O14 0.000000 0.292817 0.500000
O O15 0.250000 0.810085 0.153752
O O16 0.138861 0.756401 0.251204
O O17 0.134731 0.000000 0.193747
O O18 0.898791 0.500000 0.716101
O O19 0.021113 0.694245 0.737173
O O20 0.374712 0.500000 0.687674
O O21 0.250000 0.000000 0.457874
#
# Coordination Sequence:
#
# PCOD8209957 Si02
#       8
#     8   8   4   8   8   8   8   4
#     4  10  20  36  58  87 120 152 189 234 288 347
#     4  10  22  40  62  88 119 159 201 239 284 343
#     4  11  23  35  53  85 119 152 195 240 287 355
#     4  10  22  41  63  87 115 154 205 254 300 356
#     4  10  22  39  59  86 120 157 196 242 297 354
#     4  10  21  37  61  88 113 147 197 251 296 347
#     4  10  19  35  58  84 115 152 189 237 297 347
#     4  11  25  41  57  83 121 160 197 242 301 361
#
# _framework density 19.515702000000001
#
# number of rings (size 3 to 8) (size 9 to 14) (size 15 to 20)
#    0.000    1.857    2.143    1.286    1.000    5.714 
#    0.000    1.429    0.000    0.000    0.000    0.000 
#    0.000    0.000    0.000    0.000    0.000    0.000 
#
# Total GULP energy -694220.314441 kJ/mol
# GULP energy per Si atom -12396.791329 kJ/mol
# Density = 1.947128 g / cm^3
# Si number density = 19.515702 Si / 1000 Ang^3
#
#
#
# Elastic Constant Matrix: (Units=GPa)
#
#
# Indices 1 2 3 4 5 6 
#
# 1 132.8927 52.4871 45.7963 0.0000 0.0000 0.0000
# 2 52.4871 72.8924 35.9870 0.0000 0.0000 0.0000
# 3 45.7963 35.9870 98.6938 0.0000 0.0000 0.0000
# 4 0.0000 0.0000 0.0000 26.1179 0.0000 0.0000
# 5 0.0000 0.0000 0.0000 0.0000 23.4641 0.0000
# 6 0.0000 0.0000 0.0000 0.0000 0.0000 31.7670
#
#
#
# Elastic Compliance Matrix: (Units=1/GPa)
#
#
# Indices 1 2 3 4 5 6 
#
# 1 0.011085 -0.006637 -0.002723 0.000000 0.000000 0.000000
# 2 -0.006637 0.020705 -0.004470 0.000000 0.000000 0.000000
# 3 -0.002723 -0.004470 0.013026 0.000000 0.000000 0.000000
# 4 0.000000 0.000000 0.000000 0.038288 0.000000 0.000000
# 5 0.000000 0.000000 0.000000 0.000000 0.042618 0.000000
# 6 0.000000 0.000000 0.000000 0.000000 0.000000 0.031479
#
#
# Mechanical properties :
#
#
# Convention : Reuss Voigt Hill
#
# Bulk Modulus (GPa) = 58.29353 63.66886 60.98119
# Shear Modulus (GPa) = 26.23565 27.61701 26.92633
#
# Velocity S-wave (km/s) = 3.67050 3.76589 3.71850
# Velocity P-wave (km/s) = 6.92086 7.18362 7.05347
#
# Compressibility (1/GPa) = 0.01715456
#
# Stress axis : x y z
#
# Youngs Moduli (GPa) = 90.21343 48.29800 76.76969
#
# Poissons Ratio (x) = 0.32056 0.20908
# Poissons Ratio (y) = 0.59876 0.34315
# Poissons Ratio (z) = 0.24570 0.21588
#
# Static dielectric constant tensor:
#      x y z
#    x 3.584960 0.000000 0.000000 
#    y 0.000000 3.686000 0.000000 
#    z 0.000000 0.000000 3.575880 
# 
# 
# High freq. dielectric constant tensor:
#      x y z
#    x 1.770640 0.000000 0.000000 
#    y 0.000000 1.755200 0.000000 
#    z 0.000000 0.000000 1.751670 
# 
# From -- ./inp_files/33548.got.cif
#   From: 2010.03.12/outbox.cif.g09.slc.cpg/sg51_17_cif.got.tgz:33548.got - 2010.04.16 13:43:02.
