data_PCOD8209915
_publ_section_title
;
Structure prediction by ZEFSAII (Michael W. Deem and Ramdas Pophale) SiO2 
 PCOD8209915
Probable space group: P M M A
;
_chemical_formula_sum "Si O2"
_cell_formula_units_Z 48
_cell_length_a 10.214355
_cell_length_b 9.040223
_cell_length_c 28.163487
_cell_angle_alpha 90.000000
_cell_angle_beta 90.000000
_cell_angle_gamma 90.000000
_cell_volume 2600.617713
_symmetry_space_group_name_H-M "P M M A"
_symmetry_group_IT_number 51
_symmetry_cell_setting 'orthorhombic'
loop_
_space_group_symop_operation_xyz
x,y,z
1/2-x,-y,z
1/2+x,-y,-z
-x,y,-z
-x,-y,-z
1/2+x,y,-z
1/2-x,y,z
x,-y,z
loop_
_atom_site_type_symbol
_atom_site_label
_atom_site_fract_x
_atom_site_fract_y
_atom_site_fract_z
Si Si1 0.487986 0.171359 0.238834
Si Si2 0.750000 0.325436 0.710978
Si Si3 0.397674 0.824098 0.962193
Si Si4 0.750000 0.325713 0.395418
Si Si5 0.250000 0.830117 0.388577
Si Si6 0.488582 0.828431 0.554417
Si Si7 0.750000 0.167682 0.297337
Si Si8 0.104863 0.175442 0.857015
O O1 0.378026 0.269762 0.262421
O O2 0.623468 0.197207 0.265722
O O3 0.506093 0.227645 0.184380
O O4 0.445208 0.000000 0.240995
O O5 0.750000 0.500000 0.711173
O O6 0.750000 0.272149 0.657102
O O7 0.250000 0.765948 0.972433
O O8 0.444257 0.775019 0.909332
O O9 0.397620 0.000000 0.965905
O O10 0.500000 0.755294 0.000000
O O11 0.750000 0.500000 0.398297
O O12 0.621645 0.267102 0.420959
O O13 0.750000 0.278942 0.340862
O O14 0.375196 0.793880 0.420255
O O15 0.250000 0.000000 0.371535
O O16 0.500000 0.779484 0.500000
O O17 0.449612 0.000000 0.558506
O O18 0.750000 0.000000 0.317020
O O19 0.250000 0.241514 0.848206
O O20 0.115359 0.000000 0.854371
#
# Coordination Sequence:
#
# PCOD8209915 Si02
#       8
#     8   4   8   4   4   8   4   8
#     4  10  19  35  57  79 101 134 182 229 270 313
#     4  12  26  39  51  74 112 149 177 214 271 328
#     4   8  13  21  34  57  95 137 168 197 248 318
#     4  12  25  37  53  84 120 147 175 214 266 322
#     4  10  21  39  63  86 108 141 183 222 264 314
#     4  10  21  40  65  88 110 140 181 225 264 307
#     4  10  20  35  59  82 102 133 181 230 267 308
#     4   8  13  25  46  70  96 131 174 219 264 310
#
# _framework density 18.457153999999999
#
# number of rings (size 3 to 8) (size 9 to 14) (size 15 to 20)
#    0.000    2.333    0.833    4.000    0.000    7.000 
#    1.500    0.833    0.000    0.000    0.000    0.000 
#    0.000    0.667    0.000    0.000    0.333    0.000 
#
# Total GULP energy -595098.161270 kJ/mol
# GULP energy per Si atom -12397.878360 kJ/mol
# Density = 1.841514 g / cm^3
# Si number density = 18.457154 Si / 1000 Ang^3
#
#
#
# Elastic Constant Matrix: (Units=GPa)
#
#
# Indices 1 2 3 4 5 6 
#
# 1 134.2965 56.6522 81.1452 0.0000 0.0000 0.0000
# 2 56.6522 70.8961 55.4900 0.0000 0.0000 0.0000
# 3 81.1452 55.4900 172.4691 0.0000 0.0000 0.0000
# 4 0.0000 0.0000 0.0000 -3.1654 0.0000 0.0000
# 5 0.0000 0.0000 0.0000 0.0000 31.8797 0.0000
# 6 0.0000 0.0000 0.0000 0.0000 0.0000 -2.2180
#
#
#
# Elastic Compliance Matrix: (Units=1/GPa)
#
#
# Indices 1 2 3 4 5 6 
#
# 1 0.012734 -0.007333 -0.003632 0.000000 0.000000 0.000000
# 2 -0.007333 0.023075 -0.003974 0.000000 0.000000 0.000000
# 3 -0.003632 -0.003974 0.008786 0.000000 0.000000 0.000000
# 4 0.000000 0.000000 0.000000 -0.315914 0.000000 0.000000
# 5 0.000000 0.000000 0.000000 0.000000 0.031368 0.000000
# 6 0.000000 0.000000 0.000000 0.000000 0.000000 -0.450848
#
#
# Mechanical properties :
#
#
# Convention : Reuss Voigt Hill
#
# Bulk Modulus (GPa) = 67.94913 84.91518 76.43215
# Shear Modulus (GPa) = -7.62177 17.59087 4.98455
#
# Velocity S-wave (km/s) = -2.03431 3.09052 1.64513
# Velocity P-wave (km/s) = 5.60148 7.67083 6.71633
#
# Compressibility (1/GPa) = 0.01471689
#
# Stress axis : x y z
#
# Youngs Moduli (GPa) = 78.52930 43.33628 113.82255
#
# Poissons Ratio (x) = 0.31778 0.41340
# Poissons Ratio (y) = 0.57585 0.45235
# Poissons Ratio (z) = 0.28522 0.17223
#
# Static dielectric constant tensor:
#      x y z
#    x 3.469530 0.000000 0.000000 
#    y 0.000000 2.963140 0.000000 
#    z 0.000000 0.000000 3.824850 
# 
# 
# High freq. dielectric constant tensor:
#      x y z
#    x 1.720760 0.000000 0.000000 
#    y 0.000000 1.665600 0.000000 
#    z 0.000000 0.000000 1.735590 
# 
# From -- ./inp_files/37238.got.cif
#   From: 2010.03.12/outbox.cif.g09.slc.cpg/sg51_19_cif.got.tgz:37238.got - 2010.04.16 13:43:02.
