data_PCOD8209071
_publ_section_title
;
Structure prediction by ZEFSAII (Michael W. Deem and Ramdas Pophale) SiO2 
 PCOD8209071
Probable space group: P M M A
;
_chemical_formula_sum "Si O2"
_cell_formula_units_Z 40
_cell_length_a 8.892226
_cell_length_b 7.822110
_cell_length_c 29.130961
_cell_angle_alpha 90.000000
_cell_angle_beta 90.000000
_cell_angle_gamma 90.000000
_cell_volume 2026.232247
_symmetry_space_group_name_H-M "P M M A"
_symmetry_group_IT_number 51
_symmetry_cell_setting 'orthorhombic'
loop_
_space_group_symop_operation_xyz
x,y,z
1/2-x,-y,z
1/2+x,-y,-z
-x,y,-z
-x,-y,-z
1/2+x,y,-z
1/2-x,y,z
x,-y,z
loop_
_atom_site_type_symbol
_atom_site_label
_atom_site_fract_x
_atom_site_fract_y
_atom_site_fract_z
Si Si1 0.928785 0.000000 0.210084
Si Si2 0.925080 0.696592 0.545717
Si Si3 0.583248 0.805570 0.365058
Si Si4 0.929277 0.000000 0.105079
Si Si5 0.573211 0.695892 0.950877
Si Si6 0.571355 0.312528 0.269023
O O1 0.981595 0.000000 0.157739
O O2 0.995722 0.168882 0.235061
O O3 0.750000 0.000000 0.212681
O O4 0.750000 0.723449 0.540197
O O5 0.972314 0.500000 0.551160
O O6 0.000000 0.775411 0.500000
O O7 0.978329 0.793763 0.590804
O O8 0.750000 0.734741 0.377354
O O9 0.512146 0.706822 0.321409
O O10 0.594428 0.000000 0.349049
O O11 0.996319 0.173103 0.083952
O O12 0.750000 0.000000 0.099032
O O13 0.750000 0.734188 0.954147
O O14 0.543307 0.500000 0.934760
O O15 0.500000 0.728858 0.000000
O O16 0.750000 0.292710 0.270693
O O17 0.523078 0.500000 0.250710
#
# Coordination Sequence:
#
# PCOD8209071 Si02
#       6
#     4   8   8   4   8   8
#     4   9  18  32  48  77 114 145 184 228 274 331
#     4  10  21  36  53  74 102 135 173 215 261 320
#     4  10  19  32  53  79 106 134 171 219 267 322
#     4  11  22  34  55  85 122 159 193 240 293 347
#     4  10  21  38  60  85 116 155 200 246 290 342
#     4   9  16  29  51  76 105 140 177 223 274 321
#
# _framework density 19.741074999999999
#
# number of rings (size 3 to 8) (size 9 to 14) (size 15 to 20)
#    0.000    2.200    1.000    2.400    0.000    4.800 
#    0.000    2.000    0.000    2.400    0.000    2.800 
#    0.000    0.000    0.000    0.000    0.000    0.000 
#
# Total GULP energy -495939.684636 kJ/mol
# GULP energy per Si atom -12398.492116 kJ/mol
# Density = 1.969614 g / cm^3
# Si number density = 19.741075 Si / 1000 Ang^3
#
#
#
# Elastic Constant Matrix: (Units=GPa)
#
#
# Indices 1 2 3 4 5 6 
#
# 1 64.9045 34.9454 41.3459 0.0000 0.0000 0.0000
# 2 34.9454 136.1820 82.5712 0.0000 0.0000 0.0000
# 3 41.3459 82.5712 156.7426 0.0000 0.0000 0.0000
# 4 0.0000 0.0000 0.0000 27.2829 0.0000 0.0000
# 5 0.0000 0.0000 0.0000 0.0000 22.6024 0.0000
# 6 0.0000 0.0000 0.0000 0.0000 0.0000 22.1098
#
#
#
# Elastic Compliance Matrix: (Units=1/GPa)
#
#
# Indices 1 2 3 4 5 6 
#
# 1 0.019183 -0.002725 -0.003625 0.000000 0.000000 0.000000
# 2 -0.002725 0.011176 -0.005169 0.000000 0.000000 0.000000
# 3 -0.003625 -0.005169 0.010059 0.000000 0.000000 0.000000
# 4 0.000000 0.000000 0.000000 0.036653 0.000000 0.000000
# 5 0.000000 0.000000 0.000000 0.000000 0.044243 0.000000
# 6 0.000000 0.000000 0.000000 0.000000 0.000000 0.045229
#
#
# Mechanical properties :
#
#
# Convention : Reuss Voigt Hill
#
# Bulk Modulus (GPa) = 57.53157 75.06156 66.29656
# Shear Modulus (GPa) = 25.59184 27.66346 26.62765
#
# Velocity S-wave (km/s) = 3.60443 3.74747 3.67665
# Velocity P-wave (km/s) = 6.82121 7.53859 7.18885
#
# Compressibility (1/GPa) = 0.01738176
#
# Stress axis : x y z
#
# Youngs Moduli (GPa) = 52.12828 89.47450 99.41333
#
# Poissons Ratio (x) = 0.24380 0.36036
# Poissons Ratio (y) = 0.14204 0.51386
# Poissons Ratio (z) = 0.18896 0.46249
#
# Static dielectric constant tensor:
#      x y z
#    x 3.227970 0.000000 0.000000 
#    y 0.000000 3.755190 0.000000 
#    z 0.000000 0.000000 3.594110 
# 
# 
# High freq. dielectric constant tensor:
#      x y z
#    x 1.735550 0.000000 0.000000 
#    y 0.000000 1.780970 0.000000 
#    z 0.000000 0.000000 1.769600 
# 
# From -- ./inp_files/36054.got.cif
#   From: 2010.03.12/outbox.cif.g09.slc.cpg/sg51_19_cif.got.tgz:36054.got - 2010.04.16 13:43:02.
