data_PCOD8209125
_publ_section_title
;
Structure prediction by ZEFSAII (Michael W. Deem and Ramdas Pophale) SiO2 
 PCOD8209125
Probable space group: P M M A
;
_chemical_formula_sum "Si O2"
_cell_formula_units_Z 64
_cell_length_a 15.064589
_cell_length_b 17.848784
_cell_length_c 12.546590
_cell_angle_alpha 90.000000
_cell_angle_beta 90.000000
_cell_angle_gamma 90.000000
_cell_volume 3373.584772
_symmetry_space_group_name_H-M "P M M A"
_symmetry_group_IT_number 51
_symmetry_cell_setting 'orthorhombic'
loop_
_space_group_symop_operation_xyz
x,y,z
1/2-x,-y,z
1/2+x,-y,-z
-x,y,-z
-x,-y,-z
1/2+x,y,-z
1/2-x,y,z
x,-y,z
loop_
_atom_site_type_symbol
_atom_site_label
_atom_site_fract_x
_atom_site_fract_y
_atom_site_fract_z
Si Si1 0.150255 0.831880 0.710345
Si Si2 0.851107 0.706522 0.123174
Si Si3 0.989264 0.913477 0.624404
Si Si4 0.497165 0.585222 0.832815
Si Si5 0.855401 0.209857 0.683100
Si Si6 0.444093 0.419844 0.605181
Si Si7 0.649602 0.691786 0.884653
Si Si8 0.152907 0.282478 0.525953
O O1 0.250000 0.862884 0.735697
O O2 0.117213 0.776201 0.804329
O O3 0.152062 0.790769 0.597429
O O4 0.078901 0.897731 0.693224
O O5 0.750000 0.685470 0.154414
O O6 0.909597 0.632447 0.138933
O O7 0.857831 0.731850 0.999627
O O8 0.907661 0.868064 0.676134
O O9 0.000000 0.892404 0.500000
O O10 0.965208 0.000000 0.637619
O O11 0.486261 0.500000 0.875139
O O12 0.509666 0.587403 0.705520
O O13 0.585000 0.620249 0.884834
O O14 0.750000 0.194268 0.670344
O O15 0.878839 0.248446 0.795179
O O16 0.894428 0.263154 0.587139
O O17 0.500000 0.419422 0.500000
O O18 0.392230 0.500000 0.613936
O O19 0.380695 0.349340 0.599725
O O20 0.750000 0.663317 0.863682
O O21 0.250000 0.307347 0.491386
#
# Coordination Sequence:
#
# PCOD8209125 Si02
#       8
#     8   8   8   8   8   8   8   8
#     4  10  20  36  58  83 109 141 179 223 268 317
#     4  10  21  38  58  81 108 141 186 233 275 320
#     4  11  23  36  56  87 119 149 172 205 269 333
#     4  11  22  35  53  78 110 147 185 230 284 329
#     4  10  21  37  58  84 110 142 184 225 266 319
#     4  10  21  33  48  74 108 145 181 223 276 329
#     4  10  22  38  57  80 106 143 190 232 270 319
#     4  10  19  32  54  79 102 138 182 225 270 316
#
# _framework density 18.970918999999999
#
# number of rings (size 3 to 8) (size 9 to 14) (size 15 to 20)
#    0.000    1.750    2.500    1.875    1.750    2.250 
#    0.000    3.750    0.000    6.000    0.000    3.500 
#    0.000    0.000    0.000    0.000    0.000    0.000 
#
# Total GULP energy -793218.856832 kJ/mol
# GULP energy per Si atom -12394.044638 kJ/mol
# Density = 1.892774 g / cm^3
# Si number density = 18.970919 Si / 1000 Ang^3
#
#
#
# Elastic Constant Matrix: (Units=GPa)
#
#
# Indices 1 2 3 4 5 6 
#
# 1 76.9307 41.4553 18.9268 0.0000 0.0000 0.0000
# 2 41.4553 82.0330 23.2849 0.0000 0.0000 0.0000
# 3 18.9268 23.2849 104.8583 0.0000 0.0000 0.0000
# 4 0.0000 0.0000 0.0000 5.3550 0.0000 0.0000
# 5 0.0000 0.0000 0.0000 0.0000 23.1458 0.0000
# 6 0.0000 0.0000 0.0000 0.0000 0.0000 11.1275
#
#
#
# Elastic Compliance Matrix: (Units=1/GPa)
#
#
# Indices 1 2 3 4 5 6 
#
# 1 0.018031 -0.008739 -0.001314 0.000000 0.000000 0.000000
# 2 -0.008739 0.017246 -0.002252 0.000000 0.000000 0.000000
# 3 -0.001314 -0.002252 0.010274 0.000000 0.000000 0.000000
# 4 0.000000 0.000000 0.000000 0.186742 0.000000 0.000000
# 5 0.000000 0.000000 0.000000 0.000000 0.043204 0.000000
# 6 0.000000 0.000000 0.000000 0.000000 0.000000 0.089868
#
#
# Mechanical properties :
#
#
# Convention : Reuss Voigt Hill
#
# Bulk Modulus (GPa) = 47.75465 47.90623 47.83044
# Shear Modulus (GPa) = 12.59586 19.93599 16.26592
#
# Velocity S-wave (km/s) = 2.57953 3.24523 2.93134
# Velocity P-wave (km/s) = 5.83945 6.27290 6.06005
#
# Compressibility (1/GPa) = 0.02094037
#
# Stress axis : x y z
#
# Youngs Moduli (GPa) = 55.45959 57.98522 97.33324
#
# Poissons Ratio (x) = 0.50674 0.12790
# Poissons Ratio (y) = 0.48466 0.21922
# Poissons Ratio (z) = 0.07287 0.13060
#
# Static dielectric constant tensor:
#      x y z
#    x 3.116540 0.000000 0.000000 
#    y 0.000000 3.469880 0.000000 
#    z 0.000000 0.000000 3.878140 
# 
# 
# High freq. dielectric constant tensor:
#      x y z
#    x 1.735150 0.000000 0.000000 
#    y 0.000000 1.711000 0.000000 
#    z 0.000000 0.000000 1.749650 
# 
# From -- ./inp_files/16841.got.cif
#   From: 2010.03.12/outbox.cif.g09.slc.cpg/sg51_9_cif.got.tgz:16841.got - 2010.04.16 13:43:02.
