data_PCOD8209218
_publ_section_title
;
Structure prediction by ZEFSAII (Michael W. Deem and Ramdas Pophale) SiO2 
 PCOD8209218
Probable space group: P M M A
;
_chemical_formula_sum "Si O2"
_cell_formula_units_Z 52
_cell_length_a 9.158534
_cell_length_b 22.811954
_cell_length_c 14.131273
_cell_angle_alpha 90.000000
_cell_angle_beta 90.000000
_cell_angle_gamma 90.000000
_cell_volume 2952.362876
_symmetry_space_group_name_H-M "P M M A"
_symmetry_group_IT_number 51
_symmetry_cell_setting 'orthorhombic'
loop_
_space_group_symop_operation_xyz
x,y,z
1/2-x,-y,z
1/2+x,-y,-z
-x,y,-z
-x,-y,-z
1/2+x,y,-z
1/2-x,y,z
x,-y,z
loop_
_atom_site_type_symbol
_atom_site_label
_atom_site_fract_x
_atom_site_fract_y
_atom_site_fract_z
Si Si1 0.579516 0.322781 0.707277
Si Si2 0.578491 0.857653 0.905631
Si Si3 0.580744 0.721882 0.907749
Si Si4 0.921205 0.777220 0.402908
Si Si5 0.919106 0.434543 0.594113
Si Si6 0.080440 0.110621 0.722909
Si Si7 0.920933 0.000000 0.400827
O O1 0.750000 0.306097 0.695676
O O2 0.529654 0.314384 0.815767
O O3 0.485876 0.282551 0.638036
O O4 0.547510 0.390170 0.679932
O O5 0.750000 0.868891 0.914320
O O6 0.540030 0.789478 0.890307
O O7 0.515178 0.893507 0.817491
O O8 0.500000 0.881073 0.000000
O O9 0.750000 0.713727 0.927627
O O10 0.500000 0.696646 0.000000
O O11 0.750000 0.769089 0.421863
O O12 0.953773 0.828989 0.329875
O O13 0.000000 0.793708 0.500000
O O14 0.750000 0.434039 0.568418
O O15 0.970409 0.500000 0.624323
O O16 0.000000 0.412976 0.500000
O O17 0.250000 0.105783 0.750710
O O18 0.031086 0.057297 0.656792
O O19 0.000000 0.000000 0.500000
O O20 0.750000 0.000000 0.421139
#
# Coordination Sequence:
#
# PCOD8209218 Si02
#       7
#     8   8   8   8   8   8   4
#     4  10  19  33  51  74 103 132 169 210 255 305
#     4  10  19  33  55  80 107 136 169 210 258 311
#     4   9  18  31  49  74 102 133 165 204 251 304
#     4  11  22  33  49  74 104 134 166 207 257 305
#     4   9  18  32  50  71  98 134 173 211 250 297
#     4  10  21  37  55  77 104 136 173 214 257 305
#     4  10  22  40  59  78 103 138 179 218 256 306
#
# _framework density 17.613011
#
# number of rings (size 3 to 8) (size 9 to 14) (size 15 to 20)
#    0.000    2.154    1.538    1.846    0.000    4.308 
#    0.000    0.385    0.000    0.462    0.000    0.000 
#    0.000    0.000    0.000    0.000    0.000    0.000 
#
# Total GULP energy -644950.595190 kJ/mol
# GULP energy per Si atom -12402.896061 kJ/mol
# Density = 1.757292 g / cm^3
# Si number density = 17.613011 Si / 1000 Ang^3
#
#
#
# Elastic Constant Matrix: (Units=GPa)
#
#
# Indices 1 2 3 4 5 6 
#
# 1 69.4144 35.1731 64.3102 0.0000 0.0000 0.0000
# 2 35.1731 81.7905 50.9415 0.0000 0.0000 0.0000
# 3 64.3102 50.9415 149.5210 0.0000 0.0000 0.0000
# 4 0.0000 0.0000 0.0000 26.5308 0.0000 0.0000
# 5 0.0000 0.0000 0.0000 0.0000 37.6338 0.0000
# 6 0.0000 0.0000 0.0000 0.0000 0.0000 19.7361
#
#
#
# Elastic Compliance Matrix: (Units=1/GPa)
#
#
# Indices 1 2 3 4 5 6 
#
# 1 0.025625 -0.005274 -0.009225 0.000000 0.000000 0.000000
# 2 -0.005274 0.016605 -0.003389 0.000000 0.000000 0.000000
# 3 -0.009225 -0.003389 0.011810 0.000000 0.000000 0.000000
# 4 0.000000 0.000000 0.000000 0.037692 0.000000 0.000000
# 5 0.000000 0.000000 0.000000 0.000000 0.026572 0.000000
# 6 0.000000 0.000000 0.000000 0.000000 0.000000 0.050669
#
#
# Mechanical properties :
#
#
# Convention : Reuss Voigt Hill
#
# Bulk Modulus (GPa) = 54.74998 66.84171 60.79585
# Shear Modulus (GPa) = 23.71501 26.80021 25.25761
#
# Velocity S-wave (km/s) = 3.67338 3.90502 3.79097
# Velocity P-wave (km/s) = 7.01028 7.63969 7.33174
#
# Compressibility (1/GPa) = 0.01826485
#
# Stress axis : x y z
#
# Youngs Moduli (GPa) = 39.02417 60.22210 84.67304
#
# Poissons Ratio (x) = 0.31764 0.78107
# Poissons Ratio (y) = 0.20583 0.28694
# Poissons Ratio (z) = 0.35998 0.20408
#
# Static dielectric constant tensor:
#      x y z
#    x 3.253740 0.000000 0.000000 
#    y 0.000000 3.250150 0.000000 
#    z 0.000000 0.000000 3.350790 
# 
# 
# High freq. dielectric constant tensor:
#      x y z
#    x 1.682690 0.000000 0.000000 
#    y 0.000000 1.664480 0.000000 
#    z 0.000000 0.000000 1.686000 
# 
# From -- ./inp_files/21602.got.cif
#   From: 2010.03.12/outbox.cif.g09.slc.cpg/sg51_11_cif.got.tgz:21602.got - 2010.04.16 13:43:02.
