data_PCOD8209192
_publ_section_title
;
Structure prediction by ZEFSAII (Michael W. Deem and Ramdas Pophale) SiO2 
 PCOD8209192
Probable space group: P M M A
;
_chemical_formula_sum "Si O2"
_cell_formula_units_Z 52
_cell_length_a 8.906706
_cell_length_b 22.649563
_cell_length_c 15.393469
_cell_angle_alpha 90.000000
_cell_angle_beta 90.000000
_cell_angle_gamma 90.000000
_cell_volume 3105.370661
_symmetry_space_group_name_H-M "P M M A"
_symmetry_group_IT_number 51
_symmetry_cell_setting 'orthorhombic'
loop_
_space_group_symop_operation_xyz
x,y,z
1/2-x,-y,z
1/2+x,-y,-z
-x,y,-z
-x,-y,-z
1/2+x,y,-z
1/2-x,y,z
x,-y,z
loop_
_atom_site_type_symbol
_atom_site_label
_atom_site_fract_x
_atom_site_fract_y
_atom_site_fract_z
Si Si1 0.928043 0.128369 0.095644
Si Si2 0.086266 0.651660 0.581133
Si Si3 0.426655 0.433441 0.911142
Si Si4 0.570440 0.659963 0.230759
Si Si5 0.578896 0.000000 0.089864
Si Si6 0.418195 0.791508 0.585097
Si Si7 0.429023 0.785279 0.234235
O O1 0.750000 0.142366 0.090902
O O2 0.011373 0.172336 0.159591
O O3 0.958670 0.062400 0.136815
O O4 0.000000 0.134698 0.000000
O O5 0.250000 0.623345 0.576081
O O6 0.015057 0.636361 0.674883
O O7 0.092570 0.721822 0.572791
O O8 0.000000 0.623122 0.500000
O O9 0.250000 0.430237 0.922574
O O10 0.478840 0.500000 0.888038
O O11 0.481925 0.389537 0.836557
O O12 0.500000 0.411504 0.000000
O O13 0.750000 0.671094 0.231480
O O14 0.487860 0.720592 0.208513
O O15 0.750000 0.000000 0.063990
O O16 0.500000 0.000000 0.000000
O O17 0.500000 0.818946 0.500000
O O18 0.250000 0.818155 0.592408
O O19 0.509669 0.806934 0.672340
O O20 0.250000 0.785503 0.237075
#
# Coordination Sequence:
#
# PCOD8209192 Si02
#       7
#     8   8   8   8   4   8   8
#     4  10  19  33  50  70  96 126 159 196 236 280
#     4   8  14  24  40  61  85 114 145 177 217 264
#     4   9  18  33  52  70  87 112 150 193 235 280
#     4   9  18  32  47  65  92 123 152 188 235 282
#     4   8  16  30  50  70  89 118 157 196 234 276
#     4   9  16  28  45  66  93 125 158 195 235 277
#     4  11  21  31  45  70 100 130 161 193 234 281
#
# _framework density 16.745183000000001
#
# number of rings (size 3 to 8) (size 9 to 14) (size 15 to 20)
#    0.000    2.769    0.000    3.231    0.000    5.538 
#    0.000    1.538    0.000    0.462    0.000    0.538 
#    0.000    0.000    0.000    0.000    0.000    1.692 
#
# Total GULP energy -644309.579579 kJ/mol
# GULP energy per Si atom -12390.568838 kJ/mol
# Density = 1.670707 g / cm^3
# Si number density = 16.745183 Si / 1000 Ang^3
#
#
#
# Elastic Constant Matrix: (Units=GPa)
#
#
# Indices 1 2 3 4 5 6 
#
# 1 89.8961 42.7836 56.7624 0.0000 0.0000 0.0000
# 2 42.7836 78.3078 74.7169 0.0000 0.0000 0.0000
# 3 56.7624 74.7169 144.2593 0.0000 0.0000 0.0000
# 4 0.0000 0.0000 0.0000 -2.0752 0.0000 0.0000
# 5 0.0000 0.0000 0.0000 0.0000 31.0912 0.0000
# 6 0.0000 0.0000 0.0000 0.0000 0.0000 13.1573
#
#
#
# Elastic Compliance Matrix: (Units=1/GPa)
#
#
# Indices 1 2 3 4 5 6 
#
# 1 0.015863 -0.005360 -0.003465 0.000000 0.000000 0.000000
# 2 -0.005360 0.027058 -0.011905 0.000000 0.000000 0.000000
# 3 -0.003465 -0.011905 0.014462 0.000000 0.000000 0.000000
# 4 0.000000 0.000000 0.000000 -0.481880 0.000000 0.000000
# 5 0.000000 0.000000 0.000000 0.000000 0.032163 0.000000
# 6 0.000000 0.000000 0.000000 0.000000 0.000000 0.076003
#
#
# Mechanical properties :
#
#
# Convention : Reuss Voigt Hill
#
# Bulk Modulus (GPa) = 62.81030 73.44323 68.12677
# Shear Modulus (GPa) = -18.54865 17.64801 -0.45032
#
# Velocity S-wave (km/s) = -3.33182 3.24993 -0.51914
# Velocity P-wave (km/s) = 4.77383 7.61822 6.35715
#
# Compressibility (1/GPa) = 0.01592096
#
# Stress axis : x y z
#
# Youngs Moduli (GPa) = 63.03884 36.95776 69.14860
#
# Poissons Ratio (x) = 0.19811 0.23963
# Poissons Ratio (y) = 0.33791 0.82322
# Poissons Ratio (z) = 0.21846 0.43999
#
# Static dielectric constant tensor:
#      x y z
#    x 3.291170 0.000000 0.000000 
#    y 0.000000 2.974240 0.000000 
#    z 0.000000 0.000000 3.351390 
# 
# 
# High freq. dielectric constant tensor:
#      x y z
#    x 1.652050 0.000000 0.000000 
#    y 0.000000 1.608020 0.000000 
#    z 0.000000 0.000000 1.647460 
# 
# From -- ./inp_files/22052.got.cif
#   From: 2010.03.12/outbox.cif.g09.slc.cpg/sg51_12_cif.got.tgz:22052.got - 2010.04.16 13:43:02.
