data_PCOD8209823
_publ_section_title
;
Structure prediction by ZEFSAII (Michael W. Deem and Ramdas Pophale) SiO2 
 PCOD8209823
Probable space group: P M M A
;
_chemical_formula_sum "Si O2"
_cell_formula_units_Z 64
_cell_length_a 15.380684
_cell_length_b 8.981714
_cell_length_c 23.892119
_cell_angle_alpha 90.000000
_cell_angle_beta 90.000000
_cell_angle_gamma 90.000000
_cell_volume 3300.574505
_symmetry_space_group_name_H-M "P M M A"
_symmetry_group_IT_number 51
_symmetry_cell_setting 'orthorhombic'
loop_
_space_group_symop_operation_xyz
x,y,z
1/2-x,-y,z
1/2+x,-y,-z
-x,y,-z
-x,-y,-z
1/2+x,y,-z
1/2-x,y,z
x,-y,z
loop_
_atom_site_type_symbol
_atom_site_label
_atom_site_fract_x
_atom_site_fract_y
_atom_site_fract_z
Si Si1 0.997333 0.674574 0.564562
Si Si2 0.650977 0.173273 0.134058
Si Si3 0.401774 0.675649 0.258593
Si Si4 0.154040 0.676859 0.137015
Si Si5 0.495924 0.323104 0.936563
Si Si6 0.652181 0.170172 0.373542
Si Si7 0.152456 0.829534 0.367558
Si Si8 0.419051 0.169927 0.745639
O O1 0.987255 0.500000 0.573383
O O2 0.085764 0.725077 0.593995
O O3 0.000000 0.720128 0.500000
O O4 0.913093 0.750758 0.590552
O O5 0.750000 0.217238 0.120808
O O6 0.591026 0.265321 0.092280
O O7 0.631580 0.215664 0.198273
O O8 0.634193 0.000000 0.123529
O O9 0.391044 0.500000 0.265095
O O10 0.365176 0.733962 0.199493
O O11 0.347287 0.754226 0.306889
O O12 0.502170 0.717811 0.263866
O O13 0.250000 0.732790 0.118434
O O14 0.150207 0.500000 0.136152
O O15 0.081141 0.741271 0.095113
O O16 0.494002 0.500000 0.934076
O O17 0.500000 0.264876 0.000000
O O18 0.750000 0.215112 0.390959
O O19 0.645076 0.189544 0.306680
O O20 0.632313 0.000000 0.390448
O O21 0.250000 0.817272 0.392170
O O22 0.122898 0.000000 0.360999
O O23 0.453432 0.000000 0.749558
#
# Coordination Sequence:
#
# PCOD8209823 Si02
#       8
#     8   8   8   8   8   8   8   8
#     4  11  25  43  62  86 118 156 198 245 292 338
#     4  10  21  37  58  84 117 155 191 231 285 347
#     4  11  20  33  58  87 117 152 189 233 292 350
#     4   9  18  33  53  79 112 147 184 229 285 346
#     4  10  21  37  57  81 110 148 196 246 291 337
#     4  10  21  38  62  90 119 153 192 234 285 347
#     4  11  24  41  62  89 120 154 194 240 290 349
#     4  10  19  34  58  86 118 153 188 230 287 348
#
# _framework density 19.390563
#
# number of rings (size 3 to 8) (size 9 to 14) (size 15 to 20)
#    0.000    1.750    2.500    1.875    0.000    5.750 
#    0.000    3.750    0.000    3.375    0.000    0.000 
#    0.000    0.000    0.000    0.000    0.000    0.000 
#
# Total GULP energy -793746.878446 kJ/mol
# GULP energy per Si atom -12402.294976 kJ/mol
# Density = 1.934643 g / cm^3
# Si number density = 19.390563 Si / 1000 Ang^3
#
#
#
# Elastic Constant Matrix: (Units=GPa)
#
#
# Indices 1 2 3 4 5 6 
#
# 1 139.8965 37.5943 65.7408 0.0000 0.0000 0.0000
# 2 37.5943 58.3365 51.9312 0.0000 0.0000 0.0000
# 3 65.7408 51.9312 146.7629 0.0000 0.0000 0.0000
# 4 0.0000 0.0000 0.0000 19.6957 0.0000 0.0000
# 5 0.0000 0.0000 0.0000 0.0000 9.5979 0.0000
# 6 0.0000 0.0000 0.0000 0.0000 0.0000 21.5169
#
#
#
# Elastic Compliance Matrix: (Units=1/GPa)
#
#
# Indices 1 2 3 4 5 6 
#
# 1 0.009496 -0.003406 -0.003048 0.000000 0.000000 0.000000
# 2 -0.003406 0.026246 -0.007761 0.000000 0.000000 0.000000
# 3 -0.003048 -0.007761 0.010926 0.000000 0.000000 0.000000
# 4 0.000000 0.000000 0.000000 0.050772 0.000000 0.000000
# 5 0.000000 0.000000 0.000000 0.000000 0.104189 0.000000
# 6 0.000000 0.000000 0.000000 0.000000 0.000000 0.046475
#
#
# Mechanical properties :
#
#
# Convention : Reuss Voigt Hill
#
# Bulk Modulus (GPa) = 54.83617 72.83649 63.83633
# Shear Modulus (GPa) = 17.69198 22.81076 20.25137
#
# Velocity S-wave (km/s) = 3.02388 3.43357 3.23521
# Velocity P-wave (km/s) = 6.36655 7.30504 6.85188
#
# Compressibility (1/GPa) = 0.01823614
#
# Stress axis : x y z
#
# Youngs Moduli (GPa) = 105.30828 38.10111 91.52844
#
# Poissons Ratio (x) = 0.12976 0.27902
# Poissons Ratio (y) = 0.35866 0.71039
# Poissons Ratio (z) = 0.32103 0.29572
#
# Static dielectric constant tensor:
#      x y z
#    x 3.666550 0.000000 0.000000 
#    y 0.000000 3.403400 0.000000 
#    z 0.000000 0.000000 3.658540 
# 
# 
# High freq. dielectric constant tensor:
#      x y z
#    x 1.766940 0.000000 0.000000 
#    y 0.000000 1.739460 0.000000 
#    z 0.000000 0.000000 1.756190 
# 
# From -- ./inp_files/35808.got.cif
#   From: 2010.03.12/outbox.cif.g09.slc.cpg/sg51_18_cif.got.tgz:35808.got - 2010.04.16 13:43:02.
