data_PCOD8209173
_publ_section_title
;
Structure prediction by ZEFSAII (Michael W. Deem and Ramdas Pophale) SiO2 
 PCOD8209173
Probable space group: P M M A
;
_chemical_formula_sum "Si O2"
_cell_formula_units_Z 48
_cell_length_a 17.324188
_cell_length_b 10.596602
_cell_length_c 13.325744
_cell_angle_alpha 90.000000
_cell_angle_beta 90.000000
_cell_angle_gamma 90.000000
_cell_volume 2446.307105
_symmetry_space_group_name_H-M "P M M A"
_symmetry_group_IT_number 51
_symmetry_cell_setting 'orthorhombic'
loop_
_space_group_symop_operation_xyz
x,y,z
1/2-x,-y,z
1/2+x,-y,-z
-x,y,-z
-x,-y,-z
1/2+x,y,-z
1/2-x,y,z
x,-y,z
loop_
_atom_site_type_symbol
_atom_site_label
_atom_site_fract_x
_atom_site_fract_y
_atom_site_fract_z
Si Si1 0.158754 0.500000 0.707472
Si Si2 0.515219 0.855295 0.611082
Si Si3 0.838499 0.722521 0.660715
Si Si4 0.158699 0.500000 0.481840
Si Si5 0.435552 0.278886 0.789806
Si Si6 0.910076 0.860001 0.018816
Si Si7 0.900416 0.642839 0.867385
O O1 0.250000 0.500000 0.704989
O O2 0.124328 0.500000 0.594052
O O3 0.130386 0.621154 0.767190
O O4 0.500000 0.801406 0.500000
O O5 0.604527 0.840995 0.646008
O O6 0.458483 0.784489 0.685858
O O7 0.492375 0.000000 0.615992
O O8 0.750000 0.764447 0.643513
O O9 0.868753 0.622747 0.578533
O O10 0.846919 0.662164 0.770489
O O11 0.250000 0.500000 0.484738
O O12 0.397498 0.177378 0.865154
O O13 0.509375 0.344795 0.841006
O O14 0.872844 0.000000 0.998600
O O15 0.874764 0.749858 0.947858
O O16 0.000000 0.871257 0.000000
O O17 0.886696 0.500000 0.909044
#
# Coordination Sequence:
#
# PCOD8209173 Si02
#       7
#     4   8   8   4   8   8   8
#     4  11  22  35  55  85 110 142 188 243 288 344
#     4  10  21  36  56  84 116 153 200 247 290 345
#     4  10  20  35  56  83 117 154 186 234 301 357
#     4   9  18  33  52  75 110 146 183 217 275 348
#     4  10  20  35  57  80 113 148 192 238 296 341
#     4   9  19  34  56  81 112 151 194 237 285 348
#     4  10  19  32  55  85 113 146 193 239 286 344
#
# _framework density 19.621411999999999
#
# number of rings (size 3 to 8) (size 9 to 14) (size 15 to 20)
#    0.000    2.167    1.667    1.500    1.167    5.333 
#    0.000    3.333    0.000    4.000    0.000    0.000 
#    0.000    0.000    0.000    0.000    0.000    0.000 
#
# Total GULP energy -595072.997636 kJ/mol
# GULP energy per Si atom -12397.354117 kJ/mol
# Density = 1.957675 g / cm^3
# Si number density = 19.621412 Si / 1000 Ang^3
#
#
#
# Elastic Constant Matrix: (Units=GPa)
#
#
# Indices 1 2 3 4 5 6 
#
# 1 56.9487 22.7179 22.3113 0.0000 0.0000 0.0000
# 2 22.7179 135.3045 73.4288 0.0000 0.0000 0.0000
# 3 22.3113 73.4288 134.9401 0.0000 0.0000 0.0000
# 4 0.0000 0.0000 0.0000 27.7033 0.0000 0.0000
# 5 0.0000 0.0000 0.0000 0.0000 21.3770 0.0000
# 6 0.0000 0.0000 0.0000 0.0000 0.0000 14.8062
#
#
#
# Elastic Compliance Matrix: (Units=1/GPa)
#
#
# Indices 1 2 3 4 5 6 
#
# 1 0.019199 -0.002130 -0.002015 0.000000 0.000000 0.000000
# 2 -0.002130 0.010724 -0.005484 0.000000 0.000000 0.000000
# 3 -0.002015 -0.005484 0.010728 0.000000 0.000000 0.000000
# 4 0.000000 0.000000 0.000000 0.036097 0.000000 0.000000
# 5 0.000000 0.000000 0.000000 0.000000 0.046779 0.000000
# 6 0.000000 0.000000 0.000000 0.000000 0.000000 0.067539
#
#
# Mechanical properties :
#
#
# Convention : Reuss Voigt Hill
#
# Bulk Modulus (GPa) = 46.74331 62.67881 54.71106
# Shear Modulus (GPa) = 22.99326 26.69298 24.84312
#
# Velocity S-wave (km/s) = 3.42694 3.69236 3.56212
# Velocity P-wave (km/s) = 6.28752 7.08460 6.69792
#
# Compressibility (1/GPa) = 0.02139343
#
# Stress axis : x y z
#
# Youngs Moduli (GPa) = 52.08642 93.24708 93.21533
#
# Poissons Ratio (x) = 0.19859 0.18787
# Poissons Ratio (y) = 0.11093 0.51115
# Poissons Ratio (z) = 0.10498 0.51132
#
# Static dielectric constant tensor:
#      x y z
#    x 3.132770 0.000000 0.000000 
#    y 0.000000 3.700370 0.000000 
#    z 0.000000 0.000000 3.852590 
# 
# 
# High freq. dielectric constant tensor:
#      x y z
#    x 1.725850 0.000000 0.000000 
#    y 0.000000 1.766420 0.000000 
#    z 0.000000 0.000000 1.776060 
# 
# From -- ./inp_files/24962.got.cif
#   From: 2010.03.12/outbox.cif.g09.slc.cpg/sg51_13_cif.got.tgz:24962.got - 2010.04.16 13:43:02.
