data_PCOD8209031
_publ_section_title
;
Structure prediction by ZEFSAII (Michael W. Deem and Ramdas Pophale) SiO2 
 PCOD8209031
Probable space group: P M M A
;
_chemical_formula_sum "Si O2"
_cell_formula_units_Z 64
_cell_length_a 23.560142
_cell_length_b 9.044760
_cell_length_c 15.011298
_cell_angle_alpha 90.000000
_cell_angle_beta 90.000000
_cell_angle_gamma 90.000000
_cell_volume 3198.845006
_symmetry_space_group_name_H-M "P M M A"
_symmetry_group_IT_number 51
_symmetry_cell_setting 'orthorhombic'
loop_
_space_group_symop_operation_xyz
x,y,z
1/2-x,-y,z
1/2+x,-y,-z
-x,y,-z
-x,-y,-z
1/2+x,y,-z
1/2-x,y,z
x,-y,z
loop_
_atom_site_type_symbol
_atom_site_label
_atom_site_fract_x
_atom_site_fract_y
_atom_site_fract_z
Si Si1 0.001672 0.673940 0.221827
Si Si2 0.689507 0.824518 0.286027
Si Si3 0.130292 0.327056 0.184456
Si Si4 0.021678 0.832545 0.593823
Si Si5 0.184961 0.174718 0.017141
Si Si6 0.396417 0.823973 0.856661
Si Si7 0.685845 0.325362 0.633462
Si Si8 0.352716 0.834506 0.534398
O O1 0.990356 0.500000 0.227463
O O2 0.063529 0.709192 0.181717
O O3 0.998211 0.737714 0.321806
O O4 0.957838 0.747288 0.151560
O O5 0.750000 0.774422 0.244916
O O6 0.638643 0.759957 0.227421
O O7 0.689492 0.773663 0.389343
O O8 0.683732 0.000000 0.282062
O O9 0.141641 0.500000 0.172581
O O10 0.164586 0.243543 0.108889
O O11 0.155960 0.268544 0.277271
O O12 0.088822 0.833109 0.588110
O O13 0.000000 0.764259 0.500000
O O14 0.997891 0.000000 0.605571
O O15 0.250000 0.225211 0.995300
O O16 0.183266 0.000000 0.025787
O O17 0.139765 0.226742 0.942463
O O18 0.405242 0.000000 0.855084
O O19 0.750000 0.263023 0.627975
O O20 0.685730 0.500000 0.629994
O O21 0.648480 0.269050 0.551088
O O22 0.337265 0.000000 0.502654
#
# Coordination Sequence:
#
# PCOD8209031 Si02
#       8
#     8   8   8   8   8   8   8   8
#     4  11  23  38  58  86 119 156 201 245 287 344
#     4   9  16  29  52  79 108 144 183 224 277 343
#     4  10  23  42  61  82 115 160 199 237 295 356
#     4  10  20  35  56  82 114 154 198 241 290 348
#     4  10  22  40  65  96 120 145 191 247 299 350
#     4  10  20  38  61  85 119 154 187 233 292 351
#     4  10  21  37  56  79 110 150 194 239 290 346
#     4  10  19  32  52  81 112 147 189 232 284 344
#
# _framework density 20.007221999999999
#
# number of rings (size 3 to 8) (size 9 to 14) (size 15 to 20)
#    0.000    2.000    1.250    2.250    0.000    6.250 
#    0.000    2.500    0.000    1.125    0.000    0.000 
#    0.000    0.000    0.000    0.000    0.000    0.000 
#
# Total GULP energy -793330.556209 kJ/mol
# GULP energy per Si atom -12395.789941 kJ/mol
# Density = 1.996168 g / cm^3
# Si number density = 20.007222 Si / 1000 Ang^3
#
#
#
# Elastic Constant Matrix: (Units=GPa)
#
#
# Indices 1 2 3 4 5 6 
#
# 1 91.0005 28.5586 38.6815 0.0000 0.0000 0.0000
# 2 28.5586 39.2569 34.4397 0.0000 0.0000 0.0000
# 3 38.6815 34.4397 108.9678 0.0000 0.0000 0.0000
# 4 0.0000 0.0000 0.0000 21.3490 0.0000 0.0000
# 5 0.0000 0.0000 0.0000 0.0000 34.8297 0.0000
# 6 0.0000 0.0000 0.0000 0.0000 0.0000 24.0831
#
#
#
# Elastic Compliance Matrix: (Units=1/GPa)
#
#
# Indices 1 2 3 4 5 6 
#
# 1 0.014735 -0.008482 -0.002550 0.000000 0.000000 0.000000
# 2 -0.008482 0.040129 -0.009672 0.000000 0.000000 0.000000
# 3 -0.002550 -0.009672 0.013139 0.000000 0.000000 0.000000
# 4 0.000000 0.000000 0.000000 0.046841 0.000000 0.000000
# 5 0.000000 0.000000 0.000000 0.000000 0.028711 0.000000
# 6 0.000000 0.000000 0.000000 0.000000 0.000000 0.041523
#
#
# Mechanical properties :
#
#
# Convention : Reuss Voigt Hill
#
# Bulk Modulus (GPa) = 37.60126 49.17611 43.38869
# Shear Modulus (GPa) = 21.24493 25.22205 23.23349
#
# Velocity S-wave (km/s) = 3.26216 3.55441 3.41142
# Velocity P-wave (km/s) = 5.74661 6.44032 6.10333
#
# Compressibility (1/GPa) = 0.02659485
#
# Stress axis : x y z
#
# Youngs Moduli (GPa) = 67.86671 24.91960 76.10973
#
# Poissons Ratio (x) = 0.21138 0.19405
# Poissons Ratio (y) = 0.57568 0.73612
# Poissons Ratio (z) = 0.17304 0.24102
#
# Static dielectric constant tensor:
#      x y z
#    x 3.946090 0.000000 0.000000 
#    y 0.000000 3.334120 0.000000 
#    z 0.000000 0.000000 3.684770 
# 
# 
# High freq. dielectric constant tensor:
#      x y z
#    x 1.798130 0.000000 0.000000 
#    y 0.000000 1.747590 0.000000 
#    z 0.000000 0.000000 1.786420 
# 
# From -- ./inp_files/26247.got.cif
#   From: 2010.03.12/outbox.cif.g09.slc.cpg/sg51_14_cif.got.tgz:26247.got - 2010.04.16 13:43:02.
