data_PCOD8209691
_publ_section_title
;
Structure prediction by ZEFSAII (Michael W. Deem and Ramdas Pophale) SiO2 
 PCOD8209691
Probable space group: P M M A
;
_chemical_formula_sum "Si O2"
_cell_formula_units_Z 40
_cell_length_a 9.003463
_cell_length_b 26.121900
_cell_length_c 9.167907
_cell_angle_alpha 90.000000
_cell_angle_beta 90.000000
_cell_angle_gamma 90.000000
_cell_volume 2156.177679
_symmetry_space_group_name_H-M "P M M A"
_symmetry_group_IT_number 51
_symmetry_cell_setting 'orthorhombic'
loop_
_space_group_symop_operation_xyz
x,y,z
1/2-x,-y,z
1/2+x,-y,-z
-x,y,-z
-x,-y,-z
1/2+x,y,-z
1/2-x,y,z
x,-y,z
loop_
_atom_site_type_symbol
_atom_site_label
_atom_site_fract_x
_atom_site_fract_y
_atom_site_fract_z
Si Si1 0.078712 0.000000 0.151643
Si Si2 0.924590 0.697641 0.845869
Si Si3 0.922899 0.203834 0.653073
Si Si4 0.574607 0.388741 0.341424
Si Si5 0.418773 0.500000 0.649301
Si Si6 0.924868 0.889405 0.843282
O O1 0.038653 0.054258 0.229642
O O2 0.250000 0.000000 0.114054
O O3 0.000000 0.000000 0.000000
O O4 0.750000 0.687980 0.865478
O O5 0.958786 0.747207 0.750226
O O6 0.998312 0.648939 0.771028
O O7 0.000000 0.707225 0.000000
O O8 0.750000 0.197393 0.623460
O O9 0.987405 0.153412 0.733543
O O10 0.000000 0.211580 0.500000
O O11 0.500000 0.382831 0.500000
O O12 0.750000 0.376798 0.355677
O O13 0.545460 0.445866 0.271339
O O14 0.250000 0.500000 0.602799
O O15 0.500000 0.500000 0.500000
O O16 0.750000 0.881539 0.866939
O O17 0.000000 0.882986 0.000000
#
# Coordination Sequence:
#
# PCOD8209691 Si02
#       6
#     4   8   8   8   4   8
#     4   8  14  26  47  72 100 130 164 204 247 294
#     4  11  23  38  55  77 103 135 173 215 262 312
#     4  10  22  37  53  74 102 134 170 209 255 306
#     4  10  19  34  56  82 110 140 174 213 254 302
#     4   8  16  30  51  78 107 138 172 208 250 298
#     4   9  17  31  51  76 102 132 168 208 251 298
#
# _framework density 18.551345999999999
#
# number of rings (size 3 to 8) (size 9 to 14) (size 15 to 20)
#    0.000    2.400    0.000    2.400    0.000    4.800 
#    0.000    1.000    0.000    0.000    0.000    0.000 
#    0.000    0.000    0.000    0.000    0.000    0.000 
#
# Total GULP energy -495584.139125 kJ/mol
# GULP energy per Si atom -12389.603478 kJ/mol
# Density = 1.850912 g / cm^3
# Si number density = 18.551346 Si / 1000 Ang^3
#
#
#
# Elastic Constant Matrix: (Units=GPa)
#
#
# Indices 1 2 3 4 5 6 
#
# 1 71.1431 69.9846 55.1506 0.0000 0.0000 0.0000
# 2 69.9846 175.2224 71.0488 0.0000 0.0000 0.0000
# 3 55.1506 71.0488 111.8546 0.0000 0.0000 0.0000
# 4 0.0000 0.0000 0.0000 34.4434 0.0000 0.0000
# 5 0.0000 0.0000 0.0000 0.0000 29.6140 0.0000
# 6 0.0000 0.0000 0.0000 0.0000 0.0000 -0.8310
#
#
#
# Elastic Compliance Matrix: (Units=1/GPa)
#
#
# Indices 1 2 3 4 5 6 
#
# 1 0.028936 -0.007774 -0.009329 0.000000 0.000000 0.000000
# 2 -0.007774 0.009776 -0.002376 0.000000 0.000000 0.000000
# 3 -0.009329 -0.002376 0.015049 0.000000 0.000000 0.000000
# 4 0.000000 0.000000 0.000000 0.029033 0.000000 0.000000
# 5 0.000000 0.000000 0.000000 0.000000 0.033768 0.000000
# 6 0.000000 0.000000 0.000000 0.000000 0.000000 -1.203415
#
#
# Mechanical properties :
#
#
# Convention : Reuss Voigt Hill
#
# Bulk Modulus (GPa) = 67.55920 83.39867 75.47893
# Shear Modulus (GPa) = -4.79404 23.44770 9.32683
#
# Velocity S-wave (km/s) = -1.60929 3.55904 2.24466
# Velocity P-wave (km/s) = 5.74834 7.87034 6.89150
#
# Compressibility (1/GPa) = 0.01480183
#
# Stress axis : x y z
#
# Youngs Moduli (GPa) = 34.55937 102.29491 66.44940
#
# Poissons Ratio (x) = 0.79529 0.61989
# Poissons Ratio (y) = 0.26868 0.15789
# Poissons Ratio (z) = 0.32239 0.24307
#
# Static dielectric constant tensor:
#      x y z
#    x 3.484830 0.000000 0.000000 
#    y 0.000000 3.855280 0.000000 
#    z 0.000000 0.000000 3.278260 
# 
# 
# High freq. dielectric constant tensor:
#      x y z
#    x 1.724570 0.000000 0.000000 
#    y 0.000000 1.752600 0.000000 
#    z 0.000000 0.000000 1.685660 
# 
# From -- ./inp_files/5520.got.cif
#   From: 2010.03.12/outbox.cif.g09.slc.cpg/sg51_3_cif.got.tgz:5520.got - 2010.04.16 13:43:02.
