data_PCOD8209693
_publ_section_title
;
Structure prediction by ZEFSAII (Michael W. Deem and Ramdas Pophale) SiO2 
 PCOD8209693
Probable space group: P M M A
;
_chemical_formula_sum "Si O2"
_cell_formula_units_Z 36
_cell_length_a 8.988043
_cell_length_b 23.145219
_cell_length_c 9.239724
_cell_angle_alpha 90.000000
_cell_angle_beta 90.000000
_cell_angle_gamma 90.000000
_cell_volume 1922.141850
_symmetry_space_group_name_H-M "P M M A"
_symmetry_group_IT_number 51
_symmetry_cell_setting 'orthorhombic'
loop_
_space_group_symop_operation_xyz
x,y,z
1/2-x,-y,z
1/2+x,-y,-z
-x,y,-z
-x,-y,-z
1/2+x,y,-z
1/2-x,y,z
x,-y,z
loop_
_atom_site_type_symbol
_atom_site_label
_atom_site_fract_x
_atom_site_fract_y
_atom_site_fract_z
Si Si1 0.575220 0.934751 0.350382
Si Si2 0.574230 0.374423 0.842398
Si Si3 0.580868 0.500000 0.851608
Si Si4 0.425561 0.722848 0.654159
Si Si5 0.923432 0.167481 0.151822
O O1 0.500000 0.916695 0.500000
O O2 0.750000 0.927983 0.374020
O O3 0.518241 0.891732 0.225442
O O4 0.531215 0.000000 0.305302
O O5 0.750000 0.360922 0.855800
O O6 0.544830 0.438903 0.772979
O O7 0.496939 0.331970 0.731257
O O8 0.500000 0.367739 0.000000
O O9 0.750000 0.500000 0.897297
O O10 0.500000 0.500000 0.000000
O O11 0.500000 0.731411 0.500000
O O12 0.250000 0.713324 0.636914
O O13 0.464180 0.779461 0.745572
O O14 0.750000 0.163591 0.122055
O O15 0.000000 0.177356 0.000000
#
# Coordination Sequence:
#
# PCOD8209693 Si02
#       5
#     8   8   4   8   8
#     4   9  18  34  55  79 107 139 175 214 257 307
#     4  10  19  34  56  82 110 140 176 217 261 311
#     4   8  16  30  51  78 107 138 172 212 258 308
#     4  11  23  38  55  77 105 139 178 220 268 319
#     4  10  22  37  54  78 107 138 174 217 263 311
#
# _framework density 18.729106999999999
#
# number of rings (size 3 to 8) (size 9 to 14) (size 15 to 20)
#    0.000    2.222    0.000    2.667    0.000    5.778 
#    0.000    0.556    0.000    0.000    0.000    0.000 
#    0.000    0.000    0.000    0.000    0.000    0.000 
#
# Total GULP energy -446240.298450 kJ/mol
# GULP energy per Si atom -12395.563846 kJ/mol
# Density = 1.868648 g / cm^3
# Si number density = 18.729107 Si / 1000 Ang^3
#
#
#
# Elastic Constant Matrix: (Units=GPa)
#
#
# Indices 1 2 3 4 5 6 
#
# 1 74.7381 69.1859 66.8454 0.0000 0.0000 0.0000
# 2 69.1859 157.4074 87.7623 0.0000 0.0000 0.0000
# 3 66.8454 87.7623 142.2095 0.0000 0.0000 0.0000
# 4 0.0000 0.0000 0.0000 27.8832 0.0000 0.0000
# 5 0.0000 0.0000 0.0000 0.0000 34.6950 0.0000
# 6 0.0000 0.0000 0.0000 0.0000 0.0000 18.6077
#
#
#
# Elastic Compliance Matrix: (Units=1/GPa)
#
#
# Indices 1 2 3 4 5 6 
#
# 1 0.027964 -0.007566 -0.008475 0.000000 0.000000 0.000000
# 2 -0.007566 0.011732 -0.003684 0.000000 0.000000 0.000000
# 3 -0.008475 -0.003684 0.013289 0.000000 0.000000 0.000000
# 4 0.000000 0.000000 0.000000 0.035864 0.000000 0.000000
# 5 0.000000 0.000000 0.000000 0.000000 0.028823 0.000000
# 6 0.000000 0.000000 0.000000 0.000000 0.000000 0.053741
#
#
# Mechanical properties :
#
#
# Convention : Reuss Voigt Hill
#
# Bulk Modulus (GPa) = 73.88137 91.32692 82.60414
# Shear Modulus (GPa) = 23.21516 26.27458 24.74487
#
# Velocity S-wave (km/s) = 3.52451 3.74956 3.63877
# Velocity P-wave (km/s) = 7.48972 8.22274 7.86477
#
# Compressibility (1/GPa) = 0.01353521
#
# Stress axis : x y z
#
# Youngs Moduli (GPa) = 35.76010 85.23341 75.24778
#
# Poissons Ratio (x) = 0.64485 0.63776
# Poissons Ratio (y) = 0.27055 0.27723
# Poissons Ratio (z) = 0.30308 0.31402
#
# Static dielectric constant tensor:
#      x y z
#    x 3.532880 0.000000 0.000000 
#    y 0.000000 3.713270 0.000000 
#    z 0.000000 0.000000 2.196960 
# 
# 
# High freq. dielectric constant tensor:
#      x y z
#    x 1.732580 0.000000 0.000000 
#    y 0.000000 1.752130 0.000000 
#    z 0.000000 0.000000 1.709170 
# 
# From -- ./inp_files/5237.got.cif
#   From: 2010.03.12/outbox.cif.g09.slc.cpg/sg51_3_cif.got.tgz:5237.got - 2010.04.16 13:43:02.
