data_PCOD8209834
_publ_section_title
;
Structure prediction by ZEFSAII (Michael W. Deem and Ramdas Pophale) SiO2 
 PCOD8209834
Probable space group: P M M A
;
_chemical_formula_sum "Si O2"
_cell_formula_units_Z 56
_cell_length_a 18.966048
_cell_length_b 15.794117
_cell_length_c 9.109560
_cell_angle_alpha 90.000000
_cell_angle_beta 90.000000
_cell_angle_gamma 90.000000
_cell_volume 2728.786745
_symmetry_space_group_name_H-M "P M M A"
_symmetry_group_IT_number 51
_symmetry_cell_setting 'orthorhombic'
loop_
_space_group_symop_operation_xyz
x,y,z
1/2-x,-y,z
1/2+x,-y,-z
-x,y,-z
-x,-y,-z
1/2+x,y,-z
1/2-x,y,z
x,-y,z
loop_
_atom_site_type_symbol
_atom_site_label
_atom_site_fract_x
_atom_site_fract_y
_atom_site_fract_z
Si Si1 0.458794 0.594889 0.351520
Si Si2 0.024229 0.260151 0.835235
Si Si3 0.473997 0.095676 0.336698
Si Si4 0.669414 0.090975 0.083971
Si Si5 0.169919 0.242653 0.725509
Si Si6 0.172607 0.310731 0.408293
Si Si7 0.169093 0.850047 0.229569
O O1 0.500000 0.610344 0.500000
O O2 0.469906 0.500000 0.289771
O O3 0.479762 0.664342 0.234081
O O4 0.377206 0.608629 0.392039
O O5 0.106953 0.287743 0.817167
O O6 0.009744 0.167995 0.763942
O O7 0.000000 0.253380 0.000000
O O8 0.500000 0.115115 0.500000
O O9 0.388221 0.100282 0.328250
O O10 0.496593 0.000000 0.289344
O O11 0.750000 0.072760 0.053141
O O12 0.642818 0.141563 0.939580
O O13 0.630161 0.000000 0.099452
O O14 0.660132 0.143521 0.233857
O O15 0.250000 0.272886 0.770713
O O16 0.156198 0.255083 0.553591
O O17 0.250000 0.350138 0.419083
O O18 0.165013 0.249045 0.268970
O O19 0.250000 0.883116 0.257035
#
# Coordination Sequence:
#
# PCOD8209834 Si02
#       7
#     8   8   8   8   8   8   8
#     4  11  23  43  69  92 120 159 199 249 314 381
#     4  12  24  40  65  93 126 168 208 255 314 368
#     4  11  23  38  58  86 125 170 211 259 311 359
#     4   9  18  33  53  81 118 159 206 254 295 348
#     4  10  21  37  59  87 122 163 207 253 308 368
#     4  10  20  37  63  93 121 157 206 257 312 369
#     4  10  19  34  59  86 115 159 208 253 305 363
#
# _framework density 20.521941000000002
#
# number of rings (size 3 to 8) (size 9 to 14) (size 15 to 20)
#    0.000    1.571    2.857    2.571    0.000    2.286 
#    0.000    1.429    0.000    8.143    0.000    0.000 
#    0.000    0.000    0.000    0.000    0.000    0.000 
#
# Total GULP energy -693807.189615 kJ/mol
# GULP energy per Si atom -12389.414100 kJ/mol
# Density = 2.047523 g / cm^3
# Si number density = 20.521941 Si / 1000 Ang^3
#
#
#
# Elastic Constant Matrix: (Units=GPa)
#
#
# Indices 1 2 3 4 5 6 
#
# 1 126.4877 42.2774 34.2520 0.0000 0.0000 0.0000
# 2 42.2774 101.6359 54.3166 0.0000 0.0000 0.0000
# 3 34.2520 54.3166 88.3325 0.0000 0.0000 0.0000
# 4 0.0000 0.0000 0.0000 -2.8809 0.0000 0.0000
# 5 0.0000 0.0000 0.0000 0.0000 22.9005 0.0000
# 6 0.0000 0.0000 0.0000 0.0000 0.0000 2.7292
#
#
#
# Elastic Compliance Matrix: (Units=1/GPa)
#
#
# Indices 1 2 3 4 5 6 
#
# 1 0.009380 -0.002916 -0.001844 0.000000 0.000000 0.000000
# 2 -0.002916 0.015562 -0.008438 0.000000 0.000000 0.000000
# 3 -0.001844 -0.008438 0.017225 0.000000 0.000000 0.000000
# 4 0.000000 0.000000 0.000000 -0.347113 0.000000 0.000000
# 5 0.000000 0.000000 0.000000 0.000000 0.043667 0.000000
# 6 0.000000 0.000000 0.000000 0.000000 0.000000 0.366408
#
#
# Mechanical properties :
#
#
# Convention : Reuss Voigt Hill
#
# Bulk Modulus (GPa) = 63.41411 64.23869 63.82640
# Shear Modulus (GPa) = 36.55472 16.92376 26.73924
#
# Velocity S-wave (km/s) = 4.22507 2.87482 3.61357
# Velocity P-wave (km/s) = 7.40063 6.51075 6.96990
#
# Compressibility (1/GPa) = 0.01576936
#
# Stress axis : x y z
#
# Youngs Moduli (GPa) = 106.60991 64.26010 58.05637
#
# Poissons Ratio (x) = 0.18741 0.10705
# Poissons Ratio (y) = 0.31091 0.48989
# Poissons Ratio (z) = 0.19658 0.54224
#
# Static dielectric constant tensor:
#      x y z
#    x 4.162020 0.000000 0.000000 
#    y 0.000000 3.554470 0.000000 
#    z 0.000000 0.000000 3.529840 
# 
# 
# High freq. dielectric constant tensor:
#      x y z
#    x 1.824250 0.000000 0.000000 
#    y 0.000000 1.771170 0.000000 
#    z 0.000000 0.000000 1.792940 
# 
# From -- ./inp_files/11027.got.cif
#   From: 2010.03.12/outbox.cif.g09.slc.cpg/sg51_6_cif.got.tgz:11027.got - 2010.04.16 13:43:02.
