data_PCOD8209278
_publ_section_title
;
Structure prediction by ZEFSAII (Michael W. Deem and Ramdas Pophale) SiO2 
 PCOD8209278
Probable space group: P M M A
;
_chemical_formula_sum "Si O2"
_cell_formula_units_Z 56
_cell_length_a 24.343704
_cell_length_b 8.764314
_cell_length_c 15.022356
_cell_angle_alpha 90.000000
_cell_angle_beta 90.000000
_cell_angle_gamma 90.000000
_cell_volume 3205.107770
_symmetry_space_group_name_H-M "P M M A"
_symmetry_group_IT_number 51
_symmetry_cell_setting 'orthorhombic'
loop_
_space_group_symop_operation_xyz
x,y,z
1/2-x,-y,z
1/2+x,-y,-z
-x,y,-z
-x,-y,-z
1/2+x,y,-z
1/2-x,y,z
x,-y,z
loop_
_atom_site_type_symbol
_atom_site_label
_atom_site_fract_x
_atom_site_fract_y
_atom_site_fract_z
Si Si1 0.250000 0.675033 0.021794
Si Si2 0.545395 0.679154 0.173054
Si Si3 0.538431 0.318962 0.370766
Si Si4 0.370378 0.676006 0.975223
Si Si5 0.750000 0.821655 0.789055
Si Si6 0.858522 0.320595 0.715973
Si Si7 0.575495 0.320188 0.553220
Si Si8 0.432502 0.179768 0.137203
O O1 0.250000 0.500000 0.053916
O O2 0.250000 0.778846 0.108301
O O3 0.305080 0.710434 0.965029
O O4 0.531619 0.500000 0.173020
O O5 0.554810 0.744460 0.273260
O O6 0.600945 0.714510 0.118589
O O7 0.495072 0.765081 0.124839
O O8 0.538748 0.500000 0.363976
O O9 0.580209 0.263356 0.450065
O O10 0.478768 0.254313 0.398269
O O11 0.380232 0.500000 0.001930
O O12 0.396319 0.780103 0.051428
O O13 0.697465 0.759438 0.739188
O O14 0.750000 0.000000 0.780825
O O15 0.852158 0.500000 0.729999
O O16 0.871850 0.276903 0.612985
O O17 0.908204 0.263518 0.776907
O O18 0.567463 0.500000 0.551139
O O19 0.430350 0.000000 0.151811
#
# Coordination Sequence:
#
# PCOD8209278 Si02
#       8
#     4   8   8   8   4   8   8   8
#     4  10  20  36  54  71  96 134 176 215 254 299
#     4  10  19  33  53  76 103 138 176 211 256 313
#     4   8  13  25  47  77 104 128 161 205 250 295
#     4  10  21  35  53  73  98 135 177 215 257 313
#     4  12  24  36  52  77 104 134 172 215 262 305
#     4  11  20  34  55  77 103 139 175 210 252 309
#     4   8  14  25  48  77 102 128 163 204 249 296
#     4  12  23  33  48  74 108 139 169 212 262 310
#
# _framework density 17.472111999999999
#
# number of rings (size 3 to 8) (size 9 to 14) (size 15 to 20)
#    0.000    2.000    2.857    3.643    0.000    2.286 
#    0.000    0.000    0.000    3.429    0.000    5.000 
#    0.000    1.143    0.000    0.000    0.000    0.000 
#
# Total GULP energy -694082.711733 kJ/mol
# GULP energy per Si atom -12394.334138 kJ/mol
# Density = 1.743234 g / cm^3
# Si number density = 17.472112 Si / 1000 Ang^3
#
#
#
# Elastic Constant Matrix: (Units=GPa)
#
#
# Indices 1 2 3 4 5 6 
#
# 1 127.4883 36.8262 63.1740 0.0000 0.0000 0.0000
# 2 36.8262 67.0372 28.9134 0.0000 0.0000 0.0000
# 3 63.1740 28.9134 115.0077 0.0000 0.0000 0.0000
# 4 0.0000 0.0000 0.0000 -2.1861 0.0000 0.0000
# 5 0.0000 0.0000 0.0000 0.0000 -15.6018 0.0000
# 6 0.0000 0.0000 0.0000 0.0000 0.0000 62.2335
#
#
#
# Elastic Compliance Matrix: (Units=1/GPa)
#
#
# Indices 1 2 3 4 5 6 
#
# 1 0.011703 -0.004101 -0.005398 0.000000 0.000000 0.000000
# 2 -0.004101 0.018168 -0.002315 0.000000 0.000000 0.000000
# 3 -0.005398 -0.002315 0.012242 0.000000 0.000000 0.000000
# 4 0.000000 0.000000 0.000000 -0.457446 0.000000 0.000000
# 5 0.000000 0.000000 0.000000 0.000000 -0.064095 0.000000
# 6 0.000000 0.000000 0.000000 0.000000 0.000000 0.016069
#
#
# Mechanical properties :
#
#
# Convention : Reuss Voigt Hill
#
# Bulk Modulus (GPa) = 54.09355 63.04006 58.56680
# Shear Modulus (GPa) = -11.53215 20.93043 4.69914
#
# Velocity S-wave (km/s) = -2.57190 3.46487 1.64175
# Velocity P-wave (km/s) = 4.71250 7.22259 6.09809
#
# Compressibility (1/GPa) = 0.01848649
#
# Stress axis : x y z
#
# Youngs Moduli (GPa) = 85.44748 55.04076 81.68648
#
# Poissons Ratio (x) = 0.22572 0.44091
# Poissons Ratio (y) = 0.35042 0.18910
# Poissons Ratio (z) = 0.46121 0.12741
#
# Static dielectric constant tensor:
#      x y z
#    x 3.271680 0.000000 0.000000 
#    y 0.000000 2.991510 0.000000 
#    z 0.000000 0.000000 3.630770 
# 
# 
# High freq. dielectric constant tensor:
#      x y z
#    x 1.659930 0.000000 0.000000 
#    y 0.000000 1.648210 0.000000 
#    z 0.000000 0.000000 1.677050 
# 
# From -- ./inp_files/25817.got.cif
#   From: 2010.03.12/outbox.cif.g09.slc.cpg/sg51_13_cif.got.tgz:25817.got - 2010.04.16 13:43:02.
