data_PCOD8209375
_publ_section_title
;
Structure prediction by ZEFSAII (Michael W. Deem and Ramdas Pophale) SiO2 
 PCOD8209375
Probable space group: P M M A
;
_chemical_formula_sum "Si O2"
_cell_formula_units_Z 56
_cell_length_a 19.532061
_cell_length_b 9.120240
_cell_length_c 16.326147
_cell_angle_alpha 90.000000
_cell_angle_beta 90.000000
_cell_angle_gamma 90.000000
_cell_volume 2908.292220
_symmetry_space_group_name_H-M "P M M A"
_symmetry_group_IT_number 51
_symmetry_cell_setting 'orthorhombic'
loop_
_space_group_symop_operation_xyz
x,y,z
1/2-x,-y,z
1/2+x,-y,-z
-x,y,-z
-x,-y,-z
1/2+x,y,-z
1/2-x,y,z
x,-y,z
loop_
_atom_site_type_symbol
_atom_site_label
_atom_site_fract_x
_atom_site_fract_y
_atom_site_fract_z
Si Si1 0.589985 0.327127 0.336144
Si Si2 0.827917 0.172476 0.475534
Si Si3 0.329089 0.828802 0.984979
Si Si4 0.053648 0.326229 0.068871
Si Si5 0.327269 0.670790 0.355038
Si Si6 0.045706 0.326977 0.252008
Si Si7 0.830004 0.335442 0.176420
O O1 0.594348 0.500000 0.354141
O O2 0.617210 0.241660 0.414458
O O3 0.512995 0.273539 0.314951
O O4 0.635836 0.280581 0.259272
O O5 0.750000 0.211277 0.448582
O O6 0.843176 0.236978 0.564426
O O7 0.839437 0.000000 0.478602
O O8 0.250000 0.790602 0.001325
O O9 0.352445 0.771615 0.896081
O O10 0.343689 0.000000 0.989154
O O11 0.372676 0.746025 0.053352
O O12 0.062262 0.500000 0.065243
O O13 0.031418 0.270464 0.159407
O O14 0.000000 0.271380 0.000000
O O15 0.250000 0.700301 0.323321
O O16 0.338000 0.500000 0.376232
O O17 0.380002 0.724156 0.284852
O O18 0.042279 0.500000 0.247994
O O19 0.750000 0.331635 0.191887
O O20 0.855240 0.500000 0.153870
#
# Coordination Sequence:
#
# PCOD8209375 Si02
#       7
#     8   8   8   8   8   8   8
#     4  10  19  33  54  79 108 138 172 215 261 313
#     4  10  21  36  54  78 108 140 173 210 255 308
#     4  10  21  35  51  75 107 141 178 221 269 320
#     4  10  20  36  58  81 107 140 179 223 270 321
#     4   9  18  35  57  77 100 134 177 220 260 306
#     4   9  19  34  54  81 106 133 174 222 268 310
#     4   9  17  30  50  75 102 136 177 217 260 312
#
# _framework density 19.255288
#
# number of rings (size 3 to 8) (size 9 to 14) (size 15 to 20)
#    0.000    2.429    0.000    2.143    0.000    6.571 
#    0.000    7.857    0.000    1.714    0.000    0.000 
#    0.000    0.000    0.000    0.000    0.000    0.000 
#
# Total GULP energy -694376.146448 kJ/mol
# GULP energy per Si atom -12399.574044 kJ/mol
# Density = 1.921146 g / cm^3
# Si number density = 19.255288 Si / 1000 Ang^3
#
#
#
# Elastic Constant Matrix: (Units=GPa)
#
#
# Indices 1 2 3 4 5 6 
#
# 1 105.7423 36.5565 79.1308 0.0000 0.0000 0.0000
# 2 36.5565 47.9479 37.5023 0.0000 0.0000 0.0000
# 3 79.1308 37.5023 124.5389 0.0000 0.0000 0.0000
# 4 0.0000 0.0000 0.0000 3.9834 0.0000 0.0000
# 5 0.0000 0.0000 0.0000 0.0000 37.0424 0.0000
# 6 0.0000 0.0000 0.0000 0.0000 0.0000 21.6493
#
#
#
# Elastic Compliance Matrix: (Units=1/GPa)
#
#
# Indices 1 2 3 4 5 6 
#
# 1 0.019591 -0.006803 -0.010399 0.000000 0.000000 0.000000
# 2 -0.006803 0.029644 -0.004604 0.000000 0.000000 0.000000
# 3 -0.010399 -0.004604 0.016024 0.000000 0.000000 0.000000
# 4 0.000000 0.000000 0.000000 0.251041 0.000000 0.000000
# 5 0.000000 0.000000 0.000000 0.000000 0.026996 0.000000
# 6 0.000000 0.000000 0.000000 0.000000 0.000000 0.046191
#
#
# Mechanical properties :
#
#
# Convention : Reuss Voigt Hill
#
# Bulk Modulus (GPa) = 46.19841 64.95646 55.57743
# Shear Modulus (GPa) = 11.35552 20.87100 16.11326
#
# Velocity S-wave (km/s) = 2.43108 3.29585 2.89593
# Velocity P-wave (km/s) = 5.65021 6.94918 6.33309
#
# Compressibility (1/GPa) = 0.02164577
#
# Stress axis : x y z
#
# Youngs Moduli (GPa) = 51.04375 33.73402 62.40716
#
# Poissons Ratio (x) = 0.22948 0.64900
# Poissons Ratio (y) = 0.34724 0.28734
# Poissons Ratio (z) = 0.53083 0.15532
#
# Static dielectric constant tensor:
#      x y z
#    x 3.779410 0.000000 0.000000 
#    y 0.000000 3.286080 0.000000 
#    z 0.000000 0.000000 3.568840 
# 
# 
# High freq. dielectric constant tensor:
#      x y z
#    x 1.758700 0.000000 0.000000 
#    y 0.000000 1.723280 0.000000 
#    z 0.000000 0.000000 1.746690 
# 
# From -- ./inp_files/25622.got.cif
#   From: 2010.03.12/outbox.cif.g09.slc.cpg/sg51_13_cif.got.tgz:25622.got - 2010.04.16 13:43:02.
