data_PCOD8209971
_publ_section_title
;
Structure prediction by ZEFSAII (Michael W. Deem and Ramdas Pophale) SiO2 
 PCOD8209971
Probable space group: P M M A
;
_chemical_formula_sum "Si O2"
_cell_formula_units_Z 64
_cell_length_a 19.875221
_cell_length_b 8.587100
_cell_length_c 19.943325
_cell_angle_alpha 90.000000
_cell_angle_beta 90.000000
_cell_angle_gamma 90.000000
_cell_volume 3403.737454
_symmetry_space_group_name_H-M "P M M A"
_symmetry_group_IT_number 51
_symmetry_cell_setting 'orthorhombic'
loop_
_space_group_symop_operation_xyz
x,y,z
1/2-x,-y,z
1/2+x,-y,-z
-x,y,-z
-x,-y,-z
1/2+x,y,-z
1/2-x,y,z
x,-y,z
loop_
_atom_site_type_symbol
_atom_site_label
_atom_site_fract_x
_atom_site_fract_y
_atom_site_fract_z
Si Si1 0.567803 0.682387 0.464618
Si Si2 0.327539 0.680640 0.053203
Si Si3 0.173052 0.819722 0.912077
Si Si4 0.893455 0.824125 0.694214
Si Si5 0.547501 0.823152 0.325510
Si Si6 0.923230 0.816058 0.837615
Si Si7 0.565549 0.318054 0.184208
Si Si8 0.327444 0.817619 0.436197
O O1 0.500000 0.746601 0.500000
O O2 0.561442 0.500000 0.452095
O O3 0.581389 0.763568 0.393435
O O4 0.631750 0.720093 0.509821
O O5 0.250000 0.725463 0.066867
O O6 0.341153 0.500000 0.066775
O O7 0.373765 0.781959 0.101711
O O8 0.347383 0.720559 0.977321
O O9 0.250000 0.785359 0.891523
O O10 0.126778 0.770316 0.850731
O O11 0.162226 0.000000 0.929453
O O12 0.890842 0.746528 0.768368
O O13 0.844213 0.749361 0.638432
O O14 0.967881 0.810786 0.664251
O O15 0.869730 0.000000 0.704278
O O16 0.570276 0.718872 0.262947
O O17 0.569943 0.000000 0.311377
O O18 0.995573 0.737529 0.848938
O O19 0.935883 0.000000 0.830207
O O20 0.573645 0.500000 0.172198
O O21 0.250000 0.789897 0.451941
O O22 0.347386 0.000000 0.440274
#
# Coordination Sequence:
#
# PCOD8209971 Si02
#       8
#     8   8   8   8   8   8   8   8
#     4  11  22  35  55  83 111 145 187 230 280 334
#     4  10  21  37  56  81 114 151 191 236 289 344
#     4  10  21  39  62  85 110 145 191 237 281 339
#     4   8  16  31  52  78 106 139 180 226 271 321
#     4  10  19  35  59  83 109 143 187 231 274 327
#     4  10  20  35  56  84 115 151 194 235 277 328
#     4  11  22  37  58  86 120 149 180 230 288 341
#     4  10  20  35  55  80 110 146 188 232 279 332
#
# _framework density 18.802859000000002
#
# number of rings (size 3 to 8) (size 9 to 14) (size 15 to 20)
#    0.000    2.000    1.250    3.750    0.000    3.250 
#    0.000    5.000    0.000    3.750    0.000    0.000 
#    0.000    0.000    0.000    0.000    0.000    0.000 
#
# Total GULP energy -793638.878565 kJ/mol
# GULP energy per Si atom -12400.607478 kJ/mol
# Density = 1.876006 g / cm^3
# Si number density = 18.802859 Si / 1000 Ang^3
#
#
#
# Elastic Constant Matrix: (Units=GPa)
#
#
# Indices 1 2 3 4 5 6 
#
# 1 81.9982 18.6823 52.0564 0.0000 0.0000 0.0000
# 2 18.6823 49.5286 12.7963 0.0000 0.0000 0.0000
# 3 52.0564 12.7963 98.3261 0.0000 0.0000 0.0000
# 4 0.0000 0.0000 0.0000 27.8089 0.0000 0.0000
# 5 0.0000 0.0000 0.0000 0.0000 31.2550 0.0000
# 6 0.0000 0.0000 0.0000 0.0000 0.0000 26.0056
#
#
#
# Elastic Compliance Matrix: (Units=1/GPa)
#
#
# Indices 1 2 3 4 5 6 
#
# 1 0.019427 -0.004833 -0.009656 0.000000 0.000000 0.000000
# 2 -0.004833 0.022095 -0.000317 0.000000 0.000000 0.000000
# 3 -0.009656 -0.000317 0.015324 0.000000 0.000000 0.000000
# 4 0.000000 0.000000 0.000000 0.035960 0.000000 0.000000
# 5 0.000000 0.000000 0.000000 0.000000 0.031995 0.000000
# 6 0.000000 0.000000 0.000000 0.000000 0.000000 0.038453
#
#
# Mechanical properties :
#
#
# Convention : Reuss Voigt Hill
#
# Bulk Modulus (GPa) = 36.71897 44.10252 40.41075
# Shear Modulus (GPa) = 24.75950 26.76844 25.76397
#
# Velocity S-wave (km/s) = 3.63270 3.77720 3.70566
# Velocity P-wave (km/s) = 6.09641 6.52144 6.31250
#
# Compressibility (1/GPa) = 0.02723388
#
# Stress axis : x y z
#
# Youngs Moduli (GPa) = 51.47582 45.25868 65.25889
#
# Poissons Ratio (x) = 0.21874 0.63014
# Poissons Ratio (y) = 0.24878 0.02067
# Poissons Ratio (z) = 0.49705 0.01434
#
# Static dielectric constant tensor:
#      x y z
#    x 3.290510 0.000000 0.000000 
#    y 0.000000 3.358490 0.000000 
#    z 0.000000 0.000000 3.508880 
# 
# 
# High freq. dielectric constant tensor:
#      x y z
#    x 1.715280 0.000000 0.000000 
#    y 0.000000 1.725500 0.000000 
#    z 0.000000 0.000000 1.739420 
# 
# From -- ./inp_files/33987.got.cif
#   From: 2010.03.12/outbox.cif.g09.slc.cpg/sg51_17_cif.got.tgz:33987.got - 2010.04.16 13:43:02.
