data_PCOD8209067
_publ_section_title
;
Structure prediction by ZEFSAII (Michael W. Deem and Ramdas Pophale) SiO2 
 PCOD8209067
Probable space group: P M M A
;
_chemical_formula_sum "Si O2"
_cell_formula_units_Z 56
_cell_length_a 18.597432
_cell_length_b 9.015033
_cell_length_c 17.261759
_cell_angle_alpha 90.000000
_cell_angle_beta 90.000000
_cell_angle_gamma 90.000000
_cell_volume 2894.045462
_symmetry_space_group_name_H-M "P M M A"
_symmetry_group_IT_number 51
_symmetry_cell_setting 'orthorhombic'
loop_
_space_group_symop_operation_xyz
x,y,z
1/2-x,-y,z
1/2+x,-y,-z
-x,y,-z
-x,-y,-z
1/2+x,y,-z
1/2-x,y,z
x,-y,z
loop_
_atom_site_type_symbol
_atom_site_label
_atom_site_fract_x
_atom_site_fract_y
_atom_site_fract_z
Si Si1 0.332633 0.830305 0.735241
Si Si2 0.332014 0.170384 0.469809
Si Si3 0.082956 0.325449 0.604735
Si Si4 0.446006 0.176661 0.169895
Si Si5 0.903835 0.826983 0.106839
Si Si6 0.668794 0.176978 0.952369
Si Si7 0.445450 0.828848 0.344886
O O1 0.250000 0.801034 0.716094
O O2 0.380003 0.720617 0.684769
O O3 0.347100 0.795824 0.824977
O O4 0.354341 0.000000 0.716158
O O5 0.250000 0.223019 0.461806
O O6 0.370989 0.269488 0.532975
O O7 0.368431 0.191063 0.385866
O O8 0.336747 0.000000 0.497308
O O9 0.076990 0.500000 0.599630
O O10 0.003132 0.258388 0.603129
O O11 0.518150 0.240836 0.129021
O O12 0.376199 0.231032 0.122412
O O13 0.440644 0.236789 0.257864
O O14 0.449039 0.000000 0.171675
O O15 0.914837 0.000000 0.092357
O O16 0.870854 0.756779 0.028617
O O17 0.750000 0.240016 0.946548
O O18 0.671203 0.000000 0.957092
O O19 0.469315 0.000000 0.342588
#
# Coordination Sequence:
#
# PCOD8209067 Si02
#       7
#     8   8   8   8   8   8   8
#     4  10  19  32  53  78 106 142 180 218 264 321
#     4  10  22  39  59  82 108 140 178 220 269 325
#     4  12  24  37  55  80 110 141 178 223 272 322
#     4   9  16  27  46  70 100 139 177 213 258 313
#     4   9  15  26  44  69 103 139 175 212 259 318
#     4   9  16  24  38  69 110 142 169 212 268 317
#     4  10  20  37  59  81 107 143 183 222 265 318
#
# _framework density 19.350076000000001
#
# number of rings (size 3 to 8) (size 9 to 14) (size 15 to 20)
#    0.000    2.143    1.429    3.000    0.000    8.571 
#    0.000    2.857    0.000    0.000    0.000    2.000 
#    0.000    1.143    0.000    0.000    0.000    0.000 
#
# Total GULP energy -694397.378832 kJ/mol
# GULP energy per Si atom -12399.953193 kJ/mol
# Density = 1.930603 g / cm^3
# Si number density = 19.350076 Si / 1000 Ang^3
#
#
#
# Elastic Constant Matrix: (Units=GPa)
#
#
# Indices 1 2 3 4 5 6 
#
# 1 147.8299 34.8669 75.9235 0.0000 0.0000 0.0000
# 2 34.8669 50.3816 33.4192 0.0000 0.0000 0.0000
# 3 75.9235 33.4192 110.2040 0.0000 0.0000 0.0000
# 4 0.0000 0.0000 0.0000 0.4218 0.0000 0.0000
# 5 0.0000 0.0000 0.0000 0.0000 35.5243 0.0000
# 6 0.0000 0.0000 0.0000 0.0000 0.0000 3.5631
#
#
#
# Elastic Compliance Matrix: (Units=1/GPa)
#
#
# Indices 1 2 3 4 5 6 
#
# 1 0.010865 -0.003197 -0.006516 0.000000 0.000000 0.000000
# 2 -0.003197 0.025787 -0.005617 0.000000 0.000000 0.000000
# 3 -0.006516 -0.005617 0.015266 0.000000 0.000000 0.000000
# 4 0.000000 0.000000 0.000000 2.370571 0.000000 0.000000
# 5 0.000000 0.000000 0.000000 0.000000 0.028150 0.000000
# 6 0.000000 0.000000 0.000000 0.000000 0.000000 0.280658
#
#
# Mechanical properties :
#
#
# Convention : Reuss Voigt Hill
#
# Bulk Modulus (GPa) = 47.04060 66.31497 56.67779
# Shear Modulus (GPa) = 1.80568 18.84889 10.32728
#
# Velocity S-wave (km/s) = 0.96705 3.12444 2.31272
# Velocity P-wave (km/s) = 5.06063 6.88199 6.04035
#
# Compressibility (1/GPa) = 0.02125823
#
# Stress axis : x y z
#
# Youngs Moduli (GPa) = 92.03845 38.77895 65.50300
#
# Poissons Ratio (x) = 0.12398 0.42680
# Poissons Ratio (y) = 0.29426 0.36795
# Poissons Ratio (z) = 0.59970 0.21783
#
# Static dielectric constant tensor:
#      x y z
#    x 3.773390 0.000000 0.000000 
#    y 0.000000 2.940590 0.000000 
#    z 0.000000 0.000000 3.689280 
# 
# 
# High freq. dielectric constant tensor:
#      x y z
#    x 1.767020 0.000000 0.000000 
#    y 0.000000 1.682740 0.000000 
#    z 0.000000 0.000000 1.765030 
# 
# From -- ./inp_files/25719.got.cif
#   From: 2010.03.12/outbox.cif.g09.slc.cpg/sg51_13_cif.got.tgz:25719.got - 2010.04.16 13:43:02.
