data_PCOD8209019
_publ_section_title
;
Structure prediction by ZEFSAII (Michael W. Deem and Ramdas Pophale) SiO2 
 PCOD8209019
Probable space group: P M M A
;
_chemical_formula_sum "Si O2"
_cell_formula_units_Z 64
_cell_length_a 8.868022
_cell_length_b 24.535014
_cell_length_c 15.270721
_cell_angle_alpha 90.000000
_cell_angle_beta 90.000000
_cell_angle_gamma 90.000000
_cell_volume 3322.558334
_symmetry_space_group_name_H-M "P M M A"
_symmetry_group_IT_number 51
_symmetry_cell_setting 'orthorhombic'
loop_
_space_group_symop_operation_xyz
x,y,z
1/2-x,-y,z
1/2+x,-y,-z
-x,y,-z
-x,-y,-z
1/2+x,y,-z
1/2-x,y,z
x,-y,z
loop_
_atom_site_type_symbol
_atom_site_label
_atom_site_fract_x
_atom_site_fract_y
_atom_site_fract_z
Si Si1 0.423023 0.937648 0.725845
Si Si2 0.927057 0.897825 0.083638
Si Si3 0.573278 0.767139 0.318578
Si Si4 0.427136 0.860309 0.411246
Si Si5 0.425125 0.207520 0.142470
Si Si6 0.427896 0.352340 0.732602
Si Si7 0.575919 0.329282 0.911097
Si Si8 0.427541 0.561963 0.590027
O O1 0.250000 0.920703 0.708389
O O2 0.462584 0.930987 0.828240
O O3 0.529957 0.899722 0.668496
O O4 0.452007 0.000000 0.699309
O O5 0.750000 0.889095 0.070202
O O6 0.013686 0.840013 0.081419
O O7 0.000000 0.929552 0.000000
O O8 0.750000 0.773699 0.333875
O O9 0.487077 0.798619 0.396036
O O10 0.526971 0.796353 0.228882
O O11 0.523513 0.703935 0.314861
O O12 0.500000 0.883583 0.500000
O O13 0.250000 0.858969 0.422133
O O14 0.250000 0.199497 0.167403
O O15 0.451285 0.264717 0.094286
O O16 0.250000 0.353400 0.748181
O O17 0.505073 0.359132 0.826855
O O18 0.484358 0.401212 0.670582
O O19 0.750000 0.344808 0.914122
O O20 0.500000 0.351363 0.000000
O O21 0.500000 0.583255 0.500000
O O22 0.250000 0.567189 0.579144
O O23 0.477905 0.500000 0.609488
#
# Coordination Sequence:
#
# PCOD8209019 Si02
#       8
#     8   8   8   8   8   8   8   8
#     4  10  23  44  65  84 110 144 183 230 281 332
#     4  11  22  35  56  83 113 147 183 225 272 326
#     4  10  19  34  55  81 115 149 182 222 274 329
#     4  12  25  41  63  87 113 145 184 227 278 336
#     4  10  19  32  52  79 110 145 184 223 270 326
#     4   9  19  34  54  81 114 152 189 229 279 331
#     4  10  20  32  49  76 111 150 190 231 276 326
#     4   9  18  34  56  82 112 147 188 234 282 332
#
# _framework density 19.262264999999999
#
# number of rings (size 3 to 8) (size 9 to 14) (size 15 to 20)
#    0.000    1.875    1.250    3.000    0.000    5.250 
#    0.000    1.250    0.000    0.375    0.000    0.000 
#    0.000    0.000    0.000    0.000    0.000    0.000 
#
# Total GULP energy -793721.899135 kJ/mol
# GULP energy per Si atom -12401.904674 kJ/mol
# Density = 1.921842 g / cm^3
# Si number density = 19.262265 Si / 1000 Ang^3
#
#
#
# Elastic Constant Matrix: (Units=GPa)
#
#
# Indices 1 2 3 4 5 6 
#
# 1 95.1108 34.2099 59.0937 0.0000 0.0000 0.0000
# 2 34.2099 72.7703 52.7353 0.0000 0.0000 0.0000
# 3 59.0937 52.7353 125.4461 0.0000 0.0000 0.0000
# 4 0.0000 0.0000 0.0000 17.2079 0.0000 0.0000
# 5 0.0000 0.0000 0.0000 0.0000 37.6227 0.0000
# 6 0.0000 0.0000 0.0000 0.0000 0.0000 17.0750
#
#
#
# Elastic Compliance Matrix: (Units=1/GPa)
#
#
# Indices 1 2 3 4 5 6 
#
# 1 0.015258 -0.002825 -0.006000 0.000000 0.000000 0.000000
# 2 -0.002825 0.020285 -0.007197 0.000000 0.000000 0.000000
# 3 -0.006000 -0.007197 0.013823 0.000000 0.000000 0.000000
# 4 0.000000 0.000000 0.000000 0.058113 0.000000 0.000000
# 5 0.000000 0.000000 0.000000 0.000000 0.026580 0.000000
# 6 0.000000 0.000000 0.000000 0.000000 0.000000 0.058565
#
#
# Mechanical properties :
#
#
# Convention : Reuss Voigt Hill
#
# Bulk Modulus (GPa) = 57.72595 65.04498 61.38546
# Shear Modulus (GPa) = 21.69741 24.20035 22.94888
#
# Velocity S-wave (km/s) = 3.35986 3.54836 3.45540
# Velocity P-wave (km/s) = 6.71454 7.11542 6.91788
#
# Compressibility (1/GPa) = 0.01732323
#
# Stress axis : x y z
#
# Youngs Moduli (GPa) = 65.53933 49.29685 72.34083
#
# Poissons Ratio (x) = 0.13925 0.43405
# Poissons Ratio (y) = 0.18513 0.52063
# Poissons Ratio (z) = 0.39324 0.35478
#
# Static dielectric constant tensor:
#      x y z
#    x 3.476500 0.000000 0.000000 
#    y 0.000000 3.432090 0.000000 
#    z 0.000000 0.000000 3.590100 
# 
# 
# High freq. dielectric constant tensor:
#      x y z
#    x 1.752730 0.000000 0.000000 
#    y 0.000000 1.725640 0.000000 
#    z 0.000000 0.000000 1.755940 
# 
# From -- ./inp_files/22253.got.cif
#   From: 2010.03.12/outbox.cif.g09.slc.cpg/sg51_12_cif.got.tgz:22253.got - 2010.04.16 13:43:02.
