data_PCOD8209191
_publ_section_title
;
Structure prediction by ZEFSAII (Michael W. Deem and Ramdas Pophale) SiO2 
 PCOD8209191
Probable space group: P M M A
;
_chemical_formula_sum "Si O2"
_cell_formula_units_Z 64
_cell_length_a 8.947625
_cell_length_b 23.037646
_cell_length_c 19.004844
_cell_angle_alpha 90.000000
_cell_angle_beta 90.000000
_cell_angle_gamma 90.000000
_cell_volume 3917.510633
_symmetry_space_group_name_H-M "P M M A"
_symmetry_group_IT_number 51
_symmetry_cell_setting 'orthorhombic'
loop_
_space_group_symop_operation_xyz
x,y,z
1/2-x,-y,z
1/2+x,-y,-z
-x,y,-z
-x,-y,-z
1/2+x,y,-z
1/2-x,y,z
x,-y,z
loop_
_atom_site_type_symbol
_atom_site_label
_atom_site_fract_x
_atom_site_fract_y
_atom_site_fract_z
Si Si1 0.927305 0.891870 0.071434
Si Si2 0.075490 0.241339 0.930620
Si Si3 0.579121 0.066571 0.790400
Si Si4 0.925825 0.223674 0.575403
Si Si5 0.424267 0.566935 0.572351
Si Si6 0.576251 0.661144 0.660052
Si Si7 0.077970 0.276765 0.779975
Si Si8 0.423841 0.840334 0.697761
O O1 0.750000 0.900103 0.069203
O O2 0.975515 0.824909 0.080614
O O3 0.993045 0.927389 0.136191
O O4 0.000000 0.916862 0.000000
O O5 0.250000 0.243998 0.942839
O O6 0.029664 0.278317 0.861821
O O7 0.000000 0.268689 0.000000
O O8 0.750000 0.087720 0.799280
O O9 0.499139 0.102664 0.729249
O O10 0.572465 0.000000 0.766532
O O11 0.750000 0.213227 0.569722
O O12 0.963317 0.286683 0.607222
O O13 0.000000 0.219315 0.500000
O O14 0.996911 0.174127 0.624132
O O15 0.500000 0.587218 0.500000
O O16 0.250000 0.578901 0.564572
O O17 0.460154 0.500000 0.588506
O O18 0.488943 0.603884 0.636471
O O19 0.750000 0.646862 0.661382
O O20 0.524056 0.677557 0.738526
O O21 0.250000 0.294870 0.769817
O O22 0.052261 0.211661 0.752728
O O23 0.250000 0.852317 0.683977
#
# Coordination Sequence:
#
# PCOD8209191 Si02
#       8
#     8   8   8   8   8   8   8   8
#     4  10  19  33  50  70  93 122 158 195 236 282
#     4   9  17  29  45  68  94 124 157 192 235 284
#     4  11  23  36  50  69  93 122 156 195 237 285
#     4  10  20  33  50  75 101 126 156 192 237 286
#     4  10  20  33  49  69  97 136 175 208 242 279
#     4  10  20  31  47  73 101 131 166 202 240 278
#     4   9  17  31  48  68  96 126 158 197 241 285
#     4  10  19  34  53  71  93 121 154 193 238 287
#
# _framework density 16.336905000000002
#
# number of rings (size 3 to 8) (size 9 to 14) (size 15 to 20)
#    0.000    2.125    1.250    2.625    0.000    6.000 
#    0.000    0.000    0.000    0.375    0.000    0.000 
#    0.000    0.500    0.000    1.625    0.000    2.000 
#
# Total GULP energy -793797.296953 kJ/mol
# GULP energy per Si atom -12403.082765 kJ/mol
# Density = 1.629972 g / cm^3
# Si number density = 16.336905 Si / 1000 Ang^3
#
#
#
# Elastic Constant Matrix: (Units=GPa)
#
#
# Indices 1 2 3 4 5 6 
#
# 1 92.4151 42.5269 53.7762 0.0000 0.0000 0.0000
# 2 42.5269 64.4138 44.2121 0.0000 0.0000 0.0000
# 3 53.7762 44.2121 122.7076 0.0000 0.0000 0.0000
# 4 0.0000 0.0000 0.0000 22.8794 0.0000 0.0000
# 5 0.0000 0.0000 0.0000 0.0000 34.5199 0.0000
# 6 0.0000 0.0000 0.0000 0.0000 0.0000 23.8069
#
#
#
# Elastic Compliance Matrix: (Units=1/GPa)
#
#
# Indices 1 2 3 4 5 6 
#
# 1 0.017303 -0.008262 -0.004606 0.000000 0.000000 0.000000
# 2 -0.008262 0.024571 -0.005232 0.000000 0.000000 0.000000
# 3 -0.004606 -0.005232 0.012053 0.000000 0.000000 0.000000
# 4 0.000000 0.000000 0.000000 0.043707 0.000000 0.000000
# 5 0.000000 0.000000 0.000000 0.000000 0.028969 0.000000
# 6 0.000000 0.000000 0.000000 0.000000 0.000000 0.042005
#
#
# Mechanical properties :
#
#
# Convention : Reuss Voigt Hill
#
# Bulk Modulus (GPa) = 56.41369 62.28521 59.34945
# Shear Modulus (GPa) = 23.72851 25.50933 24.61892
#
# Velocity S-wave (km/s) = 3.81523 3.95581 3.88616
# Velocity P-wave (km/s) = 7.34945 7.68588 7.51955
#
# Compressibility (1/GPa) = 0.01772619
#
# Stress axis : x y z
#
# Youngs Moduli (GPa) = 57.79328 40.69905 82.96565
#
# Poissons Ratio (x) = 0.33626 0.38215
# Poissons Ratio (y) = 0.47750 0.43408
# Poissons Ratio (z) = 0.26620 0.21294
#
# Static dielectric constant tensor:
#      x y z
#    x 3.191670 0.000000 0.000000 
#    y 0.000000 2.835010 0.000000 
#    z 0.000000 0.000000 3.050200 
# 
# 
# High freq. dielectric constant tensor:
#      x y z
#    x 1.644730 0.000000 0.000000 
#    y 0.000000 1.592420 0.000000 
#    z 0.000000 0.000000 1.627090 
# 
# From -- ./inp_files/28483.got.cif
#   From: 2010.03.12/outbox.cif.g09.slc.cpg/sg51_15_cif.got.tgz:28483.got - 2010.04.16 13:43:02.
