data_PCOD8209979
_publ_section_title
;
Structure prediction by ZEFSAII (Michael W. Deem and Ramdas Pophale) SiO2 
 PCOD8209979
Probable space group: P M M A
;
_chemical_formula_sum "Si O2"
_cell_formula_units_Z 64
_cell_length_a 24.928883
_cell_length_b 8.971530
_cell_length_c 14.768275
_cell_angle_alpha 90.000000
_cell_angle_beta 90.000000
_cell_angle_gamma 90.000000
_cell_volume 3302.927978
_symmetry_space_group_name_H-M "P M M A"
_symmetry_group_IT_number 51
_symmetry_cell_setting 'orthorhombic'
loop_
_space_group_symop_operation_xyz
x,y,z
1/2-x,-y,z
1/2+x,-y,-z
-x,y,-z
-x,-y,-z
1/2+x,y,-z
1/2-x,y,z
x,-y,z
loop_
_atom_site_type_symbol
_atom_site_label
_atom_site_fract_x
_atom_site_fract_y
_atom_site_fract_z
Si Si1 0.605311 0.831366 0.660113
Si Si2 0.190466 0.670319 0.826915
Si Si3 0.508778 0.831186 0.784998
Si Si4 0.060137 0.177935 0.521768
Si Si5 0.054719 0.665934 0.052290
Si Si6 0.845586 0.176547 0.999496
Si Si7 0.590311 0.324348 0.291213
Si Si8 0.189877 0.823017 0.198626
O O1 0.543890 0.826124 0.694289
O O2 0.600628 0.765776 0.558403
O O3 0.648457 0.751282 0.727258
O O4 0.625477 0.000000 0.653320
O O5 0.250000 0.685121 0.783916
O O6 0.177843 0.500000 0.854561
O O7 0.147127 0.723898 0.752583
O O8 0.190711 0.770038 0.917409
O O9 0.548754 0.769765 0.860674
O O10 0.456519 0.728775 0.776401
O O11 0.491102 0.000000 0.807837
O O12 0.083850 0.245197 0.613004
O O13 0.000000 0.235315 0.500000
O O14 0.060130 0.000000 0.530361
O O15 0.073924 0.500000 0.080147
O O16 0.096862 0.745854 0.986183
O O17 0.000000 0.655363 0.000000
O O18 0.822458 0.234118 0.903042
O O19 0.850838 0.000000 0.002466
O O20 0.585963 0.500000 0.304682
O O21 0.250000 0.773646 0.225625
O O22 0.183936 0.000000 0.196852
#
# Coordination Sequence:
#
# PCOD8209979 Si02
#       8
#     8   8   8   8   8   8   8   8
#     4   9  17  32  53  79 111 145 180 221 280 342
#     4  10  23  43  61  78 111 158 198 236 288 344
#     4  11  20  35  57  82 114 148 185 231 287 344
#     4  10  19  35  59  84 114 150 184 226 284 347
#     4  11  23  36  50  76 116 157 193 232 283 343
#     4  11  21  35  58  87 114 146 194 244 287 335
#     4  11  23  38  58  86 115 147 191 238 288 347
#     4   9  17  31  53  82 114 145 181 228 278 330
#
# _framework density 19.376746000000001
#
# number of rings (size 3 to 8) (size 9 to 14) (size 15 to 20)
#    0.000    1.750    2.500    2.625    0.000    6.000 
#    0.000    0.625    0.000    0.750    0.000    0.000 
#    0.000    0.000    0.000    0.000    0.000    0.000 
#
# Total GULP energy -793416.824874 kJ/mol
# GULP energy per Si atom -12397.137889 kJ/mol
# Density = 1.933264 g / cm^3
# Si number density = 19.376746 Si / 1000 Ang^3
#
#
#
# Elastic Constant Matrix: (Units=GPa)
#
#
# Indices 1 2 3 4 5 6 
#
# 1 124.6310 28.6811 51.6716 0.0000 0.0000 0.0000
# 2 28.6811 54.3573 33.3684 0.0000 0.0000 0.0000
# 3 51.6716 33.3684 113.4216 0.0000 0.0000 0.0000
# 4 0.0000 0.0000 0.0000 21.8466 0.0000 0.0000
# 5 0.0000 0.0000 0.0000 0.0000 23.4270 0.0000
# 6 0.0000 0.0000 0.0000 0.0000 0.0000 17.1860
#
#
#
# Elastic Compliance Matrix: (Units=1/GPa)
#
#
# Indices 1 2 3 4 5 6 
#
# 1 0.010308 -0.003120 -0.003778 0.000000 0.000000 0.000000
# 2 -0.003120 0.023396 -0.005462 0.000000 0.000000 0.000000
# 3 -0.003778 -0.005462 0.012145 0.000000 0.000000 0.000000
# 4 0.000000 0.000000 0.000000 0.045774 0.000000 0.000000
# 5 0.000000 0.000000 0.000000 0.000000 0.042686 0.000000
# 6 0.000000 0.000000 0.000000 0.000000 0.000000 0.058187
#
#
# Mechanical properties :
#
#
# Convention : Reuss Voigt Hill
#
# Bulk Modulus (GPa) = 47.32780 57.76135 52.54457
# Shear Modulus (GPa) = 22.29582 24.40449 23.35016
#
# Velocity S-wave (km/s) = 3.39580 3.55276 3.47516
# Velocity P-wave (km/s) = 6.31295 6.83402 6.57864
#
# Compressibility (1/GPa) = 0.02112923
#
# Stress axis : x y z
#
# Youngs Moduli (GPa) = 97.01156 42.74304 82.33995
#
# Poissons Ratio (x) = 0.13334 0.31110
# Poissons Ratio (y) = 0.30263 0.44972
# Poissons Ratio (z) = 0.36654 0.23345
#
# Static dielectric constant tensor:
#      x y z
#    x 3.659740 0.000000 0.000000 
#    y 0.000000 3.382580 0.000000 
#    z 0.000000 0.000000 3.733320 
# 
# 
# High freq. dielectric constant tensor:
#      x y z
#    x 1.753740 0.000000 0.000000 
#    y 0.000000 1.729900 0.000000 
#    z 0.000000 0.000000 1.754090 
# 
# From -- ./inp_files/26260.got.cif
#   From: 2010.03.12/outbox.cif.g09.slc.cpg/sg51_14_cif.got.tgz:26260.got - 2010.04.16 13:43:02.
