data_PCOD8209683
_publ_section_title
;
Structure prediction by ZEFSAII (Michael W. Deem and Ramdas Pophale) SiO2 
 PCOD8209683
Probable space group: P M M A
;
_chemical_formula_sum "Si O2"
_cell_formula_units_Z 64
_cell_length_a 20.022087
_cell_length_b 18.671110
_cell_length_c 9.112242
_cell_angle_alpha 90.000000
_cell_angle_beta 90.000000
_cell_angle_gamma 90.000000
_cell_volume 3406.471241
_symmetry_space_group_name_H-M "P M M A"
_symmetry_group_IT_number 51
_symmetry_cell_setting 'orthorhombic'
loop_
_space_group_symop_operation_xyz
x,y,z
1/2-x,-y,z
1/2+x,-y,-z
-x,y,-z
-x,-y,-z
1/2+x,y,-z
1/2-x,y,z
x,-y,z
loop_
_atom_site_type_symbol
_atom_site_label
_atom_site_fract_x
_atom_site_fract_y
_atom_site_fract_z
Si Si1 0.436651 0.677821 0.582771
Si Si2 0.935824 0.658465 0.091996
Si Si3 0.174536 0.081017 0.430451
Si Si4 0.826377 0.312722 0.655567
Si Si5 0.174412 0.824699 0.159890
Si Si6 0.060766 0.844750 0.597582
Si Si7 0.566297 0.171907 0.077401
Si Si8 0.826039 0.581470 0.911388
O O1 0.500000 0.643652 0.500000
O O2 0.434909 0.635242 0.737062
O O3 0.368609 0.671415 0.490212
O O4 0.450731 0.760824 0.608399
O O5 0.933880 0.743219 0.089637
O O6 0.869113 0.625768 0.025938
O O7 0.000000 0.629903 0.000000
O O8 0.250000 0.086131 0.490554
O O9 0.171968 0.105736 0.262326
O O10 0.130780 0.134558 0.526571
O O11 0.147360 0.000000 0.440873
O O12 0.750000 0.296534 0.608407
O O13 0.854183 0.244693 0.750236
O O14 0.832290 0.384228 0.750931
O O15 0.250000 0.807279 0.108607
O O16 0.131483 0.846332 0.018368
O O17 0.065258 0.870074 0.766976
O O18 0.000000 0.878658 0.500000
O O19 0.500000 0.143444 0.000000
O O20 0.750000 0.585479 0.967369
O O21 0.851369 0.500000 0.901138
#
# Coordination Sequence:
#
# PCOD8209683 Si02
#       8
#     8   8   8   8   8   8   8   8
#     4  10  20  32  55  84 110 140 181 230 276 316
#     4  10  20  34  54  81 111 143 181 226 272 323
#     4  10  21  37  56  78 109 148 182 218 274 334
#     4  10  19  34  56  81 108 140 182 228 270 318
#     4  10  19  34  56  81 108 140 182 228 270 318
#     4  10  20  34  54  81 111 143 181 226 272 323
#     4  10  20  32  55  84 110 140 181 230 276 316
#     4  10  21  37  56  78 109 148 182 218 274 334
#
# _framework density 18.787769999999998
#
# number of rings (size 3 to 8) (size 9 to 14) (size 15 to 20)
#    0.000    2.000    2.500    1.500    3.500    1.500 
#    0.000    3.750    0.000    6.000    0.000    0.000 
#    0.000    0.000    0.000    0.000    0.000    0.000 
#
# Total GULP energy -793380.820605 kJ/mol
# GULP energy per Si atom -12396.575322 kJ/mol
# Density = 1.874501 g / cm^3
# Si number density = 18.787770 Si / 1000 Ang^3
#
#
#
# Elastic Constant Matrix: (Units=GPa)
#
#
# Indices 1 2 3 4 5 6 
#
# 1 105.3632 15.1955 68.5452 0.0000 0.0000 0.0000
# 2 15.1955 26.6480 16.3839 0.0000 0.0000 0.0000
# 3 68.5452 16.3839 138.6826 0.0000 0.0000 0.0000
# 4 0.0000 0.0000 0.0000 13.9536 0.0000 0.0000
# 5 0.0000 0.0000 0.0000 0.0000 32.2032 0.0000
# 6 0.0000 0.0000 0.0000 0.0000 0.0000 9.7625
#
#
#
# Elastic Compliance Matrix: (Units=1/GPa)
#
#
# Indices 1 2 3 4 5 6 
#
# 1 0.014400 -0.004136 -0.006629 0.000000 0.000000 0.000000
# 2 -0.004136 0.041653 -0.002877 0.000000 0.000000 0.000000
# 3 -0.006629 -0.002877 0.010827 0.000000 0.000000 0.000000
# 4 0.000000 0.000000 0.000000 0.071666 0.000000 0.000000
# 5 0.000000 0.000000 0.000000 0.000000 0.031053 0.000000
# 6 0.000000 0.000000 0.000000 0.000000 0.000000 0.102432
#
#
# Mechanical properties :
#
#
# Convention : Reuss Voigt Hill
#
# Bulk Modulus (GPa) = 25.25405 52.32700 38.79052
# Shear Modulus (GPa) = 15.99934 22.55513 19.27724
#
# Velocity S-wave (km/s) = 2.92135 3.46861 3.20668
# Velocity P-wave (km/s) = 4.98498 6.62977 5.86531
#
# Compressibility (1/GPa) = 0.03959761
#
# Stress axis : x y z
#
# Youngs Moduli (GPa) = 69.44555 24.00771 92.36303
#
# Poissons Ratio (x) = 0.09929 0.61224
# Poissons Ratio (y) = 0.28721 0.26571
# Poissons Ratio (z) = 0.46033 0.06907
#
# Static dielectric constant tensor:
#      x y z
#    x 3.522310 0.000000 0.000000 
#    y 0.000000 3.169030 0.000000 
#    z 0.000000 0.000000 3.651470 
# 
# 
# High freq. dielectric constant tensor:
#      x y z
#    x 1.739120 0.000000 0.000000 
#    y 0.000000 1.693250 0.000000 
#    z 0.000000 0.000000 1.729270 
# 
# From -- ./inp_files/10069.got.cif
#   From: 2010.03.12/outbox.cif.g09.slc.cpg/sg51_6_cif.got.tgz:10069.got - 2010.04.16 13:43:02.
