data_PCOD8209475
_publ_section_title
;
Structure prediction by ZEFSAII (Michael W. Deem and Ramdas Pophale) SiO2 
 PCOD8209475
Probable space group: P M M A
;
_chemical_formula_sum "Si O2"
_cell_formula_units_Z 48
_cell_length_a 14.301410
_cell_length_b 11.879264
_cell_length_c 14.668891
_cell_angle_alpha 90.000000
_cell_angle_beta 90.000000
_cell_angle_gamma 90.000000
_cell_volume 2492.101192
_symmetry_space_group_name_H-M "P M M A"
_symmetry_group_IT_number 51
_symmetry_cell_setting 'orthorhombic'
loop_
_space_group_symop_operation_xyz
x,y,z
1/2-x,-y,z
1/2+x,-y,-z
-x,y,-z
-x,-y,-z
1/2+x,y,-z
1/2-x,y,z
x,-y,z
loop_
_atom_site_type_symbol
_atom_site_label
_atom_site_fract_x
_atom_site_fract_y
_atom_site_fract_z
Si Si1 0.514715 0.370642 0.104280
Si Si2 0.360619 0.237276 0.765990
Si Si3 0.143198 0.628480 0.245741
Si Si4 0.361296 0.374313 0.590891
Si Si5 0.361345 0.762331 0.419384
Si Si6 0.861054 0.000000 0.514935
Si Si7 0.638981 0.000000 0.308766
O O1 0.548982 0.500000 0.114143
O O2 0.592677 0.286382 0.143203
O O3 0.416456 0.351906 0.155111
O O4 0.500000 0.337441 0.000000
O O5 0.250000 0.243441 0.779113
O O6 0.395719 0.312862 0.681870
O O7 0.394269 0.109690 0.746966
O O8 0.250000 0.659559 0.221559
O O9 0.136296 0.500000 0.280717
O O10 0.102265 0.708987 0.325102
O O11 0.250000 0.374980 0.587302
O O12 0.402221 0.500000 0.591635
O O13 0.402202 0.308961 0.503768
O O14 0.250000 0.755855 0.421344
O O15 0.396636 0.890679 0.429904
O O16 0.902285 0.000000 0.411929
O O17 0.750000 0.000000 0.508740
O O18 0.750000 0.000000 0.318235
#
# Coordination Sequence:
#
# PCOD8209475 Si02
#       7
#     8   8   8   8   8   4   4
#     4  10  22  39  57  79 106 135 175 229 282 329
#     4  10  19  33  55  81 110 142 177 218 266 321
#     4   9  18  34  55  77 104 141 180 217 263 319
#     4   9  15  23  41  72 106 138 171 207 250 305
#     4   9  15  25  45  73 106 141 176 211 250 304
#     4   9  14  24  45  75 108 145 183 214 250 300
#     4   9  16  30  52  79 110 147 184 214 256 314
#
# _framework density 19.260854999999999
#
# number of rings (size 3 to 8) (size 9 to 14) (size 15 to 20)
#    0.000    2.667    1.667    1.000    0.000    3.667 
#    0.000    3.750    0.000    4.000    0.000    3.500 
#    0.000    0.000    0.000    0.000    0.000    0.000 
#
# Total GULP energy -595206.012842 kJ/mol
# GULP energy per Si atom -12400.125268 kJ/mol
# Density = 1.921702 g / cm^3
# Si number density = 19.260855 Si / 1000 Ang^3
#
#
#
# Elastic Constant Matrix: (Units=GPa)
#
#
# Indices 1 2 3 4 5 6 
#
# 1 40.8438 33.4124 35.2790 0.0000 0.0000 0.0000
# 2 33.4124 169.7088 87.5087 0.0000 0.0000 0.0000
# 3 35.2790 87.5087 161.2088 0.0000 0.0000 0.0000
# 4 0.0000 0.0000 0.0000 20.6653 0.0000 0.0000
# 5 0.0000 0.0000 0.0000 0.0000 -94.4095 0.0000
# 6 0.0000 0.0000 0.0000 0.0000 0.0000 16.2531
#
#
#
# Elastic Compliance Matrix: (Units=1/GPa)
#
#
# Indices 1 2 3 4 5 6 
#
# 1 0.031788 -0.003710 -0.004943 0.000000 0.000000 0.000000
# 2 -0.003710 0.008616 -0.003865 0.000000 0.000000 0.000000
# 3 -0.004943 -0.003865 0.009383 0.000000 0.000000 0.000000
# 4 0.000000 0.000000 0.000000 0.048390 0.000000 0.000000
# 5 0.000000 0.000000 0.000000 0.000000 -0.010592 0.000000
# 6 0.000000 0.000000 0.000000 0.000000 0.000000 0.061527
#
#
# Mechanical properties :
#
#
# Convention : Reuss Voigt Hill
#
# Bulk Modulus (GPa) = 40.40191 76.01795 58.20993
# Shear Modulus (GPa) = 27.41284 2.87254 15.14269
#
# Velocity S-wave (km/s) = 3.77668 1.22255 2.80695
# Velocity P-wave (km/s) = 6.32767 6.44563 6.38692
#
# Compressibility (1/GPa) = 0.02475131
#
# Stress axis : x y z
#
# Youngs Moduli (GPa) = 31.45888 116.06580 106.57743
#
# Poissons Ratio (x) = 0.43057 0.52677
# Poissons Ratio (y) = 0.11670 0.41193
# Poissons Ratio (z) = 0.15549 0.44860
#
# Static dielectric constant tensor:
#      x y z
#    x 3.200680 0.000000 0.000000 
#    y 0.000000 3.761100 0.000000 
#    z 0.000000 0.000000 3.361610 
# 
# 
# High freq. dielectric constant tensor:
#      x y z
#    x 1.736670 0.000000 0.000000 
#    y 0.000000 1.752610 0.000000 
#    z 0.000000 0.000000 1.726450 
# 
# From -- ./inp_files/24077.got.cif
#   From: 2010.03.12/outbox.cif.g09.slc.cpg/sg51_13_cif.got.tgz:24077.got - 2010.04.16 13:43:02.
