data_PCOD8209886
_publ_section_title
;
Structure prediction by ZEFSAII (Michael W. Deem and Ramdas Pophale) SiO2 
 PCOD8209886
Probable space group: P M M A
;
_chemical_formula_sum "Si O2"
_cell_formula_units_Z 64
_cell_length_a 15.762433
_cell_length_b 21.936276
_cell_length_c 9.316067
_cell_angle_alpha 90.000000
_cell_angle_beta 90.000000
_cell_angle_gamma 90.000000
_cell_volume 3221.207923
_symmetry_space_group_name_H-M "P M M A"
_symmetry_group_IT_number 51
_symmetry_cell_setting 'orthorhombic'
loop_
_space_group_symop_operation_xyz
x,y,z
1/2-x,-y,z
1/2+x,-y,-z
-x,y,-z
-x,-y,-z
1/2+x,y,-z
1/2-x,y,z
x,-y,z
loop_
_atom_site_type_symbol
_atom_site_label
_atom_site_fract_x
_atom_site_fract_y
_atom_site_fract_z
Si Si1 0.653383 0.240725 0.306275
Si Si2 0.149041 0.570484 0.703068
Si Si3 0.344043 0.656212 0.464239
Si Si4 0.846884 0.068178 0.122881
Si Si5 0.076498 0.836933 0.097911
Si Si6 0.963180 0.124586 0.343746
Si Si7 0.343667 0.711092 0.187493
Si Si8 0.410243 0.334733 0.920678
O O1 0.750000 0.221010 0.260259
O O2 0.660124 0.283560 0.441766
O O3 0.594452 0.184907 0.352189
O O4 0.605740 0.275670 0.177788
O O5 0.250000 0.582326 0.717368
O O6 0.125012 0.500000 0.702978
O O7 0.113384 0.601166 0.555623
O O8 0.101924 0.602086 0.836589
O O9 0.250000 0.632633 0.424598
O O10 0.394195 0.675966 0.317996
O O11 0.750000 0.078394 0.168522
O O12 0.903214 0.074506 0.267632
O O13 0.861670 0.000000 0.061990
O O14 0.868492 0.116177 0.997087
O O15 0.125286 0.777441 0.146309
O O16 0.045332 0.869053 0.242853
O O17 0.000000 0.813764 0.000000
O O18 0.000000 0.105483 0.500000
O O19 0.250000 0.720625 0.248808
O O20 0.342391 0.667337 0.049457
O O21 0.500000 0.330130 0.000000
#
# Coordination Sequence:
#
# PCOD8209886 Si02
#       8
#     8   8   8   8   8   8   8   8
#     4  10  19  35  55  76 109 151 190 221 270 350
#     4   9  18  36  57  73  97 140 188 224 267 338
#     4   8  17  31  51  77 101 133 174 219 269 322
#     4  10  22  42  63  80 106 152 202 236 271 334
#     4  10  21  35  55  84 115 148 185 225 278 341
#     4  11  22  35  56  87 120 147 181 235 298 348
#     4  11  19  31  52  80 111 135 171 227 281 328
#     4  11  21  32  50  78 110 142 180 231 285 332
#
# _framework density 19.868323
#
# number of rings (size 3 to 8) (size 9 to 14) (size 15 to 20)
#    0.000    2.000    0.000    6.000    0.000    2.750 
#    0.000    4.375    0.000    4.500    0.000    0.000 
#    0.000    0.000    0.000    0.000    0.000    0.000 
#
# Total GULP energy -792951.467091 kJ/mol
# GULP energy per Si atom -12389.866673 kJ/mol
# Density = 1.982310 g / cm^3
# Si number density = 19.868323 Si / 1000 Ang^3
#
#
#
# Elastic Constant Matrix: (Units=GPa)
#
#
# Indices 1 2 3 4 5 6 
#
# 1 72.6505 41.5541 40.5494 0.0000 0.0000 0.0000
# 2 41.5541 114.9837 58.1398 0.0000 0.0000 0.0000
# 3 40.5494 58.1398 158.4156 0.0000 0.0000 0.0000
# 4 0.0000 0.0000 0.0000 16.0895 0.0000 0.0000
# 5 0.0000 0.0000 0.0000 0.0000 21.2444 0.0000
# 6 0.0000 0.0000 0.0000 0.0000 0.0000 8.8683
#
#
#
# Elastic Compliance Matrix: (Units=1/GPa)
#
#
# Indices 1 2 3 4 5 6 
#
# 1 0.018290 -0.005209 -0.002770 0.000000 0.000000 0.000000
# 2 -0.005209 0.012162 -0.003130 0.000000 0.000000 0.000000
# 3 -0.002770 -0.003130 0.008170 0.000000 0.000000 0.000000
# 4 0.000000 0.000000 0.000000 0.062152 0.000000 0.000000
# 5 0.000000 0.000000 0.000000 0.000000 0.047071 0.000000
# 6 0.000000 0.000000 0.000000 0.000000 0.000000 0.112761
#
#
# Mechanical properties :
#
#
# Convention : Reuss Voigt Hill
#
# Bulk Modulus (GPa) = 60.96119 69.61516 65.28818
# Shear Modulus (GPa) = 17.34341 22.96088 20.15214
#
# Velocity S-wave (km/s) = 2.95772 3.40318 3.18824
# Velocity P-wave (km/s) = 6.51256 7.11031 6.81799
#
# Compressibility (1/GPa) = 0.01640388
#
# Stress axis : x y z
#
# Youngs Moduli (GPa) = 54.67440 82.22169 122.39442
#
# Poissons Ratio (x) = 0.42832 0.33901
# Poissons Ratio (y) = 0.28482 0.38312
# Poissons Ratio (z) = 0.15144 0.25737
#
# Static dielectric constant tensor:
#      x y z
#    x 3.727870 0.000000 0.000000 
#    y 0.000000 3.489730 0.000000 
#    z 0.000000 0.000000 3.986080 
# 
# 
# High freq. dielectric constant tensor:
#      x y z
#    x 1.767890 0.000000 0.000000 
#    y 0.000000 1.759360 0.000000 
#    z 0.000000 0.000000 1.785520 
# 
# From -- ./inp_files/8756.got.cif
#   From: 2010.03.12/outbox.cif.g09.slc.cpg/sg51_5_cif.got.tgz:8756.got - 2010.04.16 13:43:02.
