data_PCOD8209819
_publ_section_title
;
Structure prediction by ZEFSAII (Michael W. Deem and Ramdas Pophale) SiO2 
 PCOD8209819
Probable space group: P M M A
;
_chemical_formula_sum "Si O2"
_cell_formula_units_Z 44
_cell_length_a 8.856269
_cell_length_b 13.575255
_cell_length_c 19.159988
_cell_angle_alpha 90.000000
_cell_angle_beta 90.000000
_cell_angle_gamma 90.000000
_cell_volume 2303.530825
_symmetry_space_group_name_H-M "P M M A"
_symmetry_group_IT_number 51
_symmetry_cell_setting 'orthorhombic'
loop_
_space_group_symop_operation_xyz
x,y,z
1/2-x,-y,z
1/2+x,-y,-z
-x,y,-z
-x,-y,-z
1/2+x,y,-z
1/2-x,y,z
x,-y,z
loop_
_atom_site_type_symbol
_atom_site_label
_atom_site_fract_x
_atom_site_fract_y
_atom_site_fract_z
Si Si1 0.077962 0.888976 0.844063
Si Si2 0.927851 0.280339 0.925504
Si Si3 0.576378 0.387804 0.195657
Si Si4 0.923078 0.892123 0.697188
Si Si5 0.928743 0.500000 0.575370
Si Si6 0.575065 0.681675 0.668759
O O1 0.250000 0.851416 0.848315
O O2 0.975615 0.825076 0.895174
O O3 0.027159 0.880231 0.764317
O O4 0.063255 0.000000 0.871117
O O5 0.750000 0.284928 0.933005
O O6 0.984211 0.366198 0.874297
O O7 0.000000 0.299730 0.000000
O O8 0.750000 0.360334 0.182967
O O9 0.553761 0.500000 0.216987
O O10 0.513030 0.323777 0.258819
O O11 0.750000 0.889220 0.722827
O O12 0.949638 0.797240 0.645272
O O13 0.956336 0.000000 0.661204
O O14 0.750000 0.500000 0.567787
O O15 0.986034 0.399766 0.613935
O O16 0.000000 0.500000 0.500000
O O17 0.750000 0.658450 0.682554
#
# Coordination Sequence:
#
# PCOD8209819 Si02
#       6
#     8   8   8   8   4   8
#     4  10  20  34  53  79 111 144 183 235 290 343
#     4  12  25  40  57  76 105 146 191 241 293 347
#     4  11  23  38  58  84 111 142 184 231 286 350
#     4   9  17  30  52  83 114 147 188 232 283 339
#     4  10  22  38  58  88 123 156 195 232 284 338
#     4  10  19  34  58  86 116 152 189 234 282 335
#
# _framework density 19.101111
#
# number of rings (size 3 to 8) (size 9 to 14) (size 15 to 20)
#    0.000    1.636    2.727    2.727    0.000    3.636 
#    0.000    0.000    0.000    0.545    0.000    0.000 
#    0.000    0.000    0.000    0.000    0.000    0.000 
#
# Total GULP energy -545346.123924 kJ/mol
# GULP energy per Si atom -12394.230089 kJ/mol
# Density = 1.905764 g / cm^3
# Si number density = 19.101111 Si / 1000 Ang^3
#
#
#
# Elastic Constant Matrix: (Units=GPa)
#
#
# Indices 1 2 3 4 5 6 
#
# 1 96.4350 33.6088 24.5521 0.0000 0.0000 0.0000
# 2 33.6088 149.6543 54.3966 0.0000 0.0000 0.0000
# 3 24.5521 54.3966 77.9271 0.0000 0.0000 0.0000
# 4 0.0000 0.0000 0.0000 21.0260 0.0000 0.0000
# 5 0.0000 0.0000 0.0000 0.0000 27.8251 0.0000
# 6 0.0000 0.0000 0.0000 0.0000 0.0000 21.2625
#
#
#
# Elastic Compliance Matrix: (Units=1/GPa)
#
#
# Indices 1 2 3 4 5 6 
#
# 1 0.011591 -0.001709 -0.002459 0.000000 0.000000 0.000000
# 2 -0.001709 0.009206 -0.005888 0.000000 0.000000 0.000000
# 3 -0.002459 -0.005888 0.017717 0.000000 0.000000 0.000000
# 4 0.000000 0.000000 0.000000 0.047560 0.000000 0.000000
# 5 0.000000 0.000000 0.000000 0.000000 0.035939 0.000000
# 6 0.000000 0.000000 0.000000 0.000000 0.000000 0.047031
#
#
# Mechanical properties :
#
#
# Convention : Reuss Voigt Hill
#
# Bulk Modulus (GPa) = 54.33971 61.01461 57.67716
# Shear Modulus (GPa) = 25.60291 28.12000 26.86145
#
# Velocity S-wave (km/s) = 3.66510 3.84104 3.75410
# Velocity P-wave (km/s) = 6.81329 7.18914 7.00374
#
# Compressibility (1/GPa) = 0.01840275
#
# Stress axis : x y z
#
# Youngs Moduli (GPa) = 86.27055 108.62475 56.44295
#
# Poissons Ratio (x) = 0.18569 0.13878
# Poissons Ratio (y) = 0.14747 0.33231
# Poissons Ratio (z) = 0.21212 0.63954
#
# Static dielectric constant tensor:
#      x y z
#    x 3.538330 0.000000 0.000000 
#    y 0.000000 4.076890 0.000000 
#    z 0.000000 0.000000 3.121950 
# 
# 
# High freq. dielectric constant tensor:
#      x y z
#    x 1.748270 0.000000 0.000000 
#    y 0.000000 1.772290 0.000000 
#    z 0.000000 0.000000 1.693490 
# 
# From -- ./inp_files/27318.got.cif
#   From: 2010.03.12/outbox.cif.g09.slc.cpg/sg51_14_cif.got.tgz:27318.got - 2010.04.16 13:43:02.
