data_PCOD8209970
_publ_section_title
;
Structure prediction by ZEFSAII (Michael W. Deem and Ramdas Pophale) SiO2 
 PCOD8209970
Probable space group: P M M A
;
_chemical_formula_sum "Si O2"
_cell_formula_units_Z 40
_cell_length_a 8.747160
_cell_length_b 11.881203
_cell_length_c 20.550938
_cell_angle_alpha 90.000000
_cell_angle_beta 90.000000
_cell_angle_gamma 90.000000
_cell_volume 2135.792887
_symmetry_space_group_name_H-M "P M M A"
_symmetry_group_IT_number 51
_symmetry_cell_setting 'orthorhombic'
loop_
_space_group_symop_operation_xyz
x,y,z
1/2-x,-y,z
1/2+x,-y,-z
-x,y,-z
-x,-y,-z
1/2+x,y,-z
1/2-x,y,z
x,-y,z
loop_
_atom_site_type_symbol
_atom_site_label
_atom_site_fract_x
_atom_site_fract_y
_atom_site_fract_z
Si Si1 0.430529 0.127644 0.432896
Si Si2 0.931456 0.500000 0.122825
Si Si3 0.930750 0.500000 0.272193
Si Si4 0.931788 0.730619 0.690340
Si Si5 0.068685 0.725637 0.067952
Si Si6 0.431179 0.874376 0.188284
O O1 0.500000 0.174271 0.500000
O O2 0.250000 0.131632 0.438262
O O3 0.488292 0.206219 0.374472
O O4 0.486828 0.000000 0.419630
O O5 0.750000 0.500000 0.117629
O O6 0.987830 0.500000 0.197502
O O7 0.997557 0.606729 0.086111
O O8 0.750000 0.500000 0.275975
O O9 0.995055 0.607869 0.309508
O O10 0.750000 0.719317 0.692982
O O11 0.994983 0.801108 0.751825
O O12 0.250000 0.713616 0.063529
O O13 0.017696 0.817338 0.121085
O O14 0.000000 0.767981 0.000000
O O15 0.250000 0.880575 0.193454
O O16 0.500973 0.000000 0.191459
#
# Coordination Sequence:
#
# PCOD8209970 Si02
#       6
#     8   4   4   8   8   8
#     4   9  18  33  56  86 117 148 181 221 266 314
#     4  11  22  38  57  78 107 139 178 226 274 326
#     4  11  23  36  55  82 113 141 173 226 283 324
#     4  10  19  35  59  83 108 142 186 225 262 318
#     4  11  22  36  56  80 108 141 179 223 272 324
#     4   9  18  33  55  81 106 137 179 223 266 317
#
# _framework density 18.728408000000002
#
# number of rings (size 3 to 8) (size 9 to 14) (size 15 to 20)
#    0.000    2.000    2.000    2.100    0.000    4.400 
#    0.000    0.500    0.000    6.000    0.000    0.000 
#    0.000    0.000    0.000    0.000    0.000    0.000 
#
# Total GULP energy -496119.541821 kJ/mol
# GULP energy per Si atom -12402.988546 kJ/mol
# Density = 1.868578 g / cm^3
# Si number density = 18.728408 Si / 1000 Ang^3
#
#
#
# Elastic Constant Matrix: (Units=GPa)
#
#
# Indices 1 2 3 4 5 6 
#
# 1 39.0954 26.9463 36.6357 0.0000 0.0000 0.0000
# 2 26.9463 155.9650 86.5369 0.0000 0.0000 0.0000
# 3 36.6357 86.5369 176.6636 0.0000 0.0000 0.0000
# 4 0.0000 0.0000 0.0000 18.9490 0.0000 0.0000
# 5 0.0000 0.0000 0.0000 0.0000 29.9055 0.0000
# 6 0.0000 0.0000 0.0000 0.0000 0.0000 10.4221
#
#
#
# Elastic Compliance Matrix: (Units=1/GPa)
#
#
# Indices 1 2 3 4 5 6 
#
# 1 0.032484 -0.002574 -0.005475 0.000000 0.000000 0.000000
# 2 -0.002574 0.009009 -0.003879 0.000000 0.000000 0.000000
# 3 -0.005475 -0.003879 0.008696 0.000000 0.000000 0.000000
# 4 0.000000 0.000000 0.000000 0.052773 0.000000 0.000000
# 5 0.000000 0.000000 0.000000 0.000000 0.033439 0.000000
# 6 0.000000 0.000000 0.000000 0.000000 0.000000 0.095950
#
#
# Mechanical properties :
#
#
# Convention : Reuss Voigt Hill
#
# Bulk Modulus (GPa) = 37.97783 74.66244 56.32013
# Shear Modulus (GPa) = 18.86905 26.62899 22.74902
#
# Velocity S-wave (km/s) = 3.17757 3.77483 3.48901
# Velocity P-wave (km/s) = 5.81247 7.67799 6.80942
#
# Compressibility (1/GPa) = 0.02633115
#
# Stress axis : x y z
#
# Youngs Moduli (GPa) = 30.78477 111.00376 114.99533
#
# Poissons Ratio (x) = 0.28575 0.62964
# Poissons Ratio (y) = 0.07925 0.44606
# Poissons Ratio (z) = 0.16856 0.43058
#
# Static dielectric constant tensor:
#      x y z
#    x 3.186630 0.000000 0.000000 
#    y 0.000000 4.235250 0.000000 
#    z 0.000000 0.000000 3.644610 
# 
# 
# High freq. dielectric constant tensor:
#      x y z
#    x 1.705980 0.000000 0.000000 
#    y 0.000000 1.731050 0.000000 
#    z 0.000000 0.000000 1.735880 
# 
# From -- ./inp_files/31436.got.cif
#   From: 2010.03.12/outbox.cif.g09.slc.cpg/sg51_16_cif.got.tgz:31436.got - 2010.04.16 13:43:02.
