data_PCOD8209260
_publ_section_title
;
Structure prediction by ZEFSAII (Michael W. Deem and Ramdas Pophale) SiO2 
 PCOD8209260
Probable space group: P M M A
;
_chemical_formula_sum "Si O2"
_cell_formula_units_Z 60
_cell_length_a 8.946975
_cell_length_b 20.240426
_cell_length_c 18.533591
_cell_angle_alpha 90.000000
_cell_angle_beta 90.000000
_cell_angle_gamma 90.000000
_cell_volume 3356.258844
_symmetry_space_group_name_H-M "P M M A"
_symmetry_group_IT_number 51
_symmetry_cell_setting 'orthorhombic'
loop_
_space_group_symop_operation_xyz
x,y,z
1/2-x,-y,z
1/2+x,-y,-z
-x,y,-z
-x,-y,-z
1/2+x,y,-z
1/2-x,y,z
x,-y,z
loop_
_atom_site_type_symbol
_atom_site_label
_atom_site_fract_x
_atom_site_fract_y
_atom_site_fract_z
Si Si1 0.574494 0.827679 0.295329
Si Si2 0.074946 0.000000 0.075491
Si Si3 0.926481 0.696665 0.219489
Si Si4 0.078695 0.257837 0.075530
Si Si5 0.919991 0.127034 0.843973
Si Si6 0.076416 0.424334 0.286241
Si Si7 0.084408 0.423140 0.567364
Si Si8 0.572937 0.923848 0.423099
O O1 0.750000 0.828755 0.303342
O O2 0.520500 0.750907 0.280987
O O3 0.528307 0.864576 0.223160
O O4 0.511162 0.868952 0.364759
O O5 0.019196 0.061559 0.120529
O O6 0.250000 0.000000 0.063407
O O7 0.000000 0.000000 0.000000
O O8 0.750000 0.700787 0.211143
O O9 0.998460 0.706395 0.141600
O O10 0.975997 0.623013 0.238260
O O11 0.250000 0.281785 0.070881
O O12 0.066935 0.180569 0.092596
O O13 0.000000 0.274696 0.000000
O O14 0.750000 0.122858 0.815214
O O15 0.250000 0.406387 0.278502
O O16 0.045283 0.500000 0.263169
O O17 0.026330 0.411079 0.367257
O O18 0.250000 0.391275 0.579789
O O19 0.107819 0.500000 0.551957
O O20 0.000000 0.389235 0.500000
O O21 0.500000 0.906398 0.500000
O O22 0.750000 0.917499 0.431309
O O23 0.531249 0.000000 0.400290
#
# Coordination Sequence:
#
# PCOD8209260 Si02
#       8
#     8   4   8   8   8   8   8   8
#     4   9  19  34  52  74 100 131 170 214 257 305
#     4  10  20  32  44  66  99 132 165 202 245 296
#     4  10  20  35  54  77 105 135 170 212 258 310
#     4  10  19  33  53  75 100 132 171 212 255 305
#     4   9  19  32  47  70 100 132 167 208 252 301
#     4  10  20  34  53  77 105 137 173 213 258 312
#     4   9  16  27  45  70 100 133 168 205 245 291
#     4   9  18  33  52  75 102 133 173 219 264 308
#
# _framework density 17.877047000000001
#
# number of rings (size 3 to 8) (size 9 to 14) (size 15 to 20)
#    0.000    2.533    0.000    2.000    0.933    4.533 
#    0.000    0.667    0.000    2.000    0.000    0.000 
#    0.000    0.000    0.000    0.000    0.000    0.000 
#
# Total GULP energy -743443.960999 kJ/mol
# GULP energy per Si atom -12390.732683 kJ/mol
# Density = 1.783636 g / cm^3
# Si number density = 17.877047 Si / 1000 Ang^3
#
#
#
# Elastic Constant Matrix: (Units=GPa)
#
#
# Indices 1 2 3 4 5 6 
#
# 1 45.8846 29.9702 33.3435 0.0000 0.0000 0.0000
# 2 29.9702 90.5095 54.7268 0.0000 0.0000 0.0000
# 3 33.3435 54.7268 104.5797 0.0000 0.0000 0.0000
# 4 0.0000 0.0000 0.0000 0.4185 0.0000 0.0000
# 5 0.0000 0.0000 0.0000 0.0000 31.5357 0.0000
# 6 0.0000 0.0000 0.0000 0.0000 0.0000 21.6687
#
#
#
# Elastic Compliance Matrix: (Units=1/GPa)
#
#
# Indices 1 2 3 4 5 6 
#
# 1 0.030563 -0.006185 -0.006508 0.000000 0.000000 0.000000
# 2 -0.006185 0.017414 -0.007141 0.000000 0.000000 0.000000
# 3 -0.006508 -0.007141 0.015374 0.000000 0.000000 0.000000
# 4 0.000000 0.000000 0.000000 2.389304 0.000000 0.000000
# 5 0.000000 0.000000 0.000000 0.000000 0.031710 0.000000
# 6 0.000000 0.000000 0.000000 0.000000 0.000000 0.046150
#
#
# Mechanical properties :
#
#
# Convention : Reuss Voigt Hill
#
# Bulk Modulus (GPa) = 42.22391 53.00609 47.61500
# Shear Modulus (GPa) = 1.93943 18.92013 10.42978
#
# Velocity S-wave (km/s) = 1.04270 3.25675 2.41802
# Velocity P-wave (km/s) = 5.01198 6.62244 5.87268
#
# Compressibility (1/GPa) = 0.02368327
#
# Stress axis : x y z
#
# Youngs Moduli (GPa) = 32.71947 57.42345 65.04569
#
# Poissons Ratio (x) = 0.35518 0.42330
# Poissons Ratio (y) = 0.20238 0.46449
# Poissons Ratio (z) = 0.21293 0.41006
#
# Static dielectric constant tensor:
#      x y z
#    x 3.001950 0.000000 0.000000 
#    y 0.000000 3.395500 0.000000 
#    z 0.000000 0.000000 3.425780 
# 
# 
# High freq. dielectric constant tensor:
#      x y z
#    x 1.697320 0.000000 0.000000 
#    y 0.000000 1.674900 0.000000 
#    z 0.000000 0.000000 1.687220 
# 
# From -- ./inp_files/28400.got.cif
#   From: 2010.03.12/outbox.cif.g09.slc.cpg/sg51_15_cif.got.tgz:28400.got - 2010.04.16 13:43:02.
