data_PCOD8209093
_publ_section_title
;
Structure prediction by ZEFSAII (Michael W. Deem and Ramdas Pophale) SiO2 
 PCOD8209093
Probable space group: P M M A
;
_chemical_formula_sum "Si O2"
_cell_formula_units_Z 40
_cell_length_a 26.095020
_cell_length_b 8.893174
_cell_length_c 9.223084
_cell_angle_alpha 90.000000
_cell_angle_beta 90.000000
_cell_angle_gamma 90.000000
_cell_volume 2140.378539
_symmetry_space_group_name_H-M "P M M A"
_symmetry_group_IT_number 51
_symmetry_cell_setting 'orthorhombic'
loop_
_space_group_symop_operation_xyz
x,y,z
1/2-x,-y,z
1/2+x,-y,-z
-x,y,-z
-x,-y,-z
1/2+x,y,-z
1/2-x,y,z
x,-y,z
loop_
_atom_site_type_symbol
_atom_site_label
_atom_site_fract_x
_atom_site_fract_y
_atom_site_fract_z
Si Si1 0.047610 0.322114 0.092875
Si Si2 0.853875 0.823377 0.408740
Si Si3 0.358959 0.319631 0.898719
Si Si4 0.750000 0.664196 0.082091
Si Si5 0.250000 0.332900 0.574057
Si Si6 0.952566 0.824482 0.596332
O O1 0.046095 0.500000 0.102479
O O2 0.045378 0.258830 0.252376
O O3 0.098918 0.266116 0.012865
O O4 0.000000 0.260467 0.000000
O O5 0.870856 0.750764 0.256981
O O6 0.801328 0.755119 0.474343
O O7 0.898993 0.785728 0.520424
O O8 0.846273 0.000000 0.385809
O O9 0.356895 0.500000 0.879941
O O10 0.303825 0.256445 0.960077
O O11 0.750000 0.500000 0.009456
O O12 0.750000 0.651981 0.254695
O O13 0.250000 0.500000 0.503586
O O14 0.000000 0.765687 0.500000
O O15 0.958531 0.000000 0.626022
#
# Coordination Sequence:
#
# PCOD8209093 Si02
#       6
#     8   8   8   4   4   8
#     4  10  21  35  52  76 103 133 173 219 263 309
#     4  10  19  32  53  80 107 137 177 219 256 303
#     4   9  17  31  51  75 103 134 170 212 259 307
#     4   7  12  25  46  69  94 126 160 196 240 295
#     4   9  17  31  52  77 106 140 174 210 260 313
#     4  10  22  38  54  75 105 141 178 216 262 315
#
# _framework density 18.688281
#
# number of rings (size 3 to 8) (size 9 to 14) (size 15 to 20)
#    0.000    2.600    0.000    3.300    0.000    3.200 
#    0.000    1.000    0.000    1.200    0.000    0.000 
#    0.000    0.000    0.000    0.000    0.000    0.000 
#
# Total GULP energy -495798.741932 kJ/mol
# GULP energy per Si atom -12394.968548 kJ/mol
# Density = 1.864575 g / cm^3
# Si number density = 18.688281 Si / 1000 Ang^3
#
#
#
# Elastic Constant Matrix: (Units=GPa)
#
#
# Indices 1 2 3 4 5 6 
#
# 1 180.4263 39.2556 68.1774 0.0000 0.0000 0.0000
# 2 39.2556 46.0068 25.3121 0.0000 0.0000 0.0000
# 3 68.1774 25.3121 96.1441 0.0000 0.0000 0.0000
# 4 0.0000 0.0000 0.0000 9.7805 0.0000 0.0000
# 5 0.0000 0.0000 0.0000 0.0000 27.3548 0.0000
# 6 0.0000 0.0000 0.0000 0.0000 0.0000 18.3911
#
#
#
# Elastic Compliance Matrix: (Units=1/GPa)
#
#
# Indices 1 2 3 4 5 6 
#
# 1 0.008296 -0.004493 -0.004700 0.000000 0.000000 0.000000
# 2 -0.004493 0.027851 -0.004146 0.000000 0.000000 0.000000
# 3 -0.004700 -0.004146 0.014826 0.000000 0.000000 0.000000
# 4 0.000000 0.000000 0.000000 0.102244 0.000000 0.000000
# 5 0.000000 0.000000 0.000000 0.000000 0.036557 0.000000
# 6 0.000000 0.000000 0.000000 0.000000 0.000000 0.054374
#
#
# Mechanical properties :
#
#
# Convention : Reuss Voigt Hill
#
# Bulk Modulus (GPa) = 41.16271 65.34080 53.25176
# Shear Modulus (GPa) = 17.92607 23.76074 20.84341
#
# Velocity S-wave (km/s) = 3.10048 3.56957 3.34326
# Velocity P-wave (km/s) = 5.90686 7.21308 6.59240
#
# Compressibility (1/GPa) = 0.02429383
#
# Stress axis : x y z
#
# Youngs Moduli (GPa) = 120.54201 35.90587 67.45134
#
# Poissons Ratio (x) = 0.16131 0.31702
# Poissons Ratio (y) = 0.54156 0.27968
# Poissons Ratio (z) = 0.56654 0.14888
#
# Static dielectric constant tensor:
#      x y z
#    x 4.071790 0.000000 0.000000 
#    y 0.000000 3.307930 0.000000 
#    z 0.000000 0.000000 3.117940 
# 
# 
# High freq. dielectric constant tensor:
#      x y z
#    x 1.754340 0.000000 0.000000 
#    y 0.000000 1.710160 0.000000 
#    z 0.000000 0.000000 1.697700 
# 
# From -- ./inp_files/12132.got.cif
#   From: 2010.03.12/outbox.cif.g09.slc.cpg/sg51_7_cif.got.tgz:12132.got - 2010.04.16 13:43:02.
