data_PCOD8209557
_publ_section_title
;
Structure prediction by ZEFSAII (Michael W. Deem and Ramdas Pophale) SiO2 
 PCOD8209557
Probable space group: P M M A
;
_chemical_formula_sum "Si O2"
_cell_formula_units_Z 24
_cell_length_a 8.017681
_cell_length_b 10.646496
_cell_length_c 13.578390
_cell_angle_alpha 90.000000
_cell_angle_beta 90.000000
_cell_angle_gamma 90.000000
_cell_volume 1159.054204
_symmetry_space_group_name_H-M "P M M A"
_symmetry_group_IT_number 51
_symmetry_cell_setting 'orthorhombic'
loop_
_space_group_symop_operation_xyz
x,y,z
1/2-x,-y,z
1/2+x,-y,-z
-x,y,-z
-x,-y,-z
1/2+x,y,-z
1/2-x,y,z
x,-y,z
loop_
_atom_site_type_symbol
_atom_site_label
_atom_site_fract_x
_atom_site_fract_y
_atom_site_fract_z
Si Si1 0.431114 0.273727 0.203532
Si Si2 0.750000 0.636731 0.107564
Si Si3 0.750000 0.141999 0.950104
Si Si4 0.555436 0.145129 0.394436
O O1 0.250000 0.345808 0.204193
O O2 0.585859 0.361969 0.176398
O O3 0.414419 0.164457 0.118841
O O4 0.454549 0.215569 0.310545
O O5 0.750000 0.500000 0.053333
O O6 0.750000 0.753680 0.035094
O O7 0.750000 0.000000 0.992376
O O8 0.500000 0.200609 0.500000
O O9 0.750000 0.166000 0.376956
O O10 0.504915 0.000000 0.389120
#
# Coordination Sequence:
#
# PCOD8209557 Si02
#       4
#     8   4   4   8
#     4  10  23  40  61  95 127 171 211 269 320 384
#     4  12  26  46  67  92 128 174 227 272 323 388
#     4  10  24  42  65  96 134 172 217 272 327 388
#     4  10  19  33  59  95 135 171 208 260 322 387
#
# _framework density 20.706537999999998
#
# number of rings (size 3 to 8) (size 9 to 14) (size 15 to 20)
#    1.000    0.667    1.667    3.000    0.000    8.667 
#    0.000    0.000    0.000    1.000    0.000    0.000 
#    0.000    0.000    0.000    0.000    0.000    0.000 
#
# Total GULP energy -297323.449251 kJ/mol
# GULP energy per Si atom -12388.477052 kJ/mol
# Density = 2.065941 g / cm^3
# Si number density = 20.706538 Si / 1000 Ang^3
#
#
#
# Elastic Constant Matrix: (Units=GPa)
#
#
# Indices 1 2 3 4 5 6 
#
# 1 135.2032 38.1918 45.0395 0.0000 0.0000 0.0000
# 2 38.1918 103.6991 48.5455 0.0000 0.0000 0.0000
# 3 45.0395 48.5455 132.7597 0.0000 0.0000 0.0000
# 4 0.0000 0.0000 0.0000 3.3456 0.0000 0.0000
# 5 0.0000 0.0000 0.0000 0.0000 32.7214 0.0000
# 6 0.0000 0.0000 0.0000 0.0000 0.0000 0.9752
#
#
#
# Elastic Compliance Matrix: (Units=1/GPa)
#
#
# Indices 1 2 3 4 5 6 
#
# 1 0.008739 -0.002209 -0.002157 0.000000 0.000000 0.000000
# 2 -0.002209 0.012193 -0.003709 0.000000 0.000000 0.000000
# 3 -0.002157 -0.003709 0.009621 0.000000 0.000000 0.000000
# 4 0.000000 0.000000 0.000000 0.298897 0.000000 0.000000
# 5 0.000000 0.000000 0.000000 0.000000 0.030561 0.000000
# 6 0.000000 0.000000 0.000000 0.000000 0.000000 1.025383
#
#
# Mechanical properties :
#
#
# Convention : Reuss Voigt Hill
#
# Bulk Modulus (GPa) = 69.43249 70.57952 70.00601
# Shear Modulus (GPa) = 3.55532 23.40081 13.47806
#
# Velocity S-wave (km/s) = 1.31177 3.36537 2.55406
# Velocity P-wave (km/s) = 5.99156 7.01859 6.52531
#
# Compressibility (1/GPa) = 0.01440248
#
# Stress axis : x y z
#
# Youngs Moduli (GPa) = 114.43318 82.01296 103.94393
#
# Poissons Ratio (x) = 0.18114 0.22421
# Poissons Ratio (y) = 0.25274 0.38556
# Poissons Ratio (z) = 0.24684 0.30421
#
# Static dielectric constant tensor:
#      x y z
#    x 4.020960 0.000000 0.000000 
#    y 0.000000 3.320990 0.000000 
#    z 0.000000 0.000000 3.752900 
# 
# 
# High freq. dielectric constant tensor:
#      x y z
#    x 1.832500 0.000000 0.000000 
#    y 0.000000 1.758140 0.000000 
#    z 0.000000 0.000000 1.814740 
# 
# From -- ./inp_files/19882.got.cif
#   From: 2010.03.12/outbox.cif.g09.slc.cpg/sg51_10_cif.got.tgz:19882.got - 2010.04.16 13:43:02.
