data_PCOD8209090
_publ_section_title
;
Structure prediction by ZEFSAII (Michael W. Deem and Ramdas Pophale) SiO2 
 PCOD8209090
Probable space group: P M M A
;
_chemical_formula_sum "Si O2"
_cell_formula_units_Z 40
_cell_length_a 7.784395
_cell_length_b 9.251846
_cell_length_c 29.106110
_cell_angle_alpha 90.000000
_cell_angle_beta 90.000000
_cell_angle_gamma 90.000000
_cell_volume 2096.222733
_symmetry_space_group_name_H-M "P M M A"
_symmetry_group_IT_number 51
_symmetry_cell_setting 'orthorhombic'
loop_
_space_group_symop_operation_xyz
x,y,z
1/2-x,-y,z
1/2+x,-y,-z
-x,y,-z
-x,-y,-z
1/2+x,y,-z
1/2-x,y,z
x,-y,z
loop_
_atom_site_type_symbol
_atom_site_label
_atom_site_fract_x
_atom_site_fract_y
_atom_site_fract_z
Si Si1 0.438352 0.171629 0.231052
Si Si2 0.049852 0.664530 0.049347
Si Si3 0.250000 0.171827 0.709190
Si Si4 0.554829 0.159460 0.135176
Si Si5 0.250000 0.172416 0.604164
Si Si6 0.550505 0.667514 0.552302
O O1 0.250000 0.216181 0.249641
O O2 0.580805 0.235938 0.265573
O O3 0.457661 0.230907 0.178793
O O4 0.460263 0.000000 0.228536
O O5 0.250000 0.678150 0.058165
O O6 0.984890 0.500000 0.050290
O O7 0.954064 0.745853 0.089755
O O8 0.000000 0.733227 0.000000
O O9 0.250000 0.223145 0.656865
O O10 0.250000 0.000000 0.711427
O O11 0.750000 0.146758 0.151170
O O12 0.479685 0.000000 0.123956
O O13 0.424991 0.234620 0.582668
O O14 0.250000 0.000000 0.598235
O O15 0.500000 0.696147 0.500000
O O16 0.750000 0.711468 0.560549
O O17 0.520992 0.500000 0.564966
#
# Coordination Sequence:
#
# PCOD8209090 Si02
#       6
#     8   8   4   8   4   8
#     4   9  16  29  51  75 103 141 180 219 263 319
#     4  10  21  36  52  71  99 136 174 211 260 328
#     4   9  18  33  49  75 115 151 181 215 272 343
#     4  10  19  32  53  80 105 130 171 224 268 311
#     4  11  23  35  55  89 127 155 183 241 302 345
#     4  10  20  38  62  83 109 154 207 244 278 342
#
# _framework density 19.081939999999999
#
# number of rings (size 3 to 8) (size 9 to 14) (size 15 to 20)
#    0.000    2.200    2.000    1.500    0.000    4.400 
#    0.000    2.000    0.000    2.400    0.000    2.800 
#    0.000    0.000    0.000    0.000    0.000    0.000 
#
# Total GULP energy -495886.924552 kJ/mol
# GULP energy per Si atom -12397.173114 kJ/mol
# Density = 1.903851 g / cm^3
# Si number density = 19.081940 Si / 1000 Ang^3
#
#
#
# Elastic Constant Matrix: (Units=GPa)
#
#
# Indices 1 2 3 4 5 6 
#
# 1 143.4751 34.8213 72.4352 0.0000 0.0000 0.0000
# 2 34.8213 48.8193 45.0578 0.0000 0.0000 0.0000
# 3 72.4352 45.0578 146.1331 0.0000 0.0000 0.0000
# 4 0.0000 0.0000 0.0000 -18.2330 0.0000 0.0000
# 5 0.0000 0.0000 0.0000 0.0000 28.2498 0.0000
# 6 0.0000 0.0000 0.0000 0.0000 0.0000 23.0225
#
#
#
# Elastic Compliance Matrix: (Units=1/GPa)
#
#
# Indices 1 2 3 4 5 6 
#
# 1 0.009699 -0.003468 -0.003738 0.000000 0.000000 0.000000
# 2 -0.003468 0.029871 -0.007492 0.000000 0.000000 0.000000
# 3 -0.003738 -0.007492 0.011006 0.000000 0.000000 0.000000
# 4 0.000000 0.000000 0.000000 -0.054846 0.000000 0.000000
# 5 0.000000 0.000000 0.000000 0.000000 0.035399 0.000000
# 6 0.000000 0.000000 0.000000 0.000000 0.000000 0.043436
#
#
# Mechanical properties :
#
#
# Convention : Reuss Voigt Hill
#
# Bulk Modulus (GPa) = 47.21159 71.45069 59.33114
# Shear Modulus (GPa) = 45.03685 19.01539 32.02612
#
# Velocity S-wave (km/s) = 4.86344 3.16018 4.10121
# Velocity P-wave (km/s) = 7.50551 7.13029 7.32031
#
# Compressibility (1/GPa) = 0.02118124
#
# Stress axis : x y z
#
# Youngs Moduli (GPa) = 103.10603 33.47689 90.85964
#
# Poissons Ratio (x) = 0.11608 0.33966
# Poissons Ratio (y) = 0.35753 0.68068
# Poissons Ratio (z) = 0.38544 0.25079
#
# Static dielectric constant tensor:
#      x y z
#    x 3.657330 0.000000 0.000000 
#    y 0.000000 3.115040 0.000000 
#    z 0.000000 0.000000 3.521930 
# 
# 
# High freq. dielectric constant tensor:
#      x y z
#    x 1.760880 0.000000 0.000000 
#    y 0.000000 1.695470 0.000000 
#    z 0.000000 0.000000 1.744550 
# 
# From -- ./inp_files/36042.got.cif
#   From: 2010.03.12/outbox.cif.g09.slc.cpg/sg51_19_cif.got.tgz:36042.got - 2010.04.16 13:43:02.
