data_PCOD8209420
_publ_section_title
;
Structure prediction by ZEFSAII (Michael W. Deem and Ramdas Pophale) SiO2 
 PCOD8209420
Probable space group: P M M A
;
_chemical_formula_sum "Si O2"
_cell_formula_units_Z 56
_cell_length_a 8.515374
_cell_length_b 20.093429
_cell_length_c 15.274983
_cell_angle_alpha 90.000000
_cell_angle_beta 90.000000
_cell_angle_gamma 90.000000
_cell_volume 2613.596377
_symmetry_space_group_name_H-M "P M M A"
_symmetry_group_IT_number 51
_symmetry_cell_setting 'orthorhombic'
loop_
_space_group_symop_operation_xyz
x,y,z
1/2-x,-y,z
1/2+x,-y,-z
-x,y,-z
-x,-y,-z
1/2+x,y,-z
1/2-x,y,z
x,-y,z
loop_
_atom_site_type_symbol
_atom_site_label
_atom_site_fract_x
_atom_site_fract_y
_atom_site_fract_z
Si Si1 0.433461 0.824992 0.909537
Si Si2 0.070346 0.924507 0.227721
Si Si3 0.067013 0.112900 0.590942
Si Si4 0.068431 0.604366 0.411163
Si Si5 0.930561 0.737211 0.368909
Si Si6 0.066927 0.426359 0.773841
Si Si7 0.066996 0.708340 0.186455
O O1 0.250000 0.812381 0.916848
O O2 0.464824 0.876674 0.831481
O O3 0.520108 0.753817 0.895857
O O4 0.500000 0.855223 0.000000
O O5 0.250000 0.900864 0.219418
O O6 0.019955 0.921842 0.328725
O O7 0.049815 0.000000 0.194419
O O8 0.250000 0.096698 0.598641
O O9 0.032139 0.191351 0.591494
O O10 0.000000 0.083627 0.500000
O O11 0.250000 0.586224 0.401718
O O12 0.000000 0.571990 0.500000
O O13 0.044235 0.684132 0.415536
O O14 0.976279 0.575421 0.328540
O O15 0.750000 0.716219 0.383372
O O16 0.965848 0.738288 0.265748
O O17 0.250000 0.411813 0.783763
O O18 0.024259 0.500000 0.810417
O O19 0.974210 0.369768 0.828382
O O20 0.250000 0.714266 0.207654
#
# Coordination Sequence:
#
# PCOD8209420 Si02
#       7
#     8   8   8   8   8   8   8
#     4  12  25  44  71 102 133 166 208 257 312 379
#     4  11  25  45  68  95 130 170 213 263 318 377
#     4  11  23  37  59  88 123 169 217 268 318 372
#     4  11  21  32  48  72 107 151 200 258 315 371
#     4  10  19  33  54  82 115 154 203 257 312 369
#     4  10  21  37  57  82 115 158 206 254 307 370
#     4  11  21  36  62  92 125 162 202 253 309 369
#
# _framework density 21.426414000000001
#
# number of rings (size 3 to 8) (size 9 to 14) (size 15 to 20)
#    0.000    1.143    1.429    7.714    0.000    6.000 
#    0.000    0.000    0.000    0.429    0.000    0.000 
#    0.000    0.000    0.000    0.000    0.000    0.000 
#
# Total GULP energy -694553.769062 kJ/mol
# GULP energy per Si atom -12402.745876 kJ/mol
# Density = 2.137765 g / cm^3
# Si number density = 21.426414 Si / 1000 Ang^3
#
#
#
# Elastic Constant Matrix: (Units=GPa)
#
#
# Indices 1 2 3 4 5 6 
#
# 1 90.2658 40.8549 12.0078 0.0000 0.0000 0.0000
# 2 40.8549 97.9345 27.5641 0.0000 0.0000 0.0000
# 3 12.0078 27.5641 83.1752 0.0000 0.0000 0.0000
# 4 0.0000 0.0000 0.0000 -4.9642 0.0000 0.0000
# 5 0.0000 0.0000 0.0000 0.0000 32.9690 0.0000
# 6 0.0000 0.0000 0.0000 0.0000 0.0000 25.2629
#
#
#
# Elastic Compliance Matrix: (Units=1/GPa)
#
#
# Indices 1 2 3 4 5 6 
#
# 1 0.013658 -0.005672 -0.000092 0.000000 0.000000 0.000000
# 2 -0.005672 0.013616 -0.003694 0.000000 0.000000 0.000000
# 3 -0.000092 -0.003694 0.013260 0.000000 0.000000 0.000000
# 4 0.000000 0.000000 0.000000 -0.201442 0.000000 0.000000
# 5 0.000000 0.000000 0.000000 0.000000 0.030332 0.000000
# 6 0.000000 0.000000 0.000000 0.000000 0.000000 0.039584
#
#
# Mechanical properties :
#
#
# Convention : Reuss Voigt Hill
#
# Bulk Modulus (GPa) = 46.25459 48.02549 47.14004
# Shear Modulus (GPa) = -77.07565 23.38345 -26.84610
#
# Velocity S-wave (km/s) = -6.00419 3.30712 -3.54354
# Velocity P-wave (km/s) = 5.14127 6.08651 2.30358
#
# Compressibility (1/GPa) = 0.02161947
#
# Stress axis : x y z
#
# Youngs Moduli (GPa) = 73.21912 73.44038 75.41364
#
# Poissons Ratio (x) = 0.41652 0.00695
# Poissons Ratio (y) = 0.41527 0.27855
# Poissons Ratio (z) = 0.00675 0.27127
#
# Static dielectric constant tensor:
#      x y z
#    x 3.851220 0.000000 0.000000 
#    y 0.000000 3.972810 0.000000 
#    z 0.000000 0.000000 3.693820 
# 
# 
# High freq. dielectric constant tensor:
#      x y z
#    x 1.851920 0.000000 0.000000 
#    y 0.000000 1.843810 0.000000 
#    z 0.000000 0.000000 1.816780 
# 
# From -- ./inp_files/21776.got.cif
#   From: 2010.03.12/outbox.cif.g09.slc.cpg/sg51_11_cif.got.tgz:21776.got - 2010.04.16 13:43:02.
