data_PCOD8209492
_publ_section_title
;
Structure prediction by ZEFSAII (Michael W. Deem and Ramdas Pophale) SiO2 
 PCOD8209492
Probable space group: P M M A
;
_chemical_formula_sum "Si O2"
_cell_formula_units_Z 64
_cell_length_a 34.946732
_cell_length_b 10.802089
_cell_length_c 8.932429
_cell_angle_alpha 90.000000
_cell_angle_beta 90.000000
_cell_angle_gamma 90.000000
_cell_volume 3371.971486
_symmetry_space_group_name_H-M "P M M A"
_symmetry_group_IT_number 51
_symmetry_cell_setting 'orthorhombic'
loop_
_space_group_symop_operation_xyz
x,y,z
1/2-x,-y,z
1/2+x,-y,-z
-x,y,-z
-x,-y,-z
1/2+x,y,-z
1/2-x,y,z
x,-y,z
loop_
_atom_site_type_symbol
_atom_site_label
_atom_site_fract_x
_atom_site_fract_y
_atom_site_fract_z
Si Si1 0.385063 0.357783 0.521841
Si Si2 0.708209 0.136485 0.453465
Si Si3 0.396043 0.857959 0.034012
Si Si4 0.041086 0.644445 0.072798
Si Si5 0.036318 0.355875 0.420890
Si Si6 0.838550 0.782966 0.716397
Si Si7 0.844381 0.742056 0.206904
Si Si8 0.206973 0.360010 0.039817
O O1 0.390685 0.500000 0.491928
O O2 0.425733 0.291628 0.488861
O O3 0.354418 0.317702 0.399057
O O4 0.374433 0.334573 0.694021
O O5 0.750000 0.202462 0.474068
O O6 0.685391 0.125221 0.610777
O O7 0.684555 0.197230 0.321560
O O8 0.715633 0.000000 0.396049
O O9 0.366991 0.841310 0.894903
O O10 0.412592 0.000000 0.026618
O O11 0.428017 0.748273 0.019373
O O12 0.372805 0.846701 0.190394
O O13 0.054529 0.500000 0.040999
O O14 0.034644 0.667006 0.245994
O O15 0.000000 0.669961 0.000000
O O16 0.035985 0.500000 0.461463
O O17 0.000000 0.291028 0.500000
O O18 0.808170 0.723117 0.826839
O O19 0.820254 0.649616 0.103983
O O20 0.250000 0.317491 0.997978
O O21 0.206462 0.500000 0.096499
#
# Coordination Sequence:
#
# PCOD8209492 Si02
#       8
#     8   8   8   8   8   8   8   8
#     4  10  19  33  55  83 111 146 187 235 286 336
#     4  10  20  36  57  78 103 139 187 242 291 336
#     4  11  23  39  59  84 120 160 194 235 288 345
#     4  10  22  39  62  90 117 148 191 239 285 340
#     4   9  18  33  55  83 114 141 177 227 279 330
#     4  10  20  35  55  81 109 145 191 237 284 347
#     4  10  22  35  53  80 112 150 192 234 280 344
#     4  10  20  34  52  77 112 150 187 234 290 343
#
# _framework density 18.979994000000001
#
# number of rings (size 3 to 8) (size 9 to 14) (size 15 to 20)
#    0.000    2.000    1.250    2.250    1.750    2.750 
#    0.000    0.000    0.000   12.375    0.000    0.000 
#    0.000    0.000    0.000    0.000    0.000    0.000 
#
# Total GULP energy -792987.601781 kJ/mol
# GULP energy per Si atom -12390.431278 kJ/mol
# Density = 1.893679 g / cm^3
# Si number density = 18.979994 Si / 1000 Ang^3
#
#
#
# Elastic Constant Matrix: (Units=GPa)
#
#
# Indices 1 2 3 4 5 6 
#
# 1 119.0329 39.9106 42.7578 0.0000 0.0000 0.0000
# 2 39.9106 84.0636 21.3548 0.0000 0.0000 0.0000
# 3 42.7578 21.3548 91.0978 0.0000 0.0000 0.0000
# 4 0.0000 0.0000 0.0000 12.1129 0.0000 0.0000
# 5 0.0000 0.0000 0.0000 0.0000 30.8606 0.0000
# 6 0.0000 0.0000 0.0000 0.0000 0.0000 21.7032
#
#
#
# Elastic Compliance Matrix: (Units=1/GPa)
#
#
# Indices 1 2 3 4 5 6 
#
# 1 0.011407 -0.004312 -0.004343 0.000000 0.000000 0.000000
# 2 -0.004312 0.014279 -0.001323 0.000000 0.000000 0.000000
# 3 -0.004343 -0.001323 0.013326 0.000000 0.000000 0.000000
# 4 0.000000 0.000000 0.000000 0.082557 0.000000 0.000000
# 5 0.000000 0.000000 0.000000 0.000000 0.032404 0.000000
# 6 0.000000 0.000000 0.000000 0.000000 0.000000 0.046076
#
#
# Mechanical properties :
#
#
# Convention : Reuss Voigt Hill
#
# Bulk Modulus (GPa) = 52.48044 55.80453 54.14249
# Shear Modulus (GPa) = 22.08889 25.61340 23.85115
#
# Velocity S-wave (km/s) = 3.41515 3.67753 3.54877
# Velocity P-wave (km/s) = 6.57734 6.89187 6.73644
#
# Compressibility (1/GPa) = 0.01905472
#
# Stress axis : x y z
#
# Youngs Moduli (GPa) = 87.66520 70.03157 75.04181
#
# Poissons Ratio (x) = 0.30200 0.32592
# Poissons Ratio (y) = 0.37805 0.09930
# Poissons Ratio (z) = 0.38074 0.09267
#
# Static dielectric constant tensor:
#      x y z
#    x 4.007210 0.000000 0.000000 
#    y 0.000000 3.228160 0.000000 
#    z 0.000000 0.000000 3.632640 
# 
# 
# High freq. dielectric constant tensor:
#      x y z
#    x 1.751350 0.000000 0.000000 
#    y 0.000000 1.707960 0.000000 
#    z 0.000000 0.000000 1.749210 
# 
# From -- ./inp_files/13186.got.cif
#   From: 2010.03.12/outbox.cif.g09.slc.cpg/sg51_7_cif.got.tgz:13186.got - 2010.04.16 13:43:02.
