data_PCOD8209621
_publ_section_title
;
Structure prediction by ZEFSAII (Michael W. Deem and Ramdas Pophale) SiO2 
 PCOD8209621
Probable space group: P M M A
;
_chemical_formula_sum "Si O2"
_cell_formula_units_Z 64
_cell_length_a 20.169333
_cell_length_b 16.021271
_cell_length_c 9.862398
_cell_angle_alpha 90.000000
_cell_angle_beta 90.000000
_cell_angle_gamma 90.000000
_cell_volume 3186.919016
_symmetry_space_group_name_H-M "P M M A"
_symmetry_group_IT_number 51
_symmetry_cell_setting 'orthorhombic'
loop_
_space_group_symop_operation_xyz
x,y,z
1/2-x,-y,z
1/2+x,-y,-z
-x,y,-z
-x,-y,-z
1/2+x,y,-z
1/2-x,y,z
x,-y,z
loop_
_atom_site_type_symbol
_atom_site_label
_atom_site_fract_x
_atom_site_fract_y
_atom_site_fract_z
Si Si1 0.587323 0.401163 0.601268
Si Si2 0.436672 0.094751 0.833034
Si Si3 0.424709 0.161439 0.111202
Si Si4 0.176284 0.900803 0.632800
Si Si5 0.556789 0.599078 0.309416
Si Si6 0.327216 0.904014 0.326009
Si Si7 0.073321 0.341232 0.974610
Si Si8 0.321898 0.403697 0.170691
O O1 0.584819 0.500000 0.610911
O O2 0.518067 0.369712 0.663751
O O3 0.598284 0.376233 0.444451
O O4 0.645536 0.362435 0.694279
O O5 0.503790 0.149102 0.816937
O O6 0.379087 0.133795 0.737151
O O7 0.451707 0.000000 0.788448
O O8 0.413821 0.094289 0.990707
O O9 0.367838 0.154330 0.223256
O O10 0.421720 0.249193 0.034626
O O11 0.250000 0.866131 0.670452
O O12 0.157443 0.874368 0.479381
O O13 0.179020 0.000000 0.641414
O O14 0.560930 0.500000 0.278621
O O15 0.586883 0.653094 0.186379
O O16 0.250000 0.893699 0.292617
O O17 0.349334 0.000000 0.306186
O O18 0.129944 0.396383 0.042978
O O19 0.000000 0.379730 0.000000
O O20 0.250000 0.361138 0.144071
O O21 0.310862 0.500000 0.200403
#
# Coordination Sequence:
#
# PCOD8209621 Si02
#       8
#     8   8   8   8   8   8   8   8
#     4   8  15  30  54  84 111 135 177 234 278 324
#     4  10  19  34  55  77 110 147 182 232 280 324
#     4  11  22  35  50  77 114 149 188 228 273 329
#     4   8  16  32  56  85 110 135 177 231 281 331
#     4   9  17  31  57  87 108 138 186 230 273 322
#     4   9  18  35  59  83 106 138 184 233 280 337
#     4  12  22  36  56  78 118 154 191 231 275 328
#     4  10  21  37  59  87 115 147 186 230 286 343
#
# _framework density 20.082091999999999
#
# number of rings (size 3 to 8) (size 9 to 14) (size 15 to 20)
#    0.000    2.375    2.500    3.375    0.000    2.000 
#    0.000    5.000    2.750    2.250    0.000    0.000 
#    0.000    0.000    0.000    0.000    0.000    0.000 
#
# Total GULP energy -793198.285299 kJ/mol
# GULP energy per Si atom -12393.723208 kJ/mol
# Density = 2.003638 g / cm^3
# Si number density = 20.082092 Si / 1000 Ang^3
#
#
#
# Elastic Constant Matrix: (Units=GPa)
#
#
# Indices 1 2 3 4 5 6 
#
# 1 135.6963 23.4425 96.3413 0.0000 0.0000 0.0000
# 2 23.4425 38.1854 26.6316 0.0000 0.0000 0.0000
# 3 96.3413 26.6316 168.7168 0.0000 0.0000 0.0000
# 4 0.0000 0.0000 0.0000 23.8381 0.0000 0.0000
# 5 0.0000 0.0000 0.0000 0.0000 39.2245 0.0000
# 6 0.0000 0.0000 0.0000 0.0000 0.0000 13.4204
#
#
#
# Elastic Compliance Matrix: (Units=1/GPa)
#
#
# Indices 1 2 3 4 5 6 
#
# 1 0.012709 -0.003080 -0.006771 0.000000 0.000000 0.000000
# 2 -0.003080 0.030174 -0.003004 0.000000 0.000000 0.000000
# 3 -0.006771 -0.003004 0.010268 0.000000 0.000000 0.000000
# 4 0.000000 0.000000 0.000000 0.041950 0.000000 0.000000
# 5 0.000000 0.000000 0.000000 0.000000 0.025494 0.000000
# 6 0.000000 0.000000 0.000000 0.000000 0.000000 0.074513
#
#
# Mechanical properties :
#
#
# Convention : Reuss Voigt Hill
#
# Bulk Modulus (GPa) = 36.44254 70.60329 53.52292
# Shear Modulus (GPa) = 21.74255 28.37548 25.05902
#
# Velocity S-wave (km/s) = 3.29399 3.76303 3.53629
# Velocity P-wave (km/s) = 5.71431 7.35624 6.58663
#
# Compressibility (1/GPa) = 0.02744046
#
# Stress axis : x y z
#
# Youngs Moduli (GPa) = 78.68737 33.14112 97.39420
#
# Poissons Ratio (x) = 0.10207 0.65943
# Poissons Ratio (y) = 0.24234 0.29260
# Poissons Ratio (z) = 0.53277 0.09956
#
# Static dielectric constant tensor:
#      x y z
#    x 3.934560 0.000000 0.000000 
#    y 0.000000 3.242750 0.000000 
#    z 0.000000 0.000000 3.901130 
# 
# 
# High freq. dielectric constant tensor:
#      x y z
#    x 1.772530 0.000000 0.000000 
#    y 0.000000 1.748590 0.000000 
#    z 0.000000 0.000000 1.790760 
# 
# From -- ./inp_files/11198.got.cif
#   From: 2010.03.12/outbox.cif.g09.slc.cpg/sg51_6_cif.got.tgz:11198.got - 2010.04.16 13:43:02.
