data_PCOD8209814
_publ_section_title
;
Structure prediction by ZEFSAII (Michael W. Deem and Ramdas Pophale) SiO2 
 PCOD8209814
Probable space group: P M M A
;
_chemical_formula_sum "Si O2"
_cell_formula_units_Z 64
_cell_length_a 8.970991
_cell_length_b 25.174830
_cell_length_c 14.507617
_cell_angle_alpha 90.000000
_cell_angle_beta 90.000000
_cell_angle_gamma 90.000000
_cell_volume 3276.446261
_symmetry_space_group_name_H-M "P M M A"
_symmetry_group_IT_number 51
_symmetry_cell_setting 'orthorhombic'
loop_
_space_group_symop_operation_xyz
x,y,z
1/2-x,-y,z
1/2+x,-y,-z
-x,y,-z
-x,-y,-z
1/2+x,y,-z
1/2-x,y,z
x,-y,z
loop_
_atom_site_type_symbol
_atom_site_label
_atom_site_fract_x
_atom_site_fract_y
_atom_site_fract_z
Si Si1 0.573266 0.150711 0.902533
Si Si2 0.926734 0.251538 0.787646
Si Si3 0.923489 0.407304 0.593636
Si Si4 0.913888 0.063011 0.413250
Si Si5 0.572123 0.353508 0.900550
Si Si6 0.074346 0.061333 0.790090
Si Si7 0.078859 0.717676 0.408361
Si Si8 0.579236 0.439417 0.223386
O O1 0.750000 0.149276 0.913884
O O2 0.519000 0.197013 0.833778
O O3 0.516802 0.094669 0.864256
O O4 0.500000 0.162710 0.000000
O O5 0.750000 0.254940 0.784131
O O6 0.985221 0.301580 0.845973
O O7 0.988831 0.253983 0.682831
O O8 0.750000 0.422943 0.593056
O O9 0.945903 0.344653 0.605512
O O10 0.000000 0.427418 0.500000
O O11 0.006057 0.436442 0.676290
O O12 0.750000 0.087697 0.417716
O O13 0.984126 0.076474 0.313096
O O14 0.000000 0.088524 0.500000
O O15 0.906016 0.000000 0.423724
O O16 0.750000 0.355638 0.908441
O O17 0.515733 0.405525 0.848496
O O18 0.500000 0.351277 0.000000
O O19 0.250000 0.072870 0.798148
O O20 0.040867 0.000000 0.811404
O O21 0.250000 0.732173 0.420562
O O22 0.000000 0.739428 0.500000
O O23 0.750000 0.419075 0.227582
O O24 0.573321 0.500000 0.189162
#
# Coordination Sequence:
#
# PCOD8209814 Si02
#       8
#     8   8   8   8   8   8   8   8
#     4  11  23  39  60  84 113 147 186 237 289 340
#     4   9  19  38  61  85 116 148 182 229 283 335
#     4  10  19  34  58  85 116 153 192 236 284 339
#     4   8  14  26  47  75 106 141 180 223 268 315
#     4  11  22  40  63  86 111 145 188 237 292 348
#     4   9  19  37  58  81 114 153 192 235 281 333
#     4   9  17  33  56  85 116 148 184 224 273 331
#     4  11  24  40  57  82 116 152 194 241 287 342
#
# _framework density 19.533359999999998
#
# number of rings (size 3 to 8) (size 9 to 14) (size 15 to 20)
#    0.000    2.250    1.250    2.625    0.000    3.000 
#    0.000    5.000    0.000    3.000    0.000    0.000 
#    0.000    0.000    0.000    0.000    0.000    0.000 
#
# Total GULP energy -793554.302418 kJ/mol
# GULP energy per Si atom -12399.285975 kJ/mol
# Density = 1.948890 g / cm^3
# Si number density = 19.533360 Si / 1000 Ang^3
#
#
#
# Elastic Constant Matrix: (Units=GPa)
#
#
# Indices 1 2 3 4 5 6 
#
# 1 85.3510 39.4082 51.9668 0.0000 0.0000 0.0000
# 2 39.4082 82.3132 59.3600 0.0000 0.0000 0.0000
# 3 51.9668 59.3600 161.7478 0.0000 0.0000 0.0000
# 4 0.0000 0.0000 0.0000 48.3677 0.0000 0.0000
# 5 0.0000 0.0000 0.0000 0.0000 39.5134 0.0000
# 6 0.0000 0.0000 0.0000 0.0000 0.0000 19.2115
#
#
#
# Elastic Compliance Matrix: (Units=1/GPa)
#
#
# Indices 1 2 3 4 5 6 
#
# 1 0.016175 -0.005435 -0.003202 0.000000 0.000000 0.000000
# 2 -0.005435 0.018347 -0.004987 0.000000 0.000000 0.000000
# 3 -0.003202 -0.004987 0.009042 0.000000 0.000000 0.000000
# 4 0.000000 0.000000 0.000000 0.020675 0.000000 0.000000
# 5 0.000000 0.000000 0.000000 0.000000 0.025308 0.000000
# 6 0.000000 0.000000 0.000000 0.000000 0.000000 0.052052
#
#
# Mechanical properties :
#
#
# Convention : Reuss Voigt Hill
#
# Bulk Modulus (GPa) = 61.29105 70.09799 65.69452
# Shear Modulus (GPa) = 28.68845 33.33032 31.00938
#
# Velocity S-wave (km/s) = 3.83651 4.13525 3.98868
# Velocity P-wave (km/s) = 7.14638 7.66581 7.41065
#
# Compressibility (1/GPa) = 0.01631560
#
# Stress axis : x y z
#
# Youngs Moduli (GPa) = 61.82209 54.50453 110.60024
#
# Poissons Ratio (x) = 0.29622 0.35419
# Poissons Ratio (y) = 0.33599 0.55158
# Poissons Ratio (z) = 0.19798 0.27182
#
# Static dielectric constant tensor:
#      x y z
#    x 3.543480 0.000000 0.000000 
#    y 0.000000 3.390500 0.000000 
#    z 0.000000 0.000000 3.893470 
# 
# 
# High freq. dielectric constant tensor:
#      x y z
#    x 1.751430 0.000000 0.000000 
#    y 0.000000 1.742510 0.000000 
#    z 0.000000 0.000000 1.776380 
# 
# From -- ./inp_files/22203.got.cif
#   From: 2010.03.12/outbox.cif.g09.slc.cpg/sg51_12_cif.got.tgz:22203.got - 2010.04.16 13:43:02.
