data_PCOD8209890
_publ_section_title
;
Structure prediction by ZEFSAII (Michael W. Deem and Ramdas Pophale) SiO2 
 PCOD8209890
Probable space group: P M M A
;
_chemical_formula_sum "Si O2"
_cell_formula_units_Z 56
_cell_length_a 19.365502
_cell_length_b 9.288343
_cell_length_c 16.458030
_cell_angle_alpha 90.000000
_cell_angle_beta 90.000000
_cell_angle_gamma 90.000000
_cell_volume 2960.362224
_symmetry_space_group_name_H-M "P M M A"
_symmetry_group_IT_number 51
_symmetry_cell_setting 'orthorhombic'
loop_
_space_group_symop_operation_xyz
x,y,z
1/2-x,-y,z
1/2+x,-y,-z
-x,y,-z
-x,-y,-z
1/2+x,y,-z
1/2-x,y,z
x,-y,z
loop_
_atom_site_type_symbol
_atom_site_label
_atom_site_fract_x
_atom_site_fract_y
_atom_site_fract_z
Si Si1 0.169995 0.335670 0.488167
Si Si2 0.429253 0.328354 0.171207
Si Si3 0.825677 0.671017 0.692324
Si Si4 0.554882 0.831151 0.433331
Si Si5 0.580694 0.168023 0.986966
Si Si6 0.827284 0.831494 0.138256
Si Si7 0.449147 0.167872 0.752230
O O1 0.250000 0.320832 0.509763
O O2 0.145410 0.500000 0.495895
O O3 0.154489 0.275059 0.397779
O O4 0.128478 0.240647 0.551784
O O5 0.433327 0.500000 0.165223
O O6 0.380896 0.272031 0.243947
O O7 0.396312 0.263524 0.089714
O O8 0.504347 0.263316 0.188296
O O9 0.750000 0.730702 0.716451
O O10 0.823041 0.500000 0.690546
O O11 0.500000 0.772233 0.500000
O O12 0.534781 0.790413 0.341073
O O13 0.564058 0.000000 0.442932
O O14 0.593685 0.000000 0.969353
O O15 0.500000 0.198571 0.000000
O O16 0.627317 0.224281 0.061925
O O17 0.750000 0.760629 0.141377
O O18 0.869768 0.798155 0.221505
O O19 0.817928 0.000000 0.128004
O O20 0.465589 0.000000 0.768765
#
# Coordination Sequence:
#
# PCOD8209890 Si02
#       7
#     8   8   8   8   8   8   8
#     4   9  18  34  55  75 100 140 184 220 262 321
#     4  11  21  32  54  83 107 134 174 218 261 313
#     4   8  16  32  51  73 104 141 177 213 258 315
#     4  10  21  34  51  79 111 140 177 227 278 322
#     4  10  19  35  56  75 100 136 170 208 262 316
#     4   9  18  34  56  78  98 131 181 220 248 304
#     4  10  20  36  55  75 105 144 178 214 264 320
#
# _framework density 18.916604
#
# number of rings (size 3 to 8) (size 9 to 14) (size 15 to 20)
#    0.000    2.429    1.429    2.143    0.000    2.571 
#    0.000    2.143    0.000    4.286    0.000    0.000 
#    0.000    0.000    0.000    0.000    0.000    0.000 
#
# Total GULP energy -694200.415584 kJ/mol
# GULP energy per Si atom -12396.435993 kJ/mol
# Density = 1.887355 g / cm^3
# Si number density = 18.916604 Si / 1000 Ang^3
#
#
#
# Elastic Constant Matrix: (Units=GPa)
#
#
# Indices 1 2 3 4 5 6 
#
# 1 93.7169 20.6808 43.9333 0.0000 0.0000 0.0000
# 2 20.6808 32.6145 32.5782 0.0000 0.0000 0.0000
# 3 43.9333 32.5782 104.7089 0.0000 0.0000 0.0000
# 4 0.0000 0.0000 0.0000 27.2390 0.0000 0.0000
# 5 0.0000 0.0000 0.0000 0.0000 33.4994 0.0000
# 6 0.0000 0.0000 0.0000 0.0000 0.0000 23.4591
#
#
#
# Elastic Compliance Matrix: (Units=1/GPa)
#
#
# Indices 1 2 3 4 5 6 
#
# 1 0.013681 -0.004267 -0.004412 0.000000 0.000000 0.000000
# 2 -0.004267 0.045818 -0.012465 0.000000 0.000000 0.000000
# 3 -0.004412 -0.012465 0.015280 0.000000 0.000000 0.000000
# 4 0.000000 0.000000 0.000000 0.036712 0.000000 0.000000
# 5 0.000000 0.000000 0.000000 0.000000 0.029851 0.000000
# 6 0.000000 0.000000 0.000000 0.000000 0.000000 0.042627
#
#
# Mechanical properties :
#
#
# Convention : Reuss Voigt Hill
#
# Bulk Modulus (GPa) = 30.77942 47.26942 39.02442
# Shear Modulus (GPa) = 21.08916 25.76269 23.42593
#
# Velocity S-wave (km/s) = 3.34256 3.69441 3.52288
# Velocity P-wave (km/s) = 5.58600 6.57577 6.10099
#
# Compressibility (1/GPa) = 0.03248925
#
# Stress axis : x y z
#
# Youngs Moduli (GPa) = 73.09631 21.82535 65.44583
#
# Poissons Ratio (x) = 0.09314 0.28877
# Poissons Ratio (y) = 0.31193 0.81578
# Poissons Ratio (z) = 0.32252 0.27205
#
# Static dielectric constant tensor:
#      x y z
#    x 3.619840 0.000000 0.000000 
#    y 0.000000 3.076090 0.000000 
#    z 0.000000 0.000000 3.632160 
# 
# 
# High freq. dielectric constant tensor:
#      x y z
#    x 1.736140 0.000000 0.000000 
#    y 0.000000 1.699040 0.000000 
#    z 0.000000 0.000000 1.742470 
# 
# From -- ./inp_files/25781.got.cif
#   From: 2010.03.12/outbox.cif.g09.slc.cpg/sg51_13_cif.got.tgz:25781.got - 2010.04.16 13:43:02.
