data_PCOD8209564
_publ_section_title
;
Structure prediction by ZEFSAII (Michael W. Deem and Ramdas Pophale) SiO2 
 PCOD8209564
Probable space group: P M M A
;
_chemical_formula_sum "Si O2"
_cell_formula_units_Z 64
_cell_length_a 8.743227
_cell_length_b 30.973715
_cell_length_c 14.387019
_cell_angle_alpha 90.000000
_cell_angle_beta 90.000000
_cell_angle_gamma 90.000000
_cell_volume 3896.151799
_symmetry_space_group_name_H-M "P M M A"
_symmetry_group_IT_number 51
_symmetry_cell_setting 'orthorhombic'
loop_
_space_group_symop_operation_xyz
x,y,z
1/2-x,-y,z
1/2+x,-y,-z
-x,y,-z
-x,-y,-z
1/2+x,y,-z
1/2-x,y,z
x,-y,z
loop_
_atom_site_type_symbol
_atom_site_label
_atom_site_fract_x
_atom_site_fract_y
_atom_site_fract_z
Si Si1 0.069666 0.711802 0.792168
Si Si2 0.928344 0.258944 0.407400
Si Si3 0.429945 0.870247 0.790981
Si Si4 0.929798 0.161513 0.406398
Si Si5 0.930709 0.632280 0.897539
Si Si6 0.428971 0.453237 0.898813
Si Si7 0.568534 0.207811 0.898171
Si Si8 0.929039 0.952007 0.096275
O O1 0.250000 0.708779 0.811412
O O2 0.031607 0.712462 0.682403
O O3 0.984492 0.670818 0.832986
O O4 0.006243 0.755236 0.836260
O O5 0.750000 0.256566 0.423142
O O6 0.992524 0.210328 0.393196
O O7 0.000000 0.280312 0.500000
O O8 0.250000 0.859726 0.803512
O O9 0.480507 0.865890 0.683613
O O10 0.526245 0.838136 0.854907
O O11 0.471826 0.918860 0.821746
O O12 0.750000 0.160888 0.417234
O O13 0.000000 0.140681 0.500000
O O14 0.750000 0.632376 0.905326
O O15 0.988441 0.587373 0.849275
O O16 0.000000 0.638043 0.000000
O O17 0.250000 0.443173 0.906580
O O18 0.456448 0.500000 0.848396
O O19 0.500000 0.456397 0.000000
O O20 0.750000 0.213739 0.902039
O O21 0.500000 0.211593 0.000000
O O22 0.750000 0.953209 0.080566
O O23 0.990520 0.000000 0.122478
O O24 0.000000 0.935466 0.000000
#
# Coordination Sequence:
#
# PCOD8209564 Si02
#       8
#     8   8   8   8   8   8   8   8
#     4  11  21  36  51  67  95 129 162 197 238 282
#     4   9  18  32  51  70  92 120 154 195 239 281
#     4  10  19  34  52  71  97 124 157 196 235 280
#     4   9  17  31  49  71  94 121 153 192 237 280
#     4  11  21  32  46  67  95 131 169 204 243 288
#     4   9  16  27  44  65  89 121 162 206 248 288
#     4  12  24  35  48  68  95 127 162 196 232 277
#     4   9  18  32  51  73  96 124 156 192 234 280
#
# _framework density 16.426465
#
# number of rings (size 3 to 8) (size 9 to 14) (size 15 to 20)
#    0.000    2.000    1.250    4.500    0.000    3.750 
#    0.000    0.000    0.000    0.375    0.000    0.000 
#    0.000    0.500    0.000    1.625    0.000    2.250 
#
# Total GULP energy -793375.835481 kJ/mol
# GULP energy per Si atom -12396.497429 kJ/mol
# Density = 1.638908 g / cm^3
# Si number density = 16.426465 Si / 1000 Ang^3
#
#
#
# Elastic Constant Matrix: (Units=GPa)
#
#
# Indices 1 2 3 4 5 6 
#
# 1 75.6341 36.5894 39.5078 0.0000 0.0000 0.0000
# 2 36.5894 97.7646 37.3778 0.0000 0.0000 0.0000
# 3 39.5078 37.3778 86.6237 0.0000 0.0000 0.0000
# 4 0.0000 0.0000 0.0000 -2.0592 0.0000 0.0000
# 5 0.0000 0.0000 0.0000 0.0000 25.1222 0.0000
# 6 0.0000 0.0000 0.0000 0.0000 0.0000 19.0391
#
#
#
# Elastic Compliance Matrix: (Units=1/GPa)
#
#
# Indices 1 2 3 4 5 6 
#
# 1 0.018890 -0.004522 -0.006664 0.000000 0.000000 0.000000
# 2 -0.004522 0.013332 -0.003690 0.000000 0.000000 0.000000
# 3 -0.006664 -0.003690 0.016176 0.000000 0.000000 0.000000
# 4 0.000000 0.000000 0.000000 -0.485615 0.000000 0.000000
# 5 0.000000 0.000000 0.000000 0.000000 0.039806 0.000000
# 6 0.000000 0.000000 0.000000 0.000000 0.000000 0.052524
#
#
# Mechanical properties :
#
#
# Convention : Reuss Voigt Hill
#
# Bulk Modulus (GPa) = 53.63350 54.10804 53.87077
# Shear Modulus (GPa) = -16.18545 18.19023 1.00239
#
# Velocity S-wave (km/s) = -3.14240 3.33133 0.78202
# Velocity P-wave (km/s) = 4.42214 6.91434 5.80359
#
# Compressibility (1/GPa) = 0.01864506
#
# Stress axis : x y z
#
# Youngs Moduli (GPa) = 52.93724 75.00805 61.81980
#
# Poissons Ratio (x) = 0.33918 0.41199
# Poissons Ratio (y) = 0.23938 0.22813
# Poissons Ratio (z) = 0.35279 0.27680
#
# Static dielectric constant tensor:
#      x y z
#    x 3.136240 0.000000 0.000000 
#    y 0.000000 3.526730 0.000000 
#    z 0.000000 0.000000 3.072660 
# 
# 
# High freq. dielectric constant tensor:
#      x y z
#    x 1.640590 0.000000 0.000000 
#    y 0.000000 1.624450 0.000000 
#    z 0.000000 0.000000 1.610450 
# 
# From -- ./inp_files/22576.got.cif
#   From: 2010.03.12/outbox.cif.g09.slc.cpg/sg51_12_cif.got.tgz:22576.got - 2010.04.16 13:43:02.
