data_PCOD8209020
_publ_section_title
;
Structure prediction by ZEFSAII (Michael W. Deem and Ramdas Pophale) SiO2 
 PCOD8209020
Probable space group: P M M A
;
_chemical_formula_sum "Si O2"
_cell_formula_units_Z 56
_cell_length_a 15.357855
_cell_length_b 19.489147
_cell_length_c 9.267686
_cell_angle_alpha 90.000000
_cell_angle_beta 90.000000
_cell_angle_gamma 90.000000
_cell_volume 2773.924940
_symmetry_space_group_name_H-M "P M M A"
_symmetry_group_IT_number 51
_symmetry_cell_setting 'orthorhombic'
loop_
_space_group_symop_operation_xyz
x,y,z
1/2-x,-y,z
1/2+x,-y,-z
-x,y,-z
-x,-y,-z
1/2+x,y,-z
1/2-x,y,z
x,-y,z
loop_
_atom_site_type_symbol
_atom_site_label
_atom_site_fract_x
_atom_site_fract_y
_atom_site_fract_z
Si Si1 0.854398 0.211151 0.564630
Si Si2 0.146680 0.076086 0.946273
Si Si3 0.039560 0.342092 0.348073
Si Si4 0.353311 0.075938 0.268254
Si Si5 0.648648 0.577736 0.865013
Si Si6 0.079181 0.684904 0.908633
Si Si7 0.651450 0.805609 0.244371
O O1 0.750000 0.223823 0.578728
O O2 0.906723 0.270598 0.647487
O O3 0.883789 0.137478 0.628077
O O4 0.890140 0.212762 0.399456
O O5 0.250000 0.086655 0.950735
O O6 0.105068 0.128841 0.830588
O O7 0.121780 0.000000 0.893741
O O8 0.109391 0.089266 0.107022
O O9 0.104410 0.399232 0.284538
O O10 0.000000 0.365684 0.500000
O O11 0.956713 0.340406 0.243826
O O12 0.250000 0.075434 0.260712
O O13 0.384615 0.000000 0.323064
O O14 0.750000 0.584898 0.839024
O O15 0.621077 0.500000 0.900474
O O16 0.621784 0.623134 0.002708
O O17 0.148665 0.743691 0.871275
O O18 0.000000 0.717461 0.000000
O O19 0.750000 0.824777 0.279684
#
# Coordination Sequence:
#
# PCOD8209020 Si02
#       7
#     8   8   8   8   8   8   8
#     4  10  20  33  54  82 114 155 200 247 293 345
#     4   8  15  27  45  72 105 142 189 246 298 340
#     4  11  22  39  60  88 125 160 192 233 287 351
#     4   8  15  28  47  75 108 145 196 253 303 347
#     4  10  23  44  68  93 119 150 192 238 282 338
#     4  10  22  37  59  85 115 153 189 231 287 346
#     4  10  19  32  52  79 110 145 192 243 290 341
#
# _framework density 20.188001
#
# number of rings (size 3 to 8) (size 9 to 14) (size 15 to 20)
#    0.000    2.429    1.429    1.714    4.000    3.429 
#    0.000    2.857    0.000    3.429    0.000    0.000 
#    0.000    0.000    0.000    0.000    0.000    0.000 
#
# Total GULP energy -694027.633122 kJ/mol
# GULP energy per Si atom -12393.350591 kJ/mol
# Density = 2.014205 g / cm^3
# Si number density = 20.188001 Si / 1000 Ang^3
#
#
#
# Elastic Constant Matrix: (Units=GPa)
#
#
# Indices 1 2 3 4 5 6 
#
# 1 38.3321 32.8299 24.4054 0.0000 0.0000 0.0000
# 2 32.8299 145.0181 65.5379 0.0000 0.0000 0.0000
# 3 24.4054 65.5379 121.2421 0.0000 0.0000 0.0000
# 4 0.0000 0.0000 0.0000 28.1103 0.0000 0.0000
# 5 0.0000 0.0000 0.0000 0.0000 23.7300 0.0000
# 6 0.0000 0.0000 0.0000 0.0000 0.0000 5.9021
#
#
#
# Elastic Compliance Matrix: (Units=1/GPa)
#
#
# Indices 1 2 3 4 5 6 
#
# 1 0.033444 -0.005993 -0.003493 0.000000 0.000000 0.000000
# 2 -0.005993 0.010199 -0.004307 0.000000 0.000000 0.000000
# 3 -0.003493 -0.004307 0.011279 0.000000 0.000000 0.000000
# 4 0.000000 0.000000 0.000000 0.035574 0.000000 0.000000
# 5 0.000000 0.000000 0.000000 0.000000 0.042141 0.000000
# 6 0.000000 0.000000 0.000000 0.000000 0.000000 0.169432
#
#
# Mechanical properties :
#
#
# Convention : Reuss Voigt Hill
#
# Bulk Modulus (GPa) = 36.57971 61.12653 48.85312
# Shear Modulus (GPa) = 14.75946 23.66974 19.21460
#
# Velocity S-wave (km/s) = 2.70682 3.42784 3.08845
# Velocity P-wave (km/s) = 5.28470 6.78315 6.08026
#
# Compressibility (1/GPa) = 0.02733756
#
# Stress axis : x y z
#
# Youngs Moduli (GPa) = 29.90058 98.05221 88.66056
#
# Poissons Ratio (x) = 0.58761 0.30967
# Poissons Ratio (y) = 0.17919 0.38183
# Poissons Ratio (z) = 0.10443 0.42227
#
# Static dielectric constant tensor:
#      x y z
#    x 3.420680 0.000000 0.000000 
#    y 0.000000 3.765760 0.000000 
#    z 0.000000 0.000000 3.924950 
# 
# 
# High freq. dielectric constant tensor:
#      x y z
#    x 1.768730 0.000000 0.000000 
#    y 0.000000 1.783430 0.000000 
#    z 0.000000 0.000000 1.792010 
# 
# From -- ./inp_files/8512.got.cif
#   From: 2010.03.12/outbox.cif.g09.slc.cpg/sg51_5_cif.got.tgz:8512.got - 2010.04.16 13:43:02.
