data_PCOD8209437
_publ_section_title
;
Structure prediction by ZEFSAII (Michael W. Deem and Ramdas Pophale) SiO2 
 PCOD8209437
Probable space group: P M M A
;
_chemical_formula_sum "Si O2"
_cell_formula_units_Z 40
_cell_length_a 18.453718
_cell_length_b 8.613879
_cell_length_c 12.823322
_cell_angle_alpha 90.000000
_cell_angle_beta 90.000000
_cell_angle_gamma 90.000000
_cell_volume 2038.370823
_symmetry_space_group_name_H-M "P M M A"
_symmetry_group_IT_number 51
_symmetry_cell_setting 'orthorhombic'
loop_
_space_group_symop_operation_xyz
x,y,z
1/2-x,-y,z
1/2+x,-y,-z
-x,y,-z
-x,-y,-z
1/2+x,y,-z
1/2-x,y,z
x,-y,z
loop_
_atom_site_type_symbol
_atom_site_label
_atom_site_fract_x
_atom_site_fract_y
_atom_site_fract_z
Si Si1 0.927422 0.317225 0.383538
Si Si2 0.332933 0.181701 0.194934
Si Si3 0.082168 0.181389 0.399156
Si Si4 0.418730 0.683557 0.005140
Si Si5 0.331083 0.315352 0.807987
O O1 0.941766 0.500000 0.377083
O O2 0.895495 0.273863 0.496658
O O3 0.870789 0.259972 0.296920
O O4 0.002493 0.230091 0.361454
O O5 0.250000 0.236186 0.184655
O O6 0.360176 0.224722 0.310387
O O7 0.341371 0.000000 0.173455
O O8 0.381357 0.272711 0.112893
O O9 0.082574 0.000000 0.424780
O O10 0.421979 0.500000 0.996274
O O11 0.373169 0.752466 0.908309
O O12 0.500000 0.752803 0.000000
O O13 0.250000 0.246281 0.808118
O O14 0.328627 0.500000 0.812856
#
# Coordination Sequence:
#
# PCOD8209437 Si02
#       5
#     8   8   8   8   8
#     4  10  19  33  55  79 103 133 174 218 254 302
#     4  10  22  38  54  76 108 143 178 218 264 313
#     4  10  20  35  54  75 104 139 172 211 261 309
#     4  10  20  35  57  82 106 136 176 218 262 315
#     4   9  18  32  50  75 107 137 165 207 262 308
#
# _framework density 19.623514
#
# number of rings (size 3 to 8) (size 9 to 14) (size 15 to 20)
#    0.000    2.200    0.000    4.200    0.000    5.600 
#    0.000    2.000    0.000    4.200    0.000    0.000 
#    0.000    0.000    0.000    0.000    0.000    0.000 
#
# Total GULP energy -496086.567822 kJ/mol
# GULP energy per Si atom -12402.164196 kJ/mol
# Density = 1.957885 g / cm^3
# Si number density = 19.623514 Si / 1000 Ang^3
#
#
#
# Elastic Constant Matrix: (Units=GPa)
#
#
# Indices 1 2 3 4 5 6 
#
# 1 137.6159 9.5954 66.7525 0.0000 0.0000 0.0000
# 2 9.5954 15.2977 14.0925 0.0000 0.0000 0.0000
# 3 66.7525 14.0925 110.1661 0.0000 0.0000 0.0000
# 4 0.0000 0.0000 0.0000 21.2657 0.0000 0.0000
# 5 0.0000 0.0000 0.0000 0.0000 35.8282 0.0000
# 6 0.0000 0.0000 0.0000 0.0000 0.0000 11.4573
#
#
#
# Elastic Compliance Matrix: (Units=1/GPa)
#
#
# Indices 1 2 3 4 5 6 
#
# 1 0.010300 -0.000806 -0.006138 0.000000 0.000000 0.000000
# 2 -0.000806 0.074165 -0.008999 0.000000 0.000000 0.000000
# 3 -0.006138 -0.008999 0.013947 0.000000 0.000000 0.000000
# 4 0.000000 0.000000 0.000000 0.047024 0.000000 0.000000
# 5 0.000000 0.000000 0.000000 0.000000 0.027911 0.000000
# 6 0.000000 0.000000 0.000000 0.000000 0.000000 0.087281
#
#
# Mechanical properties :
#
#
# Convention : Reuss Voigt Hill
#
# Bulk Modulus (GPa) = 15.03163 49.32894 32.18029
# Shear Modulus (GPa) = 15.88868 25.21952 20.55410
#
# Velocity S-wave (km/s) = 2.84857 3.58881 3.23990
# Velocity P-wave (km/s) = 4.30067 6.50884 5.51637
#
# Compressibility (1/GPa) = 0.06652639
#
# Stress axis : x y z
#
# Youngs Moduli (GPa) = 97.08614 13.48353 71.69750
#
# Poissons Ratio (x) = 0.01087 0.44008
# Poissons Ratio (y) = 0.07828 0.64518
# Poissons Ratio (z) = 0.59591 0.12133
#
# Static dielectric constant tensor:
#      x y z
#    x 3.786440 0.000000 0.000000 
#    y 0.000000 3.309280 0.000000 
#    z 0.000000 0.000000 3.725860 
# 
# 
# High freq. dielectric constant tensor:
#      x y z
#    x 1.769820 0.000000 0.000000 
#    y 0.000000 1.740420 0.000000 
#    z 0.000000 0.000000 1.779310 
# 
# From -- ./inp_files/17078.got.cif
#   From: 2010.03.12/outbox.cif.g09.slc.cpg/sg51_9_cif.got.tgz:17078.got - 2010.04.16 13:43:02.
