data_PCOD8209770
_publ_section_title
;
Structure prediction by ZEFSAII (Michael W. Deem and Ramdas Pophale) SiO2 
 PCOD8209770
Probable space group: P M M A
;
_chemical_formula_sum "Si O2"
_cell_formula_units_Z 64
_cell_length_a 15.386273
_cell_length_b 23.671506
_cell_length_c 8.685406
_cell_angle_alpha 90.000000
_cell_angle_beta 90.000000
_cell_angle_gamma 90.000000
_cell_volume 3163.366035
_symmetry_space_group_name_H-M "P M M A"
_symmetry_group_IT_number 51
_symmetry_cell_setting 'orthorhombic'
loop_
_space_group_symop_operation_xyz
x,y,z
1/2-x,-y,z
1/2+x,-y,-z
-x,y,-z
-x,-y,-z
1/2+x,y,-z
1/2-x,y,z
x,-y,z
loop_
_atom_site_type_symbol
_atom_site_label
_atom_site_fract_x
_atom_site_fract_y
_atom_site_fract_z
Si Si1 0.846357 0.127564 0.807486
Si Si2 0.146723 0.758029 0.342693
Si Si3 0.850195 0.750535 0.311792
Si Si4 0.494772 0.566213 0.322070
Si Si5 0.848485 0.370520 0.174920
Si Si6 0.850983 0.643736 0.816372
Si Si7 0.500767 0.935064 0.321506
Si Si8 0.417349 0.151731 0.890378
O O1 0.750000 0.116521 0.742820
O O2 0.887980 0.185547 0.739797
O O3 0.905975 0.075959 0.751913
O O4 0.840397 0.133553 0.993224
O O5 0.250000 0.757192 0.338339
O O6 0.111675 0.758564 0.517080
O O7 0.113136 0.702892 0.251669
O O8 0.750000 0.768803 0.303574
O O9 0.863424 0.685493 0.272938
O O10 0.901858 0.788754 0.191552
O O11 0.500000 0.583656 0.500000
O O12 0.483459 0.500000 0.300268
O O13 0.582582 0.583603 0.232750
O O14 0.408430 0.593755 0.252360
O O15 0.750000 0.393703 0.199457
O O16 0.864167 0.354844 0.998359
O O17 0.750000 0.633399 0.771702
O O18 0.500000 0.919024 0.500000
O O19 0.572902 0.896991 0.237477
O O20 0.525785 0.000000 0.295157
O O21 0.500000 0.156940 0.000000
#
# Coordination Sequence:
#
# PCOD8209770 Si02
#       8
#     8   8   8   8   8   8   8   8
#     4  10  20  35  57  84 113 145 184 229 277 331
#     4   9  18  33  56  85 115 146 179 222 278 336
#     4  10  19  34  57  84 115 147 183 228 278 334
#     4  11  25  42  60  84 114 151 196 241 283 335
#     4  10  22  39  61  88 117 151 189 234 287 340
#     4  10  21  39  62  87 118 152 188 234 287 341
#     4  10  22  40  58  77 107 147 190 234 279 330
#     4  10  21  34  54  82 112 146 183 227 280 335
#
# _framework density 20.231612999999999
#
# number of rings (size 3 to 8) (size 9 to 14) (size 15 to 20)
#    0.000    2.000    0.000    3.000    0.000   10.500 
#    0.000    6.875    0.000    2.625    0.000    0.000 
#    0.000    0.000    0.000    0.000    0.000    0.000 
#
# Total GULP energy -793695.044612 kJ/mol
# GULP energy per Si atom -12401.485072 kJ/mol
# Density = 2.018556 g / cm^3
# Si number density = 20.231613 Si / 1000 Ang^3
#
#
#
# Elastic Constant Matrix: (Units=GPa)
#
#
# Indices 1 2 3 4 5 6 
#
# 1 59.4804 19.4851 18.6236 0.0000 0.0000 0.0000
# 2 19.4851 68.8828 35.6488 0.0000 0.0000 0.0000
# 3 18.6236 35.6488 123.9076 0.0000 0.0000 0.0000
# 4 0.0000 0.0000 0.0000 32.3467 0.0000 0.0000
# 5 0.0000 0.0000 0.0000 0.0000 27.9023 0.0000
# 6 0.0000 0.0000 0.0000 0.0000 0.0000 27.9067
#
#
#
# Elastic Compliance Matrix: (Units=1/GPa)
#
#
# Indices 1 2 3 4 5 6 
#
# 1 0.018770 -0.004523 -0.001520 0.000000 0.000000 0.000000
# 2 -0.004523 0.018147 -0.004541 0.000000 0.000000 0.000000
# 3 -0.001520 -0.004541 0.009605 0.000000 0.000000 0.000000
# 4 0.000000 0.000000 0.000000 0.030915 0.000000 0.000000
# 5 0.000000 0.000000 0.000000 0.000000 0.035839 0.000000
# 6 0.000000 0.000000 0.000000 0.000000 0.000000 0.035834
#
#
# Mechanical properties :
#
#
# Convention : Reuss Voigt Hill
#
# Bulk Modulus (GPa) = 39.44093 44.42065 41.93079
# Shear Modulus (GPa) = 27.97522 29.53204 28.75363
#
# Velocity S-wave (km/s) = 3.72257 3.82474 3.77400
# Velocity P-wave (km/s) = 6.16552 6.44272 6.30564
#
# Compressibility (1/GPa) = 0.02535437
#
# Stress axis : x y z
#
# Youngs Moduli (GPa) = 53.27714 55.10558 104.10718
#
# Poissons Ratio (x) = 0.24924 0.15823
# Poissons Ratio (y) = 0.24097 0.47277
# Poissons Ratio (z) = 0.08098 0.25024
#
# Static dielectric constant tensor:
#      x y z
#    x 3.678370 0.000000 0.000000 
#    y 0.000000 3.524050 0.000000 
#    z 0.000000 0.000000 4.006530 
# 
# 
# High freq. dielectric constant tensor:
#      x y z
#    x 1.785690 0.000000 0.000000 
#    y 0.000000 1.780750 0.000000 
#    z 0.000000 0.000000 1.809130 
# 
# From -- ./inp_files/8758.got.cif
#   From: 2010.03.12/outbox.cif.g09.slc.cpg/sg51_5_cif.got.tgz:8758.got - 2010.04.16 13:43:02.
