data_PCOD8209010
_publ_section_title
;
Structure prediction by ZEFSAII (Michael W. Deem and Ramdas Pophale) SiO2 
 PCOD8209010
Probable space group: P M M A
;
_chemical_formula_sum "Si O2"
_cell_formula_units_Z 56
_cell_length_a 17.387898
_cell_length_b 14.162608
_cell_length_c 12.685275
_cell_angle_alpha 90.000000
_cell_angle_beta 90.000000
_cell_angle_gamma 90.000000
_cell_volume 3123.850239
_symmetry_space_group_name_H-M "P M M A"
_symmetry_group_IT_number 51
_symmetry_cell_setting 'orthorhombic'
loop_
_space_group_symop_operation_xyz
x,y,z
1/2-x,-y,z
1/2+x,-y,-z
-x,y,-z
-x,-y,-z
1/2+x,y,-z
1/2-x,y,z
x,-y,z
loop_
_atom_site_type_symbol
_atom_site_label
_atom_site_fract_x
_atom_site_fract_y
_atom_site_fract_z
Si Si1 0.839639 0.794975 0.354431
Si Si2 0.838400 0.394811 0.247923
Si Si3 0.163006 0.211555 0.023932
Si Si4 0.422599 0.110419 0.836590
Si Si5 0.903301 0.889878 0.787101
Si Si6 0.088272 0.606206 0.973787
Si Si7 0.160320 0.891006 0.434603
O O1 0.750000 0.816503 0.347522
O O2 0.857868 0.683857 0.336026
O O3 0.877657 0.860560 0.267297
O O4 0.869750 0.825973 0.469353
O O5 0.750000 0.382881 0.208999
O O6 0.850775 0.500000 0.295880
O O7 0.895574 0.378227 0.150349
O O8 0.250000 0.202139 0.983127
O O9 0.155983 0.162589 0.136762
O O10 0.106891 0.165116 0.938618
O O11 0.140760 0.321363 0.038962
O O12 0.511070 0.137654 0.820640
O O13 0.411385 0.000000 0.857294
O O14 0.887843 0.858253 0.667198
O O15 0.886823 0.000000 0.798767
O O16 0.111263 0.500000 0.007288
O O17 0.000000 0.626705 0.000000
O O18 0.250000 0.874994 0.410887
O O19 0.143747 0.000000 0.463230
#
# Coordination Sequence:
#
# PCOD8209010 Si02
#       7
#     8   8   8   8   8   8   8
#     4  10  19  32  52  79 107 136 172 222 275 318
#     4   9  17  31  52  79 109 139 175 219 268 323
#     4  12  23  35  54  79 109 142 177 220 269 324
#     4  11  22  34  51  77 108 139 175 223 273 320
#     4  10  22  38  54  74 105 147 187 220 260 319
#     4  10  20  34  54  79 108 141 175 214 263 320
#     4   9  18  34  55  77 103 138 181 221 260 317
#
# _framework density 17.926594999999999
#
# number of rings (size 3 to 8) (size 9 to 14) (size 15 to 20)
#    0.000    1.857    1.429    3.429    0.000    5.714 
#    0.000    2.143    0.000    0.857    0.000    3.000 
#    0.000    0.000    0.000    0.000    0.000    0.000 
#
# Total GULP energy -694485.345971 kJ/mol
# GULP energy per Si atom -12401.524035 kJ/mol
# Density = 1.788579 g / cm^3
# Si number density = 17.926595 Si / 1000 Ang^3
#
#
#
# Elastic Constant Matrix: (Units=GPa)
#
#
# Indices 1 2 3 4 5 6 
#
# 1 67.4179 47.3871 46.0704 0.0000 0.0000 0.0000
# 2 47.3871 91.0884 63.5186 0.0000 0.0000 0.0000
# 3 46.0704 63.5186 119.0874 0.0000 0.0000 0.0000
# 4 0.0000 0.0000 0.0000 23.9165 0.0000 0.0000
# 5 0.0000 0.0000 0.0000 0.0000 -7.6027 0.0000
# 6 0.0000 0.0000 0.0000 0.0000 0.0000 22.4217
#
#
#
# Elastic Compliance Matrix: (Units=1/GPa)
#
#
# Indices 1 2 3 4 5 6 
#
# 1 0.024693 -0.009847 -0.004301 0.000000 0.000000 0.000000
# 2 -0.009847 0.021407 -0.007608 0.000000 0.000000 0.000000
# 3 -0.004301 -0.007608 0.014119 0.000000 0.000000 0.000000
# 4 0.000000 0.000000 0.000000 0.041812 0.000000 0.000000
# 5 0.000000 0.000000 0.000000 0.000000 -0.131532 0.000000
# 6 0.000000 0.000000 0.000000 0.000000 0.000000 0.044600
#
#
# Mechanical properties :
#
#
# Convention : Reuss Voigt Hill
#
# Bulk Modulus (GPa) = 59.85652 65.72734 62.79193
# Shear Modulus (GPa) = 77.90549 15.78826 46.84688
#
# Velocity S-wave (km/s) = 6.59942 2.97091 5.11755
# Velocity P-wave (km/s) = 9.56724 6.96511 8.36794
#
# Compressibility (1/GPa) = 0.01670662
#
# Stress axis : x y z
#
# Youngs Moduli (GPa) = 40.49698 46.71420 70.82644
#
# Poissons Ratio (x) = 0.46001 0.30459
# Poissons Ratio (y) = 0.39879 0.53887
# Poissons Ratio (z) = 0.17416 0.35542
#
# Static dielectric constant tensor:
#      x y z
#    x 3.340120 0.000000 0.000000 
#    y 0.000000 3.549680 0.000000 
#    z 0.000000 0.000000 3.274990 
# 
# 
# High freq. dielectric constant tensor:
#      x y z
#    x 1.692910 0.000000 0.000000 
#    y 0.000000 1.698600 0.000000 
#    z 0.000000 0.000000 1.679490 
# 
# From -- ./inp_files/16640.got.cif
#   From: 2010.03.12/outbox.cif.g09.slc.cpg/sg51_9_cif.got.tgz:16640.got - 2010.04.16 13:43:02.
