data_PCOD8209308
_publ_section_title
;
Structure prediction by ZEFSAII (Michael W. Deem and Ramdas Pophale) SiO2 
 PCOD8209308
Probable space group: P M M A
;
_chemical_formula_sum "Si O2"
_cell_formula_units_Z 60
_cell_length_a 14.778315
_cell_length_b 14.374328
_cell_length_c 14.858727
_cell_angle_alpha 90.000000
_cell_angle_beta 90.000000
_cell_angle_gamma 90.000000
_cell_volume 3156.414817
_symmetry_space_group_name_H-M "P M M A"
_symmetry_group_IT_number 51
_symmetry_cell_setting 'orthorhombic'
loop_
_space_group_symop_operation_xyz
x,y,z
1/2-x,-y,z
1/2+x,-y,-z
-x,y,-z
-x,-y,-z
1/2+x,y,-z
1/2-x,y,z
x,-y,z
loop_
_atom_site_type_symbol
_atom_site_label
_atom_site_fract_x
_atom_site_fract_y
_atom_site_fract_z
Si Si1 0.357826 0.255300 0.742344
Si Si2 0.351604 0.288497 0.047468
Si Si3 0.642641 0.603464 0.612316
Si Si4 0.995246 0.104143 0.202731
Si Si5 0.500000 0.851963 0.000000
Si Si6 0.357140 0.396383 0.589389
Si Si7 0.644646 0.750745 0.755787
Si Si8 0.355370 0.400615 0.884957
O O1 0.250000 0.236592 0.742822
O O2 0.409505 0.157625 0.753206
O O3 0.389867 0.313184 0.654229
O O4 0.394895 0.317190 0.825528
O O5 0.250000 0.254200 0.030335
O O6 0.368762 0.308091 0.152313
O O7 0.410093 0.207415 0.005909
O O8 0.372018 0.381905 0.990963
O O9 0.750000 0.605079 0.617179
O O10 0.608498 0.500000 0.640598
O O11 0.608283 0.625882 0.511469
O O12 0.604910 0.683666 0.678101
O O13 0.990964 0.092079 0.093838
O O14 0.086964 0.154858 0.236327
O O15 0.995276 0.000000 0.242941
O O16 0.250000 0.399762 0.590845
O O17 0.392399 0.500000 0.619042
O O18 0.750000 0.777545 0.740139
O O19 0.250000 0.406681 0.861259
O O20 0.400819 0.500000 0.861580
#
# Coordination Sequence:
#
# PCOD8209308 Si02
#       8
#     8   8   8   8   4   8   8   8
#     4  10  19  33  53  77 109 140 167 207 258 312
#     4   9  17  30  49  73 102 134 168 204 249 308
#     4   8  14  28  53  83 110 138 174 211 251 302
#     4  11  23  37  55  76  99 132 177 225 270 313
#     4  10  19  36  55  70  98 132 169 220 269 308
#     4   8  14  27  52  84 112 140 174 208 247 302
#     4   9  19  35  55  75 103 138 172 215 261 304
#     4   9  16  27  46  71 101 137 169 196 236 297
#
# _framework density 19.008908000000002
#
# number of rings (size 3 to 8) (size 9 to 14) (size 15 to 20)
#    0.000    2.800    1.333    1.400    0.000    2.667 
#    0.000    5.000    0.000    5.600    0.000    3.733 
#    0.000    0.000    0.000    0.000    0.000    0.000 
#
# Total GULP energy -743326.307111 kJ/mol
# GULP energy per Si atom -12388.771785 kJ/mol
# Density = 1.896564 g / cm^3
# Si number density = 19.008908 Si / 1000 Ang^3
#
#
#
# Elastic Constant Matrix: (Units=GPa)
#
#
# Indices 1 2 3 4 5 6 
#
# 1 59.9070 39.1810 30.8962 0.0000 0.0000 0.0000
# 2 39.1810 144.3279 74.8467 0.0000 0.0000 0.0000
# 3 30.8962 74.8467 111.5109 0.0000 0.0000 0.0000
# 4 0.0000 0.0000 0.0000 23.4055 0.0000 0.0000
# 5 0.0000 0.0000 0.0000 0.0000 10.7576 0.0000
# 6 0.0000 0.0000 0.0000 0.0000 0.0000 20.3259
#
#
#
# Elastic Compliance Matrix: (Units=1/GPa)
#
#
# Indices 1 2 3 4 5 6 
#
# 1 0.020951 -0.004107 -0.003048 0.000000 0.000000 0.000000
# 2 -0.004107 0.011433 -0.006536 0.000000 0.000000 0.000000
# 3 -0.003048 -0.006536 0.014199 0.000000 0.000000 0.000000
# 4 0.000000 0.000000 0.000000 0.042725 0.000000 0.000000
# 5 0.000000 0.000000 0.000000 0.000000 0.092958 0.000000
# 6 0.000000 0.000000 0.000000 0.000000 0.000000 0.049198
#
#
# Mechanical properties :
#
#
# Convention : Reuss Voigt Hill
#
# Bulk Modulus (GPa) = 52.08112 67.28817 59.68464
# Shear Modulus (GPa) = 18.85038 22.28592 20.56815
#
# Velocity S-wave (km/s) = 3.15248 3.42774 3.29299
# Velocity P-wave (km/s) = 6.38033 7.15129 6.77678
#
# Compressibility (1/GPa) = 0.01920082
#
# Stress axis : x y z
#
# Youngs Moduli (GPa) = 47.73145 87.46580 70.42563
#
# Poissons Ratio (x) = 0.35919 0.21468
# Poissons Ratio (y) = 0.19602 0.46031
# Poissons Ratio (z) = 0.14550 0.57168
#
# Static dielectric constant tensor:
#      x y z
#    x 3.251450 0.000000 0.000000 
#    y 0.000000 3.295210 0.000000 
#    z 0.000000 0.000000 3.852220 
# 
# 
# High freq. dielectric constant tensor:
#      x y z
#    x 1.729090 0.000000 0.000000 
#    y 0.000000 1.709870 0.000000 
#    z 0.000000 0.000000 1.737600 
# 
# From -- ./inp_files/24360.got.cif
#   From: 2010.03.12/outbox.cif.g09.slc.cpg/sg51_13_cif.got.tgz:24360.got - 2010.04.16 13:43:02.
