data_PCOD8209925
_publ_section_title
;
Structure prediction by ZEFSAII (Michael W. Deem and Ramdas Pophale) SiO2 
 PCOD8209925
Probable space group: P M M A
;
_chemical_formula_sum "Si O2"
_cell_formula_units_Z 48
_cell_length_a 18.061204
_cell_length_b 8.858564
_cell_length_c 15.829971
_cell_angle_alpha 90.000000
_cell_angle_beta 90.000000
_cell_angle_gamma 90.000000
_cell_volume 2532.737289
_symmetry_space_group_name_H-M "P M M A"
_symmetry_group_IT_number 51
_symmetry_cell_setting 'orthorhombic'
loop_
_space_group_symop_operation_xyz
x,y,z
1/2-x,-y,z
1/2+x,-y,-z
-x,y,-z
-x,-y,-z
1/2+x,y,-z
1/2-x,y,z
x,-y,z
loop_
_atom_site_type_symbol
_atom_site_label
_atom_site_fract_x
_atom_site_fract_y
_atom_site_fract_z
Si Si1 0.750000 0.822457 0.220510
Si Si2 0.972702 0.171922 0.636963
Si Si3 0.750000 0.326203 0.397679
Si Si4 0.539293 0.678148 0.813177
Si Si5 0.385087 0.173214 0.529850
Si Si6 0.381882 0.320706 0.880968
Si Si7 0.333304 0.320500 0.065831
O O1 0.750000 0.785980 0.319024
O O2 0.823695 0.752841 0.181796
O O3 0.750000 0.000000 0.206211
O O4 0.955390 0.277610 0.715751
O O5 0.916964 0.212572 0.561860
O O6 0.055361 0.198721 0.603724
O O7 0.962362 0.000000 0.666148
O O8 0.750000 0.500000 0.368647
O O9 0.679520 0.291895 0.455388
O O10 0.540193 0.500000 0.820376
O O11 0.463592 0.738299 0.855865
O O12 0.610693 0.743953 0.863119
O O13 0.357308 0.000000 0.531970
O O14 0.375408 0.500000 0.872299
O O15 0.363681 0.265974 0.975374
O O16 0.250000 0.256884 0.080936
O O17 0.331390 0.500000 0.068155
#
# Coordination Sequence:
#
# PCOD8209925 Si02
#       7
#     4   8   4   8   8   8   8
#     4  12  24  36  54  81 114 147 180 225 280 335
#     4   9  19  37  59  80 106 146 186 222 272 328
#     4  12  24  36  54  85 114 141 178 223 276 327
#     4  10  20  32  54  86 112 141 186 233 273 324
#     4   9  19  38  60  79 107 146 185 223 270 330
#     4  10  19  35  57  81 109 144 187 232 276 322
#     4   9  17  33  56  79 109 149 185 225 275 324
#
# _framework density 18.951826000000001
#
# number of rings (size 3 to 8) (size 9 to 14) (size 15 to 20)
#    0.000    2.167    0.833    4.000    0.000    6.667 
#    1.500    2.500    0.000    2.000    0.000    0.000 
#    0.000    0.000    0.000    0.000    0.000    0.000 
#
# Total GULP energy -595233.381611 kJ/mol
# GULP energy per Si atom -12400.695450 kJ/mol
# Density = 1.890869 g / cm^3
# Si number density = 18.951826 Si / 1000 Ang^3
#
#
#
# Elastic Constant Matrix: (Units=GPa)
#
#
# Indices 1 2 3 4 5 6 
#
# 1 141.4321 27.2919 68.2655 0.0000 0.0000 0.0000
# 2 27.2919 29.5635 16.6958 0.0000 0.0000 0.0000
# 3 68.2655 16.6958 104.9511 0.0000 0.0000 0.0000
# 4 0.0000 0.0000 0.0000 11.3609 0.0000 0.0000
# 5 0.0000 0.0000 0.0000 0.0000 26.4718 0.0000
# 6 0.0000 0.0000 0.0000 0.0000 0.0000 19.2710
#
#
#
# Elastic Compliance Matrix: (Units=1/GPa)
#
#
# Indices 1 2 3 4 5 6 
#
# 1 0.011495 -0.007020 -0.006360 0.000000 0.000000 0.000000
# 2 -0.007020 0.041451 -0.002028 0.000000 0.000000 0.000000
# 3 -0.006360 -0.002028 0.013988 0.000000 0.000000 0.000000
# 4 0.000000 0.000000 0.000000 0.088022 0.000000 0.000000
# 5 0.000000 0.000000 0.000000 0.000000 0.037776 0.000000
# 6 0.000000 0.000000 0.000000 0.000000 0.000000 0.051892
#
#
# Mechanical properties :
#
#
# Convention : Reuss Voigt Hill
#
# Bulk Modulus (GPa) = 27.68707 55.60590 41.64649
# Shear Modulus (GPa) = 17.39256 22.33362 19.86309
#
# Velocity S-wave (km/s) = 3.03268 3.43657 3.24092
# Velocity P-wave (km/s) = 5.18689 6.71945 6.00228
#
# Compressibility (1/GPa) = 0.03611794
#
# Stress axis : x y z
#
# Youngs Moduli (GPa) = 86.99387 24.12466 71.49037
#
# Poissons Ratio (x) = 0.16935 0.45470
# Poissons Ratio (y) = 0.61069 0.14499
# Poissons Ratio (z) = 0.55330 0.04893
#
# Static dielectric constant tensor:
#      x y z
#    x 3.746260 0.000000 0.000000 
#    y 0.000000 3.131250 0.000000 
#    z 0.000000 0.000000 3.453650 
# 
# 
# High freq. dielectric constant tensor:
#      x y z
#    x 1.747190 0.000000 0.000000 
#    y 0.000000 1.706130 0.000000 
#    z 0.000000 0.000000 1.741840 
# 
# From -- ./inp_files/24897.got.cif
#   From: 2010.03.12/outbox.cif.g09.slc.cpg/sg51_13_cif.got.tgz:24897.got - 2010.04.16 13:43:02.
