data_PCOD8209604
_publ_section_title
;
Structure prediction by ZEFSAII (Michael W. Deem and Ramdas Pophale) SiO2 
 PCOD8209604
Probable space group: P M M A
;
_chemical_formula_sum "Si O2"
_cell_formula_units_Z 48
_cell_length_a 8.826861
_cell_length_b 10.060307
_cell_length_c 27.333856
_cell_angle_alpha 90.000000
_cell_angle_beta 90.000000
_cell_angle_gamma 90.000000
_cell_volume 2427.271874
_symmetry_space_group_name_H-M "P M M A"
_symmetry_group_IT_number 51
_symmetry_cell_setting 'orthorhombic'
loop_
_space_group_symop_operation_xyz
x,y,z
1/2-x,-y,z
1/2+x,-y,-z
-x,y,-z
-x,-y,-z
1/2+x,y,-z
1/2-x,y,z
x,-y,z
loop_
_atom_site_type_symbol
_atom_site_label
_atom_site_fract_x
_atom_site_fract_y
_atom_site_fract_z
Si Si1 0.927780 0.150542 0.550481
Si Si2 0.924471 0.651255 0.375809
Si Si3 0.069090 0.000000 0.234051
Si Si4 0.429730 0.500000 0.092273
Si Si5 0.927427 0.269758 0.265568
Si Si6 0.069580 0.500000 0.203508
Si Si7 0.929310 0.000000 0.876729
Si Si8 0.429834 0.774916 0.050853
O O1 0.750000 0.156075 0.543964
O O2 0.000000 0.201321 0.500000
O O3 0.974084 0.247368 0.593985
O O4 0.982315 0.000000 0.562467
O O5 0.750000 0.680762 0.387893
O O6 0.967169 0.500000 0.389795
O O7 0.957945 0.671527 0.318917
O O8 0.005447 0.872990 0.262260
O O9 0.250000 0.000000 0.236272
O O10 0.006391 0.000000 0.178312
O O11 0.250000 0.500000 0.092703
O O12 0.487102 0.500000 0.147758
O O13 0.491518 0.628547 0.063756
O O14 0.750000 0.258297 0.254191
O O15 0.004299 0.367149 0.227005
O O16 0.250000 0.500000 0.208308
O O17 0.986777 0.129588 0.905669
O O18 0.750000 0.000000 0.873710
O O19 0.250000 0.779991 0.046143
O O20 0.500000 0.823722 0.000000
#
# Coordination Sequence:
#
# PCOD8209604 Si02
#       8
#     8   8   4   4   8   4   4   8
#     4  10  22  40  63  93 125 159 202 252 300 349
#     4  10  22  41  62  85 119 164 203 238 295 364
#     4  11  23  40  62  88 115 153 206 250 291 360
#     4   9  19  34  54  78 108 145 185 228 285 346
#     4  11  23  41  60  87 124 161 196 247 311 360
#     4  11  21  38  64  88 113 157 206 246 289 354
#     4   9  19  36  56  76 106 145 183 230 289 348
#     4  10  19  34  54  77 106 141 180 228 284 345
#
# _framework density 19.775286999999999
#
# number of rings (size 3 to 8) (size 9 to 14) (size 15 to 20)
#    0.000    1.833    0.833    3.000    1.167    5.667 
#    0.000    5.000    0.000    0.000    0.000    0.000 
#    0.000    0.000    0.000    0.000    0.000    0.000 
#
# Total GULP energy -595371.071936 kJ/mol
# GULP energy per Si atom -12403.563999 kJ/mol
# Density = 1.973028 g / cm^3
# Si number density = 19.775287 Si / 1000 Ang^3
#
#
#
# Elastic Constant Matrix: (Units=GPa)
#
#
# Indices 1 2 3 4 5 6 
#
# 1 67.6900 28.5455 31.4314 0.0000 0.0000 0.0000
# 2 28.5455 110.2190 18.2854 0.0000 0.0000 0.0000
# 3 31.4314 18.2854 74.8215 0.0000 0.0000 0.0000
# 4 0.0000 0.0000 0.0000 34.9615 0.0000 0.0000
# 5 0.0000 0.0000 0.0000 0.0000 34.1095 0.0000
# 6 0.0000 0.0000 0.0000 0.0000 0.0000 28.5241
#
#
#
# Elastic Compliance Matrix: (Units=1/GPa)
#
#
# Indices 1 2 3 4 5 6 
#
# 1 0.019853 -0.003917 -0.007383 0.000000 0.000000 0.000000
# 2 -0.003917 0.010229 -0.000854 0.000000 0.000000 0.000000
# 3 -0.007383 -0.000854 0.016675 0.000000 0.000000 0.000000
# 4 0.000000 0.000000 0.000000 0.028603 0.000000 0.000000
# 5 0.000000 0.000000 0.000000 0.000000 0.029317 0.000000
# 6 0.000000 0.000000 0.000000 0.000000 0.000000 0.035058
#
#
# Mechanical properties :
#
#
# Convention : Reuss Voigt Hill
#
# Bulk Modulus (GPa) = 44.54478 45.47280 45.00879
# Shear Modulus (GPa) = 29.14989 31.15022 30.15006
#
# Velocity S-wave (km/s) = 3.84351 3.97320 3.90889
# Velocity P-wave (km/s) = 6.50163 6.64026 6.57131
#
# Compressibility (1/GPa) = 0.02244932
#
# Stress axis : x y z
#
# Youngs Moduli (GPa) = 50.36979 97.76094 59.96881
#
# Poissons Ratio (x) = 0.38292 0.44274
# Poissons Ratio (y) = 0.19730 0.05124
# Poissons Ratio (z) = 0.37187 0.08353
#
# Static dielectric constant tensor:
#      x y z
#    x 3.354980 0.000000 0.000000 
#    y 0.000000 3.814560 0.000000 
#    z 0.000000 0.000000 3.654390 
# 
# 
# High freq. dielectric constant tensor:
#      x y z
#    x 1.755730 0.000000 0.000000 
#    y 0.000000 1.787280 0.000000 
#    z 0.000000 0.000000 1.778740 
# 
# From -- ./inp_files/37269.got.cif
#   From: 2010.03.12/outbox.cif.g09.slc.cpg/sg51_19_cif.got.tgz:37269.got - 2010.04.16 13:43:02.
