data_PCOD8209281
_publ_section_title
;
Structure prediction by ZEFSAII (Michael W. Deem and Ramdas Pophale) SiO2 
 PCOD8209281
Probable space group: P M M A
;
_chemical_formula_sum "Si O2"
_cell_formula_units_Z 64
_cell_length_a 22.669456
_cell_length_b 8.892088
_cell_length_c 17.430586
_cell_angle_alpha 90.000000
_cell_angle_beta 90.000000
_cell_angle_gamma 90.000000
_cell_volume 3513.636568
_symmetry_space_group_name_H-M "P M M A"
_symmetry_group_IT_number 51
_symmetry_cell_setting 'orthorhombic'
loop_
_space_group_symop_operation_xyz
x,y,z
1/2-x,-y,z
1/2+x,-y,-z
-x,y,-z
-x,-y,-z
1/2+x,y,-z
1/2-x,y,z
x,-y,z
loop_
_atom_site_type_symbol
_atom_site_label
_atom_site_fract_x
_atom_site_fract_y
_atom_site_fract_z
Si Si1 0.814880 0.822260 0.567546
Si Si2 0.911469 0.822765 0.142471
Si Si3 0.580080 0.173171 0.673195
Si Si4 0.142166 0.822021 0.597049
Si Si5 0.930417 0.668957 0.989645
Si Si6 0.954396 0.828281 0.842162
Si Si7 0.979674 0.325037 0.415440
Si Si8 0.183466 0.325715 0.746404
O O1 0.750000 0.755420 0.584967
O O2 0.857888 0.774420 0.636729
O O3 0.837579 0.759506 0.485902
O O4 0.811751 0.000000 0.561284
O O5 0.863677 0.750795 0.198223
O O6 0.977603 0.773516 0.168526
O O7 0.903088 0.000000 0.145976
O O8 0.899113 0.765756 0.056001
O O9 0.582631 0.191280 0.764480
O O10 0.531379 0.286827 0.642855
O O11 0.565445 0.000000 0.650298
O O12 0.074836 0.775990 0.610243
O O13 0.181927 0.747029 0.662158
O O14 0.148656 0.000000 0.603526
O O15 0.905625 0.500000 0.993920
O O16 0.917660 0.736391 0.905658
O O17 0.000000 0.674657 0.000000
O O18 0.956494 0.000000 0.869949
O O19 0.963087 0.500000 0.410169
O O20 0.000000 0.278264 0.500000
O O21 0.250000 0.303637 0.778562
O O22 0.166963 0.500000 0.739769
#
# Coordination Sequence:
#
# PCOD8209281 Si02
#       8
#     8   8   8   8   8   8   8   8
#     4   9  18  32  51  74  98 130 175 223 263 302
#     4  10  19  33  54  79 107 138 176 220 264 317
#     4  10  19  33  53  76 104 138 177 220 268 318
#     4  11  21  35  56  77 102 137 182 227 267 316
#     4   9  17  30  51  78 107 138 168 203 255 316
#     4   9  18  31  50  79 108 135 171 218 270 319
#     4  11  22  34  50  75 108 138 171 217 274 333
#     4  11  24  39  54  76 109 146 183 225 273 323
#
# _framework density 18.214748
#
# number of rings (size 3 to 8) (size 9 to 14) (size 15 to 20)
#    0.000    2.000    1.250    3.000    0.000    5.500 
#    0.000    0.000    0.000    1.875    0.000    1.750 
#    0.000    0.000    0.000    0.000    0.000    0.000 
#
# Total GULP energy -793655.368542 kJ/mol
# GULP energy per Si atom -12400.865133 kJ/mol
# Density = 1.817329 g / cm^3
# Si number density = 18.214748 Si / 1000 Ang^3
#
#
#
# Elastic Constant Matrix: (Units=GPa)
#
#
# Indices 1 2 3 4 5 6 
#
# 1 97.2981 30.0921 52.6837 0.0000 0.0000 0.0000
# 2 30.0921 77.2983 45.1233 0.0000 0.0000 0.0000
# 3 52.6837 45.1233 129.4987 0.0000 0.0000 0.0000
# 4 0.0000 0.0000 0.0000 27.1342 0.0000 0.0000
# 5 0.0000 0.0000 0.0000 0.0000 17.5858 0.0000
# 6 0.0000 0.0000 0.0000 0.0000 0.0000 13.9206
#
#
#
# Elastic Compliance Matrix: (Units=1/GPa)
#
#
# Indices 1 2 3 4 5 6 
#
# 1 0.013582 -0.002588 -0.004624 0.000000 0.000000 0.000000
# 2 -0.002588 0.016734 -0.004778 0.000000 0.000000 0.000000
# 3 -0.004624 -0.004778 0.011268 0.000000 0.000000 0.000000
# 4 0.000000 0.000000 0.000000 0.036854 0.000000 0.000000
# 5 0.000000 0.000000 0.000000 0.000000 0.056864 0.000000
# 6 0.000000 0.000000 0.000000 0.000000 0.000000 0.071836
#
#
# Mechanical properties :
#
#
# Convention : Reuss Voigt Hill
#
# Bulk Modulus (GPa) = 56.80550 62.21035 59.50793
# Shear Modulus (GPa) = 21.09844 23.47451 22.28648
#
# Velocity S-wave (km/s) = 3.40710 3.59383 3.50171
# Velocity P-wave (km/s) = 6.83608 7.17278 7.00645
#
# Compressibility (1/GPa) = 0.01760393
#
# Stress axis : x y z
#
# Youngs Moduli (GPa) = 73.62858 59.76021 88.74815
#
# Poissons Ratio (x) = 0.15468 0.41033
# Poissons Ratio (y) = 0.19057 0.42402
# Poissons Ratio (z) = 0.34042 0.28552
#
# Static dielectric constant tensor:
#      x y z
#    x 3.298100 0.000000 0.000000 
#    y 0.000000 3.325440 0.000000 
#    z 0.000000 0.000000 3.468890 
# 
# 
# High freq. dielectric constant tensor:
#      x y z
#    x 1.682520 0.000000 0.000000 
#    y 0.000000 1.701820 0.000000 
#    z 0.000000 0.000000 1.709260 
# 
# From -- ./inp_files/30644.got.cif
#   From: 2010.03.12/outbox.cif.g09.slc.cpg/sg51_16_cif.got.tgz:30644.got - 2010.04.16 13:43:02.
