data_PCOD8209912
_publ_section_title
;
Structure prediction by ZEFSAII (Michael W. Deem and Ramdas Pophale) SiO2 
 PCOD8209912
Probable space group: P M M A
;
_chemical_formula_sum "Si O2"
_cell_formula_units_Z 48
_cell_length_a 20.291962
_cell_length_b 9.533311
_cell_length_c 13.974172
_cell_angle_alpha 90.000000
_cell_angle_beta 90.000000
_cell_angle_gamma 90.000000
_cell_volume 2703.297768
_symmetry_space_group_name_H-M "P M M A"
_symmetry_group_IT_number 51
_symmetry_cell_setting 'orthorhombic'
loop_
_space_group_symop_operation_xyz
x,y,z
1/2-x,-y,z
1/2+x,-y,-z
-x,y,-z
-x,-y,-z
1/2+x,y,-z
1/2-x,y,z
x,-y,z
loop_
_atom_site_type_symbol
_atom_site_label
_atom_site_fract_x
_atom_site_fract_y
_atom_site_fract_z
Si Si1 0.134140 0.339440 0.208753
Si Si2 0.620296 0.164844 0.202904
Si Si3 0.004482 0.337717 0.889760
Si Si4 0.750000 0.164781 0.879238
Si Si5 0.825653 0.659898 0.583766
Si Si6 0.174480 0.161651 0.593640
Si Si7 0.250000 0.163437 0.898477
O O1 0.157086 0.500000 0.189916
O O2 0.185040 0.232267 0.163662
O O3 0.130225 0.311430 0.322535
O O4 0.064313 0.308909 0.161758
O O5 0.557133 0.245218 0.165335
O O6 0.629011 0.195311 0.315399
O O7 0.684095 0.227169 0.148222
O O8 0.611091 0.000000 0.182488
O O9 0.025319 0.500000 0.883146
O O10 0.000000 0.289699 0.000000
O O11 0.750000 0.000000 0.856951
O O12 0.750000 0.197671 0.990733
O O13 0.750000 0.699351 0.608628
O O14 0.831180 0.500000 0.550376
O O15 0.853084 0.752482 0.496680
O O16 0.250000 0.203704 0.617461
O O17 0.170181 0.000000 0.565423
O O18 0.250000 0.000000 0.873888
#
# Coordination Sequence:
#
# PCOD8209912 Si02
#       7
#     8   8   8   4   8   8   4
#     4  10  20  37  55  73 107 147 176 213 270 322
#     4  10  19  35  57  78 106 142 177 215 267 324
#     4  10  22  38  55  77 107 144 184 223 265 315
#     4  11  21  31  52  83 106 128 175 229 262 305
#     4   9  17  31  52  76 101 135 176 213 257 316
#     4   9  17  31  53  80 107 136 170 215 270 316
#     4   9  18  33  52  77 106 136 171 215 266 321
#
# _framework density 17.756091000000001
#
# number of rings (size 3 to 8) (size 9 to 14) (size 15 to 20)
#    0.000    2.333    1.667    1.250    0.000    2.333 
#    0.000    2.083    0.000    5.000    0.000    0.000 
#    0.000    0.000    0.000    0.000    0.000    0.000 
#
# Total GULP energy -595262.687501 kJ/mol
# GULP energy per Si atom -12401.305990 kJ/mol
# Density = 1.771568 g / cm^3
# Si number density = 17.756091 Si / 1000 Ang^3
#
#
#
# Elastic Constant Matrix: (Units=GPa)
#
#
# Indices 1 2 3 4 5 6 
#
# 1 97.0807 56.1882 80.8284 0.0000 0.0000 0.0000
# 2 56.1882 77.2600 80.2688 0.0000 0.0000 0.0000
# 3 80.8284 80.2688 144.8608 0.0000 0.0000 0.0000
# 4 0.0000 0.0000 0.0000 31.8140 0.0000 0.0000
# 5 0.0000 0.0000 0.0000 0.0000 33.2607 0.0000
# 6 0.0000 0.0000 0.0000 0.0000 0.0000 28.0721
#
#
#
# Elastic Compliance Matrix: (Units=1/GPa)
#
#
# Indices 1 2 3 4 5 6 
#
# 1 0.020826 -0.007243 -0.007607 0.000000 0.000000 0.000000
# 2 -0.007243 0.033023 -0.014257 0.000000 0.000000 0.000000
# 3 -0.007607 -0.014257 0.019048 0.000000 0.000000 0.000000
# 4 0.000000 0.000000 0.000000 0.031433 0.000000 0.000000
# 5 0.000000 0.000000 0.000000 0.000000 0.030065 0.000000
# 6 0.000000 0.000000 0.000000 0.000000 0.000000 0.035623
#
#
# Mechanical properties :
#
#
# Convention : Reuss Voigt Hill
#
# Bulk Modulus (GPa) = 68.10598 83.75248 75.92923
# Shear Modulus (GPa) = 21.44758 25.42378 23.43568
#
# Velocity S-wave (km/s) = 3.47926 3.78806 3.63694
# Velocity P-wave (km/s) = 7.38783 8.14882 7.77764
#
# Compressibility (1/GPa) = 0.01468300
#
# Stress axis : x y z
#
# Youngs Moduli (GPa) = 48.01608 30.28199 52.49913
#
# Poissons Ratio (x) = 0.21932 0.39938
# Poissons Ratio (y) = 0.34776 0.74849
# Poissons Ratio (z) = 0.36528 0.43174
#
# Static dielectric constant tensor:
#      x y z
#    x 2.654080 0.000000 0.000000 
#    y 0.000000 3.219540 0.000000 
#    z 0.000000 0.000000 3.471610 
# 
# 
# High freq. dielectric constant tensor:
#      x y z
#    x 1.670550 0.000000 0.000000 
#    y 0.000000 1.678030 0.000000 
#    z 0.000000 0.000000 1.701310 
# 
# From -- ./inp_files/24923.got.cif
#   From: 2010.03.12/outbox.cif.g09.slc.cpg/sg51_13_cif.got.tgz:24923.got - 2010.04.16 13:43:02.
