data_PCOD8209631
_publ_section_title
;
Structure prediction by ZEFSAII (Michael W. Deem and Ramdas Pophale) SiO2 
 PCOD8209631
Probable space group: P M M A
;
_chemical_formula_sum "Si O2"
_cell_formula_units_Z 56
_cell_length_a 14.185190
_cell_length_b 8.635532
_cell_length_c 22.293744
_cell_angle_alpha 90.000000
_cell_angle_beta 90.000000
_cell_angle_gamma 90.000000
_cell_volume 2730.909227
_symmetry_space_group_name_H-M "P M M A"
_symmetry_group_IT_number 51
_symmetry_cell_setting 'orthorhombic'
loop_
_space_group_symop_operation_xyz
x,y,z
1/2-x,-y,z
1/2+x,-y,-z
-x,y,-z
-x,-y,-z
1/2+x,y,-z
1/2-x,y,z
x,-y,z
loop_
_atom_site_type_symbol
_atom_site_label
_atom_site_fract_x
_atom_site_fract_y
_atom_site_fract_z
Si Si1 0.648413 0.172735 0.252031
Si Si2 0.355166 0.671505 0.870173
Si Si3 0.550592 0.821908 0.705371
Si Si4 0.358945 0.816593 0.529732
Si Si5 0.357060 0.184508 0.170686
Si Si6 0.541157 0.318126 0.583125
Si Si7 0.513130 0.177882 0.934642
O O1 0.750000 0.189457 0.285768
O O2 0.642885 0.299673 0.200456
O O3 0.562585 0.197589 0.296998
O O4 0.640066 0.000000 0.223516
O O5 0.250000 0.682130 0.895733
O O6 0.397151 0.500000 0.882115
O O7 0.413083 0.804457 0.902948
O O8 0.592686 0.756149 0.768141
O O9 0.584200 0.722181 0.648650
O O10 0.581769 0.000000 0.696986
O O11 0.250000 0.764981 0.541782
O O12 0.389851 0.766597 0.463220
O O13 0.432362 0.738301 0.576317
O O14 0.368518 0.000000 0.536114
O O15 0.250000 0.244275 0.170188
O O16 0.408533 0.251777 0.110671
O O17 0.363634 0.000000 0.169388
O O18 0.545508 0.500000 0.571717
O O19 0.539406 0.000000 0.944773
O O20 0.500000 0.259500 0.000000
#
# Coordination Sequence:
#
# PCOD8209631 Si02
#       7
#     8   8   8   8   8   8   8
#     4   9  17  31  53  78 103 135 180 232 279 327
#     4  10  20  33  51  76 107 141 176 218 275 341
#     4  10  19  34  55  79 111 151 194 236 282 340
#     4  10  21  40  65  88 114 153 201 245 283 333
#     4   9  18  34  55  80 110 144 186 237 288 336
#     4  11  23  37  57  88 124 156 189 237 293 348
#     4  10  20  35  57  83 108 140 187 239 289 339
#
# _framework density 20.505991000000002
#
# number of rings (size 3 to 8) (size 9 to 14) (size 15 to 20)
#    0.000    2.143    1.429    3.000    0.000    4.571 
#    0.000    4.286    0.000    1.286    0.000    0.000 
#    0.000    0.000    0.000    0.000    0.000    0.000 
#
# Total GULP energy -693937.009776 kJ/mol
# GULP energy per Si atom -12391.732317 kJ/mol
# Density = 2.045932 g / cm^3
# Si number density = 20.505991 Si / 1000 Ang^3
#
#
#
# Elastic Constant Matrix: (Units=GPa)
#
#
# Indices 1 2 3 4 5 6 
#
# 1 92.6843 14.1517 28.2750 0.0000 0.0000 0.0000
# 2 14.1517 29.1167 5.1418 0.0000 0.0000 0.0000
# 3 28.2750 5.1418 118.9837 0.0000 0.0000 0.0000
# 4 0.0000 0.0000 0.0000 12.2643 0.0000 0.0000
# 5 0.0000 0.0000 0.0000 0.0000 13.7559 0.0000
# 6 0.0000 0.0000 0.0000 0.0000 0.0000 15.6047
#
#
#
# Elastic Compliance Matrix: (Units=1/GPa)
#
#
# Indices 1 2 3 4 5 6 
#
# 1 0.012472 -0.005581 -0.002723 0.000000 0.000000 0.000000
# 2 -0.005581 0.037106 -0.000277 0.000000 0.000000 0.000000
# 3 -0.002723 -0.000277 0.009064 0.000000 0.000000 0.000000
# 4 0.000000 0.000000 0.000000 0.081537 0.000000 0.000000
# 5 0.000000 0.000000 0.000000 0.000000 0.072696 0.000000
# 6 0.000000 0.000000 0.000000 0.000000 0.000000 0.064083
#
#
# Mechanical properties :
#
#
# Convention : Reuss Voigt Hill
#
# Bulk Modulus (GPa) = 24.10814 37.32462 30.71638
# Shear Modulus (GPa) = 16.23657 21.20606 18.72131
#
# Velocity S-wave (km/s) = 2.81694 3.21929 3.02481
# Velocity P-wave (km/s) = 4.72889 5.66214 5.21642
#
# Compressibility (1/GPa) = 0.04147976
#
# Stress axis : x y z
#
# Youngs Moduli (GPa) = 80.17921 26.94976 110.33265
#
# Poissons Ratio (x) = 0.15041 0.30040
# Poissons Ratio (y) = 0.44748 0.03059
# Poissons Ratio (z) = 0.21830 0.00747
#
# Static dielectric constant tensor:
#      x y z
#    x 3.902990 0.000000 0.000000 
#    y 0.000000 3.419460 0.000000 
#    z 0.000000 0.000000 3.715490 
# 
# 
# High freq. dielectric constant tensor:
#      x y z
#    x 1.801840 0.000000 0.000000 
#    y 0.000000 1.772500 0.000000 
#    z 0.000000 0.000000 1.795270 
# 
# From -- ./inp_files/33365.got.cif
#   From: 2010.03.12/outbox.cif.g09.slc.cpg/sg51_17_cif.got.tgz:33365.got - 2010.04.16 13:43:02.
