data_PCOD8209878
_publ_section_title
;
Structure prediction by ZEFSAII (Michael W. Deem and Ramdas Pophale) SiO2 
 PCOD8209878
Probable space group: P M M A
;
_chemical_formula_sum "Si O2"
_cell_formula_units_Z 48
_cell_length_a 15.741032
_cell_length_b 17.620577
_cell_length_c 9.234694
_cell_angle_alpha 90.000000
_cell_angle_beta 90.000000
_cell_angle_gamma 90.000000
_cell_volume 2561.390749
_symmetry_space_group_name_H-M "P M M A"
_symmetry_group_IT_number 51
_symmetry_cell_setting 'orthorhombic'
loop_
_space_group_symop_operation_xyz
x,y,z
1/2-x,-y,z
1/2+x,-y,-z
-x,y,-z
-x,-y,-z
1/2+x,y,-z
1/2-x,y,z
x,-y,z
loop_
_atom_site_type_symbol
_atom_site_label
_atom_site_fract_x
_atom_site_fract_y
_atom_site_fract_z
Si Si1 0.250000 0.410524 0.660188
Si Si2 0.999910 0.088848 0.334725
Si Si3 0.414662 0.411408 0.163763
Si Si4 0.156218 0.914512 0.142352
Si Si5 0.083637 0.818827 0.903882
Si Si6 0.403923 0.353203 0.847316
Si Si7 0.250000 0.590221 0.333187
O O1 0.250000 0.500000 0.661001
O O2 0.335927 0.382852 0.734027
O O3 0.250000 0.379451 0.496562
O O4 0.929550 0.135460 0.245411
O O5 0.000000 0.116772 0.500000
O O6 0.091949 0.108978 0.269219
O O7 0.977874 0.000000 0.323884
O O8 0.430336 0.500000 0.193494
O O9 0.499781 0.365972 0.210833
O O10 0.335266 0.379004 0.255336
O O11 0.392963 0.399311 0.995739
O O12 0.250000 0.908312 0.209950
O O13 0.135196 0.000000 0.090584
O O14 0.153044 0.861768 0.000624
O O15 0.115607 0.735007 0.869353
O O16 0.000000 0.815337 0.000000
O O17 0.250000 0.500000 0.322351
#
# Coordination Sequence:
#
# PCOD8209878 Si02
#       7
#     4   8   8   8   8   8   4
#     4  11  23  39  55  81 114 153 190 231 283 346
#     4   9  18  35  58  80 109 150 187 222 269 335
#     4  10  19  37  60  85 107 144 195 237 278 335
#     4   9  18  33  57  84 110 143 185 232 274 325
#     4  10  19  35  54  81 111 143 185 227 279 329
#     4  11  21  35  58  84 112 147 184 239 283 331
#     4   9  21  39  59  81 109 141 186 235 284 340
#
# _framework density 18.739819000000001
#
# number of rings (size 3 to 8) (size 9 to 14) (size 15 to 20)
#    0.000    2.167    1.667    3.000    1.167    3.333 
#    3.000    3.333    0.000    3.000    0.000    0.000 
#    0.000    0.000    0.000    0.000    0.000    0.000 
#
# Total GULP energy -595210.676272 kJ/mol
# GULP energy per Si atom -12400.222422 kJ/mol
# Density = 1.869717 g / cm^3
# Si number density = 18.739819 Si / 1000 Ang^3
#
#
#
# Elastic Constant Matrix: (Units=GPa)
#
#
# Indices 1 2 3 4 5 6 
#
# 1 122.4375 24.1372 65.5348 0.0000 0.0000 0.0000
# 2 24.1372 75.7147 33.9384 0.0000 0.0000 0.0000
# 3 65.5348 33.9384 126.5232 0.0000 0.0000 0.0000
# 4 0.0000 0.0000 0.0000 5.2439 0.0000 0.0000
# 5 0.0000 0.0000 0.0000 0.0000 25.7975 0.0000
# 6 0.0000 0.0000 0.0000 0.0000 0.0000 13.9598
#
#
#
# Elastic Compliance Matrix: (Units=1/GPa)
#
#
# Indices 1 2 3 4 5 6 
#
# 1 0.011383 -0.001121 -0.005596 0.000000 0.000000 0.000000
# 2 -0.001121 0.015123 -0.003476 0.000000 0.000000 0.000000
# 3 -0.005596 -0.003476 0.011734 0.000000 0.000000 0.000000
# 4 0.000000 0.000000 0.000000 0.190698 0.000000 0.000000
# 5 0.000000 0.000000 0.000000 0.000000 0.038763 0.000000
# 6 0.000000 0.000000 0.000000 0.000000 0.000000 0.071635
#
#
# Mechanical properties :
#
#
# Convention : Reuss Voigt Hill
#
# Bulk Modulus (GPa) = 56.00377 63.54404 59.77391
# Shear Modulus (GPa) = 13.67342 22.40456 18.03899
#
# Velocity S-wave (km/s) = 2.70412 3.46144 3.10595
# Velocity P-wave (km/s) = 6.30075 7.06807 6.69541
#
# Compressibility (1/GPa) = 0.01785594
#
# Stress axis : x y z
#
# Youngs Moduli (GPa) = 87.84692 66.12511 85.21927
#
# Poissons Ratio (x) = 0.07411 0.47685
# Poissons Ratio (y) = 0.09845 0.29622
# Poissons Ratio (z) = 0.49156 0.22985
#
# Static dielectric constant tensor:
#      x y z
#    x 3.473990 0.000000 0.000000 
#    y 0.000000 3.567940 0.000000 
#    z 0.000000 0.000000 3.446000 
# 
# 
# High freq. dielectric constant tensor:
#      x y z
#    x 1.728000 0.000000 0.000000 
#    y 0.000000 1.722620 0.000000 
#    z 0.000000 0.000000 1.716460 
# 
# From -- ./inp_files/8365.got.cif
#   From: 2010.03.12/outbox.cif.g09.slc.cpg/sg51_5_cif.got.tgz:8365.got - 2010.04.16 13:43:02.
