data_PCOD8209538
_publ_section_title
;
Structure prediction by ZEFSAII (Michael W. Deem and Ramdas Pophale) SiO2 
 PCOD8209538
Probable space group: P M M A
;
_chemical_formula_sum "Si O2"
_cell_formula_units_Z 40
_cell_length_a 9.127418
_cell_length_b 15.338230
_cell_length_c 14.430296
_cell_angle_alpha 90.000000
_cell_angle_beta 90.000000
_cell_angle_gamma 90.000000
_cell_volume 2020.218880
_symmetry_space_group_name_H-M "P M M A"
_symmetry_group_IT_number 51
_symmetry_cell_setting 'orthorhombic'
loop_
_space_group_symop_operation_xyz
x,y,z
1/2-x,-y,z
1/2+x,-y,-z
-x,y,-z
-x,-y,-z
1/2+x,y,-z
1/2-x,y,z
x,-y,z
loop_
_atom_site_type_symbol
_atom_site_label
_atom_site_fract_x
_atom_site_fract_y
_atom_site_fract_z
Si Si1 0.081155 0.650719 0.089651
Si Si2 0.423367 0.253449 0.597893
Si Si3 0.916713 0.096880 0.270362
Si Si4 0.080897 0.598705 0.290530
Si Si5 0.579064 0.146788 0.908693
O O1 0.250000 0.634889 0.070093
O O2 0.030879 0.602320 0.183166
O O3 0.042504 0.751718 0.103256
O O4 0.000000 0.611397 0.000000
O O5 0.500000 0.244921 0.500000
O O6 0.250000 0.260059 0.584264
O O7 0.470397 0.168026 0.655548
O O8 0.478340 0.340380 0.648325
O O9 0.750000 0.117776 0.240472
O O10 0.018187 0.097696 0.180436
O O11 0.928643 0.000000 0.314705
O O12 0.250000 0.629781 0.299128
O O13 0.062319 0.500000 0.326464
O O14 0.750000 0.127705 0.917869
O O15 0.500000 0.109503 0.000000
#
# Coordination Sequence:
#
# PCOD8209538 Si02
#       5
#     8   8   8   8   8
#     4   9  18  32  53  83 118 155 194 234 279 334
#     4  11  24  42  65  88 115 149 189 240 297 352
#     4  10  22  40  61  87 118 152 193 240 290 346
#     4  10  21  39  62  88 120 156 195 240 288 341
#     4  10  19  33  56  85 119 158 198 239 285 340
#
# _framework density 19.799834000000001
#
# number of rings (size 3 to 8) (size 9 to 14) (size 15 to 20)
#    0.000    2.000    2.000    1.200    0.000    4.800 
#    0.000    0.000    0.000    0.000    0.000    0.000 
#    0.000    0.000    0.000    0.000    0.000    0.000 
#
# Total GULP energy -496100.107895 kJ/mol
# GULP energy per Si atom -12402.502697 kJ/mol
# Density = 1.975477 g / cm^3
# Si number density = 19.799834 Si / 1000 Ang^3
#
#
#
# Elastic Constant Matrix: (Units=GPa)
#
#
# Indices 1 2 3 4 5 6 
#
# 1 83.8377 45.8943 60.7321 0.0000 0.0000 0.0000
# 2 45.8943 103.7190 60.0449 0.0000 0.0000 0.0000
# 3 60.7321 60.0449 139.2703 0.0000 0.0000 0.0000
# 4 0.0000 0.0000 0.0000 -226.6499 0.0000 0.0000
# 5 0.0000 0.0000 0.0000 0.0000 38.9305 0.0000
# 6 0.0000 0.0000 0.0000 0.0000 0.0000 23.7819
#
#
#
# Elastic Compliance Matrix: (Units=1/GPa)
#
#
# Indices 1 2 3 4 5 6 
#
# 1 0.019098 -0.004836 -0.006243 0.000000 0.000000 0.000000
# 2 -0.004836 0.014073 -0.003958 0.000000 0.000000 0.000000
# 3 -0.006243 -0.003958 0.011609 0.000000 0.000000 0.000000
# 4 0.000000 0.000000 0.000000 -0.004412 0.000000 0.000000
# 5 0.000000 0.000000 0.000000 0.000000 0.025687 0.000000
# 6 0.000000 0.000000 0.000000 0.000000 0.000000 0.042049
#
#
# Mechanical properties :
#
#
# Convention : Reuss Voigt Hill
#
# Bulk Modulus (GPa) = 68.00551 73.35218 70.67885
# Shear Modulus (GPa) = 34.94538 -22.11046 6.41746
#
# Velocity S-wave (km/s) = 4.20567 -3.34533 1.80228
# Velocity P-wave (km/s) = 7.61608 4.71229 6.33286
#
# Compressibility (1/GPa) = 0.01470469
#
# Stress axis : x y z
#
# Youngs Moduli (GPa) = 52.36251 71.05765 86.13817
#
# Poissons Ratio (x) = 0.34366 0.53775
# Poissons Ratio (y) = 0.25324 0.34097
# Poissons Ratio (z) = 0.32689 0.28128
#
# Static dielectric constant tensor:
#      x y z
#    x 3.569890 0.000000 0.000000 
#    y 0.000000 3.618240 0.000000 
#    z 0.000000 0.000000 3.631130 
# 
# 
# High freq. dielectric constant tensor:
#      x y z
#    x 1.769920 0.000000 0.000000 
#    y 0.000000 1.773690 0.000000 
#    z 0.000000 0.000000 1.768570 
# 
# From -- ./inp_files/20467.got.cif
#   From: 2010.03.12/outbox.cif.g09.slc.cpg/sg51_11_cif.got.tgz:20467.got - 2010.04.16 13:43:02.
