data_PCOD8209592
_publ_section_title
;
Structure prediction by ZEFSAII (Michael W. Deem and Ramdas Pophale) SiO2 
 PCOD8209592
Probable space group: P M M A
;
_chemical_formula_sum "Si O2"
_cell_formula_units_Z 40
_cell_length_a 9.666316
_cell_length_b 16.095697
_cell_length_c 14.225568
_cell_angle_alpha 90.000000
_cell_angle_beta 90.000000
_cell_angle_gamma 90.000000
_cell_volume 2213.300552
_symmetry_space_group_name_H-M "P M M A"
_symmetry_group_IT_number 51
_symmetry_cell_setting 'orthorhombic'
loop_
_space_group_symop_operation_xyz
x,y,z
1/2-x,-y,z
1/2+x,-y,-z
-x,y,-z
-x,-y,-z
1/2+x,y,-z
1/2-x,y,z
x,-y,z
loop_
_atom_site_type_symbol
_atom_site_label
_atom_site_fract_x
_atom_site_fract_y
_atom_site_fract_z
Si Si1 0.900087 0.500000 0.355286
Si Si2 0.091162 0.905815 0.411673
Si Si3 0.405820 0.323095 0.582195
Si Si4 0.912401 0.500000 0.822162
Si Si5 0.593158 0.241372 0.722627
Si Si6 0.408141 0.674237 0.087412
O O1 0.750000 0.500000 0.302794
O O2 0.906909 0.577901 0.425235
O O3 0.020428 0.500000 0.279754
O O4 0.250000 0.899509 0.443646
O O5 0.064067 0.851238 0.317495
O O6 0.000000 0.874344 0.500000
O O7 0.050403 0.000000 0.384765
O O8 0.500000 0.283606 0.500000
O O9 0.250000 0.286717 0.575576
O O10 0.477811 0.301661 0.680326
O O11 0.750000 0.500000 0.803774
O O12 0.958145 0.416583 0.876856
O O13 0.750000 0.269139 0.694690
O O14 0.575387 0.252668 0.834528
O O15 0.250000 0.668117 0.054114
O O16 0.500000 0.702347 0.000000
#
# Coordination Sequence:
#
# PCOD8209592 Si02
#       6
#     4   8   8   4   8   8
#     4  10  21  34  48  69  97 133 173 211 251 298
#     4   9  18  33  54  80 108 137 168 203 246 301
#     4  11  22  34  49  71 100 136 174 210 251 300
#     4  10  19  34  54  73  97 131 171 217 265 304
#     4  10  20  35  54  76 103 133 169 212 258 306
#     4  10  21  35  53  76 100 132 171 215 263 308
#
# _framework density 18.072558000000001
#
# number of rings (size 3 to 8) (size 9 to 14) (size 15 to 20)
#    0.000    2.000    2.000    1.800    0.000    4.800 
#    0.000    0.000    0.000    0.600    0.000    0.000 
#    0.000    0.000    0.000    0.000    0.000    0.000 
#
# Total GULP energy -495827.232401 kJ/mol
# GULP energy per Si atom -12395.680810 kJ/mol
# Density = 1.803142 g / cm^3
# Si number density = 18.072558 Si / 1000 Ang^3
#
#
#
# Elastic Constant Matrix: (Units=GPa)
#
#
# Indices 1 2 3 4 5 6 
#
# 1 101.8028 29.6424 57.0184 0.0000 0.0000 0.0000
# 2 29.6424 89.0049 38.4334 0.0000 0.0000 0.0000
# 3 57.0184 38.4334 103.8538 0.0000 0.0000 0.0000
# 4 0.0000 0.0000 0.0000 21.9980 0.0000 0.0000
# 5 0.0000 0.0000 0.0000 0.0000 35.6874 0.0000
# 6 0.0000 0.0000 0.0000 0.0000 0.0000 17.0155
#
#
#
# Elastic Compliance Matrix: (Units=1/GPa)
#
#
# Indices 1 2 3 4 5 6 
#
# 1 0.014384 -0.001643 -0.007289 0.000000 0.000000 0.000000
# 2 -0.001643 0.013560 -0.004116 0.000000 0.000000 0.000000
# 3 -0.007289 -0.004116 0.015154 0.000000 0.000000 0.000000
# 4 0.000000 0.000000 0.000000 0.045459 0.000000 0.000000
# 5 0.000000 0.000000 0.000000 0.000000 0.028021 0.000000
# 6 0.000000 0.000000 0.000000 0.000000 0.000000 0.058770
#
#
# Mechanical properties :
#
#
# Convention : Reuss Voigt Hill
#
# Bulk Modulus (GPa) = 58.81826 60.53887 59.67856
# Shear Modulus (GPa) = 24.14163 26.24466 25.19315
#
# Velocity S-wave (km/s) = 3.65885 3.81489 3.73768
# Velocity P-wave (km/s) = 7.10393 7.27838 7.19169
#
# Compressibility (1/GPa) = 0.01700152
#
# Stress axis : x y z
#
# Youngs Moduli (GPa) = 69.52260 73.74695 65.98873
#
# Poissons Ratio (x) = 0.12116 0.48100
# Poissons Ratio (y) = 0.11422 0.27162
# Poissons Ratio (z) = 0.50676 0.30355
#
# Static dielectric constant tensor:
#      x y z
#    x 3.461830 0.000000 0.000000 
#    y 0.000000 3.385480 0.000000 
#    z 0.000000 0.000000 3.076200 
# 
# 
# High freq. dielectric constant tensor:
#      x y z
#    x 1.709570 0.000000 0.000000 
#    y 0.000000 1.689270 0.000000 
#    z 0.000000 0.000000 1.675120 
# 
# From -- ./inp_files/20545.got.cif
#   From: 2010.03.12/outbox.cif.g09.slc.cpg/sg51_11_cif.got.tgz:20545.got - 2010.04.16 13:43:02.
