data_PCOD8209246
_publ_section_title
;
Structure prediction by ZEFSAII (Michael W. Deem and Ramdas Pophale) SiO2 
 PCOD8209246
Probable space group: P M M A
;
_chemical_formula_sum "Si O2"
_cell_formula_units_Z 56
_cell_length_a 23.833601
_cell_length_b 13.561167
_cell_length_c 9.212032
_cell_angle_alpha 90.000000
_cell_angle_beta 90.000000
_cell_angle_gamma 90.000000
_cell_volume 2977.434159
_symmetry_space_group_name_H-M "P M M A"
_symmetry_group_IT_number 51
_symmetry_cell_setting 'orthorhombic'
loop_
_space_group_symop_operation_xyz
x,y,z
1/2-x,-y,z
1/2+x,-y,-z
-x,y,-z
-x,-y,-z
1/2+x,y,-z
1/2-x,y,z
x,-y,z
loop_
_atom_site_type_symbol
_atom_site_label
_atom_site_fract_x
_atom_site_fract_y
_atom_site_fract_z
Si Si1 0.008457 0.114366 0.669062
Si Si2 0.687914 0.112021 0.366899
Si Si3 0.185523 0.605326 0.209843
Si Si4 0.097581 0.888706 0.132024
Si Si5 0.316834 0.804196 0.334549
Si Si6 0.185576 0.386896 0.870044
Si Si7 0.391996 0.207870 0.830735
O O1 0.951325 0.134982 0.754362
O O2 0.000000 0.137524 0.500000
O O3 0.052832 0.193030 0.732865
O O4 0.028097 0.000000 0.689910
O O5 0.750000 0.149285 0.330291
O O6 0.662927 0.172355 0.502984
O O7 0.652064 0.125750 0.222321
O O8 0.687625 0.000000 0.417531
O O9 0.250000 0.596979 0.253602
O O10 0.156060 0.500000 0.247428
O O11 0.159286 0.694485 0.301590
O O12 0.180131 0.627983 0.040891
O O13 0.156121 0.877818 0.217356
O O14 0.092366 0.000000 0.071917
O O15 0.093527 0.812495 0.998386
O O16 0.250000 0.814374 0.317254
O O17 0.250000 0.361165 0.821709
O O18 0.171952 0.500000 0.825231
O O19 0.138432 0.313999 0.801976
#
# Coordination Sequence:
#
# PCOD8209246 Si02
#       7
#     8   8   8   8   8   8   8
#     4  10  22  40  59  78 107 151 195 235 287 347
#     4  10  21  34  48  73 114 155 183 217 274 339
#     4   8  14  28  51  77 105 138 178 223 270 323
#     4  11  22  34  53  82 111 141 186 240 283 331
#     4  10  19  33  52  77 109 147 185 223 278 342
#     4   9  18  34  57  86 118 148 180 226 286 344
#     4  12  21  35  58  81 108 143 190 237 279 330
#
# _framework density 18.808140000000002
#
# number of rings (size 3 to 8) (size 9 to 14) (size 15 to 20)
#    0.000    2.000    1.429    4.286    0.000    3.714 
#    0.000    0.714    0.000    5.571    0.000    0.000 
#    0.000    0.000    0.000    0.000    0.000    0.000 
#
# Total GULP energy -694033.283189 kJ/mol
# GULP energy per Si atom -12393.451486 kJ/mol
# Density = 1.876533 g / cm^3
# Si number density = 18.808140 Si / 1000 Ang^3
#
#
#
# Elastic Constant Matrix: (Units=GPa)
#
#
# Indices 1 2 3 4 5 6 
#
# 1 78.6344 46.4102 46.8118 0.0000 0.0000 0.0000
# 2 46.4102 97.1481 33.2077 0.0000 0.0000 0.0000
# 3 46.8118 33.2077 94.5889 0.0000 0.0000 0.0000
# 4 0.0000 0.0000 0.0000 19.3456 0.0000 0.0000
# 5 0.0000 0.0000 0.0000 0.0000 31.1510 0.0000
# 6 0.0000 0.0000 0.0000 0.0000 0.0000 28.1560
#
#
#
# Elastic Compliance Matrix: (Units=1/GPa)
#
#
# Indices 1 2 3 4 5 6 
#
# 1 0.022244 -0.007799 -0.008270 0.000000 0.000000 0.000000
# 2 -0.007799 0.014432 -0.001207 0.000000 0.000000 0.000000
# 3 -0.008270 -0.001207 0.015089 0.000000 0.000000 0.000000
# 4 0.000000 0.000000 0.000000 0.051691 0.000000 0.000000
# 5 0.000000 0.000000 0.000000 0.000000 0.032102 0.000000
# 6 0.000000 0.000000 0.000000 0.000000 0.000000 0.035516
#
#
# Mechanical properties :
#
#
# Convention : Reuss Voigt Hill
#
# Bulk Modulus (GPa) = 58.10048 58.13677 58.11862
# Shear Modulus (GPa) = 23.65593 25.32664 24.49128
#
# Velocity S-wave (km/s) = 3.55032 3.67356 3.61247
# Velocity P-wave (km/s) = 6.91119 6.99792 6.95469
#
# Compressibility (1/GPa) = 0.01721156
#
# Stress axis : x y z
#
# Youngs Moduli (GPa) = 44.95676 69.29019 66.27512
#
# Poissons Ratio (x) = 0.54042 0.54810
# Poissons Ratio (y) = 0.35064 0.07998
# Poissons Ratio (z) = 0.37180 0.08362
#
# Static dielectric constant tensor:
#      x y z
#    x 3.359250 0.000000 0.000000 
#    y 0.000000 3.692500 0.000000 
#    z 0.000000 0.000000 3.349170 
# 
# 
# High freq. dielectric constant tensor:
#      x y z
#    x 1.711080 0.000000 0.000000 
#    y 0.000000 1.722420 0.000000 
#    z 0.000000 0.000000 1.726420 
# 
# From -- ./inp_files/11006.got.cif
#   From: 2010.03.12/outbox.cif.g09.slc.cpg/sg51_6_cif.got.tgz:11006.got - 2010.04.16 13:43:02.
