data_PCOD8209097
_publ_section_title
;
Structure prediction by ZEFSAII (Michael W. Deem and Ramdas Pophale) SiO2 
 PCOD8209097
Probable space group: P M M A
;
_chemical_formula_sum "Si O2"
_cell_formula_units_Z 56
_cell_length_a 9.426039
_cell_length_b 18.346565
_cell_length_c 17.957628
_cell_angle_alpha 90.000000
_cell_angle_beta 90.000000
_cell_angle_gamma 90.000000
_cell_volume 3105.510249
_symmetry_space_group_name_H-M "P M M A"
_symmetry_group_IT_number 51
_symmetry_cell_setting 'orthorhombic'
loop_
_space_group_symop_operation_xyz
x,y,z
1/2-x,-y,z
1/2+x,-y,-z
-x,y,-z
-x,-y,-z
1/2+x,y,-z
1/2-x,y,z
x,-y,z
loop_
_atom_site_type_symbol
_atom_site_label
_atom_site_fract_x
_atom_site_fract_y
_atom_site_fract_z
Si Si1 0.412599 0.281288 0.154131
Si Si2 0.420598 0.798564 0.298538
Si Si3 0.496865 0.317852 0.412137
Si Si4 0.082088 0.135408 0.075359
Si Si5 0.750000 0.417146 0.406708
Si Si6 0.914596 0.579980 0.924680
Si Si7 0.250000 0.419589 0.416943
Si Si8 0.585416 0.916026 0.218276
O O1 0.250000 0.295389 0.170792
O O2 0.476811 0.252901 0.231445
O O3 0.433909 0.221888 0.088852
O O4 0.480419 0.358467 0.129812
O O5 0.250000 0.811920 0.298313
O O6 0.474067 0.760889 0.374409
O O7 0.505153 0.874047 0.285919
O O8 0.500000 0.302210 0.500000
O O9 0.624874 0.365032 0.380790
O O10 0.378137 0.373414 0.386805
O O11 0.250000 0.113658 0.071515
O O12 0.004171 0.093526 0.142365
O O13 0.000000 0.113788 0.000000
O O14 0.750000 0.500000 0.372028
O O15 0.750000 0.427424 0.494766
O O16 0.750000 0.596474 0.942707
O O17 0.932256 0.500000 0.887618
O O18 0.000000 0.583622 0.000000
O O19 0.250000 0.500000 0.380852
O O20 0.750000 0.889782 0.208475
O O21 0.583076 0.000000 0.241308
#
# Coordination Sequence:
#
# PCOD8209097 Si02
#       8
#     8   8   8   8   4   8   4   8
#     4   8  16  30  47  68  97 130 169 215 258 308
#     4  10  20  36  56  78 106 137 175 220 269 327
#     4  10  19  32  53  80 109 143 184 226 269 320
#     4  10  19  32  53  80 110 141 176 219 265 316
#     4   9  18  30  48  74 109 145 178 221 269 315
#     4   9  16  27  44  64  88 122 164 209 252 291
#     4   9  16  30  50  76 107 141 180 221 265 315
#     4  10  22  39  58  81 107 139 176 214 266 331
#
# _framework density 18.032463
#
# number of rings (size 3 to 8) (size 9 to 14) (size 15 to 20)
#    0.000    2.571    0.714    2.571    1.000    3.143 
#    0.000    4.286    0.000    0.429    0.000    0.000 
#    0.000    0.000    0.000    0.000    0.000    0.000 
#
# Total GULP energy -693730.721172 kJ/mol
# GULP energy per Si atom -12388.048592 kJ/mol
# Density = 1.799142 g / cm^3
# Si number density = 18.032463 Si / 1000 Ang^3
#
#
#
# Elastic Constant Matrix: (Units=GPa)
#
#
# Indices 1 2 3 4 5 6 
#
# 1 125.2617 50.3269 35.0229 0.0000 0.0000 0.0000
# 2 50.3269 117.1689 39.1473 0.0000 0.0000 0.0000
# 3 35.0229 39.1473 59.7149 0.0000 0.0000 0.0000
# 4 0.0000 0.0000 0.0000 23.1029 0.0000 0.0000
# 5 0.0000 0.0000 0.0000 0.0000 22.5965 0.0000
# 6 0.0000 0.0000 0.0000 0.0000 0.0000 31.6486
#
#
#
# Elastic Compliance Matrix: (Units=1/GPa)
#
#
# Indices 1 2 3 4 5 6 
#
# 1 0.010359 -0.003098 -0.004044 0.000000 0.000000 0.000000
# 2 -0.003098 0.011855 -0.005955 0.000000 0.000000 0.000000
# 3 -0.004044 -0.005955 0.023022 0.000000 0.000000 0.000000
# 4 0.000000 0.000000 0.000000 0.043285 0.000000 0.000000
# 5 0.000000 0.000000 0.000000 0.000000 0.044255 0.000000
# 6 0.000000 0.000000 0.000000 0.000000 0.000000 0.031597
#
#
# Mechanical properties :
#
#
# Convention : Reuss Voigt Hill
#
# Bulk Modulus (GPa) = 52.51740 61.23773 56.87757
# Shear Modulus (GPa) = 25.39187 27.31284 26.35235
#
# Velocity S-wave (km/s) = 3.75656 3.89607 3.82695
# Velocity P-wave (km/s) = 6.92840 7.36699 7.15106
#
# Compressibility (1/GPa) = 0.01904131
#
# Stress axis : x y z
#
# Youngs Moduli (GPa) = 96.53591 84.35324 43.43664
#
# Poissons Ratio (x) = 0.26133 0.17568
# Poissons Ratio (y) = 0.29908 0.25865
# Poissons Ratio (z) = 0.39044 0.50230
#
# Static dielectric constant tensor:
#      x y z
#    x 3.296710 0.000000 0.000000 
#    y 0.000000 3.552330 0.000000 
#    z 0.000000 0.000000 3.074490 
# 
# 
# High freq. dielectric constant tensor:
#      x y z
#    x 1.701650 0.000000 0.000000 
#    y 0.000000 1.700430 0.000000 
#    z 0.000000 0.000000 1.663100 
# 
# From -- ./inp_files/32519.got.cif
#   From: 2010.03.12/outbox.cif.g09.slc.cpg/sg51_17_cif.got.tgz:32519.got - 2010.04.16 13:43:02.
