data_PCOD8209692
_publ_section_title
;
Structure prediction by ZEFSAII (Michael W. Deem and Ramdas Pophale) SiO2 
 PCOD8209692
Probable space group: P M M A
;
_chemical_formula_sum "Si O2"
_cell_formula_units_Z 48
_cell_length_a 9.053545
_cell_length_b 30.722831
_cell_length_c 9.301966
_cell_angle_alpha 90.000000
_cell_angle_beta 90.000000
_cell_angle_gamma 90.000000
_cell_volume 2587.346801
_symmetry_space_group_name_H-M "P M M A"
_symmetry_group_IT_number 51
_symmetry_cell_setting 'orthorhombic'
loop_
_space_group_symop_operation_xyz
x,y,z
1/2-x,-y,z
1/2+x,-y,-z
-x,y,-z
-x,-y,-z
1/2+x,y,-z
1/2-x,y,z
x,-y,z
loop_
_atom_site_type_symbol
_atom_site_label
_atom_site_fract_x
_atom_site_fract_y
_atom_site_fract_z
Si Si1 0.421699 0.748857 0.349736
Si Si2 0.575364 0.405279 0.343794
Si Si3 0.923907 0.000000 0.650745
Si Si4 0.917186 0.500000 0.354157
Si Si5 0.576569 0.825000 0.851859
Si Si6 0.424344 0.333412 0.152912
Si Si7 0.422776 0.923290 0.146555
O O1 0.500000 0.741382 0.500000
O O2 0.250000 0.752061 0.382980
O O3 0.479048 0.793207 0.274478
O O4 0.458968 0.709152 0.245507
O O5 0.500000 0.400100 0.500000
O O6 0.750000 0.394643 0.357790
O O7 0.548435 0.454007 0.275457
O O8 0.497499 0.374134 0.231218
O O9 0.977328 0.956595 0.732377
O O10 0.000000 0.000000 0.500000
O O11 0.750000 0.000000 0.629368
O O12 0.750000 0.500000 0.402618
O O13 0.000000 0.500000 0.500000
O O14 0.750000 0.819405 0.876858
O O15 0.533968 0.874235 0.806893
O O16 0.500000 0.811471 0.000000
O O17 0.250000 0.341293 0.133972
O O18 0.500000 0.326748 0.000000
O O19 0.250000 0.927727 0.119667
O O20 0.500000 0.936923 0.000000
#
# Coordination Sequence:
#
# PCOD8209692 Si02
#       7
#     8   8   4   4   8   8   8
#     4  10  22  37  54  77 105 135 170 210 255 305
#     4  10  19  34  56  82 110 140 175 215 257 306
#     4  10  21  34  48  72 104 136 169 212 258 302
#     4   8  16  30  51  78 107 138 172 210 254 302
#     4   9  18  34  54  77 103 133 168 209 254 303
#     4  11  23  38  55  77 104 137 175 217 263 311
#     4   9  18  33  53  75 101 132 170 211 253 302
#
# _framework density 18.551824
#
# number of rings (size 3 to 8) (size 9 to 14) (size 15 to 20)
#    0.000    2.333    0.000    2.250    0.000    5.333 
#    0.000    0.417    0.000    0.000    0.000    0.000 
#    0.000    0.000    0.000    0.000    0.000    0.000 
#
# Total GULP energy -595035.162756 kJ/mol
# GULP energy per Si atom -12396.565891 kJ/mol
# Density = 1.850960 g / cm^3
# Si number density = 18.551824 Si / 1000 Ang^3
#
#
#
# Elastic Constant Matrix: (Units=GPa)
#
#
# Indices 1 2 3 4 5 6 
#
# 1 68.2893 61.9647 64.9540 0.0000 0.0000 0.0000
# 2 61.9647 149.3932 91.3396 0.0000 0.0000 0.0000
# 3 64.9540 91.3396 148.0961 0.0000 0.0000 0.0000
# 4 0.0000 0.0000 0.0000 33.0898 0.0000 0.0000
# 5 0.0000 0.0000 0.0000 0.0000 36.0343 0.0000
# 6 0.0000 0.0000 0.0000 0.0000 0.0000 18.3587
#
#
#
# Elastic Compliance Matrix: (Units=1/GPa)
#
#
# Indices 1 2 3 4 5 6 
#
# 1 0.028864 -0.006794 -0.008469 0.000000 0.000000 0.000000
# 2 -0.006794 0.012345 -0.004634 0.000000 0.000000 0.000000
# 3 -0.008469 -0.004634 0.013325 0.000000 0.000000 0.000000
# 4 0.000000 0.000000 0.000000 0.030221 0.000000 0.000000
# 5 0.000000 0.000000 0.000000 0.000000 0.027751 0.000000
# 6 0.000000 0.000000 0.000000 0.000000 0.000000 0.054470
#
#
# Mechanical properties :
#
#
# Convention : Reuss Voigt Hill
#
# Bulk Modulus (GPa) = 67.84563 89.14390 78.49476
# Shear Modulus (GPa) = 23.62010 27.33126 25.47568
#
# Velocity S-wave (km/s) = 3.57206 3.84244 3.70971
# Velocity P-wave (km/s) = 7.32551 8.23659 7.79437
#
# Compressibility (1/GPa) = 0.01473934
#
# Stress axis : x y z
#
# Youngs Moduli (GPa) = 34.64528 81.00432 75.04613
#
# Poissons Ratio (x) = 0.55033 0.63559
# Poissons Ratio (y) = 0.23538 0.34778
# Poissons Ratio (z) = 0.29342 0.37539
#
# Static dielectric constant tensor:
#      x y z
#    x 3.419680 0.000000 0.000000 
#    y 0.000000 3.740380 0.000000 
#    z 0.000000 0.000000 3.175230 
# 
# 
# High freq. dielectric constant tensor:
#      x y z
#    x 1.721750 0.000000 0.000000 
#    y 0.000000 1.742790 0.000000 
#    z 0.000000 0.000000 1.704230 
# 
# From -- ./inp_files/6174.got.cif
#   From: 2010.03.12/outbox.cif.g09.slc.cpg/sg51_4_cif.got.tgz:6174.got - 2010.04.16 13:43:02.
