data_PCOD8209655
_publ_section_title
;
Structure prediction by ZEFSAII (Michael W. Deem and Ramdas Pophale) SiO2 
 PCOD8209655
Probable space group: P M M A
;
_chemical_formula_sum "Si O2"
_cell_formula_units_Z 32
_cell_length_a 20.008564
_cell_length_b 8.531426
_cell_length_c 9.985441
_cell_angle_alpha 90.000000
_cell_angle_beta 90.000000
_cell_angle_gamma 90.000000
_cell_volume 1704.530587
_symmetry_space_group_name_H-M "P M M A"
_symmetry_group_IT_number 51
_symmetry_cell_setting 'orthorhombic'
loop_
_space_group_symop_operation_xyz
x,y,z
1/2-x,-y,z
1/2+x,-y,-z
-x,y,-z
-x,-y,-z
1/2+x,y,-z
1/2-x,y,z
x,-y,z
loop_
_atom_site_type_symbol
_atom_site_label
_atom_site_fract_x
_atom_site_fract_y
_atom_site_fract_z
Si Si1 0.933197 0.684651 0.154554
Si Si2 0.074213 0.818651 0.129944
Si Si3 0.823832 0.313778 0.361109
Si Si4 0.327947 0.320285 0.337560
O O1 0.942439 0.500000 0.172454
O O2 0.877710 0.752780 0.256428
O O3 0.002871 0.767757 0.190031
O O4 0.909853 0.720758 0.003826
O O5 0.131404 0.789419 0.237897
O O6 0.072075 0.000000 0.091341
O O7 0.750000 0.247497 0.324814
O O8 0.821215 0.500000 0.354418
O O9 0.843584 0.263029 0.511540
O O10 0.250000 0.301288 0.305320
O O11 0.350426 0.500000 0.317779
#
# Coordination Sequence:
#
# PCOD8209655 Si02
#       4
#     8   8   8   8
#     4  10  19  34  56  78 101 133 175 216 256 303
#     4  11  22  35  50  73 108 141 171 209 254 304
#     4   8  16  32  55  81 103 125 163 216 262 299
#     4   9  18  35  57  78 101 131 169 211 254 303
#
# _framework density 18.773496999999999
#
# number of rings (size 3 to 8) (size 9 to 14) (size 15 to 20)
#    0.000    2.500    0.000    6.000    0.000    2.500 
#    0.000   10.000    0.000    5.250    0.000    0.000 
#    0.000    0.000    0.000    0.000    0.000    0.000 
#
# Total GULP energy -396803.165077 kJ/mol
# GULP energy per Si atom -12400.098909 kJ/mol
# Density = 1.873077 g / cm^3
# Si number density = 18.773497 Si / 1000 Ang^3
#
#
#
# Elastic Constant Matrix: (Units=GPa)
#
#
# Indices 1 2 3 4 5 6 
#
# 1 100.6188 17.6078 72.8657 0.0000 0.0000 0.0000
# 2 17.6078 46.0003 7.9547 0.0000 0.0000 0.0000
# 3 72.8657 7.9547 96.2536 0.0000 0.0000 0.0000
# 4 0.0000 0.0000 0.0000 5.4495 0.0000 0.0000
# 5 0.0000 0.0000 0.0000 0.0000 43.3357 0.0000
# 6 0.0000 0.0000 0.0000 0.0000 0.0000 6.7565
#
#
#
# Elastic Compliance Matrix: (Units=1/GPa)
#
#
# Indices 1 2 3 4 5 6 
#
# 1 0.023531 -0.006013 -0.017316 0.000000 0.000000 0.000000
# 2 -0.006013 0.023590 0.002602 0.000000 0.000000 0.000000
# 3 -0.017316 0.002602 0.023283 0.000000 0.000000 0.000000
# 4 0.000000 0.000000 0.000000 0.183504 0.000000 0.000000
# 5 0.000000 0.000000 0.000000 0.000000 0.023076 0.000000
# 6 0.000000 0.000000 0.000000 0.000000 0.000000 0.148006
#
#
# Mechanical properties :
#
#
# Convention : Reuss Voigt Hill
#
# Bulk Modulus (GPa) = 34.54173 48.85879 41.70026
# Shear Modulus (GPa) = 10.50213 20.73796 15.62004
#
# Velocity S-wave (km/s) = 2.36776 3.32722 2.88762
# Velocity P-wave (km/s) = 5.09060 6.39081 5.77739
#
# Compressibility (1/GPa) = 0.02895049
#
# Stress axis : x y z
#
# Youngs Moduli (GPa) = 42.49777 42.38997 42.95007
#
# Poissons Ratio (x) = 0.25487 0.74373
# Poissons Ratio (y) = 0.25552 -0.11176
# Poissons Ratio (z) = 0.73590 -0.11030
#
# Static dielectric constant tensor:
#      x y z
#    x 3.650140 0.000000 0.000000 
#    y 0.000000 3.176420 0.000000 
#    z 0.000000 0.000000 3.496480 
# 
# 
# High freq. dielectric constant tensor:
#      x y z
#    x 1.733110 0.000000 0.000000 
#    y 0.000000 1.706300 0.000000 
#    z 0.000000 0.000000 1.730110 
# 
# From -- ./inp_files/10262.got.cif
#   From: 2010.03.12/outbox.cif.g09.slc.cpg/sg51_6_cif.got.tgz:10262.got - 2010.04.16 13:43:02.
