data_PCOD8209884
_publ_section_title
;
Structure prediction by ZEFSAII (Michael W. Deem and Ramdas Pophale) SiO2 
 PCOD8209884
Probable space group: P M M A
;
_chemical_formula_sum "Si O2"
_cell_formula_units_Z 36
_cell_length_a 9.375151
_cell_length_b 14.499433
_cell_length_c 14.379482
_cell_angle_alpha 90.000000
_cell_angle_beta 90.000000
_cell_angle_gamma 90.000000
_cell_volume 1954.665881
_symmetry_space_group_name_H-M "P M M A"
_symmetry_group_IT_number 51
_symmetry_cell_setting 'orthorhombic'
loop_
_space_group_symop_operation_xyz
x,y,z
1/2-x,-y,z
1/2+x,-y,-z
-x,y,-z
-x,-y,-z
1/2+x,y,-z
1/2-x,y,z
x,-y,z
loop_
_atom_site_type_symbol
_atom_site_label
_atom_site_fract_x
_atom_site_fract_y
_atom_site_fract_z
Si Si1 0.081742 0.641395 0.747418
Si Si2 0.919787 0.500000 0.098046
Si Si3 0.081227 0.500000 0.595967
Si Si4 0.082395 0.149454 0.745005
Si Si5 0.906312 0.104562 0.920075
Si Si6 0.085985 0.000000 0.594159
O O1 0.250000 0.638586 0.748802
O O2 0.031079 0.590213 0.842235
O O3 0.030413 0.588772 0.654941
O O4 0.026193 0.745667 0.738538
O O5 0.750000 0.500000 0.080537
O O6 0.000000 0.500000 0.000000
O O7 0.250000 0.500000 0.577498
O O8 0.000000 0.500000 0.500000
O O9 0.250000 0.143777 0.769456
O O10 0.992012 0.102401 0.824895
O O11 0.049020 0.092907 0.651343
O O12 0.750000 0.152703 0.910425
O O13 0.880873 0.000000 0.951721
O O14 0.000000 0.155958 0.000000
O O15 0.000000 0.000000 0.500000
O O16 0.250000 0.000000 0.566192
#
# Coordination Sequence:
#
# PCOD8209884 Si02
#       6
#     8   4   4   8   8   4
#     4   8  17  33  53  74 102 136 170 205 255 312
#     4   9  17  33  54  76 102 137 169 205 250 302
#     4   9  17  33  54  76 100 131 167 209 260 312
#     4  10  19  35  55  76 102 137 177 218 259 306
#     4  10  20  33  51  75 103 136 171 210 252 298
#     4  10  22  36  53  74 101 136 175 216 264 312
#
# _framework density 18.417470000000002
#
# number of rings (size 3 to 8) (size 9 to 14) (size 15 to 20)
#    0.000    2.667    1.111    2.000    0.000    3.556 
#    0.000    6.667    0.000    0.000    0.000    0.000 
#    0.000    0.000    0.000    0.000    0.000    0.000 
#
# Total GULP energy -446152.450880 kJ/mol
# GULP energy per Si atom -12393.123636 kJ/mol
# Density = 1.837555 g / cm^3
# Si number density = 18.417470 Si / 1000 Ang^3
#
#
#
# Elastic Constant Matrix: (Units=GPa)
#
#
# Indices 1 2 3 4 5 6 
#
# 1 81.3386 29.0103 70.7333 0.0000 0.0000 0.0000
# 2 29.0103 121.4308 55.1822 0.0000 0.0000 0.0000
# 3 70.7333 55.1822 167.6742 0.0000 0.0000 0.0000
# 4 0.0000 0.0000 0.0000 9.3315 0.0000 0.0000
# 5 0.0000 0.0000 0.0000 0.0000 39.6416 0.0000
# 6 0.0000 0.0000 0.0000 0.0000 0.0000 14.7669
#
#
#
# Elastic Compliance Matrix: (Units=1/GPa)
#
#
# Indices 1 2 3 4 5 6 
#
# 1 0.019538 -0.001084 -0.007885 0.000000 0.000000 0.000000
# 2 -0.001084 0.009744 -0.002749 0.000000 0.000000 0.000000
# 3 -0.007885 -0.002749 0.010195 0.000000 0.000000 0.000000
# 4 0.000000 0.000000 0.000000 0.107164 0.000000 0.000000
# 5 0.000000 0.000000 0.000000 0.000000 0.025226 0.000000
# 6 0.000000 0.000000 0.000000 0.000000 0.000000 0.067719
#
#
# Mechanical properties :
#
#
# Convention : Reuss Voigt Hill
#
# Bulk Modulus (GPa) = 62.34765 75.58835 68.96800
# Shear Modulus (GPa) = 18.63098 27.11585 22.87341
#
# Velocity S-wave (km/s) = 3.18400 3.84120 3.52794
# Velocity P-wave (km/s) = 6.88790 7.79769 7.35687
#
# Compressibility (1/GPa) = 0.01603910
#
# Stress axis : x y z
#
# Youngs Moduli (GPa) = 51.18168 102.63222 98.08606
#
# Poissons Ratio (x) = 0.11130 0.77344
# Poissons Ratio (y) = 0.05550 0.26966
# Poissons Ratio (z) = 0.40358 0.28215
#
# Static dielectric constant tensor:
#      x y z
#    x 3.299380 0.000000 0.000000 
#    y 0.000000 4.406920 0.000000 
#    z 0.000000 0.000000 3.273760 
# 
# 
# High freq. dielectric constant tensor:
#      x y z
#    x 1.695060 0.000000 0.000000 
#    y 0.000000 1.707530 0.000000 
#    z 0.000000 0.000000 1.714460 
# 
# From -- ./inp_files/20398.got.cif
#   From: 2010.03.12/outbox.cif.g09.slc.cpg/sg51_11_cif.got.tgz:20398.got - 2010.04.16 13:43:02.
