data_PCOD8209520
_publ_section_title
;
Structure prediction by ZEFSAII (Michael W. Deem and Ramdas Pophale) SiO2 
 PCOD8209520
Probable space group: P M M A
;
_chemical_formula_sum "Si O2"
_cell_formula_units_Z 48
_cell_length_a 9.215116
_cell_length_b 14.226113
_cell_length_c 20.438907
_cell_angle_alpha 90.000000
_cell_angle_beta 90.000000
_cell_angle_gamma 90.000000
_cell_volume 2679.444267
_symmetry_space_group_name_H-M "P M M A"
_symmetry_group_IT_number 51
_symmetry_cell_setting 'orthorhombic'
loop_
_space_group_symop_operation_xyz
x,y,z
1/2-x,-y,z
1/2+x,-y,-z
-x,y,-z
-x,-y,-z
1/2+x,y,-z
1/2-x,y,z
x,-y,z
loop_
_atom_site_type_symbol
_atom_site_label
_atom_site_fract_x
_atom_site_fract_y
_atom_site_fract_z
Si Si1 0.083374 0.396067 0.740439
Si Si2 0.418374 0.395994 0.128305
Si Si3 0.416214 0.110081 0.817558
Si Si4 0.079539 0.794075 0.065335
Si Si5 0.917092 0.205694 0.319058
Si Si6 0.419353 0.891111 0.434793
O O1 0.250000 0.393564 0.761944
O O2 0.039604 0.500000 0.713890
O O3 0.054731 0.318062 0.684937
O O4 0.996593 0.368878 0.804941
O O5 0.250000 0.394806 0.145081
O O6 0.466674 0.500000 0.102992
O O7 0.455808 0.316866 0.074817
O O8 0.250000 0.133950 0.836217
O O9 0.521493 0.146275 0.874025
O O10 0.459398 0.159232 0.749788
O O11 0.440168 0.000000 0.808260
O O12 0.250000 0.812944 0.058202
O O13 0.000000 0.828892 0.000000
O O14 0.750000 0.182804 0.336955
O O15 0.022505 0.167527 0.374130
O O16 0.500000 0.856569 0.500000
O O17 0.250000 0.871616 0.443783
O O18 0.452872 0.000000 0.421247
#
# Coordination Sequence:
#
# PCOD8209520 Si02
#       6
#     8   8   8   8   8   8
#     4   9  17  30  52  81 109 138 172 211 257 310
#     4   9  18  33  52  75 103 133 167 212 265 317
#     4  10  21  37  56  78 104 135 174 219 266 316
#     4  11  23  37  54  74 101 136 175 219 268 321
#     4  10  19  33  56  83 112 142 174 214 261 311
#     4  10  21  36  55  81 113 147 182 219 261 310
#
# _framework density 17.914162000000001
#
# number of rings (size 3 to 8) (size 9 to 14) (size 15 to 20)
#    0.000    2.167    1.667    1.500    0.000    4.667 
#    0.000    0.000    0.000    0.500    0.000    0.000 
#    0.000    0.000    0.000    0.000    0.000    0.000 
#
# Total GULP energy -595207.884199 kJ/mol
# GULP energy per Si atom -12400.164254 kJ/mol
# Density = 1.787339 g / cm^3
# Si number density = 17.914162 Si / 1000 Ang^3
#
#
#
# Elastic Constant Matrix: (Units=GPa)
#
#
# Indices 1 2 3 4 5 6 
#
# 1 70.9792 42.6487 53.7485 0.0000 0.0000 0.0000
# 2 42.6487 89.0941 50.4963 0.0000 0.0000 0.0000
# 3 53.7485 50.4963 107.3902 0.0000 0.0000 0.0000
# 4 0.0000 0.0000 0.0000 21.8279 0.0000 0.0000
# 5 0.0000 0.0000 0.0000 0.0000 33.2444 0.0000
# 6 0.0000 0.0000 0.0000 0.0000 0.0000 26.3380
#
#
#
# Elastic Compliance Matrix: (Units=1/GPa)
#
#
# Indices 1 2 3 4 5 6 
#
# 1 0.025343 -0.006738 -0.009516 0.000000 0.000000 0.000000
# 2 -0.006738 0.017094 -0.004665 0.000000 0.000000 0.000000
# 3 -0.009516 -0.004665 0.016268 0.000000 0.000000 0.000000
# 4 0.000000 0.000000 0.000000 0.045813 0.000000 0.000000
# 5 0.000000 0.000000 0.000000 0.000000 0.030080 0.000000
# 6 0.000000 0.000000 0.000000 0.000000 0.000000 0.037968
#
#
# Mechanical properties :
#
#
# Convention : Reuss Voigt Hill
#
# Bulk Modulus (GPa) = 59.28912 62.36117 60.82515
# Shear Modulus (GPa) = 22.72450 24.32007 23.52228
#
# Velocity S-wave (km/s) = 3.56550 3.68854 3.62754
# Velocity P-wave (km/s) = 7.07944 7.28197 7.18142
#
# Compressibility (1/GPa) = 0.01686650
#
# Stress axis : x y z
#
# Youngs Moduli (GPa) = 39.45844 58.50073 61.46994
#
# Poissons Ratio (x) = 0.39419 0.58493
# Poissons Ratio (y) = 0.26588 0.28677
# Poissons Ratio (z) = 0.37548 0.27292
#
# Static dielectric constant tensor:
#      x y z
#    x 3.284450 0.000000 0.000000 
#    y 0.000000 3.629300 0.000000 
#    z 0.000000 0.000000 3.083810 
# 
# 
# High freq. dielectric constant tensor:
#      x y z
#    x 1.696940 0.000000 0.000000 
#    y 0.000000 1.702630 0.000000 
#    z 0.000000 0.000000 1.671150 
# 
# From -- ./inp_files/27515.got.cif
#   From: 2010.03.12/outbox.cif.g09.slc.cpg/sg51_14_cif.got.tgz:27515.got - 2010.04.16 13:43:02.
