data_PCOD8209689
_publ_section_title
;
Structure prediction by ZEFSAII (Michael W. Deem and Ramdas Pophale) SiO2 
 PCOD8209689
Probable space group: P M M A
;
_chemical_formula_sum "Si O2"
_cell_formula_units_Z 48
_cell_length_a 8.845721
_cell_length_b 30.513124
_cell_length_c 9.341708
_cell_angle_alpha 90.000000
_cell_angle_beta 90.000000
_cell_angle_gamma 90.000000
_cell_volume 2521.425841
_symmetry_space_group_name_H-M "P M M A"
_symmetry_group_IT_number 51
_symmetry_cell_setting 'orthorhombic'
loop_
_space_group_symop_operation_xyz
x,y,z
1/2-x,-y,z
1/2+x,-y,-z
-x,y,-z
-x,-y,-z
1/2+x,y,-z
1/2-x,y,z
x,-y,z
loop_
_atom_site_type_symbol
_atom_site_label
_atom_site_fract_x
_atom_site_fract_y
_atom_site_fract_z
Si Si1 0.428576 0.830369 0.345951
Si Si2 0.429323 0.652995 0.150381
Si Si3 0.423316 0.000000 0.850092
Si Si4 0.570361 0.417808 0.345454
Si Si5 0.571540 0.905038 0.156736
Si Si6 0.573797 0.752838 0.854653
Si Si7 0.572741 0.500000 0.155062
O O1 0.500000 0.830310 0.500000
O O2 0.250000 0.835192 0.356910
O O3 0.492932 0.870882 0.259276
O O4 0.477199 0.784619 0.272811
O O5 0.250000 0.645842 0.145229
O O6 0.501667 0.626436 0.280538
O O7 0.475890 0.703251 0.180648
O O8 0.500000 0.636998 0.000000
O O9 0.462641 0.953618 0.773183
O O10 0.250000 0.000000 0.888662
O O11 0.500000 0.000000 0.000000
O O12 0.500000 0.426566 0.500000
O O13 0.750000 0.413723 0.359152
O O14 0.520426 0.457482 0.242915
O O15 0.750000 0.895591 0.146955
O O16 0.500000 0.900895 0.000000
O O17 0.750000 0.755250 0.880995
O O18 0.500000 0.770181 0.000000
O O19 0.750000 0.500000 0.132404
O O20 0.500000 0.500000 0.000000
#
# Coordination Sequence:
#
# PCOD8209689 Si02
#       7
#     8   8   4   8   8   8   4
#     4  11  23  38  54  77 108 144 182 224 272 324
#     4  10  20  37  59  85 114 146 183 226 271 323
#     4   8  16  30  51  78 107 136 172 216 264 314
#     4  11  23  39  58  84 115 150 187 228 276 328
#     4  10  19  34  56  82 109 140 177 220 266 319
#     4   9  20  37  58  82 109 141 181 224 271 322
#     4  10  23  40  60  84 112 146 187 230 277 326
#
# _framework density 19.036847999999999
#
# number of rings (size 3 to 8) (size 9 to 14) (size 15 to 20)
#    0.000    2.000    0.000    3.250    0.000    7.333 
#    0.000    2.083    0.000    0.000    0.000    0.000 
#    0.000    0.000    0.000    0.000    0.000    0.000 
#
# Total GULP energy -595119.041166 kJ/mol
# GULP energy per Si atom -12398.313358 kJ/mol
# Density = 1.899352 g / cm^3
# Si number density = 19.036848 Si / 1000 Ang^3
#
#
#
# Elastic Constant Matrix: (Units=GPa)
#
#
# Indices 1 2 3 4 5 6 
#
# 1 77.9099 57.4272 58.2281 0.0000 0.0000 0.0000
# 2 57.4272 136.2832 86.7515 0.0000 0.0000 0.0000
# 3 58.2281 86.7515 154.1264 0.0000 0.0000 0.0000
# 4 0.0000 0.0000 0.0000 22.8969 0.0000 0.0000
# 5 0.0000 0.0000 0.0000 0.0000 37.3615 0.0000
# 6 0.0000 0.0000 0.0000 0.0000 0.0000 17.3893
#
#
#
# Elastic Compliance Matrix: (Units=1/GPa)
#
#
# Indices 1 2 3 4 5 6 
#
# 1 0.020424 -0.005757 -0.004475 0.000000 0.000000 0.000000
# 2 -0.005757 0.013058 -0.005174 0.000000 0.000000 0.000000
# 3 -0.004475 -0.005174 0.011091 0.000000 0.000000 0.000000
# 4 0.000000 0.000000 0.000000 0.043674 0.000000 0.000000
# 5 0.000000 0.000000 0.000000 0.000000 0.026766 0.000000
# 6 0.000000 0.000000 0.000000 0.000000 0.000000 0.057507
#
#
# Mechanical properties :
#
#
# Convention : Reuss Voigt Hill
#
# Bulk Modulus (GPa) = 72.68309 85.90369 79.29339
# Shear Modulus (GPa) = 24.04772 26.59039 25.31906
#
# Velocity S-wave (km/s) = 3.55804 3.74141 3.65088
# Velocity P-wave (km/s) = 7.42581 7.99294 7.71459
#
# Compressibility (1/GPa) = 0.01375836
#
# Stress axis : x y z
#
# Youngs Moduli (GPa) = 48.96212 76.58412 90.15947
#
# Poissons Ratio (x) = 0.44093 0.40350
# Poissons Ratio (y) = 0.28190 0.46652
# Poissons Ratio (z) = 0.21913 0.39628
#
# Static dielectric constant tensor:
#      x y z
#    x 3.572390 0.000000 0.000000 
#    y 0.000000 4.110920 0.000000 
#    z 0.000000 0.000000 3.278620 
# 
# 
# High freq. dielectric constant tensor:
#      x y z
#    x 1.750560 0.000000 0.000000 
#    y 0.000000 1.760910 0.000000 
#    z 0.000000 0.000000 1.726980 
# 
# From -- ./inp_files/6110.got.cif
#   From: 2010.03.12/outbox.cif.g09.slc.cpg/sg51_4_cif.got.tgz:6110.got - 2010.04.16 13:43:02.
