data_PCOD8209645
_publ_section_title
;
Structure prediction by ZEFSAII (Michael W. Deem and Ramdas Pophale) SiO2 
 PCOD8209645
Probable space group: P M M A
;
_chemical_formula_sum "Si O2"
_cell_formula_units_Z 48
_cell_length_a 8.664689
_cell_length_b 20.248747
_cell_length_c 14.542787
_cell_angle_alpha 90.000000
_cell_angle_beta 90.000000
_cell_angle_gamma 90.000000
_cell_volume 2551.518824
_symmetry_space_group_name_H-M "P M M A"
_symmetry_group_IT_number 51
_symmetry_cell_setting 'orthorhombic'
loop_
_space_group_symop_operation_xyz
x,y,z
1/2-x,-y,z
1/2+x,-y,-z
-x,y,-z
-x,-y,-z
1/2+x,y,-z
1/2-x,y,z
x,-y,z
loop_
_atom_site_type_symbol
_atom_site_label
_atom_site_fract_x
_atom_site_fract_y
_atom_site_fract_z
Si Si1 0.931629 0.220671 0.904753
Si Si2 0.068649 0.185999 0.717599
Si Si3 0.432646 0.303839 0.399774
Si Si4 0.566375 0.573189 0.714990
Si Si5 0.929273 0.923121 0.597490
Si Si6 0.069893 0.626011 0.093822
O O1 0.750000 0.207521 0.900088
O O2 0.973224 0.297529 0.895068
O O3 0.016710 0.182503 0.823144
O O4 0.000000 0.192803 0.000000
O O5 0.250000 0.197339 0.709208
O O6 0.981395 0.244930 0.666418
O O7 0.021170 0.116106 0.675010
O O8 0.500000 0.292477 0.500000
O O9 0.250000 0.304399 0.406402
O O10 0.495825 0.373146 0.358120
O O11 0.750000 0.577599 0.718697
O O12 0.510769 0.500000 0.684919
O O13 0.501248 0.588594 0.817127
O O14 0.750000 0.903436 0.598114
O O15 0.000000 0.902727 0.500000
O O16 0.954253 0.000000 0.617854
O O17 0.250000 0.614858 0.087300
O O18 0.000000 0.596404 0.000000
#
# Coordination Sequence:
#
# PCOD8209645 Si02
#       6
#     8   8   8   8   8   8
#     4  10  19  34  55  83 114 147 184 230 280 330
#     4  12  23  36  58  86 115 150 188 230 275 326
#     4  11  22  38  56  78 106 140 184 235 285 336
#     4   9  18  34  54  74 102 142 182 224 281 340
#     4  10  21  38  60  87 120 155 189 228 275 329
#     4   9  17  31  51  76 104 137 174 219 273 330
#
# _framework density 18.812325000000001
#
# number of rings (size 3 to 8) (size 9 to 14) (size 15 to 20)
#    0.000    1.833    1.667    3.500    0.000    2.333 
#    0.000    0.000    0.000    4.000    0.000    0.000 
#    0.000    0.000    0.000    0.000    0.000    0.000 
#
# Total GULP energy -595295.559179 kJ/mol
# GULP energy per Si atom -12401.990816 kJ/mol
# Density = 1.876951 g / cm^3
# Si number density = 18.812325 Si / 1000 Ang^3
#
#
#
# Elastic Constant Matrix: (Units=GPa)
#
#
# Indices 1 2 3 4 5 6 
#
# 1 63.6385 25.9917 32.4331 0.0000 0.0000 0.0000
# 2 25.9917 73.8133 46.6118 0.0000 0.0000 0.0000
# 3 32.4331 46.6118 135.1616 0.0000 0.0000 0.0000
# 4 0.0000 0.0000 0.0000 35.4970 0.0000 0.0000
# 5 0.0000 0.0000 0.0000 0.0000 33.8866 0.0000
# 6 0.0000 0.0000 0.0000 0.0000 0.0000 15.4399
#
#
#
# Elastic Compliance Matrix: (Units=1/GPa)
#
#
# Indices 1 2 3 4 5 6 
#
# 1 0.019209 -0.004926 -0.002911 0.000000 0.000000 0.000000
# 2 -0.004926 0.018583 -0.005226 0.000000 0.000000 0.000000
# 3 -0.002911 -0.005226 0.009899 0.000000 0.000000 0.000000
# 4 0.000000 0.000000 0.000000 0.028171 0.000000 0.000000
# 5 0.000000 0.000000 0.000000 0.000000 0.029510 0.000000
# 6 0.000000 0.000000 0.000000 0.000000 0.000000 0.064767
#
#
# Mechanical properties :
#
#
# Convention : Reuss Voigt Hill
#
# Bulk Modulus (GPa) = 46.37135 53.63187 50.00161
# Shear Modulus (GPa) = 24.57554 28.13647 26.35600
#
# Velocity S-wave (km/s) = 3.61827 3.87155 3.74705
# Velocity P-wave (km/s) = 6.49298 6.96821 6.73479
#
# Compressibility (1/GPa) = 0.02156504
#
# Stress axis : x y z
#
# Youngs Moduli (GPa) = 52.05879 53.81357 101.01691
#
# Poissons Ratio (x) = 0.26509 0.29402
# Poissons Ratio (y) = 0.25645 0.52795
# Poissons Ratio (z) = 0.15152 0.28125
#
# Static dielectric constant tensor:
#      x y z
#    x 3.358860 0.000000 0.000000 
#    y 0.000000 3.401580 0.000000 
#    z 0.000000 0.000000 3.566840 
# 
# 
# High freq. dielectric constant tensor:
#      x y z
#    x 1.723770 0.000000 0.000000 
#    y 0.000000 1.714900 0.000000 
#    z 0.000000 0.000000 1.740730 
# 
# From -- ./inp_files/21113.got.cif
#   From: 2010.03.12/outbox.cif.g09.slc.cpg/sg51_11_cif.got.tgz:21113.got - 2010.04.16 13:43:02.
