data_PCOD8209372
_publ_section_title
;
Structure prediction by ZEFSAII (Michael W. Deem and Ramdas Pophale) SiO2 
 PCOD8209372
Probable space group: P M M A
;
_chemical_formula_sum "Si O2"
_cell_formula_units_Z 48
_cell_length_a 8.930799
_cell_length_b 30.487758
_cell_length_c 9.260632
_cell_angle_alpha 90.000000
_cell_angle_beta 90.000000
_cell_angle_gamma 90.000000
_cell_volume 2521.485239
_symmetry_space_group_name_H-M "P M M A"
_symmetry_group_IT_number 51
_symmetry_cell_setting 'orthorhombic'
loop_
_space_group_symop_operation_xyz
x,y,z
1/2-x,-y,z
1/2+x,-y,-z
-x,y,-z
-x,-y,-z
1/2+x,y,-z
1/2-x,y,z
x,-y,z
loop_
_atom_site_type_symbol
_atom_site_label
_atom_site_fract_x
_atom_site_fract_y
_atom_site_fract_z
Si Si1 0.578118 0.000000 0.151325
Si Si2 0.072834 0.334340 0.846170
Si Si3 0.574343 0.905994 0.154402
Si Si4 0.923078 0.163297 0.647621
Si Si5 0.572699 0.500000 0.156725
Si Si6 0.424584 0.265028 0.348994
Si Si7 0.574529 0.417684 0.344351
O O1 0.542751 0.953672 0.233773
O O2 0.750000 0.000000 0.109543
O O3 0.500000 0.000000 0.000000
O O4 0.250000 0.329039 0.865284
O O5 0.030298 0.373170 0.736868
O O6 0.003363 0.289958 0.782394
O O7 0.000000 0.344830 0.000000
O O8 0.750000 0.896078 0.142742
O O9 0.496960 0.865639 0.230741
O O10 0.500000 0.908855 0.000000
O O11 0.750000 0.151905 0.634768
O O12 0.950068 0.214050 0.684607
O O13 0.000000 0.149860 0.500000
O O14 0.750000 0.500000 0.135526
O O15 0.517198 0.457706 0.245723
O O16 0.500000 0.500000 0.000000
O O17 0.500000 0.278752 0.500000
O O18 0.250000 0.277296 0.357688
O O19 0.500000 0.419125 0.500000
O O20 0.750000 0.421384 0.369468
#
# Coordination Sequence:
#
# PCOD8209372 Si02
#       7
#     4   8   8   8   4   8   8
#     4   8  16  30  49  74 103 136 174 216 262 314
#     4  11  23  38  57  83 113 145 183 227 275 324
#     4  10  19  33  54  79 107 139 177 220 266 317
#     4  10  21  37  56  79 107 140 178 220 269 322
#     4  10  21  38  58  84 116 148 185 228 276 324
#     4  10  21  38  59  81 107 141 180 222 269 324
#     4  10  22  38  58  84 113 147 187 228 271 325
#
# _framework density 19.0364
#
# number of rings (size 3 to 8) (size 9 to 14) (size 15 to 20)
#    0.000    2.000    0.000    3.250    0.000    6.667 
#    0.000    0.417    0.000    0.000    0.000    0.000 
#    0.000    0.000    0.000    0.000    0.000    0.000 
#
# Total GULP energy -595088.212093 kJ/mol
# GULP energy per Si atom -12397.671085 kJ/mol
# Density = 1.899307 g / cm^3
# Si number density = 19.036400 Si / 1000 Ang^3
#
#
#
# Elastic Constant Matrix: (Units=GPa)
#
#
# Indices 1 2 3 4 5 6 
#
# 1 98.0369 57.7900 57.9039 0.0000 0.0000 0.0000
# 2 57.7900 106.5868 64.6315 0.0000 0.0000 0.0000
# 3 57.9039 64.6315 127.9152 0.0000 0.0000 0.0000
# 4 0.0000 0.0000 0.0000 17.0001 0.0000 0.0000
# 5 0.0000 0.0000 0.0000 0.0000 39.9962 0.0000
# 6 0.0000 0.0000 0.0000 0.0000 0.0000 31.4147
#
#
#
# Elastic Compliance Matrix: (Units=1/GPa)
#
#
# Indices 1 2 3 4 5 6 
#
# 1 0.016444 -0.006346 -0.004237 0.000000 0.000000 0.000000
# 2 -0.006346 0.015976 -0.005199 0.000000 0.000000 0.000000
# 3 -0.004237 -0.005199 0.012363 0.000000 0.000000 0.000000
# 4 0.000000 0.000000 0.000000 0.058823 0.000000 0.000000
# 5 0.000000 0.000000 0.000000 0.000000 0.025002 0.000000
# 6 0.000000 0.000000 0.000000 0.000000 0.000000 0.031832
#
#
# Mechanical properties :
#
#
# Convention : Reuss Voigt Hill
#
# Bulk Modulus (GPa) = 75.66069 77.02110 76.34089
# Shear Modulus (GPa) = 25.45691 27.82978 26.64334
#
# Velocity S-wave (km/s) = 3.66084 3.82766 3.74518
# Velocity P-wave (km/s) = 7.59609 7.75128 7.67408
#
# Compressibility (1/GPa) = 0.01321690
#
# Stress axis : x y z
#
# Youngs Moduli (GPa) = 60.81320 62.59567 80.88894
#
# Poissons Ratio (x) = 0.39726 0.34273
# Poissons Ratio (y) = 0.38594 0.42055
# Poissons Ratio (z) = 0.25767 0.32544
#
# Static dielectric constant tensor:
#      x y z
#    x 3.599530 0.000000 0.000000 
#    y 0.000000 3.882330 0.000000 
#    z 0.000000 0.000000 3.287660 
# 
# 
# High freq. dielectric constant tensor:
#      x y z
#    x 1.750800 0.000000 0.000000 
#    y 0.000000 1.760320 0.000000 
#    z 0.000000 0.000000 1.727270 
# 
# From -- ./inp_files/6233.got.cif
#   From: 2010.03.12/outbox.cif.g09.slc.cpg/sg51_4_cif.got.tgz:6233.got - 2010.04.16 13:43:02.
