data_PCOD8209021
_publ_section_title
;
Structure prediction by ZEFSAII (Michael W. Deem and Ramdas Pophale) SiO2 
 PCOD8209021
Probable space group: P M M A
;
_chemical_formula_sum "Si O2"
_cell_formula_units_Z 64
_cell_length_a 22.748478
_cell_length_b 8.808134
_cell_length_c 17.419925
_cell_angle_alpha 90.000000
_cell_angle_beta 90.000000
_cell_angle_gamma 90.000000
_cell_volume 3490.458985
_symmetry_space_group_name_H-M "P M M A"
_symmetry_group_IT_number 51
_symmetry_cell_setting 'orthorhombic'
loop_
_space_group_symop_operation_xyz
x,y,z
1/2-x,-y,z
1/2+x,-y,-z
-x,y,-z
-x,-y,-z
1/2+x,y,-z
1/2-x,y,z
x,-y,z
loop_
_atom_site_type_symbol
_atom_site_label
_atom_site_fract_x
_atom_site_fract_y
_atom_site_fract_z
Si Si1 0.315673 0.675042 0.240750
Si Si2 0.685015 0.179647 0.070249
Si Si3 0.086108 0.678337 0.359845
Si Si4 0.518357 0.321701 0.915903
Si Si5 0.431324 0.169244 0.514291
Si Si6 0.858973 0.820660 0.907009
Si Si7 0.951219 0.677496 0.332417
Si Si8 0.582105 0.821360 0.180645
O O1 0.250000 0.695919 0.275743
O O2 0.329217 0.500000 0.223014
O O3 0.365036 0.737416 0.299554
O O4 0.316864 0.764921 0.160770
O O5 0.750000 0.245211 0.087277
O O6 0.642821 0.228217 0.139983
O O7 0.687302 0.000000 0.063213
O O8 0.662173 0.246406 0.989022
O O9 0.091627 0.500000 0.374243
O O10 0.100458 0.760183 0.440147
O O11 0.020668 0.719384 0.330038
O O12 0.529770 0.500000 0.913900
O O13 0.576268 0.237258 0.888546
O O14 0.468735 0.278038 0.856349
O O15 0.500000 0.264351 0.000000
O O16 0.500000 0.161348 0.500000
O O17 0.420788 0.276837 0.587461
O O18 0.406307 0.000000 0.529304
O O19 0.858435 0.000000 0.909091
O O20 0.941644 0.500000 0.317860
O O21 0.916240 0.775706 0.269497
O O22 0.570020 0.000000 0.170137
#
# Coordination Sequence:
#
# PCOD8209021 Si02
#       8
#     8   8   8   8   8   8   8   8
#     4  10  21  36  53  76 109 147 185 224 268 320
#     4   9  19  35  53  73  99 134 175 220 268 313
#     4   9  18  33  52  74 104 141 174 207 258 318
#     4  11  22  35  52  75 107 139 172 216 271 328
#     4   9  17  30  51  79 107 132 164 206 253 309
#     4  11  21  35  56  78 104 137 181 228 270 318
#     4  10  19  32  52  79 111 141 171 211 265 323
#     4  11  21  34  54  78 106 138 177 220 265 314
#
# _framework density 18.335697
#
# number of rings (size 3 to 8) (size 9 to 14) (size 15 to 20)
#    0.000    2.000    1.250    3.000    0.000    4.750 
#    0.000    0.000    0.000    4.500    0.000    0.000 
#    0.000    0.000    0.000    0.000    0.000    0.000 
#
# Total GULP energy -793675.483890 kJ/mol
# GULP energy per Si atom -12401.179436 kJ/mol
# Density = 1.829396 g / cm^3
# Si number density = 18.335697 Si / 1000 Ang^3
#
#
#
# Elastic Constant Matrix: (Units=GPa)
#
#
# Indices 1 2 3 4 5 6 
#
# 1 98.1666 20.7874 50.2135 0.0000 0.0000 0.0000
# 2 20.7874 50.5821 31.8545 0.0000 0.0000 0.0000
# 3 50.2135 31.8545 127.9377 0.0000 0.0000 0.0000
# 4 0.0000 0.0000 0.0000 34.4395 0.0000 0.0000
# 5 0.0000 0.0000 0.0000 0.0000 20.4143 0.0000
# 6 0.0000 0.0000 0.0000 0.0000 0.0000 10.6890
#
#
#
# Elastic Compliance Matrix: (Units=1/GPa)
#
#
# Indices 1 2 3 4 5 6 
#
# 1 0.013012 -0.002528 -0.004478 0.000000 0.000000 0.000000
# 2 -0.002528 0.023937 -0.004968 0.000000 0.000000 0.000000
# 3 -0.004478 -0.004968 0.010811 0.000000 0.000000 0.000000
# 4 0.000000 0.000000 0.000000 0.029036 0.000000 0.000000
# 5 0.000000 0.000000 0.000000 0.000000 0.048985 0.000000
# 6 0.000000 0.000000 0.000000 0.000000 0.000000 0.093554
#
#
# Mechanical properties :
#
#
# Convention : Reuss Voigt Hill
#
# Bulk Modulus (GPa) = 41.99294 53.59969 47.79632
# Shear Modulus (GPa) = 19.90278 24.69728 22.30003
#
# Velocity S-wave (km/s) = 3.29822 3.67406 3.49120
# Velocity P-wave (km/s) = 6.12016 6.87708 6.50963
#
# Compressibility (1/GPa) = 0.02381353
#
# Stress axis : x y z
#
# Youngs Moduli (GPa) = 76.84923 41.77591 92.50072
#
# Poissons Ratio (x) = 0.10560 0.41420
# Poissons Ratio (y) = 0.19425 0.45954
# Poissons Ratio (z) = 0.34412 0.20754
#
# Static dielectric constant tensor:
#      x y z
#    x 3.385430 0.000000 0.000000 
#    y 0.000000 3.291660 0.000000 
#    z 0.000000 0.000000 3.587250 
# 
# 
# High freq. dielectric constant tensor:
#      x y z
#    x 1.687770 0.000000 0.000000 
#    y 0.000000 1.705590 0.000000 
#    z 0.000000 0.000000 1.715140 
# 
# From -- ./inp_files/30649.got.cif
#   From: 2010.03.12/outbox.cif.g09.slc.cpg/sg51_16_cif.got.tgz:30649.got - 2010.04.16 13:43:02.
