data_PCOD8209128
_publ_section_title
;
Structure prediction by ZEFSAII (Michael W. Deem and Ramdas Pophale) SiO2 
 PCOD8209128
Probable space group: P M M A
;
_chemical_formula_sum "Si O2"
_cell_formula_units_Z 64
_cell_length_a 19.978796
_cell_length_b 8.990115
_cell_length_c 19.849085
_cell_angle_alpha 90.000000
_cell_angle_beta 90.000000
_cell_angle_gamma 90.000000
_cell_volume 3565.127376
_symmetry_space_group_name_H-M "P M M A"
_symmetry_group_IT_number 51
_symmetry_cell_setting 'orthorhombic'
loop_
_space_group_symop_operation_xyz
x,y,z
1/2-x,-y,z
1/2+x,-y,-z
-x,y,-z
-x,-y,-z
1/2+x,y,-z
1/2-x,y,z
x,-y,z
loop_
_atom_site_type_symbol
_atom_site_label
_atom_site_fract_x
_atom_site_fract_y
_atom_site_fract_z
Si Si1 0.673504 0.170980 0.420022
Si Si2 0.327957 0.171198 0.097068
Si Si3 0.103716 0.672089 0.696206
Si Si4 0.564752 0.324340 0.814236
Si Si5 0.430587 0.824558 0.469805
Si Si6 0.676049 0.823657 0.054706
Si Si7 0.073513 0.822817 0.833077
Si Si8 0.453135 0.669895 0.336633
O O1 0.750000 0.189897 0.441706
O O2 0.660492 0.267925 0.353599
O O3 0.629460 0.229811 0.482359
O O4 0.655535 0.000000 0.403411
O O5 0.250000 0.191659 0.113816
O O6 0.369148 0.275951 0.146827
O O7 0.349544 0.000000 0.107350
O O8 0.343452 0.224709 0.021016
O O9 0.116404 0.500000 0.713349
O O10 0.107016 0.765044 0.764731
O O11 0.032656 0.695802 0.660079
O O12 0.552832 0.500000 0.819778
O O13 0.499969 0.243852 0.845383
O O14 0.573763 0.277426 0.736169
O O15 0.500000 0.761456 0.500000
O O16 0.417637 0.763775 0.394924
O O17 0.433085 0.000000 0.464289
O O18 0.750000 0.760197 0.073381
O O19 0.620450 0.764109 0.106277
O O20 0.679622 0.000000 0.057410
O O21 0.068672 0.000000 0.831094
O O22 0.434334 0.500000 0.349502
#
# Coordination Sequence:
#
# PCOD8209128 Si02
#       8
#     8   8   8   8   8   8   8   8
#     4  10  21  36  52  74 105 137 170 211 259 311
#     4   9  18  35  58  80 102 134 179 225 269 321
#     4  10  20  34  51  74 105 137 172 213 258 309
#     4  10  21  36  52  77 112 143 175 219 267 315
#     4  10  19  32  54  80 100 126 170 218 259 302
#     4   8  16  32  53  77 104 135 176 223 267 317
#     4  10  19  32  54  80 107 141 179 219 264 312
#     4   9  19  34  52  74 100 134 171 208 252 307
#
# _framework density 17.951673
#
# number of rings (size 3 to 8) (size 9 to 14) (size 15 to 20)
#    0.000    2.500    1.250    2.625    0.000    4.750 
#    0.000    5.625    0.000    4.875    0.000    0.000 
#    0.000    0.000    0.000    0.000    0.000    0.000 
#
# Total GULP energy -793642.741104 kJ/mol
# GULP energy per Si atom -12400.667830 kJ/mol
# Density = 1.791081 g / cm^3
# Si number density = 17.951673 Si / 1000 Ang^3
#
#
#
# Elastic Constant Matrix: (Units=GPa)
#
#
# Indices 1 2 3 4 5 6 
#
# 1 96.6109 35.8994 69.5776 0.0000 0.0000 0.0000
# 2 35.8994 57.2009 39.5657 0.0000 0.0000 0.0000
# 3 69.5776 39.5657 119.7361 0.0000 0.0000 0.0000
# 4 0.0000 0.0000 0.0000 15.6502 0.0000 0.0000
# 5 0.0000 0.0000 0.0000 0.0000 31.5781 0.0000
# 6 0.0000 0.0000 0.0000 0.0000 0.0000 18.6186
#
#
#
# Elastic Compliance Matrix: (Units=1/GPa)
#
#
# Indices 1 2 3 4 5 6 
#
# 1 0.019083 -0.005582 -0.009244 0.000000 0.000000 0.000000
# 2 -0.005582 0.024295 -0.004784 0.000000 0.000000 0.000000
# 3 -0.009244 -0.004784 0.015304 0.000000 0.000000 0.000000
# 4 0.000000 0.000000 0.000000 0.063897 0.000000 0.000000
# 5 0.000000 0.000000 0.000000 0.000000 0.031668 0.000000
# 6 0.000000 0.000000 0.000000 0.000000 0.000000 0.053710
#
#
# Mechanical properties :
#
#
# Convention : Reuss Voigt Hill
#
# Bulk Modulus (GPa) = 51.38581 62.62592 57.00586
# Shear Modulus (GPa) = 19.71113 21.73639 20.72376
#
# Velocity S-wave (km/s) = 3.31722 3.48347 3.40136
# Velocity P-wave (km/s) = 6.58472 7.15129 6.87385
#
# Compressibility (1/GPa) = 0.01946063
#
# Stress axis : x y z
#
# Youngs Moduli (GPa) = 52.40402 41.16099 65.34098
#
# Poissons Ratio (x) = 0.22976 0.60402
# Poissons Ratio (y) = 0.29252 0.31261
# Poissons Ratio (z) = 0.48443 0.19693
#
# Static dielectric constant tensor:
#      x y z
#    x 3.277130 0.000000 0.000000 
#    y 0.000000 3.152460 0.000000 
#    z 0.000000 0.000000 3.395390 
# 
# 
# High freq. dielectric constant tensor:
#      x y z
#    x 1.683730 0.000000 0.000000 
#    y 0.000000 1.683590 0.000000 
#    z 0.000000 0.000000 1.699750 
# 
# From -- ./inp_files/33893.got.cif
#   From: 2010.03.12/outbox.cif.g09.slc.cpg/sg51_17_cif.got.tgz:33893.got - 2010.04.16 13:43:02.
