data_PCOD8209724
_publ_section_title
;
Structure prediction by ZEFSAII (Michael W. Deem and Ramdas Pophale) SiO2 
 PCOD8209724
Probable space group: P M M A
;
_chemical_formula_sum "Si O2"
_cell_formula_units_Z 64
_cell_length_a 9.283327
_cell_length_b 19.718000
_cell_length_c 19.861330
_cell_angle_alpha 90.000000
_cell_angle_beta 90.000000
_cell_angle_gamma 90.000000
_cell_volume 3635.589481
_symmetry_space_group_name_H-M "P M M A"
_symmetry_group_IT_number 51
_symmetry_cell_setting 'orthorhombic'
loop_
_space_group_symop_operation_xyz
x,y,z
1/2-x,-y,z
1/2+x,-y,-z
-x,y,-z
-x,-y,-z
1/2+x,y,-z
1/2-x,y,z
x,-y,z
loop_
_atom_site_type_symbol
_atom_site_label
_atom_site_fract_x
_atom_site_fract_y
_atom_site_fract_z
Si Si1 0.083535 0.079536 0.433151
Si Si2 0.913621 0.290607 0.436858
Si Si3 0.586321 0.171119 0.336605
Si Si4 0.582495 0.747588 0.212029
Si Si5 0.914216 0.426053 0.114395
Si Si6 0.578615 0.386042 0.758578
Si Si7 0.415030 0.574555 0.631299
Si Si8 0.085332 0.718353 0.936880
O O1 0.250000 0.099445 0.441860
O O2 0.000000 0.104489 0.500000
O O3 0.020338 0.114892 0.366457
O O4 0.062561 0.000000 0.422516
O O5 0.750000 0.290540 0.459958
O O6 0.939928 0.242856 0.372906
O O7 0.965870 0.366937 0.419981
O O8 0.000000 0.261383 0.500000
O O9 0.750000 0.145637 0.347411
O O10 0.555926 0.184329 0.256692
O O11 0.750000 0.725382 0.218025
O O12 0.482591 0.689887 0.243083
O O13 0.542756 0.756833 0.132874
O O14 0.750000 0.416929 0.140709
O O15 0.931293 0.500000 0.077975
O O16 0.950556 0.362329 0.066677
O O17 0.023329 0.425922 0.176364
O O18 0.750000 0.384373 0.758180
O O19 0.520531 0.426301 0.694628
O O20 0.250000 0.589623 0.654061
O O21 0.426076 0.500000 0.597022
O O22 0.250000 0.731295 0.953661
O O23 0.000000 0.749805 0.000000
#
# Coordination Sequence:
#
# PCOD8209724 Si02
#       8
#     8   8   8   8   8   8   8   8
#     4  10  21  36  54  80 116 152 182 209 243 293
#     4  10  21  35  50  70  93 121 160 205 252 299
#     4  10  19  34  57  79 101 132 174 217 249 289
#     4   9  18  35  54  71  96 131 167 201 244 301
#     4   9  18  32  47  61  83 121 161 194 243 314
#     4  11  20  29  45  70  94 114 147 204 261 301
#     4  10  20  35  51  62  82 122 163 199 251 317
#     4   9  18  31  48  68  94 126 160 200 249 305
#
# _framework density 17.603749000000001
#
# number of rings (size 3 to 8) (size 9 to 14) (size 15 to 20)
#    0.000    2.250    1.250    3.000    0.000    7.750 
#    0.000    0.000    0.000    0.000    0.000    0.000 
#    0.000    0.500    0.000    1.125    0.000    2.000 
#
# Total GULP energy -793296.153659 kJ/mol
# GULP energy per Si atom -12395.252401 kJ/mol
# Density = 1.756368 g / cm^3
# Si number density = 17.603749 Si / 1000 Ang^3
#
#
#
# Elastic Constant Matrix: (Units=GPa)
#
#
# Indices 1 2 3 4 5 6 
#
# 1 85.1089 30.3859 45.7231 0.0000 0.0000 0.0000
# 2 30.3859 51.0856 31.7364 0.0000 0.0000 0.0000
# 3 45.7231 31.7364 102.2745 0.0000 0.0000 0.0000
# 4 0.0000 0.0000 0.0000 16.8773 0.0000 0.0000
# 5 0.0000 0.0000 0.0000 0.0000 25.7629 0.0000
# 6 0.0000 0.0000 0.0000 0.0000 0.0000 20.6531
#
#
#
# Elastic Compliance Matrix: (Units=1/GPa)
#
#
# Indices 1 2 3 4 5 6 
#
# 1 0.017151 -0.006737 -0.005577 0.000000 0.000000 0.000000
# 2 -0.006737 0.026896 -0.005334 0.000000 0.000000 0.000000
# 3 -0.005577 -0.005334 0.013926 0.000000 0.000000 0.000000
# 4 0.000000 0.000000 0.000000 0.059251 0.000000 0.000000
# 5 0.000000 0.000000 0.000000 0.000000 0.038816 0.000000
# 6 0.000000 0.000000 0.000000 0.000000 0.000000 0.048419
#
#
# Mechanical properties :
#
#
# Convention : Reuss Voigt Hill
#
# Bulk Modulus (GPa) = 44.09775 50.46221 47.27998
# Shear Modulus (GPa) = 20.21723 21.36690 20.79207
#
# Velocity S-wave (km/s) = 3.39257 3.48770 3.44047
# Velocity P-wave (km/s) = 6.36008 6.70422 6.53442
#
# Compressibility (1/GPa) = 0.02267689
#
# Stress axis : x y z
#
# Youngs Moduli (GPa) = 58.30548 37.18039 71.80727
#
# Poissons Ratio (x) = 0.25048 0.40048
# Poissons Ratio (y) = 0.39279 0.38304
# Poissons Ratio (z) = 0.32518 0.19833
#
# Static dielectric constant tensor:
#      x y z
#    x 3.214290 0.000000 0.000000 
#    y 0.000000 3.033860 0.000000 
#    z 0.000000 0.000000 3.177900 
# 
# 
# High freq. dielectric constant tensor:
#      x y z
#    x 1.678800 0.000000 0.000000 
#    y 0.000000 1.645980 0.000000 
#    z 0.000000 0.000000 1.666630 
# 
# From -- ./inp_files/32319.got.cif
#   From: 2010.03.12/outbox.cif.g09.slc.cpg/sg51_17_cif.got.tgz:32319.got - 2010.04.16 13:43:02.
