data_PCOD8209270
_publ_section_title
;
Structure prediction by ZEFSAII (Michael W. Deem and Ramdas Pophale) SiO2 
 PCOD8209270
Probable space group: P M M A
;
_chemical_formula_sum "Si O2"
_cell_formula_units_Z 44
_cell_length_a 9.200779
_cell_length_b 10.307651
_cell_length_c 25.302237
_cell_angle_alpha 90.000000
_cell_angle_beta 90.000000
_cell_angle_gamma 90.000000
_cell_volume 2399.624151
_symmetry_space_group_name_H-M "P M M A"
_symmetry_group_IT_number 51
_symmetry_cell_setting 'orthorhombic'
loop_
_space_group_symop_operation_xyz
x,y,z
1/2-x,-y,z
1/2+x,-y,-z
-x,y,-z
-x,-y,-z
1/2+x,y,-z
1/2-x,y,z
x,-y,z
loop_
_atom_site_type_symbol
_atom_site_label
_atom_site_fract_x
_atom_site_fract_y
_atom_site_fract_z
Si Si1 0.088445 0.500000 0.551861
Si Si2 0.080214 0.350941 0.844857
Si Si3 0.580582 0.150804 0.246113
Si Si4 0.087080 0.653656 0.049921
Si Si5 0.591361 0.854661 0.653742
Si Si6 0.920231 0.219827 0.443681
O O1 0.250000 0.500000 0.529977
O O2 0.059419 0.365069 0.581976
O O3 0.000000 0.500000 0.500000
O O4 0.250000 0.339624 0.857670
O O5 0.041845 0.500000 0.828279
O O6 0.032792 0.248245 0.800284
O O7 0.993912 0.306569 0.896589
O O8 0.750000 0.164319 0.258399
O O9 0.499176 0.206915 0.298069
O O10 0.543188 0.000000 0.232063
O O11 0.250000 0.711571 0.050498
O O12 0.093362 0.500000 0.044606
O O13 0.000000 0.712648 0.000000
O O14 0.750000 0.785613 0.645891
O O15 0.499966 0.865903 0.599537
O O16 0.620608 0.000000 0.671602
O O17 0.750000 0.182135 0.449965
O O18 0.000000 0.203435 0.500000
#
# Coordination Sequence:
#
# PCOD8209270 Si02
#       6
#     4   8   8   8   8   8
#     4   8  16  30  48  70  94 122 152 184 225 278
#     4   9  17  30  49  74 102 129 161 205 250 291
#     4   9  18  34  54  72  94 130 170 204 245 299
#     4   9  16  26  43  69 101 135 167 201 244 293
#     4  10  21  36  52  71  96 126 162 202 242 288
#     4  10  19  33  53  75  99 126 157 195 240 292
#
# _framework density 18.336205
#
# number of rings (size 3 to 8) (size 9 to 14) (size 15 to 20)
#    0.000    2.727    0.000    1.636    0.000    5.091 
#    1.636    0.000    0.000    0.545    0.000    0.000 
#    0.000    0.000    0.000    0.000    0.000    0.000 
#
# Total GULP energy -545082.253918 kJ/mol
# GULP energy per Si atom -12388.233044 kJ/mol
# Density = 1.829447 g / cm^3
# Si number density = 18.336205 Si / 1000 Ang^3
#
#
#
# Elastic Constant Matrix: (Units=GPa)
#
#
# Indices 1 2 3 4 5 6 
#
# 1 117.1709 25.7113 80.6951 0.0000 0.0000 0.0000
# 2 25.7113 51.4266 40.4151 0.0000 0.0000 0.0000
# 3 80.6951 40.4151 154.8763 0.0000 0.0000 0.0000
# 4 0.0000 0.0000 0.0000 22.2957 0.0000 0.0000
# 5 0.0000 0.0000 0.0000 0.0000 36.0780 0.0000
# 6 0.0000 0.0000 0.0000 0.0000 0.0000 14.9039
#
#
#
# Elastic Compliance Matrix: (Units=1/GPa)
#
#
# Indices 1 2 3 4 5 6 
#
# 1 0.013405 -0.001526 -0.006586 0.000000 0.000000 0.000000
# 2 -0.001526 0.024635 -0.005633 0.000000 0.000000 0.000000
# 3 -0.006586 -0.005633 0.011359 0.000000 0.000000 0.000000
# 4 0.000000 0.000000 0.000000 0.044852 0.000000 0.000000
# 5 0.000000 0.000000 0.000000 0.000000 0.027718 0.000000
# 6 0.000000 0.000000 0.000000 0.000000 0.000000 0.067096
#
#
# Mechanical properties :
#
#
# Convention : Reuss Voigt Hill
#
# Bulk Modulus (GPa) = 45.64661 68.56853 57.10757
# Shear Modulus (GPa) = 22.33543 26.43236 24.38389
#
# Velocity S-wave (km/s) = 3.49392 3.80088 3.65063
# Velocity P-wave (km/s) = 6.42067 7.53250 6.99870
#
# Compressibility (1/GPa) = 0.02190743
#
# Stress axis : x y z
#
# Youngs Moduli (GPa) = 74.59667 40.59200 88.03955
#
# Poissons Ratio (x) = 0.06195 0.57986
# Poissons Ratio (y) = 0.11384 0.49597
# Poissons Ratio (z) = 0.49132 0.22867
#
# Static dielectric constant tensor:
#      x y z
#    x 3.681850 0.000000 0.000000 
#    y 0.000000 3.315260 0.000000 
#    z 0.000000 0.000000 3.223790 
# 
# 
# High freq. dielectric constant tensor:
#      x y z
#    x 1.724220 0.000000 0.000000 
#    y 0.000000 1.680340 0.000000 
#    z 0.000000 0.000000 1.701310 
# 
# From -- ./inp_files/34564.got.cif
#   From: 2010.03.12/outbox.cif.g09.slc.cpg/sg51_18_cif.got.tgz:34564.got - 2010.04.16 13:43:02.
