data_PCOD8209049
_publ_section_title
;
Structure prediction by ZEFSAII (Michael W. Deem and Ramdas Pophale) SiO2 
 PCOD8209049
Probable space group: P M M A
;
_chemical_formula_sum "Si O2"
_cell_formula_units_Z 48
_cell_length_a 25.177409
_cell_length_b 9.304899
_cell_length_c 11.646106
_cell_angle_alpha 90.000000
_cell_angle_beta 90.000000
_cell_angle_gamma 90.000000
_cell_volume 2728.371077
_symmetry_space_group_name_H-M "P M M A"
_symmetry_group_IT_number 51
_symmetry_cell_setting 'orthorhombic'
loop_
_space_group_symop_operation_xyz
x,y,z
1/2-x,-y,z
1/2+x,-y,-z
-x,y,-z
-x,-y,-z
1/2+x,y,-z
1/2-x,y,z
x,-y,z
loop_
_atom_site_type_symbol
_atom_site_label
_atom_site_fract_x
_atom_site_fract_y
_atom_site_fract_z
Si Si1 0.439229 0.665631 0.512504
Si Si2 0.896430 0.832236 0.274051
Si Si3 0.188167 0.663920 0.861043
Si Si4 0.000218 0.832942 0.869560
Si Si5 0.808325 0.329341 0.880365
Si Si6 0.091495 0.333591 0.257605
O O1 0.500000 0.716728 0.500000
O O2 0.437547 0.500000 0.552576
O O3 0.410049 0.763295 0.604320
O O4 0.407982 0.688669 0.393811
O O5 0.842376 0.764486 0.227593
O O6 0.942302 0.800065 0.182247
O O7 0.887686 0.000000 0.293527
O O8 0.250000 0.675159 0.831328
O O9 0.168358 0.500000 0.847132
O O10 0.177289 0.719827 0.990475
O O11 0.957382 0.748956 0.796419
O O12 0.985530 0.000000 0.863360
O O13 0.000000 0.776975 0.000000
O O14 0.750000 0.268041 0.845082
O O15 0.805392 0.500000 0.877835
O O16 0.853075 0.271788 0.792850
O O17 0.084523 0.500000 0.225119
#
# Coordination Sequence:
#
# PCOD8209049 Si02
#       6
#     8   8   8   8   8   8
#     4  10  20  35  52  73 105 140 177 221 260 304
#     4  11  22  34  52  76 103 138 176 213 258 311
#     4   9  18  34  56  79 104 134 166 208 261 310
#     4  10  21  34  48  72 106 136 164 208 264 316
#     4   8  15  30  53  80 105 128 163 212 261 309
#     4  10  19  32  53  77  99 133 175 214 258 305
#
# _framework density 17.592914
#
# number of rings (size 3 to 8) (size 9 to 14) (size 15 to 20)
#    0.000    2.333    1.667    2.500    0.000    2.333 
#    0.000    0.833    0.000    4.500    0.000    0.000 
#    0.000    0.000    0.000    0.000    0.000    0.000 
#
# Total GULP energy -595262.685288 kJ/mol
# GULP energy per Si atom -12401.305944 kJ/mol
# Density = 1.755287 g / cm^3
# Si number density = 17.592914 Si / 1000 Ang^3
#
#
#
# Elastic Constant Matrix: (Units=GPa)
#
#
# Indices 1 2 3 4 5 6 
#
# 1 97.3255 46.1049 53.2991 0.0000 0.0000 0.0000
# 2 46.1049 60.3199 47.8037 0.0000 0.0000 0.0000
# 3 53.2991 47.8037 104.0732 0.0000 0.0000 0.0000
# 4 0.0000 0.0000 0.0000 14.1096 0.0000 0.0000
# 5 0.0000 0.0000 0.0000 0.0000 26.8875 0.0000
# 6 0.0000 0.0000 0.0000 0.0000 0.0000 -11.7368
#
#
#
# Elastic Compliance Matrix: (Units=1/GPa)
#
#
# Indices 1 2 3 4 5 6 
#
# 1 0.017289 -0.009745 -0.004378 0.000000 0.000000 0.000000
# 2 -0.009745 0.031560 -0.009506 0.000000 0.000000 0.000000
# 3 -0.004378 -0.009506 0.016217 0.000000 0.000000 0.000000
# 4 0.000000 0.000000 0.000000 0.070874 0.000000 0.000000
# 5 0.000000 0.000000 0.000000 0.000000 0.037192 0.000000
# 6 0.000000 0.000000 0.000000 0.000000 0.000000 -0.085202
#
#
# Mechanical properties :
#
#
# Convention : Reuss Voigt Hill
#
# Bulk Modulus (GPa) = 56.15300 61.79266 58.97283
# Shear Modulus (GPa) = 35.43028 13.48613 24.45820
#
# Velocity S-wave (km/s) = 4.49251 2.77170 3.73262
# Velocity P-wave (km/s) = 7.67447 6.74114 7.22289
#
# Compressibility (1/GPa) = 0.01780849
#
# Stress axis : x y z
#
# Youngs Moduli (GPa) = 57.84137 31.68569 61.66374
#
# Poissons Ratio (x) = 0.30877 0.26996
# Poissons Ratio (y) = 0.56365 0.58616
# Poissons Ratio (z) = 0.25323 0.30120
#
# Static dielectric constant tensor:
#      x y z
#    x 3.526390 0.000000 0.000000 
#    y 0.000000 3.089170 0.000000 
#    z 0.000000 0.000000 3.318490 
# 
# 
# High freq. dielectric constant tensor:
#      x y z
#    x 1.682250 0.000000 0.000000 
#    y 0.000000 1.660880 0.000000 
#    z 0.000000 0.000000 1.682070 
# 
# From -- ./inp_files/18557.got.cif
#   From: 2010.03.12/outbox.cif.g09.slc.cpg/sg51_10_cif.got.tgz:18557.got - 2010.04.16 13:43:02.
