data_PCOD8209909
_publ_section_title
;
Structure prediction by ZEFSAII (Michael W. Deem and Ramdas Pophale) SiO2 
 PCOD8209909
Probable space group: P M M A
;
_chemical_formula_sum "Si O2"
_cell_formula_units_Z 64
_cell_length_a 15.245345
_cell_length_b 9.240037
_cell_length_c 23.831487
_cell_angle_alpha 90.000000
_cell_angle_beta 90.000000
_cell_angle_gamma 90.000000
_cell_volume 3357.083231
_symmetry_space_group_name_H-M "P M M A"
_symmetry_group_IT_number 51
_symmetry_cell_setting 'orthorhombic'
loop_
_space_group_symop_operation_xyz
x,y,z
1/2-x,-y,z
1/2+x,-y,-z
-x,y,-z
-x,-y,-z
1/2+x,y,-z
1/2-x,y,z
x,-y,z
loop_
_atom_site_type_symbol
_atom_site_label
_atom_site_fract_x
_atom_site_fract_y
_atom_site_fract_z
Si Si1 0.344779 0.829477 0.221630
Si Si2 0.649057 0.329622 0.499417
Si Si3 0.003515 0.172339 0.703694
Si Si4 0.427701 0.169868 0.108520
Si Si5 0.898588 0.334187 0.113155
Si Si6 0.000716 0.328470 0.413936
Si Si7 0.847536 0.337349 0.235706
Si Si8 0.848577 0.839456 0.006633
O O1 0.250000 0.766055 0.240196
O O2 0.421382 0.765243 0.260615
O O3 0.356197 0.791736 0.155772
O O4 0.345969 0.000000 0.229789
O O5 0.750000 0.263315 0.499306
O O6 0.659297 0.500000 0.499233
O O7 0.590219 0.283273 0.553205
O O8 0.589602 0.282909 0.445938
O O9 0.091775 0.219951 0.734815
O O10 0.998066 0.240806 0.642934
O O11 0.003404 0.000000 0.698991
O O12 0.512221 0.255045 0.127726
O O13 0.447294 0.000000 0.107841
O O14 0.402190 0.223567 0.046208
O O15 0.916028 0.500000 0.098023
O O16 0.840261 0.315577 0.168597
O O17 0.851947 0.263795 0.059812
O O18 0.000237 0.500000 0.403158
O O19 0.750000 0.316524 0.260199
O O20 0.882138 0.500000 0.248888
O O21 0.750000 0.851053 0.984898
O O22 0.883605 0.000000 0.023077
#
# Coordination Sequence:
#
# PCOD8209909 Si02
#       8
#     8   8   8   8   8   8   8   8
#     4   9  18  34  56  79 106 144 187 228 274 329
#     4   8  15  31  56  83 110 146 191 230 265 312
#     4  11  22  36  56  84 116 148 186 232 280 327
#     4  10  19  35  57  78 102 137 183 227 273 329
#     4  11  22  36  55  78 107 139 175 222 284 345
#     4   9  18  33  55  82 112 147 187 229 270 317
#     4  10  22  40  59  77 103 145 191 231 277 335
#     4  10  21  35  53  78 104 134 178 228 274 331
#
# _framework density 19.064169
#
# number of rings (size 3 to 8) (size 9 to 14) (size 15 to 20)
#    0.000    2.250    1.250    2.625    0.000    6.000 
#    0.000    2.500    0.000    4.500    0.000    0.000 
#    0.000    0.000    0.000    0.000    0.000    0.000 
#
# Total GULP energy -793170.014044 kJ/mol
# GULP energy per Si atom -12393.281469 kJ/mol
# Density = 1.902078 g / cm^3
# Si number density = 19.064169 Si / 1000 Ang^3
#
#
#
# Elastic Constant Matrix: (Units=GPa)
#
#
# Indices 1 2 3 4 5 6 
#
# 1 134.9361 30.3137 52.4697 0.0000 0.0000 0.0000
# 2 30.3137 47.2708 46.8620 0.0000 0.0000 0.0000
# 3 52.4697 46.8620 130.6210 0.0000 0.0000 0.0000
# 4 0.0000 0.0000 0.0000 31.9605 0.0000 0.0000
# 5 0.0000 0.0000 0.0000 0.0000 11.9930 0.0000
# 6 0.0000 0.0000 0.0000 0.0000 0.0000 8.5225
#
#
#
# Elastic Compliance Matrix: (Units=1/GPa)
#
#
# Indices 1 2 3 4 5 6 
#
# 1 0.009130 -0.003444 -0.002432 0.000000 0.000000 0.000000
# 2 -0.003444 0.034131 -0.010861 0.000000 0.000000 0.000000
# 3 -0.002432 -0.010861 0.012529 0.000000 0.000000 0.000000
# 4 0.000000 0.000000 0.000000 0.031289 0.000000 0.000000
# 5 0.000000 0.000000 0.000000 0.000000 0.083382 0.000000
# 6 0.000000 0.000000 0.000000 0.000000 0.000000 0.117336
#
#
# Mechanical properties :
#
#
# Convention : Reuss Voigt Hill
#
# Bulk Modulus (GPa) = 44.81198 63.56875 54.19036
# Shear Modulus (GPa) = 15.21093 22.70737 18.95915
#
# Velocity S-wave (km/s) = 2.82774 3.45498 3.15698
# Velocity P-wave (km/s) = 5.84965 7.02373 6.46341
#
# Compressibility (1/GPa) = 0.02231546
#
# Stress axis : x y z
#
# Youngs Moduli (GPa) = 109.52528 29.29905 79.81294
#
# Poissons Ratio (x) = 0.10091 0.19410
# Poissons Ratio (y) = 0.37722 0.86688
# Poissons Ratio (z) = 0.26636 0.31823
#
# Static dielectric constant tensor:
#      x y z
#    x 3.013770 0.000000 0.000000 
#    y 0.000000 3.194440 0.000000 
#    z 0.000000 0.000000 3.455460 
# 
# 
# High freq. dielectric constant tensor:
#      x y z
#    x 1.753960 0.000000 0.000000 
#    y 0.000000 1.708310 0.000000 
#    z 0.000000 0.000000 1.741990 
# 
# From -- ./inp_files/35709.got.cif
#   From: 2010.03.12/outbox.cif.g09.slc.cpg/sg51_18_cif.got.tgz:35709.got - 2010.04.16 13:43:02.
