data_PCOD8209528
_publ_section_title
;
Structure prediction by ZEFSAII (Michael W. Deem and Ramdas Pophale) SiO2 
 PCOD8209528
Probable space group: P M M A
;
_chemical_formula_sum "Si O2"
_cell_formula_units_Z 64
_cell_length_a 18.241436
_cell_length_b 19.525410
_cell_length_c 9.616868
_cell_angle_alpha 90.000000
_cell_angle_beta 90.000000
_cell_angle_gamma 90.000000
_cell_volume 3425.254463
_symmetry_space_group_name_H-M "P M M A"
_symmetry_group_IT_number 51
_symmetry_cell_setting 'orthorhombic'
loop_
_space_group_symop_operation_xyz
x,y,z
1/2-x,-y,z
1/2+x,-y,-z
-x,y,-z
-x,-y,-z
1/2+x,y,-z
1/2-x,y,z
x,-y,z
loop_
_atom_site_type_symbol
_atom_site_label
_atom_site_fract_x
_atom_site_fract_y
_atom_site_fract_z
Si Si1 0.585900 0.827750 0.005136
Si Si2 0.165599 0.188343 0.275542
Si Si3 0.163057 0.422153 0.094075
Si Si4 0.429829 0.305612 0.595793
Si Si5 0.165719 0.920151 0.776974
Si Si6 0.416482 0.151102 0.539528
Si Si7 0.427245 0.324642 0.912781
Si Si8 0.666540 0.656113 0.640257
O O1 0.630930 0.882027 0.092774
O O2 0.601090 0.752268 0.065146
O O3 0.500000 0.845325 0.000000
O O4 0.615792 0.834422 0.850879
O O5 0.250000 0.169347 0.249205
O O6 0.135239 0.146655 0.405795
O O7 0.154542 0.268643 0.298414
O O8 0.250000 0.414878 0.090324
O O9 0.136772 0.500000 0.075678
O O10 0.133123 0.395056 0.243542
O O11 0.133288 0.377922 0.965460
O O12 0.500000 0.312666 0.500000
O O13 0.409825 0.225593 0.611793
O O14 0.441575 0.337178 0.748668
O O15 0.369051 0.349403 0.512589
O O16 0.250000 0.896092 0.753696
O O17 0.115840 0.904871 0.643355
O O18 0.162598 0.000000 0.809333
O O19 0.500000 0.133239 0.500000
O O20 0.500000 0.338802 0.000000
O O21 0.750000 0.637371 0.614545
#
# Coordination Sequence:
#
# PCOD8209528 Si02
#       8
#     8   8   8   8   8   8   8   8
#     4  11  22  37  60  87 114 153 197 247 298 351
#     4  10  19  33  56  84 113 142 189 243 291 342
#     4  10  21  38  59  85 121 161 197 238 292 354
#     4  10  20  34  57  85 114 147 186 244 291 342
#     4  11  24  41  58  83 121 159 195 242 302 360
#     4  10  20  36  59  85 114 151 192 243 291 351
#     4  11  22  36  60  88 117 154 193 246 297 350
#     4   9  18  33  53  81 111 146 189 235 286 342
#
# _framework density 18.684742
#
# number of rings (size 3 to 8) (size 9 to 14) (size 15 to 20)
#    0.000    1.750    2.500    2.250    7.000    2.250 
#    0.000    1.250    0.000    5.250    0.000    0.000 
#    0.000    0.000    0.000    0.000    0.000    0.000 
#
# Total GULP energy -793645.253447 kJ/mol
# GULP energy per Si atom -12400.707085 kJ/mol
# Density = 1.864221 g / cm^3
# Si number density = 18.684742 Si / 1000 Ang^3
#
#
#
# Elastic Constant Matrix: (Units=GPa)
#
#
# Indices 1 2 3 4 5 6 
#
# 1 92.9609 32.6267 48.6370 0.0000 0.0000 0.0000
# 2 32.6267 66.8583 35.5267 0.0000 0.0000 0.0000
# 3 48.6370 35.5267 148.3669 0.0000 0.0000 0.0000
# 4 0.0000 0.0000 0.0000 15.8057 0.0000 0.0000
# 5 0.0000 0.0000 0.0000 0.0000 35.1781 0.0000
# 6 0.0000 0.0000 0.0000 0.0000 0.0000 23.4061
#
#
#
# Elastic Compliance Matrix: (Units=1/GPa)
#
#
# Indices 1 2 3 4 5 6 
#
# 1 0.014394 -0.005175 -0.003479 0.000000 0.000000 0.000000
# 2 -0.005175 0.018998 -0.002853 0.000000 0.000000 0.000000
# 3 -0.003479 -0.002853 0.008564 0.000000 0.000000 0.000000
# 4 0.000000 0.000000 0.000000 0.063268 0.000000 0.000000
# 5 0.000000 0.000000 0.000000 0.000000 0.028427 0.000000
# 6 0.000000 0.000000 0.000000 0.000000 0.000000 0.042724
#
#
# Mechanical properties :
#
#
# Convention : Reuss Voigt Hill
#
# Bulk Modulus (GPa) = 52.79446 60.19633 56.49539
# Shear Modulus (GPa) = 24.30677 27.63766 25.97222
#
# Velocity S-wave (km/s) = 3.61070 3.85015 3.73235
# Velocity P-wave (km/s) = 6.76015 7.21469 6.99111
#
# Compressibility (1/GPa) = 0.01894138
#
# Stress axis : x y z
#
# Youngs Moduli (GPa) = 69.47326 52.63592 116.77212
#
# Poissons Ratio (x) = 0.27241 0.40629
# Poissons Ratio (y) = 0.35956 0.33311
# Poissons Ratio (z) = 0.24172 0.15015
#
# Static dielectric constant tensor:
#      x y z
#    x 3.816740 0.000000 0.000000 
#    y 0.000000 3.258150 0.000000 
#    z 0.000000 0.000000 3.604660 
# 
# 
# High freq. dielectric constant tensor:
#      x y z
#    x 1.734840 0.000000 0.000000 
#    y 0.000000 1.694480 0.000000 
#    z 0.000000 0.000000 1.736830 
# 
# From -- ./inp_files/10035.got.cif
#   From: 2010.03.12/outbox.cif.g09.slc.cpg/sg51_6_cif.got.tgz:10035.got - 2010.04.16 13:43:02.
