data_PCOD8209143
_publ_section_title
;
Structure prediction by ZEFSAII (Michael W. Deem and Ramdas Pophale) SiO2 
 PCOD8209143
Probable space group: P M M A
;
_chemical_formula_sum "Si O2"
_cell_formula_units_Z 36
_cell_length_a 9.590741
_cell_length_b 8.019179
_cell_length_c 24.606620
_cell_angle_alpha 90.000000
_cell_angle_beta 90.000000
_cell_angle_gamma 90.000000
_cell_volume 1892.491916
_symmetry_space_group_name_H-M "P M M A"
_symmetry_group_IT_number 51
_symmetry_cell_setting 'orthorhombic'
loop_
_space_group_symop_operation_xyz
x,y,z
1/2-x,-y,z
1/2+x,-y,-z
-x,y,-z
-x,-y,-z
1/2+x,y,-z
1/2-x,y,z
x,-y,z
loop_
_atom_site_type_symbol
_atom_site_label
_atom_site_fract_x
_atom_site_fract_y
_atom_site_fract_z
Si Si1 0.085195 0.311339 0.662516
Si Si2 0.589227 0.190442 0.223116
Si Si3 0.586247 0.000000 0.945335
Si Si4 0.410104 0.312842 0.128237
Si Si5 0.405711 0.803947 0.547955
O O1 0.250000 0.292373 0.659247
O O2 0.035643 0.500000 0.669099
O O3 0.031564 0.211766 0.715429
O O4 0.024033 0.237961 0.606318
O O5 0.750000 0.248479 0.219730
O O6 0.500867 0.304086 0.182690
O O7 0.571615 0.000000 0.205261
O O8 0.542657 0.168819 0.913558
O O9 0.750000 0.000000 0.958713
O O10 0.500000 0.000000 0.000000
O O11 0.250000 0.282215 0.144536
O O12 0.430065 0.500000 0.103270
O O13 0.500000 0.725665 0.500000
O O14 0.250000 0.726321 0.543535
O O15 0.397004 0.000000 0.540994
#
# Coordination Sequence:
#
# PCOD8209143 Si02
#       5
#     8   8   4   8   8
#     4   9  17  29  46  70  99 130 166 211 262 313
#     4  10  19  32  54  82 109 139 179 224 269 320
#     4  10  22  40  60  84 116 150 187 226 265 314
#     4  10  21  38  59  83 114 151 185 221 272 325
#     4   9  17  30  47  65  88 121 162 207 257 313
#
# _framework density 19.022537
#
# number of rings (size 3 to 8) (size 9 to 14) (size 15 to 20)
#    0.000    2.444    1.111    1.333    0.000    5.778 
#    0.000    1.111    0.000    4.000    0.000    0.000 
#    0.000    0.000    0.000    0.000    0.000    0.000 
#
# Total GULP energy -446281.296432 kJ/mol
# GULP energy per Si atom -12396.702679 kJ/mol
# Density = 1.897924 g / cm^3
# Si number density = 19.022537 Si / 1000 Ang^3
#
#
#
# Elastic Constant Matrix: (Units=GPa)
#
#
# Indices 1 2 3 4 5 6 
#
# 1 49.7548 26.8840 56.9811 0.0000 0.0000 0.0000
# 2 26.8840 91.8861 52.1544 0.0000 0.0000 0.0000
# 3 56.9811 52.1544 150.8248 0.0000 0.0000 0.0000
# 4 0.0000 0.0000 0.0000 22.2076 0.0000 0.0000
# 5 0.0000 0.0000 0.0000 0.0000 32.9530 0.0000
# 6 0.0000 0.0000 0.0000 0.0000 0.0000 18.0770
#
#
#
# Elastic Compliance Matrix: (Units=1/GPa)
#
#
# Indices 1 2 3 4 5 6 
#
# 1 0.036325 -0.003532 -0.012502 0.000000 0.000000 0.000000
# 2 -0.003532 0.013884 -0.003467 0.000000 0.000000 0.000000
# 3 -0.012502 -0.003467 0.012552 0.000000 0.000000 0.000000
# 4 0.000000 0.000000 0.000000 0.045030 0.000000 0.000000
# 5 0.000000 0.000000 0.000000 0.000000 0.030346 0.000000
# 6 0.000000 0.000000 0.000000 0.000000 0.000000 0.055319
#
#
# Mechanical properties :
#
#
# Convention : Reuss Voigt Hill
#
# Bulk Modulus (GPa) = 42.08774 62.72274 52.40524
# Shear Modulus (GPa) = 20.80064 25.07726 22.93895
#
# Velocity S-wave (km/s) = 3.31036 3.63477 3.47635
# Velocity P-wave (km/s) = 6.06502 7.11757 6.61227
#
# Compressibility (1/GPa) = 0.02375989
#
# Stress axis : x y z
#
# Youngs Moduli (GPa) = 27.52943 72.02497 79.66699
#
# Poissons Ratio (x) = 0.25437 0.99601
# Poissons Ratio (y) = 0.09723 0.27619
# Poissons Ratio (z) = 0.34418 0.24969
#
# Static dielectric constant tensor:
#      x y z
#    x 3.335510 0.000000 0.000000 
#    y 0.000000 3.544020 0.000000 
#    z 0.000000 0.000000 3.539260 
# 
# 
# High freq. dielectric constant tensor:
#      x y z
#    x 1.702630 0.000000 0.000000 
#    y 0.000000 1.745380 0.000000 
#    z 0.000000 0.000000 1.741260 
# 
# From -- ./inp_files/32748.got.cif
#   From: 2010.03.12/outbox.cif.g09.slc.cpg/sg51_17_cif.got.tgz:32748.got - 2010.04.16 13:43:02.
