data_PCOD8209935
_publ_section_title
;
Structure prediction by ZEFSAII (Michael W. Deem and Ramdas Pophale) SiO2 
 PCOD8209935
Probable space group: P M M A
;
_chemical_formula_sum "Si O2"
_cell_formula_units_Z 48
_cell_length_a 17.689359
_cell_length_b 15.526827
_cell_length_c 8.573250
_cell_angle_alpha 90.000000
_cell_angle_beta 90.000000
_cell_angle_gamma 90.000000
_cell_volume 2354.725561
_symmetry_space_group_name_H-M "P M M A"
_symmetry_group_IT_number 51
_symmetry_cell_setting 'orthorhombic'
loop_
_space_group_symop_operation_xyz
x,y,z
1/2-x,-y,z
1/2+x,-y,-z
-x,y,-z
-x,-y,-z
1/2+x,y,-z
1/2-x,y,z
x,-y,z
loop_
_atom_site_type_symbol
_atom_site_label
_atom_site_fract_x
_atom_site_fract_y
_atom_site_fract_z
Si Si1 0.337077 0.901300 0.817765
Si Si2 0.837921 0.500000 0.124627
Si Si3 0.936468 0.772942 0.382088
Si Si4 0.661749 0.318581 0.624173
Si Si5 0.663142 0.500000 0.754213
Si Si6 0.060292 0.349449 0.878389
Si Si7 0.665244 0.227904 0.929627
O O1 0.250000 0.890554 0.761777
O O2 0.392034 0.851368 0.698630
O O3 0.344831 0.868114 0.998101
O O4 0.362589 0.000000 0.817075
O O5 0.750000 0.500000 0.177452
O O6 0.883953 0.420020 0.196125
O O7 0.847449 0.500000 0.938998
O O8 0.877483 0.710131 0.466331
O O9 0.977780 0.709481 0.256787
O O10 0.000000 0.809728 0.500000
O O11 0.750000 0.329500 0.590640
O O12 0.627665 0.411068 0.684875
O O13 0.646897 0.239786 0.747006
O O14 0.750000 0.500000 0.709282
O O15 0.112265 0.287065 0.973373
O O16 0.000000 0.389928 0.000000
O O17 0.750000 0.262059 0.958409
#
# Coordination Sequence:
#
# PCOD8209935 Si02
#       7
#     8   4   8   8   4   8   8
#     4   9  19  38  63  88 112 143 189 242 291 344
#     4  11  21  36  60  86 108 147 203 257 294 332
#     4  11  24  38  55  83 119 160 190 235 291 357
#     4  10  19  35  57  84 116 153 192 235 288 344
#     4   9  18  32  56  83 110 146 189 237 282 330
#     4  11  22  37  56  81 113 153 199 244 285 337
#     4   9  17  33  59  83 108 143 186 235 286 345
#
# _framework density 20.384540999999999
#
# number of rings (size 3 to 8) (size 9 to 14) (size 15 to 20)
#    0.000    2.000    1.667    2.250    0.000    3.000 
#    0.000    2.500    0.000   20.000    0.000    0.000 
#    0.000    0.000    0.000    0.000    0.000    0.000 
#
# Total GULP energy -594722.831522 kJ/mol
# GULP energy per Si atom -12390.058990 kJ/mol
# Density = 2.033814 g / cm^3
# Si number density = 20.384541 Si / 1000 Ang^3
#
#
#
# Elastic Constant Matrix: (Units=GPa)
#
#
# Indices 1 2 3 4 5 6 
#
# 1 62.3021 53.3363 31.3807 0.0000 0.0000 0.0000
# 2 53.3363 109.1486 35.3851 0.0000 0.0000 0.0000
# 3 31.3807 35.3851 67.5799 0.0000 0.0000 0.0000
# 4 0.0000 0.0000 0.0000 5.6509 0.0000 0.0000
# 5 0.0000 0.0000 0.0000 0.0000 31.2858 0.0000
# 6 0.0000 0.0000 0.0000 0.0000 0.0000 22.2886
#
#
#
# Elastic Compliance Matrix: (Units=1/GPa)
#
#
# Indices 1 2 3 4 5 6 
#
# 1 0.030580 -0.012454 -0.007679 0.000000 0.000000 0.000000
# 2 -0.012454 0.016107 -0.002651 0.000000 0.000000 0.000000
# 3 -0.007679 -0.002651 0.019751 0.000000 0.000000 0.000000
# 4 0.000000 0.000000 0.000000 0.176962 0.000000 0.000000
# 5 0.000000 0.000000 0.000000 0.000000 0.031963 0.000000
# 6 0.000000 0.000000 0.000000 0.000000 0.000000 0.044866
#
#
# Mechanical properties :
#
#
# Convention : Reuss Voigt Hill
#
# Bulk Modulus (GPa) = 47.91344 53.24831 50.58087
# Shear Modulus (GPa) = 13.41368 19.77363 16.59365
#
# Velocity S-wave (km/s) = 2.56800 3.11791 2.85622
# Velocity P-wave (km/s) = 5.68759 6.25623 5.97867
#
# Compressibility (1/GPa) = 0.02087097
#
# Stress axis : x y z
#
# Youngs Moduli (GPa) = 32.70085 62.08560 50.63044
#
# Poissons Ratio (x) = 0.77320 0.38879
# Poissons Ratio (y) = 0.40725 0.13421
# Poissons Ratio (z) = 0.25111 0.16457
#
# Static dielectric constant tensor:
#      x y z
#    x 3.927900 0.000000 0.000000 
#    y 0.000000 3.632800 0.000000 
#    z 0.000000 0.000000 5.362200 
# 
# 
# High freq. dielectric constant tensor:
#      x y z
#    x 1.799770 0.000000 0.000000 
#    y 0.000000 1.779590 0.000000 
#    z 0.000000 0.000000 1.787300 
# 
# From -- ./inp_files/9671.got.cif
#   From: 2010.03.12/outbox.cif.g09.slc.cpg/sg51_5_cif.got.tgz:9671.got - 2010.04.16 13:43:02.
