data_PCOD8209340
_publ_section_title
;
Structure prediction by ZEFSAII (Michael W. Deem and Ramdas Pophale) SiO2 
 PCOD8209340
Probable space group: P M M A
;
_chemical_formula_sum "Si O2"
_cell_formula_units_Z 56
_cell_length_a 9.185387
_cell_length_b 19.512248
_cell_length_c 16.040980
_cell_angle_alpha 90.000000
_cell_angle_beta 90.000000
_cell_angle_gamma 90.000000
_cell_volume 2874.985531
_symmetry_space_group_name_H-M "P M M A"
_symmetry_group_IT_number 51
_symmetry_cell_setting 'orthorhombic'
loop_
_space_group_symop_operation_xyz
x,y,z
1/2-x,-y,z
1/2+x,-y,-z
-x,y,-z
-x,-y,-z
1/2+x,y,-z
1/2-x,y,z
x,-y,z
loop_
_atom_site_type_symbol
_atom_site_label
_atom_site_fract_x
_atom_site_fract_y
_atom_site_fract_z
Si Si1 0.079466 0.074055 0.586638
Si Si2 0.419515 0.787331 0.658042
Si Si3 0.422559 0.422110 0.754402
Si Si4 0.916982 0.800524 0.157030
Si Si5 0.076313 0.351377 0.584250
Si Si6 0.419039 0.923120 0.086230
Si Si7 0.079479 0.658679 0.916556
O O1 0.250000 0.083211 0.570642
O O2 0.013559 0.137410 0.639520
O O3 0.000000 0.075232 0.500000
O O4 0.049492 0.000000 0.631097
O O5 0.250000 0.791535 0.641502
O O6 0.450627 0.767393 0.753259
O O7 0.479423 0.726868 0.598943
O O8 0.250000 0.415581 0.754838
O O9 0.476029 0.500000 0.763413
O O10 0.478365 0.393848 0.665126
O O11 0.482999 0.380332 0.834695
O O12 0.750000 0.825330 0.150683
O O13 0.950378 0.740331 0.091400
O O14 0.018616 0.866843 0.148849
O O15 0.250000 0.357125 0.573936
O O16 0.000000 0.379322 0.500000
O O17 0.250000 0.909183 0.071076
O O18 0.445946 0.000000 0.121414
O O19 0.500000 0.912591 0.000000
O O20 0.250000 0.643661 0.926449
O O21 0.000000 0.632031 0.000000
#
# Coordination Sequence:
#
# PCOD8209340 Si02
#       7
#     8   8   8   8   8   8   8
#     4   9  17  29  45  66  93 126 166 211 258 308
#     4   9  17  31  51  73 100 135 176 219 261 316
#     4   9  18  35  58  81 109 147 185 219 265 330
#     4  10  19  33  54  77 103 137 179 226 272 320
#     4  10  19  34  56  81 109 143 183 225 269 319
#     4  10  21  36  52  73 103 138 177 222 271 323
#     4  10  20  35  56  82 110 142 182 226 272 324
#
# _framework density 19.478359000000001
#
# number of rings (size 3 to 8) (size 9 to 14) (size 15 to 20)
#    0.000    2.429    1.429    1.286    0.000    3.714 
#    0.000    3.571    0.000    2.571    0.000    0.000 
#    0.000    0.000    0.000    0.000    0.000    0.000 
#
# Total GULP energy -694012.493073 kJ/mol
# GULP energy per Si atom -12393.080233 kJ/mol
# Density = 1.943403 g / cm^3
# Si number density = 19.478359 Si / 1000 Ang^3
#
#
#
# Elastic Constant Matrix: (Units=GPa)
#
#
# Indices 1 2 3 4 5 6 
#
# 1 45.3284 33.3577 32.1307 0.0000 0.0000 0.0000
# 2 33.3577 116.2044 55.9704 0.0000 0.0000 0.0000
# 3 32.1307 55.9704 123.5830 0.0000 0.0000 0.0000
# 4 0.0000 0.0000 0.0000 27.9740 0.0000 0.0000
# 5 0.0000 0.0000 0.0000 0.0000 29.1166 0.0000
# 6 0.0000 0.0000 0.0000 0.0000 0.0000 13.9459
#
#
#
# Elastic Compliance Matrix: (Units=1/GPa)
#
#
# Indices 1 2 3 4 5 6 
#
# 1 0.030228 -0.006257 -0.005025 0.000000 0.000000 0.000000
# 2 -0.006257 0.012302 -0.003945 0.000000 0.000000 0.000000
# 3 -0.005025 -0.003945 0.011185 0.000000 0.000000 0.000000
# 4 0.000000 0.000000 0.000000 0.035747 0.000000 0.000000
# 5 0.000000 0.000000 0.000000 0.000000 0.034345 0.000000
# 6 0.000000 0.000000 0.000000 0.000000 0.000000 0.071706
#
#
# Mechanical properties :
#
#
# Convention : Reuss Voigt Hill
#
# Bulk Modulus (GPa) = 42.99095 58.67037 50.83066
# Shear Modulus (GPa) = 21.39321 25.11776 23.25548
#
# Velocity S-wave (km/s) = 3.31767 3.59489 3.45905
# Velocity P-wave (km/s) = 6.06588 6.88601 6.48892
#
# Compressibility (1/GPa) = 0.02326071
#
# Stress axis : x y z
#
# Youngs Moduli (GPa) = 33.08217 81.29069 89.40707
#
# Poissons Ratio (x) = 0.50861 0.44930
# Poissons Ratio (y) = 0.20699 0.35268
# Poissons Ratio (z) = 0.16625 0.32066
#
# Static dielectric constant tensor:
#      x y z
#    x 3.205910 0.000000 0.000000 
#    y 0.000000 3.975220 0.000000 
#    z 0.000000 0.000000 3.407280 
# 
# 
# High freq. dielectric constant tensor:
#      x y z
#    x 1.715210 0.000000 0.000000 
#    y 0.000000 1.769630 0.000000 
#    z 0.000000 0.000000 1.756190 
# 
# From -- ./inp_files/21791.got.cif
#   From: 2010.03.12/outbox.cif.g09.slc.cpg/sg51_11_cif.got.tgz:21791.got - 2010.04.16 13:43:02.
