data_PCOD8209401
_publ_section_title
;
Structure prediction by ZEFSAII (Michael W. Deem and Ramdas Pophale) SiO2 
 PCOD8209401
Probable space group: P M M A
;
_chemical_formula_sum "Si O2"
_cell_formula_units_Z 48
_cell_length_a 14.567514
_cell_length_b 9.610494
_cell_length_c 18.028910
_cell_angle_alpha 90.000000
_cell_angle_beta 90.000000
_cell_angle_gamma 90.000000
_cell_volume 2524.065535
_symmetry_space_group_name_H-M "P M M A"
_symmetry_group_IT_number 51
_symmetry_cell_setting 'orthorhombic'
loop_
_space_group_symop_operation_xyz
x,y,z
1/2-x,-y,z
1/2+x,-y,-z
-x,y,-z
-x,-y,-z
1/2+x,y,-z
1/2-x,y,z
x,-y,z
loop_
_atom_site_type_symbol
_atom_site_label
_atom_site_fract_x
_atom_site_fract_y
_atom_site_fract_z
Si Si1 0.397893 0.652865 0.026335
Si Si2 0.250000 0.664380 0.909588
Si Si3 0.452831 0.664081 0.423393
Si Si4 0.250000 0.838596 0.759576
Si Si5 0.924611 0.153403 0.836498
Si Si6 0.750000 0.662305 0.603058
Si Si7 0.448647 0.836768 0.706262
Si Si8 0.750000 0.853063 0.735074
O O1 0.360385 0.500000 0.049014
O O2 0.394546 0.749405 0.097089
O O3 0.500000 0.641606 0.000000
O O4 0.338018 0.710975 0.958065
O O5 0.250000 0.500000 0.891640
O O6 0.250000 0.746177 0.832991
O O7 0.500000 0.704816 0.500000
O O8 0.461768 0.500000 0.405713
O O9 0.345756 0.709861 0.434971
O O10 0.502586 0.747569 0.357708
O O11 0.339622 0.804920 0.709419
O O12 0.250000 0.000000 0.783974
O O13 0.839223 0.149074 0.783557
O O14 0.010496 0.206848 0.786955
O O15 0.947248 0.000000 0.868596
O O16 0.750000 0.500000 0.610161
O O17 0.750000 0.718509 0.685482
O O18 0.468162 0.000000 0.690929
O O19 0.750000 0.000000 0.689359
#
# Coordination Sequence:
#
# PCOD8209401 Si02
#       8
#     8   4   8   4   8   4   8   4
#     4  10  21  35  51  74 106 143 185 233 281 334
#     4  10  21  37  54  77 109 147 189 232 286 345
#     4  10  22  39  60  88 120 152 188 230 277 333
#     4  10  22  38  58  83 112 148 193 242 285 336
#     4  10  20  33  53  80 108 141 183 232 283 337
#     4  10  20  36  58  85 115 147 182 221 268 323
#     4  10  21  38  58  83 114 148 191 238 285 339
#     4  10  19  33  54  81 110 138 176 227 275 324
#
# _framework density 19.016939000000001
#
# number of rings (size 3 to 8) (size 9 to 14) (size 15 to 20)
#    0.000    2.000    1.667    1.500    0.000    4.000 
#    0.000    0.833    0.000    0.000    0.000    0.000 
#    0.000    0.000    0.000    0.000    0.000    0.000 
#
# Total GULP energy -594903.314511 kJ/mol
# GULP energy per Si atom -12393.819052 kJ/mol
# Density = 1.897366 g / cm^3
# Si number density = 19.016939 Si / 1000 Ang^3
#
#
#
# Elastic Constant Matrix: (Units=GPa)
#
#
# Indices 1 2 3 4 5 6 
#
# 1 145.9248 44.2962 49.1812 0.0000 0.0000 0.0000
# 2 44.2962 54.5079 56.1010 0.0000 0.0000 0.0000
# 3 49.1812 56.1010 103.2244 0.0000 0.0000 0.0000
# 4 0.0000 0.0000 0.0000 43.7804 0.0000 0.0000
# 5 0.0000 0.0000 0.0000 0.0000 18.9573 0.0000
# 6 0.0000 0.0000 0.0000 0.0000 0.0000 26.4713
#
#
#
# Elastic Compliance Matrix: (Units=1/GPa)
#
#
# Indices 1 2 3 4 5 6 
#
# 1 0.009120 -0.006671 -0.000720 0.000000 0.000000 0.000000
# 2 -0.006671 0.046515 -0.022102 0.000000 0.000000 0.000000
# 3 -0.000720 -0.022102 0.022043 0.000000 0.000000 0.000000
# 4 0.000000 0.000000 0.000000 0.022841 0.000000 0.000000
# 5 0.000000 0.000000 0.000000 0.000000 0.052750 0.000000
# 6 0.000000 0.000000 0.000000 0.000000 0.000000 0.037777
#
#
# Mechanical properties :
#
#
# Convention : Reuss Voigt Hill
#
# Bulk Modulus (GPa) = 53.49657 66.97930 60.23793
# Shear Modulus (GPa) = 19.51126 28.11371 23.81249
#
# Velocity S-wave (km/s) = 3.20659 3.84910 3.54244
# Velocity P-wave (km/s) = 6.47315 7.41967 6.96251
#
# Compressibility (1/GPa) = 0.01869279
#
# Stress axis : x y z
#
# Youngs Moduli (GPa) = 109.64386 21.49852 45.36649
#
# Poissons Ratio (x) = 0.14341 0.03266
# Poissons Ratio (y) = 0.73141 1.00268
# Poissons Ratio (z) = 0.07894 0.47516
#
# Static dielectric constant tensor:
#      x y z
#    x 3.951530 0.000000 0.000000 
#    y 0.000000 3.949190 0.000000 
#    z 0.000000 0.000000 3.083410 
# 
# 
# High freq. dielectric constant tensor:
#      x y z
#    x 1.766380 0.000000 0.000000 
#    y 0.000000 1.736080 0.000000 
#    z 0.000000 0.000000 1.720250 
# 
# From -- ./inp_files/29713.got.cif
#   From: 2010.03.12/outbox.cif.g09.slc.cpg/sg51_15_cif.got.tgz:29713.got - 2010.04.16 13:43:02.
