data_PCOD8209315
_publ_section_title
;
Structure prediction by ZEFSAII (Michael W. Deem and Ramdas Pophale) SiO2 
 PCOD8209315
Probable space group: P M M A
;
_chemical_formula_sum "Si O2"
_cell_formula_units_Z 48
_cell_length_a 25.905238
_cell_length_b 8.956412
_cell_length_c 11.700019
_cell_angle_alpha 90.000000
_cell_angle_beta 90.000000
_cell_angle_gamma 90.000000
_cell_volume 2714.614827
_symmetry_space_group_name_H-M "P M M A"
_symmetry_group_IT_number 51
_symmetry_cell_setting 'orthorhombic'
loop_
_space_group_symop_operation_xyz
x,y,z
1/2-x,-y,z
1/2+x,-y,-z
-x,y,-z
-x,-y,-z
1/2+x,y,-z
1/2-x,y,z
x,-y,z
loop_
_atom_site_type_symbol
_atom_site_label
_atom_site_fract_x
_atom_site_fract_y
_atom_site_fract_z
Si Si1 0.886035 0.171437 0.846721
Si Si2 0.041422 0.833210 0.359649
Si Si3 0.943865 0.323109 0.041990
Si Si4 0.572028 0.170894 0.281593
Si Si5 0.115758 0.673321 0.516680
Si Si6 0.309370 0.325230 0.317933
O O1 0.935772 0.190703 0.766373
O O2 0.835317 0.237628 0.786500
O O3 0.875090 0.000000 0.877191
O O4 0.898524 0.259919 0.962097
O O5 0.064317 0.711208 0.445036
O O6 0.980377 0.813357 0.354056
O O7 0.055729 0.000000 0.404075
O O8 0.941734 0.500000 0.039625
O O9 0.931845 0.267768 0.168423
O O10 0.000000 0.265220 0.000000
O O11 0.616955 0.235265 0.364213
O O12 0.583884 0.000000 0.249045
O O13 0.115698 0.500000 0.547371
O O14 0.164992 0.718984 0.439408
O O15 0.250000 0.277997 0.324159
O O16 0.316951 0.500000 0.294738
#
# Coordination Sequence:
#
# PCOD8209315 Si02
#       6
#     8   8   8   8   8   8
#     4  10  19  33  53  78 107 138 176 219 261 309
#     4   9  18  31  47  69 101 140 174 206 251 308
#     4  11  22  34  51  75 106 143 182 219 256 308
#     4  11  21  33  49  70 104 145 178 209 254 310
#     4  10  20  32  49  75 103 132 172 218 261 310
#     4   9  19  37  59  80 104 135 171 217 272 320
#
# _framework density 17.682065999999999
#
# number of rings (size 3 to 8) (size 9 to 14) (size 15 to 20)
#    0.000    2.000    1.667    2.500    0.000    5.667 
#    0.000    0.000    0.000    1.000    0.000    2.333 
#    0.000    0.000    0.000    0.000    0.000    0.000 
#
# Total GULP energy -595273.805800 kJ/mol
# GULP energy per Si atom -12401.537621 kJ/mol
# Density = 1.764182 g / cm^3
# Si number density = 17.682066 Si / 1000 Ang^3
#
#
#
# Elastic Constant Matrix: (Units=GPa)
#
#
# Indices 1 2 3 4 5 6 
#
# 1 86.2347 40.6059 46.8898 0.0000 0.0000 0.0000
# 2 40.6059 78.5374 47.1277 0.0000 0.0000 0.0000
# 3 46.8898 47.1277 94.0140 0.0000 0.0000 0.0000
# 4 0.0000 0.0000 0.0000 35.0685 0.0000 0.0000
# 5 0.0000 0.0000 0.0000 0.0000 15.8110 0.0000
# 6 0.0000 0.0000 0.0000 0.0000 0.0000 21.0093
#
#
#
# Elastic Compliance Matrix: (Units=1/GPa)
#
#
# Indices 1 2 3 4 5 6 
#
# 1 0.017384 -0.005414 -0.005957 0.000000 0.000000 0.000000
# 2 -0.005414 0.019897 -0.007274 0.000000 0.000000 0.000000
# 3 -0.005957 -0.007274 0.017254 0.000000 0.000000 0.000000
# 4 0.000000 0.000000 0.000000 0.028516 0.000000 0.000000
# 5 0.000000 0.000000 0.000000 0.000000 0.063247 0.000000
# 6 0.000000 0.000000 0.000000 0.000000 0.000000 0.047598
#
#
# Mechanical properties :
#
#
# Convention : Reuss Voigt Hill
#
# Bulk Modulus (GPa) = 57.98288 58.67032 58.32660
# Shear Modulus (GPa) = 21.10303 22.65526 21.87915
#
# Velocity S-wave (km/s) = 3.45841 3.58335 3.52143
# Velocity P-wave (km/s) = 6.98646 7.09741 7.04215
#
# Compressibility (1/GPa) = 0.01724647
#
# Stress axis : x y z
#
# Youngs Moduli (GPa) = 57.52279 50.25999 57.95829
#
# Poissons Ratio (x) = 0.27210 0.34524
# Poissons Ratio (y) = 0.31142 0.42157
# Poissons Ratio (z) = 0.34264 0.36557
#
# Static dielectric constant tensor:
#      x y z
#    x 3.066850 0.000000 0.000000 
#    y 0.000000 3.337950 0.000000 
#    z 0.000000 0.000000 3.246120 
# 
# 
# High freq. dielectric constant tensor:
#      x y z
#    x 1.647290 0.000000 0.000000 
#    y 0.000000 1.694030 0.000000 
#    z 0.000000 0.000000 1.686680 
# 
# From -- ./inp_files/18618.got.cif
#   From: 2010.03.12/outbox.cif.g09.slc.cpg/sg51_10_cif.got.tgz:18618.got - 2010.04.16 13:43:02.
