data_PCOD8209829
_publ_section_title
;
Structure prediction by ZEFSAII (Michael W. Deem and Ramdas Pophale) SiO2 
 PCOD8209829
Probable space group: P M M A
;
_chemical_formula_sum "Si O2"
_cell_formula_units_Z 56
_cell_length_a 20.538563
_cell_length_b 9.042698
_cell_length_c 14.927706
_cell_angle_alpha 90.000000
_cell_angle_beta 90.000000
_cell_angle_gamma 90.000000
_cell_volume 2772.433606
_symmetry_space_group_name_H-M "P M M A"
_symmetry_group_IT_number 51
_symmetry_cell_setting 'orthorhombic'
loop_
_space_group_symop_operation_xyz
x,y,z
1/2-x,-y,z
1/2+x,-y,-z
-x,y,-z
-x,-y,-z
1/2+x,y,-z
1/2-x,y,z
x,-y,z
loop_
_atom_site_type_symbol
_atom_site_label
_atom_site_fract_x
_atom_site_fract_y
_atom_site_fract_z
Si Si1 0.131755 0.829328 0.491103
Si Si2 0.250000 0.673906 0.401454
Si Si3 0.547759 0.829562 0.674291
Si Si4 0.572036 0.666722 0.004705
Si Si5 0.750000 0.172076 0.788491
Si Si6 0.630633 0.664366 0.815996
Si Si7 0.098345 0.825130 0.687822
Si Si8 0.326266 0.823978 0.864390
O O1 0.186615 0.725524 0.452757
O O2 0.065817 0.814695 0.431279
O O3 0.122151 0.768452 0.591550
O O4 0.154929 0.000000 0.491425
O O5 0.250000 0.500000 0.393518
O O6 0.250000 0.744440 0.304652
O O7 0.596421 0.727245 0.728431
O O8 0.475830 0.769654 0.697640
O O9 0.555830 0.000000 0.704762
O O10 0.570092 0.500000 0.045203
O O11 0.627015 0.757801 0.058541
O O12 0.500000 0.740551 0.000000
O O13 0.584768 0.659494 0.900158
O O14 0.811921 0.224625 0.844660
O O15 0.750000 0.000000 0.771540
O O16 0.656489 0.500000 0.792364
O O17 0.144948 0.768577 0.768421
O O18 0.097840 0.000000 0.686815
O O19 0.250000 0.772705 0.873748
O O20 0.330068 0.000000 0.871788
#
# Coordination Sequence:
#
# PCOD8209829 Si02
#       8
#     8   4   8   8   4   8   8   8
#     4  10  20  35  59  86 117 159 203 245 292 351
#     4  12  24  38  56  83 122 157 194 245 298 352
#     4  10  19  34  58  90 121 154 199 243 291 356
#     4  10  23  43  65  89 119 159 201 242 302 373
#     4  12  24  40  60  85 116 155 198 241 294 358
#     4  11  23  38  60  88 120 154 190 240 299 356
#     4   9  19  36  60  87 119 158 202 251 297 344
#     4  10  22  39  60  89 122 159 206 258 304 352
#
# _framework density 20.198861999999998
#
# number of rings (size 3 to 8) (size 9 to 14) (size 15 to 20)
#    0.000    1.714    1.429    3.000    2.000    3.429 
#    0.000    1.429    0.000    1.714    0.000    0.000 
#    0.000    0.000    0.000    0.000    0.000    0.000 
#
# Total GULP energy -694054.624871 kJ/mol
# GULP energy per Si atom -12393.832587 kJ/mol
# Density = 2.015289 g / cm^3
# Si number density = 20.198862 Si / 1000 Ang^3
#
#
#
# Elastic Constant Matrix: (Units=GPa)
#
#
# Indices 1 2 3 4 5 6 
#
# 1 144.3309 42.3554 35.2101 0.0000 0.0000 0.0000
# 2 42.3554 88.0720 31.8543 0.0000 0.0000 0.0000
# 3 35.2101 31.8543 89.4082 0.0000 0.0000 0.0000
# 4 0.0000 0.0000 0.0000 -80.1230 0.0000 0.0000
# 5 0.0000 0.0000 0.0000 0.0000 37.4099 0.0000
# 6 0.0000 0.0000 0.0000 0.0000 0.0000-2257.9371
#
#
#
# Elastic Compliance Matrix: (Units=1/GPa)
#
#
# Indices 1 2 3 4 5 6 
#
# 1 0.008412 -0.003268 -0.002148 0.000000 0.000000 0.000000
# 2 -0.003268 0.014304 -0.003809 0.000000 0.000000 0.000000
# 3 -0.002148 -0.003809 0.013388 0.000000 0.000000 0.000000
# 4 0.000000 0.000000 0.000000 -0.012481 0.000000 0.000000
# 5 0.000000 0.000000 0.000000 0.000000 0.026731 0.000000
# 6 0.000000 0.000000 0.000000 0.000000 0.000000 -0.000443
#
#
# Mechanical properties :
#
#
# Convention : Reuss Voigt Hill
#
# Bulk Modulus (GPa) = 56.65056 60.07231 58.36144
# Shear Modulus (GPa) = 67.34400 -445.97061 -189.31331
#
# Velocity S-wave (km/s) = 5.78039 -14.87512 -9.69166
# Velocity P-wave (km/s) = 8.52395 16.28560 9.81231
#
# Compressibility (1/GPa) = 0.01765208
#
# Stress axis : x y z
#
# Youngs Moduli (GPa) = 118.88176 69.91129 74.69534
#
# Poissons Ratio (x) = 0.22850 0.16046
# Poissons Ratio (y) = 0.38855 0.28452
# Poissons Ratio (z) = 0.25538 0.26629
#
# Static dielectric constant tensor:
#      x y z
#    x 3.735560 0.000000 0.000000 
#    y 0.000000 3.545140 0.000000 
#    z 0.000000 0.000000 3.780850 
# 
# 
# High freq. dielectric constant tensor:
#      x y z
#    x 1.803120 0.000000 0.000000 
#    y 0.000000 1.765310 0.000000 
#    z 0.000000 0.000000 1.793880 
# 
# From -- ./inp_files/25894.got.cif
#   From: 2010.03.12/outbox.cif.g09.slc.cpg/sg51_13_cif.got.tgz:25894.got - 2010.04.16 13:43:02.
