data_PCOD8209322
_publ_section_title
;
Structure prediction by ZEFSAII (Michael W. Deem and Ramdas Pophale) SiO2 
 PCOD8209322
Probable space group: P M M A
;
_chemical_formula_sum "Si O2"
_cell_formula_units_Z 56
_cell_length_a 8.814993
_cell_length_b 20.280921
_cell_length_c 15.364312
_cell_angle_alpha 90.000000
_cell_angle_beta 90.000000
_cell_angle_gamma 90.000000
_cell_volume 2746.772956
_symmetry_space_group_name_H-M "P M M A"
_symmetry_group_IT_number 51
_symmetry_cell_setting 'orthorhombic'
loop_
_space_group_symop_operation_xyz
x,y,z
1/2-x,-y,z
1/2+x,-y,-z
-x,y,-z
-x,-y,-z
1/2+x,y,-z
1/2-x,y,z
x,-y,z
loop_
_atom_site_type_symbol
_atom_site_label
_atom_site_fract_x
_atom_site_fract_y
_atom_site_fract_z
Si Si1 0.924227 0.246428 0.856484
Si Si2 0.069786 0.623104 0.913387
Si Si3 0.925834 0.928160 0.264523
Si Si4 0.424848 0.425593 0.258746
Si Si5 0.928662 0.672521 0.589150
Si Si6 0.921258 0.898075 0.913481
Si Si7 0.071687 0.210788 0.678317
O O1 0.750000 0.261910 0.829597
O O2 0.933869 0.180856 0.913448
O O3 0.995017 0.304694 0.912380
O O4 0.025769 0.240409 0.770801
O O5 0.250000 0.627283 0.920651
O O6 0.024628 0.582652 0.827667
O O7 0.000000 0.588318 0.000000
O O8 0.750000 0.917204 0.244805
O O9 0.980169 0.866844 0.325191
O O10 0.006258 0.928993 0.171948
O O11 0.955946 0.000000 0.309514
O O12 0.250000 0.410610 0.235571
O O13 0.445083 0.500000 0.293532
O O14 0.482873 0.375664 0.333205
O O15 0.750000 0.672259 0.579599
O O16 0.000000 0.645558 0.500000
O O17 0.985623 0.747491 0.604723
O O18 0.750000 0.922503 0.915544
O O19 0.000000 0.925827 0.000000
O O20 0.250000 0.218869 0.663369
#
# Coordination Sequence:
#
# PCOD8209322 Si02
#       7
#     8   8   8   8   8   8   8
#     4  10  19  33  53  79 112 150 195 247 301 354
#     4  12  24  37  58  86 119 161 208 255 302 354
#     4   9  19  35  54  77 108 149 193 237 291 354
#     4  10  23  44  66  89 123 164 202 246 299 355
#     4  11  23  40  66  96 127 158 196 244 297 359
#     4  10  20  31  46  70 103 144 192 245 298 350
#     4  10  19  34  59  88 118 152 193 241 295 353
#
# _framework density 20.387561000000002
#
# number of rings (size 3 to 8) (size 9 to 14) (size 15 to 20)
#    0.000    1.714    1.429    3.429    0.000    5.429 
#    0.000    0.000    0.000    0.429    0.000    0.000 
#    0.000    0.000    0.000    0.000    0.000    0.000 
#
# Total GULP energy -694338.242317 kJ/mol
# GULP energy per Si atom -12398.897184 kJ/mol
# Density = 2.034116 g / cm^3
# Si number density = 20.387561 Si / 1000 Ang^3
#
#
#
# Elastic Constant Matrix: (Units=GPa)
#
#
# Indices 1 2 3 4 5 6 
#
# 1 77.1268 35.5627 31.0798 0.0000 0.0000 0.0000
# 2 35.5627 119.5439 41.1068 0.0000 0.0000 0.0000
# 3 31.0798 41.1068 95.6221 0.0000 0.0000 0.0000
# 4 0.0000 0.0000 0.0000 6.3686 0.0000 0.0000
# 5 0.0000 0.0000 0.0000 0.0000 33.0871 0.0000
# 6 0.0000 0.0000 0.0000 0.0000 0.0000 22.0306
#
#
#
# Elastic Compliance Matrix: (Units=1/GPa)
#
#
# Indices 1 2 3 4 5 6 
#
# 1 0.016081 -0.003505 -0.003720 0.000000 0.000000 0.000000
# 2 -0.003505 0.010580 -0.003409 0.000000 0.000000 0.000000
# 3 -0.003720 -0.003409 0.013133 0.000000 0.000000 0.000000
# 4 0.000000 0.000000 0.000000 0.157021 0.000000 0.000000
# 5 0.000000 0.000000 0.000000 0.000000 0.030223 0.000000
# 6 0.000000 0.000000 0.000000 0.000000 0.000000 0.045391
#
#
# Mechanical properties :
#
#
# Convention : Reuss Voigt Hill
#
# Bulk Modulus (GPa) = 53.97940 56.42127 55.20033
# Shear Modulus (GPa) = 16.67379 24.60015 20.63697
#
# Velocity S-wave (km/s) = 2.86290 3.47742 3.18501
# Velocity P-wave (km/s) = 6.12065 6.62251 6.37652
#
# Compressibility (1/GPa) = 0.01852558
#
# Stress axis : x y z
#
# Youngs Moduli (GPa) = 62.18646 94.51820 76.14692
#
# Poissons Ratio (x) = 0.33125 0.28327
# Poissons Ratio (y) = 0.21794 0.25959
# Poissons Ratio (z) = 0.23134 0.32222
#
# Static dielectric constant tensor:
#      x y z
#    x 3.712130 0.000000 0.000000 
#    y 0.000000 3.941590 0.000000 
#    z 0.000000 0.000000 3.451180 
# 
# 
# High freq. dielectric constant tensor:
#      x y z
#    x 1.800880 0.000000 0.000000 
#    y 0.000000 1.804180 0.000000 
#    z 0.000000 0.000000 1.770700 
# 
# From -- ./inp_files/21777.got.cif
#   From: 2010.03.12/outbox.cif.g09.slc.cpg/sg51_11_cif.got.tgz:21777.got - 2010.04.16 13:43:02.
