data_PCOD8209041
_publ_section_title
;
Structure prediction by ZEFSAII (Michael W. Deem and Ramdas Pophale) SiO2 
 PCOD8209041
Probable space group: P M M A
;
_chemical_formula_sum "Si O2"
_cell_formula_units_Z 48
_cell_length_a 20.414762
_cell_length_b 8.979477
_cell_length_c 15.153218
_cell_angle_alpha 90.000000
_cell_angle_beta 90.000000
_cell_angle_gamma 90.000000
_cell_volume 2777.795275
_symmetry_space_group_name_H-M "P M M A"
_symmetry_group_IT_number 51
_symmetry_cell_setting 'orthorhombic'
loop_
_space_group_symop_operation_xyz
x,y,z
1/2-x,-y,z
1/2+x,-y,-z
-x,y,-z
-x,-y,-z
1/2+x,y,-z
1/2-x,y,z
x,-y,z
loop_
_atom_site_type_symbol
_atom_site_label
_atom_site_fract_x
_atom_site_fract_y
_atom_site_fract_z
Si Si1 0.322798 0.829237 0.502916
Si Si2 0.320143 0.675235 0.873172
Si Si3 0.496985 0.170413 0.735261
Si Si4 0.962546 0.676986 0.087322
Si Si5 0.446307 0.675503 0.428470
Si Si6 0.348389 0.832782 0.700043
O O1 0.250000 0.804679 0.462717
O O2 0.373366 0.717615 0.458067
O O3 0.317949 0.792302 0.606356
O O4 0.346120 0.000000 0.489088
O O5 0.250000 0.730442 0.915521
O O6 0.322680 0.500000 0.878631
O O7 0.386684 0.736546 0.919438
O O8 0.319294 0.720244 0.770985
O O9 0.499530 0.250822 0.829944
O O10 0.545226 0.249683 0.666902
O O11 0.426012 0.184204 0.692138
O O12 0.518830 0.000000 0.748451
O O13 0.964822 0.500000 0.098776
O O14 0.000000 0.729940 0.000000
O O15 0.500000 0.732698 0.500000
O O16 0.452249 0.500000 0.416932
O O17 0.329381 0.000000 0.729281
#
# Coordination Sequence:
#
# PCOD8209041 Si02
#       6
#     8   8   8   8   8   8
#     4  10  20  33  49  70 100 137 174 213 256 303
#     4   9  17  28  44  68  97 126 157 195 241 297
#     4  10  19  32  53  76  99 130 169 213 253 299
#     4   9  18  33  52  73 100 131 163 203 255 309
#     4  11  22  34  51  74 102 136 175 214 251 299
#     4   9  17  29  46  69  98 130 162 197 243 300
#
# _framework density 17.279892
#
# number of rings (size 3 to 8) (size 9 to 14) (size 15 to 20)
#    0.000    2.333    1.667    1.500    0.000    3.667 
#    0.000    0.000    0.000    1.000    0.000    2.333 
#    0.000    0.000    0.000    0.000    0.000    0.000 
#
# Total GULP energy -594955.977828 kJ/mol
# GULP energy per Si atom -12394.916205 kJ/mol
# Density = 1.724056 g / cm^3
# Si number density = 17.279892 Si / 1000 Ang^3
#
#
#
# Elastic Constant Matrix: (Units=GPa)
#
#
# Indices 1 2 3 4 5 6 
#
# 1 106.5849 25.8723 53.7510 0.0000 0.0000 0.0000
# 2 25.8723 38.8108 30.2022 0.0000 0.0000 0.0000
# 3 53.7510 30.2022 90.6916 0.0000 0.0000 0.0000
# 4 0.0000 0.0000 0.0000 22.9946 0.0000 0.0000
# 5 0.0000 0.0000 0.0000 0.0000 15.8875 0.0000
# 6 0.0000 0.0000 0.0000 0.0000 0.0000 15.7204
#
#
#
# Elastic Compliance Matrix: (Units=1/GPa)
#
#
# Indices 1 2 3 4 5 6 
#
# 1 0.013790 -0.003823 -0.006900 0.000000 0.000000 0.000000
# 2 -0.003823 0.035839 -0.009669 0.000000 0.000000 0.000000
# 3 -0.006900 -0.009669 0.018336 0.000000 0.000000 0.000000
# 4 0.000000 0.000000 0.000000 0.043488 0.000000 0.000000
# 5 0.000000 0.000000 0.000000 0.000000 0.062942 0.000000
# 6 0.000000 0.000000 0.000000 0.000000 0.000000 0.063612
#
#
# Mechanical properties :
#
#
# Convention : Reuss Voigt Hill
#
# Bulk Modulus (GPa) = 36.79136 50.63757 43.71447
# Shear Modulus (GPa) = 17.37006 19.33797 18.35401
#
# Velocity S-wave (km/s) = 3.17396 3.34893 3.26262
# Velocity P-wave (km/s) = 5.89658 6.65746 6.28854
#
# Compressibility (1/GPa) = 0.02718029
#
# Stress axis : x y z
#
# Youngs Moduli (GPa) = 72.51747 27.90239 54.53850
#
# Poissons Ratio (x) = 0.10668 0.37630
# Poissons Ratio (y) = 0.27726 0.52734
# Poissons Ratio (z) = 0.50034 0.26979
#
# Static dielectric constant tensor:
#      x y z
#    x 3.494420 0.000000 0.000000 
#    y 0.000000 3.165840 0.000000 
#    z 0.000000 0.000000 2.965850 
# 
# 
# High freq. dielectric constant tensor:
#      x y z
#    x 1.670310 0.000000 0.000000 
#    y 0.000000 1.663880 0.000000 
#    z 0.000000 0.000000 1.634950 
# 
# From -- ./inp_files/25453.got.cif
#   From: 2010.03.12/outbox.cif.g09.slc.cpg/sg51_13_cif.got.tgz:25453.got - 2010.04.16 13:43:02.
