data_PCOD8209347
_publ_section_title
;
Structure prediction by ZEFSAII (Michael W. Deem and Ramdas Pophale) SiO2 
 PCOD8209347
Probable space group: P M M A
;
_chemical_formula_sum "Si O2"
_cell_formula_units_Z 48
_cell_length_a 30.721448
_cell_length_b 8.788645
_cell_length_c 9.182444
_cell_angle_alpha 90.000000
_cell_angle_beta 90.000000
_cell_angle_gamma 90.000000
_cell_volume 2479.258965
_symmetry_space_group_name_H-M "P M M A"
_symmetry_group_IT_number 51
_symmetry_cell_setting 'orthorhombic'
loop_
_space_group_symop_operation_xyz
x,y,z
1/2-x,-y,z
1/2+x,-y,-z
-x,y,-z
-x,-y,-z
1/2+x,y,-z
1/2-x,y,z
x,-y,z
loop_
_atom_site_type_symbol
_atom_site_label
_atom_site_fract_x
_atom_site_fract_y
_atom_site_fract_z
Si Si1 0.202107 0.180864 0.595070
Si Si2 0.800386 0.176784 0.077430
Si Si3 0.376775 0.180452 0.402919
Si Si4 0.459318 0.180226 0.588513
Si Si5 0.456547 0.180569 0.917255
Si Si6 0.622939 0.320880 0.910874
O O1 0.250000 0.241997 0.550601
O O2 0.190237 0.235157 0.758272
O O3 0.167557 0.240922 0.477738
O O4 0.202342 0.000000 0.597649
O O5 0.750000 0.203263 0.036573
O O6 0.812737 0.000000 0.061378
O O7 0.829591 0.272507 0.967076
O O8 0.415320 0.230791 0.509683
O O9 0.383820 0.262091 0.251415
O O10 0.376068 0.000000 0.377587
O O11 0.500000 0.249998 0.500000
O O12 0.459701 0.242999 0.752713
O O13 0.463425 0.000000 0.593454
O O14 0.451344 0.000000 0.923237
O O15 0.500000 0.233995 0.000000
O O16 0.414146 0.251781 0.988216
O O17 0.618968 0.500000 0.912618
#
# Coordination Sequence:
#
# PCOD8209347 Si02
#       6
#     8   8   8   8   8   8
#     4   8  15  30  55  84 106 128 170 229 281 320
#     4   9  18  36  62  86 107 137 182 232 278 326
#     4  10  19  33  54  77 105 141 182 225 265 313
#     4   9  17  31  55  85 108 129 169 226 278 319
#     4  10  20  37  63  88 109 138 180 228 275 325
#     4  12  25  37  51  77 117 155 185 221 267 324
#
# _framework density 19.360624000000001
#
# number of rings (size 3 to 8) (size 9 to 14) (size 15 to 20)
#    0.000    2.333    0.000    4.500    0.000    6.667 
#    0.000    5.000    0.000    3.000    0.000    0.000 
#    0.000    0.000    0.000    0.000    0.000    0.000 
#
# Total GULP energy -595219.340751 kJ/mol
# GULP energy per Si atom -12400.402932 kJ/mol
# Density = 1.931656 g / cm^3
# Si number density = 19.360624 Si / 1000 Ang^3
#
#
#
# Elastic Constant Matrix: (Units=GPa)
#
#
# Indices 1 2 3 4 5 6 
#
# 1 134.1257 24.6086 79.1388 0.0000 0.0000 0.0000
# 2 24.6086 27.1118 24.5475 0.0000 0.0000 0.0000
# 3 79.1388 24.5475 163.5359 0.0000 0.0000 0.0000
# 4 0.0000 0.0000 0.0000 -1.0979 0.0000 0.0000
# 5 0.0000 0.0000 0.0000 0.0000 41.0050 0.0000
# 6 0.0000 0.0000 0.0000 0.0000 0.0000 8.8711
#
#
#
# Elastic Compliance Matrix: (Units=1/GPa)
#
#
# Indices 1 2 3 4 5 6 
#
# 1 0.011247 -0.006111 -0.004525 0.000000 0.000000 0.000000
# 2 -0.006111 0.046006 -0.003948 0.000000 0.000000 0.000000
# 3 -0.004525 -0.003948 0.008897 0.000000 0.000000 0.000000
# 4 0.000000 0.000000 0.000000 -0.910862 0.000000 0.000000
# 5 0.000000 0.000000 0.000000 0.000000 0.024387 0.000000
# 6 0.000000 0.000000 0.000000 0.000000 0.000000 0.112726
#
#
# Mechanical properties :
#
#
# Convention : Reuss Voigt Hill
#
# Bulk Modulus (GPa) = 27.04105 64.59589 45.81847
# Shear Modulus (GPa) = -7.50637 22.85422 7.67392
#
# Velocity S-wave (km/s) = -1.97118 3.43949 1.99306
# Velocity P-wave (km/s) = 2.96928 7.01502 5.38642
#
# Compressibility (1/GPa) = 0.03698081
#
# Stress axis : x y z
#
# Youngs Moduli (GPa) = 88.91187 21.73613 112.39145
#
# Poissons Ratio (x) = 0.13284 0.50862
# Poissons Ratio (y) = 0.54337 0.44376
# Poissons Ratio (z) = 0.40236 0.08582
#
# Static dielectric constant tensor:
#      x y z
#    x 3.853580 0.000000 0.000000 
#    y 0.000000 3.046020 0.000000 
#    z 0.000000 0.000000 3.725690 
# 
# 
# High freq. dielectric constant tensor:
#      x y z
#    x 1.772240 0.000000 0.000000 
#    y 0.000000 1.701130 0.000000 
#    z 0.000000 0.000000 1.765240 
# 
# From -- ./inp_files/12737.got.cif
#   From: 2010.03.12/outbox.cif.g09.slc.cpg/sg51_7_cif.got.tgz:12737.got - 2010.04.16 13:43:02.
