data_PCOD8209438
_publ_section_title
;
Structure prediction by ZEFSAII (Michael W. Deem and Ramdas Pophale) SiO2 
 PCOD8209438
Probable space group: P M M A
;
_chemical_formula_sum "Si O2"
_cell_formula_units_Z 48
_cell_length_a 23.269645
_cell_length_b 9.132445
_cell_length_c 12.735423
_cell_angle_alpha 90.000000
_cell_angle_beta 90.000000
_cell_angle_gamma 90.000000
_cell_volume 2706.388862
_symmetry_space_group_name_H-M "P M M A"
_symmetry_group_IT_number 51
_symmetry_cell_setting 'orthorhombic'
loop_
_space_group_symop_operation_xyz
x,y,z
1/2-x,-y,z
1/2+x,-y,-z
-x,y,-z
-x,-y,-z
1/2+x,y,-z
1/2-x,y,z
x,-y,z
loop_
_atom_site_type_symbol
_atom_site_label
_atom_site_fract_x
_atom_site_fract_y
_atom_site_fract_z
Si Si1 0.612653 0.173423 0.686926
Si Si2 0.182651 0.669364 0.136463
Si Si3 0.813498 0.673468 0.098229
Si Si4 0.376493 0.672947 0.698184
Si Si5 0.816063 0.830863 0.485902
Si Si6 0.999384 0.672320 0.621558
O O1 0.645839 0.228725 0.788582
O O2 0.646834 0.225917 0.583914
O O3 0.549610 0.242657 0.684222
O O4 0.607711 0.000000 0.692806
O O5 0.250000 0.694393 0.157339
O O6 0.166418 0.500000 0.155392
O O7 0.166465 0.720105 0.018155
O O8 0.750000 0.738557 0.122628
O O9 0.809046 0.500000 0.101026
O O10 0.858784 0.728948 0.185557
O O11 0.370998 0.500000 0.687785
O O12 0.332100 0.740143 0.616302
O O13 0.441141 0.723454 0.674236
O O14 0.750000 0.803090 0.514384
O O15 0.828719 0.000000 0.462757
O O16 0.988623 0.500000 0.633199
O O17 0.000000 0.719651 0.500000
#
# Coordination Sequence:
#
# PCOD8209438 Si02
#       6
#     8   8   8   8   8   8
#     4  11  22  35  53  75 104 141 180 215 255 310
#     4   9  18  34  56  79 104 134 169 214 264 310
#     4   8  15  30  53  80 105 130 166 212 262 314
#     4  10  19  33  55  79 103 134 173 216 260 309
#     4  10  21  34  48  72 106 136 164 207 260 312
#     4  10  20  35  53  76 106 138 177 221 261 308
#
# _framework density 17.735811000000002
#
# number of rings (size 3 to 8) (size 9 to 14) (size 15 to 20)
#    0.000    2.333    1.667    2.500    0.000    3.667 
#    0.000    1.667    0.000    6.000    0.000    0.000 
#    0.000    0.000    0.000    0.000    0.000    0.000 
#
# Total GULP energy -595236.266063 kJ/mol
# GULP energy per Si atom -12400.755543 kJ/mol
# Density = 1.769544 g / cm^3
# Si number density = 17.735811 Si / 1000 Ang^3
#
#
#
# Elastic Constant Matrix: (Units=GPa)
#
#
# Indices 1 2 3 4 5 6 
#
# 1 91.5660 29.3734 53.0370 0.0000 0.0000 0.0000
# 2 29.3734 34.3176 28.7879 0.0000 0.0000 0.0000
# 3 53.0370 28.7879 123.9560 0.0000 0.0000 0.0000
# 4 0.0000 0.0000 0.0000 17.2203 0.0000 0.0000
# 5 0.0000 0.0000 0.0000 0.0000 30.0608 0.0000
# 6 0.0000 0.0000 0.0000 0.0000 0.0000 19.1772
#
#
#
# Elastic Compliance Matrix: (Units=1/GPa)
#
#
# Indices 1 2 3 4 5 6 
#
# 1 0.017139 -0.010579 -0.004876 0.000000 0.000000 0.000000
# 2 -0.010579 0.042720 -0.005395 0.000000 0.000000 0.000000
# 3 -0.004876 -0.005395 0.011407 0.000000 0.000000 0.000000
# 4 0.000000 0.000000 0.000000 0.058071 0.000000 0.000000
# 5 0.000000 0.000000 0.000000 0.000000 0.033266 0.000000
# 6 0.000000 0.000000 0.000000 0.000000 0.000000 0.052145
#
#
# Mechanical properties :
#
#
# Convention : Reuss Voigt Hill
#
# Bulk Modulus (GPa) = 33.82366 52.47067 43.14717
# Shear Modulus (GPa) = 18.77544 22.53440 20.65492
#
# Velocity S-wave (km/s) = 3.25717 3.56836 3.41631
# Velocity P-wave (km/s) = 5.76696 6.82835 6.31997
#
# Compressibility (1/GPa) = 0.02956510
#
# Stress axis : x y z
#
# Youngs Moduli (GPa) = 58.34515 23.40802 87.66715
#
# Poissons Ratio (x) = 0.24764 0.42750
# Poissons Ratio (y) = 0.61726 0.47295
# Poissons Ratio (z) = 0.28452 0.12628
#
# Static dielectric constant tensor:
#      x y z
#    x 3.395940 0.000000 0.000000 
#    y 0.000000 3.037510 0.000000 
#    z 0.000000 0.000000 3.489300 
# 
# 
# High freq. dielectric constant tensor:
#      x y z
#    x 1.687910 0.000000 0.000000 
#    y 0.000000 1.664650 0.000000 
#    z 0.000000 0.000000 1.689860 
# 
# From -- ./inp_files/18547.got.cif
#   From: 2010.03.12/outbox.cif.g09.slc.cpg/sg51_10_cif.got.tgz:18547.got - 2010.04.16 13:43:02.
