data_PCOD8209962
_publ_section_title
;
Structure prediction by ZEFSAII (Michael W. Deem and Ramdas Pophale) SiO2 
 PCOD8209962
Probable space group: P M M A
;
_chemical_formula_sum "Si O2"
_cell_formula_units_Z 48
_cell_length_a 8.679022
_cell_length_b 30.927764
_cell_length_c 9.262465
_cell_angle_alpha 90.000000
_cell_angle_beta 90.000000
_cell_angle_gamma 90.000000
_cell_volume 2486.256273
_symmetry_space_group_name_H-M "P M M A"
_symmetry_group_IT_number 51
_symmetry_cell_setting 'orthorhombic'
loop_
_space_group_symop_operation_xyz
x,y,z
1/2-x,-y,z
1/2+x,-y,-z
-x,y,-z
-x,-y,-z
1/2+x,y,-z
1/2-x,y,z
x,-y,z
loop_
_atom_site_type_symbol
_atom_site_label
_atom_site_fract_x
_atom_site_fract_y
_atom_site_fract_z
Si Si1 0.571884 0.500000 0.346186
Si Si2 0.067921 0.000000 0.343042
Si Si3 0.930475 0.252819 0.342165
Si Si4 0.567585 0.593872 0.339465
Si Si5 0.932148 0.329590 0.841741
Si Si6 0.070257 0.170051 0.846605
Si Si7 0.567426 0.080221 0.843982
O O1 0.750000 0.500000 0.375220
O O2 0.500000 0.500000 0.500000
O O3 0.527175 0.545889 0.272337
O O4 0.008141 0.957208 0.262023
O O5 0.000000 0.000000 0.500000
O O6 0.250000 0.000000 0.351285
O O7 0.750000 0.263489 0.348278
O O8 0.964220 0.207031 0.268592
O O9 0.000000 0.251202 0.500000
O O10 0.015578 0.289601 0.253776
O O11 0.500000 0.600107 0.500000
O O12 0.750000 0.602225 0.346627
O O13 0.490098 0.626365 0.229115
O O14 0.750000 0.330430 0.852372
O O15 0.000000 0.324298 0.000000
O O16 0.250000 0.161925 0.869405
O O17 0.993758 0.126226 0.786372
O O18 0.000000 0.183959 0.000000
O O19 0.750000 0.081581 0.853774
O O20 0.500000 0.069862 0.000000
#
# Coordination Sequence:
#
# PCOD8209962 Si02
#       7
#     4   4   8   8   8   8   8
#     4   8  16  30  53  82 113 148 186 228 274 328
#     4  10  23  38  54  80 112 148 187 230 278 328
#     4  11  24  41  61  86 115 149 187 230 279 333
#     4  10  19  35  58  86 117 150 189 232 279 331
#     4  12  25  41  60  83 112 148 189 234 283 336
#     4  10  21  37  59  86 114 146 185 227 277 331
#     4  10  20  36  58  83 111 145 187 229 274 328
#
# _framework density 19.306135000000001
#
# number of rings (size 3 to 8) (size 9 to 14) (size 15 to 20)
#    0.000    1.667    0.000    5.750    0.000    6.667 
#    0.000    3.750    0.000    0.000    0.000    0.000 
#    0.000    0.000    0.000    0.000    0.000    0.000 
#
# Total GULP energy -595131.789246 kJ/mol
# GULP energy per Si atom -12398.578943 kJ/mol
# Density = 1.926219 g / cm^3
# Si number density = 19.306135 Si / 1000 Ang^3
#
#
#
# Elastic Constant Matrix: (Units=GPa)
#
#
# Indices 1 2 3 4 5 6 
#
# 1 120.7269 73.3200 57.7592 0.0000 0.0000 0.0000
# 2 73.3200 159.0616 87.6344 0.0000 0.0000 0.0000
# 3 57.7592 87.6344 129.1324 0.0000 0.0000 0.0000
# 4 0.0000 0.0000 0.0000 39.9825 0.0000 0.0000
# 5 0.0000 0.0000 0.0000 0.0000 34.4806 0.0000
# 6 0.0000 0.0000 0.0000 0.0000 0.0000 29.4471
#
#
#
# Elastic Compliance Matrix: (Units=1/GPa)
#
#
# Indices 1 2 3 4 5 6 
#
# 1 0.012019 -0.004118 -0.002581 0.000000 0.000000 0.000000
# 2 -0.004118 0.011452 -0.005930 0.000000 0.000000 0.000000
# 3 -0.002581 -0.005930 0.012923 0.000000 0.000000 0.000000
# 4 0.000000 0.000000 0.000000 0.025011 0.000000 0.000000
# 5 0.000000 0.000000 0.000000 0.000000 0.029002 0.000000
# 6 0.000000 0.000000 0.000000 0.000000 0.000000 0.033959
#
#
# Mechanical properties :
#
#
# Convention : Reuss Voigt Hill
#
# Bulk Modulus (GPa) = 89.80274 94.03868 91.92071
# Shear Modulus (GPa) = 32.60798 33.46253 33.03525
#
# Velocity S-wave (km/s) = 4.11420 4.16776 4.14107
# Velocity P-wave (km/s) = 8.31775 8.48382 8.40120
#
# Compressibility (1/GPa) = 0.01113552
#
# Stress axis : x y z
#
# Youngs Moduli (GPa) = 83.20064 87.31940 77.38216
#
# Poissons Ratio (x) = 0.35959 0.19975
# Poissons Ratio (y) = 0.34263 0.45887
# Poissons Ratio (z) = 0.21477 0.51780
#
# Static dielectric constant tensor:
#      x y z
#    x 3.793640 0.000000 0.000000 
#    y 0.000000 4.114610 0.000000 
#    z 0.000000 0.000000 3.389310 
# 
# 
# High freq. dielectric constant tensor:
#      x y z
#    x 1.767270 0.000000 0.000000 
#    y 0.000000 1.776490 0.000000 
#    z 0.000000 0.000000 1.738620 
# 
# From -- ./inp_files/6215.got.cif
#   From: 2010.03.12/outbox.cif.g09.slc.cpg/sg51_4_cif.got.tgz:6215.got - 2010.04.16 13:43:02.
