data_PCOD8209772
_publ_section_title
;
Structure prediction by ZEFSAII (Michael W. Deem and Ramdas Pophale) SiO2 
 PCOD8209772
Probable space group: P M M A
;
_chemical_formula_sum "Si O2"
_cell_formula_units_Z 32
_cell_length_a 8.789537
_cell_length_b 20.572620
_cell_length_c 9.020237
_cell_angle_alpha 90.000000
_cell_angle_beta 90.000000
_cell_angle_gamma 90.000000
_cell_volume 1631.073573
_symmetry_space_group_name_H-M "P M M A"
_symmetry_group_IT_number 51
_symmetry_cell_setting 'orthorhombic'
loop_
_space_group_symop_operation_xyz
x,y,z
1/2-x,-y,z
1/2+x,-y,-z
-x,y,-z
-x,-y,-z
1/2+x,y,-z
1/2-x,y,z
x,-y,z
loop_
_atom_site_type_symbol
_atom_site_label
_atom_site_fract_x
_atom_site_fract_y
_atom_site_fract_z
Si Si1 0.927084 0.616655 0.160207
Si Si2 0.570642 0.140976 0.837143
Si Si3 0.069508 0.500000 0.338491
Si Si4 0.574370 0.000000 0.843491
Si Si5 0.074086 0.745344 0.655480
O O1 0.750000 0.597806 0.150047
O O2 0.951910 0.686531 0.232380
O O3 0.014960 0.563836 0.255181
O O4 0.000000 0.618846 0.000000
O O5 0.750000 0.152413 0.851727
O O6 0.503059 0.190917 0.720983
O O7 0.531157 0.068998 0.766914
O O8 0.500000 0.150627 0.000000
O O9 0.250000 0.500000 0.349441
O O10 0.000000 0.500000 0.500000
O O11 0.750000 0.000000 0.876540
O O12 0.500000 0.000000 0.000000
O O13 0.250000 0.760096 0.629560
O O14 0.000000 0.726203 0.500000
#
# Coordination Sequence:
#
# PCOD8209772 Si02
#       5
#     8   8   4   4   8
#     4  11  24  42  64  90 120 154 194 238 285 338
#     4  10  19  34  57  84 115 149 190 237 286 342
#     4  12  25  42  65  92 124 158 194 236 285 340
#     4   8  16  30  51  80 111 146 186 232 284 338
#     4  11  24  40  59  84 115 152 193 238 290 345
#
# _framework density 19.618979
#
# number of rings (size 3 to 8) (size 9 to 14) (size 15 to 20)
#    0.000    1.500    0.000    5.250    0.000    9.000 
#    0.000    0.625    0.000    0.000    0.000    0.000 
#    0.000    0.000    0.000    0.000    0.000    0.000 
#
# Total GULP energy -396719.458452 kJ/mol
# GULP energy per Si atom -12397.483077 kJ/mol
# Density = 1.957433 g / cm^3
# Si number density = 19.618979 Si / 1000 Ang^3
#
#
#
# Elastic Constant Matrix: (Units=GPa)
#
#
# Indices 1 2 3 4 5 6 
#
# 1 145.4962 78.2935 69.6215 0.0000 0.0000 0.0000
# 2 78.2935 129.6942 51.9631 0.0000 0.0000 0.0000
# 3 69.6215 51.9631 131.4451 0.0000 0.0000 0.0000
# 4 0.0000 0.0000 0.0000 100.9162 0.0000 0.0000
# 5 0.0000 0.0000 0.0000 0.0000 37.3287 0.0000
# 6 0.0000 0.0000 0.0000 0.0000 0.0000 32.7837
#
#
#
# Elastic Compliance Matrix: (Units=1/GPa)
#
#
# Indices 1 2 3 4 5 6 
#
# 1 0.011764 -0.005472 -0.004068 0.000000 0.000000 0.000000
# 2 -0.005472 0.011707 -0.001730 0.000000 0.000000 0.000000
# 3 -0.004068 -0.001730 0.010446 0.000000 0.000000 0.000000
# 4 0.000000 0.000000 0.000000 0.009909 0.000000 0.000000
# 5 0.000000 0.000000 0.000000 0.000000 0.026789 0.000000
# 6 0.000000 0.000000 0.000000 0.000000 0.000000 0.030503
#
#
# Mechanical properties :
#
#
# Convention : Reuss Voigt Hill
#
# Bulk Modulus (GPa) = 87.88812 89.59906 88.74359
# Shear Modulus (GPa) = 39.23128 47.98956 43.61042
#
# Velocity S-wave (km/s) = 4.47661 4.95115 4.71985
# Velocity P-wave (km/s) = 8.46255 8.85742 8.66224
#
# Compressibility (1/GPa) = 0.01137810
#
# Stress axis : x y z
#
# Youngs Moduli (GPa) = 85.00509 85.42120 95.72976
#
# Poissons Ratio (x) = 0.46741 0.38941
# Poissons Ratio (y) = 0.46514 0.16558
# Poissons Ratio (z) = 0.34578 0.14775
#
# Static dielectric constant tensor:
#      x y z
#    x 3.863360 0.000000 0.000000 
#    y 0.000000 3.788080 0.000000 
#    z 0.000000 0.000000 3.437540 
# 
# 
# High freq. dielectric constant tensor:
#      x y z
#    x 1.783490 0.000000 0.000000 
#    y 0.000000 1.790490 0.000000 
#    z 0.000000 0.000000 1.753050 
# 
# From -- ./inp_files/5173.got.cif
#   From: 2010.03.12/outbox.cif.g09.slc.cpg/sg51_3_cif.got.tgz:5173.got - 2010.04.16 13:43:02.
