data_PCOD8209126
_publ_section_title
;
Structure prediction by ZEFSAII (Michael W. Deem and Ramdas Pophale) SiO2 
 PCOD8209126
Probable space group: P M M A
;
_chemical_formula_sum "Si O2"
_cell_formula_units_Z 48
_cell_length_a 9.526469
_cell_length_b 28.457749
_cell_length_c 9.417026
_cell_angle_alpha 90.000000
_cell_angle_beta 90.000000
_cell_angle_gamma 90.000000
_cell_volume 2552.973299
_symmetry_space_group_name_H-M "P M M A"
_symmetry_group_IT_number 51
_symmetry_cell_setting 'orthorhombic'
loop_
_space_group_symop_operation_xyz
x,y,z
1/2-x,-y,z
1/2+x,-y,-z
-x,y,-z
-x,-y,-z
1/2+x,y,-z
1/2-x,y,z
x,-y,z
loop_
_atom_site_type_symbol
_atom_site_label
_atom_site_fract_x
_atom_site_fract_y
_atom_site_fract_z
Si Si1 0.913185 0.555638 0.361632
Si Si2 0.417326 0.384354 0.145873
Si Si3 0.584626 0.196852 0.638711
Si Si4 0.250000 0.051738 0.160274
Si Si5 0.409469 0.304145 0.367280
Si Si6 0.002735 0.115305 0.167575
Si Si7 0.750000 0.053159 0.177116
O O1 0.750000 0.573899 0.366764
O O2 0.911959 0.500000 0.349728
O O3 0.000000 0.572435 0.500000
O O4 0.000965 0.574233 0.227397
O O5 0.250000 0.396000 0.125482
O O6 0.437558 0.336029 0.230883
O O7 0.500000 0.377482 0.000000
O O8 0.500000 0.181294 0.500000
O O9 0.750000 0.187991 0.617440
O O10 0.551664 0.250994 0.675823
O O11 0.521442 0.166716 0.767027
O O12 0.121961 0.080668 0.219066
O O13 0.250000 0.000000 0.227935
O O14 0.250000 0.047630 0.991299
O O15 0.500000 0.322279 0.500000
O O16 0.250000 0.307611 0.418917
O O17 0.874866 0.085853 0.229293
O O18 0.000000 0.123357 0.000000
O O19 0.750000 0.000000 0.242720
#
# Coordination Sequence:
#
# PCOD8209126 Si02
#       7
#     8   8   8   4   8   8   4
#     4  10  21  38  61  88 119 157 201 245 287 337
#     4  11  23  38  58  85 119 155 191 238 292 343
#     4  10  21  38  57  79 108 142 179 222 272 330
#     4   9  16  30  51  77 103 137 177 217 266 315
#     4   9  20  38  59  81 106 141 185 228 275 331
#     4  10  19  32  54  79 106 138 175 222 269 317
#     4   9  18  30  49  79 109 133 173 223 266 319
#
# _framework density 18.801606
#
# number of rings (size 3 to 8) (size 9 to 14) (size 15 to 20)
#    0.000    2.167    0.833    2.000    1.167    6.667 
#    0.000    0.000    0.000    3.000    0.000    0.000 
#    0.000    0.000    0.000    0.000    0.000    0.000 
#
# Total GULP energy -594894.101872 kJ/mol
# GULP energy per Si atom -12393.627122 kJ/mol
# Density = 1.875881 g / cm^3
# Si number density = 18.801606 Si / 1000 Ang^3
#
#
#
# Elastic Constant Matrix: (Units=GPa)
#
#
# Indices 1 2 3 4 5 6 
#
# 1 158.2945 49.0506 59.0700 0.0000 0.0000 0.0000
# 2 49.0506 74.2842 42.1768 0.0000 0.0000 0.0000
# 3 59.0700 42.1768 95.7207 0.0000 0.0000 0.0000
# 4 0.0000 0.0000 0.0000 30.1199 0.0000 0.0000
# 5 0.0000 0.0000 0.0000 0.0000 32.5214 0.0000
# 6 0.0000 0.0000 0.0000 0.0000 0.0000 35.0046
#
#
#
# Elastic Compliance Matrix: (Units=1/GPa)
#
#
# Indices 1 2 3 4 5 6 
#
# 1 0.008903 -0.003680 -0.003872 0.000000 0.000000 0.000000
# 2 -0.003680 0.019474 -0.006310 0.000000 0.000000 0.000000
# 3 -0.003872 -0.006310 0.015617 0.000000 0.000000 0.000000
# 4 0.000000 0.000000 0.000000 0.033201 0.000000 0.000000
# 5 0.000000 0.000000 0.000000 0.000000 0.030749 0.000000
# 6 0.000000 0.000000 0.000000 0.000000 0.000000 0.028568
#
#
# Mechanical properties :
#
#
# Convention : Reuss Voigt Hill
#
# Bulk Modulus (GPa) = 61.46472 69.87714 65.67093
# Shear Modulus (GPa) = 29.47085 31.39598 30.43341
#
# Velocity S-wave (km/s) = 3.96342 4.09082 4.02762
# Velocity P-wave (km/s) = 7.32851 7.71747 7.52550
#
# Compressibility (1/GPa) = 0.01626950
#
# Stress axis : x y z
#
# Youngs Moduli (GPa) = 112.32568 51.34975 64.03219
#
# Poissons Ratio (x) = 0.18896 0.24796
# Poissons Ratio (y) = 0.41334 0.40404
# Poissons Ratio (z) = 0.43498 0.32402
#
# Static dielectric constant tensor:
#      x y z
#    x 3.658990 0.000000 0.000000 
#    y 0.000000 3.558890 0.000000 
#    z 0.000000 0.000000 3.170540 
# 
# 
# High freq. dielectric constant tensor:
#      x y z
#    x 1.749990 0.000000 0.000000 
#    y 0.000000 1.742160 0.000000 
#    z 0.000000 0.000000 1.701400 
# 
# From -- ./inp_files/6280.got.cif
#   From: 2010.03.12/outbox.cif.g09.slc.cpg/sg51_4_cif.got.tgz:6280.got - 2010.04.16 13:43:02.
