data_PCOD8209998
_publ_section_title
;
Structure prediction by ZEFSAII (Michael W. Deem and Ramdas Pophale) SiO2 
 PCOD8209998
Probable space group: P M M A
;
_chemical_formula_sum "Si O2"
_cell_formula_units_Z 40
_cell_length_a 8.754254
_cell_length_b 11.884531
_cell_length_c 20.450533
_cell_angle_alpha 90.000000
_cell_angle_beta 90.000000
_cell_angle_gamma 90.000000
_cell_volume 2127.677606
_symmetry_space_group_name_H-M "P M M A"
_symmetry_group_IT_number 51
_symmetry_cell_setting 'orthorhombic'
loop_
_space_group_symop_operation_xyz
x,y,z
1/2-x,-y,z
1/2+x,-y,-z
-x,y,-z
-x,-y,-z
1/2+x,y,-z
1/2-x,y,z
x,-y,z
loop_
_atom_site_type_symbol
_atom_site_label
_atom_site_fract_x
_atom_site_fract_y
_atom_site_fract_z
Si Si1 0.431668 0.274149 0.431632
Si Si2 0.571863 0.741266 0.814565
Si Si3 0.429667 0.872749 0.931497
Si Si4 0.430349 0.500000 0.622579
Si Si5 0.073950 0.500000 0.237344
Si Si6 0.931391 0.125677 0.688522
O O1 0.500000 0.231975 0.500000
O O2 0.250000 0.282118 0.435363
O O3 0.498670 0.394187 0.413591
O O4 0.487607 0.184865 0.377593
O O5 0.750000 0.766240 0.824385
O O6 0.482889 0.785644 0.877028
O O7 0.539177 0.608699 0.806846
O O8 0.507454 0.804716 0.750577
O O9 0.250000 0.866831 0.938117
O O10 0.483601 0.000000 0.913885
O O11 0.500000 0.833798 0.000000
O O12 0.250000 0.500000 0.613097
O O13 0.468916 0.500000 0.699073
O O14 0.250000 0.500000 0.261486
O O15 0.750000 0.123196 0.690147
O O16 0.999736 0.000000 0.691205
#
# Coordination Sequence:
#
# PCOD8209998 Si02
#       6
#     8   8   8   4   4   8
#     4  11  22  38  57  80 112 146 187 234 284 340
#     4  10  19  35  60  86 114 147 188 231 278 334
#     4  10  21  37  58  86 119 153 190 232 277 325
#     4  12  23  37  58  83 110 143 186 235 286 335
#     4  10  20  37  60  87 114 149 186 227 280 333
#     4   9  18  33  56  83 110 145 186 227 277 338
#
# _framework density 18.79984
#
# number of rings (size 3 to 8) (size 9 to 14) (size 15 to 20)
#    0.000    1.800    2.000    3.000    0.000    3.200 
#    0.000    0.500    0.000    3.000    0.000    0.000 
#    0.000    0.000    0.000    0.000    0.000    0.000 
#
# Total GULP energy -496133.387044 kJ/mol
# GULP energy per Si atom -12403.334676 kJ/mol
# Density = 1.875705 g / cm^3
# Si number density = 18.799840 Si / 1000 Ang^3
#
#
#
# Elastic Constant Matrix: (Units=GPa)
#
#
# Indices 1 2 3 4 5 6 
#
# 1 66.1001 32.0350 44.2807 0.0000 0.0000 0.0000
# 2 32.0350 149.0247 78.4917 0.0000 0.0000 0.0000
# 3 44.2807 78.4917 161.0803 0.0000 0.0000 0.0000
# 4 0.0000 0.0000 0.0000 33.6373 0.0000 0.0000
# 5 0.0000 0.0000 0.0000 0.0000 35.9841 0.0000
# 6 0.0000 0.0000 0.0000 0.0000 0.0000 13.0013
#
#
#
# Elastic Compliance Matrix: (Units=1/GPa)
#
#
# Indices 1 2 3 4 5 6 
#
# 1 0.018889 -0.001783 -0.004324 0.000000 0.000000 0.000000
# 2 -0.001783 0.009195 -0.003991 0.000000 0.000000 0.000000
# 3 -0.004324 -0.003991 0.009341 0.000000 0.000000 0.000000
# 4 0.000000 0.000000 0.000000 0.029729 0.000000 0.000000
# 5 0.000000 0.000000 0.000000 0.000000 0.027790 0.000000
# 6 0.000000 0.000000 0.000000 0.000000 0.000000 0.076916
#
#
# Mechanical properties :
#
#
# Convention : Reuss Voigt Hill
#
# Bulk Modulus (GPa) = 58.03514 76.20221 67.11868
# Shear Modulus (GPa) = 25.27815 31.28437 28.28126
#
# Velocity S-wave (km/s) = 3.67085 4.08373 3.88278
# Velocity P-wave (km/s) = 6.99313 7.92826 7.47533
#
# Compressibility (1/GPa) = 0.01723094
#
# Stress axis : x y z
#
# Youngs Moduli (GPa) = 52.94010 108.74900 107.05240
#
# Poissons Ratio (x) = 0.19392 0.46286
# Poissons Ratio (y) = 0.09440 0.42720
# Poissons Ratio (z) = 0.22890 0.43397
#
# Static dielectric constant tensor:
#      x y z
#    x 3.286130 0.000000 0.000000 
#    y 0.000000 3.654640 0.000000 
#    z 0.000000 0.000000 3.503200 
# 
# 
# High freq. dielectric constant tensor:
#      x y z
#    x 1.713690 0.000000 0.000000 
#    y 0.000000 1.735460 0.000000 
#    z 0.000000 0.000000 1.736090 
# 
# From -- ./inp_files/31469.got.cif
#   From: 2010.03.12/outbox.cif.g09.slc.cpg/sg51_16_cif.got.tgz:31469.got - 2010.04.16 13:43:02.
