data_PCOD8209491
_publ_section_title
;
Structure prediction by ZEFSAII (Michael W. Deem and Ramdas Pophale) SiO2 
 PCOD8209491
Probable space group: P M M A
;
_chemical_formula_sum "Si O2"
_cell_formula_units_Z 36
_cell_length_a 8.916107
_cell_length_b 12.740431
_cell_length_c 16.789805
_cell_angle_alpha 90.000000
_cell_angle_beta 90.000000
_cell_angle_gamma 90.000000
_cell_volume 1907.238672
_symmetry_space_group_name_H-M "P M M A"
_symmetry_group_IT_number 51
_symmetry_cell_setting 'orthorhombic'
loop_
_space_group_symop_operation_xyz
x,y,z
1/2-x,-y,z
1/2+x,-y,-z
-x,y,-z
-x,-y,-z
1/2+x,y,-z
1/2-x,y,z
x,-y,z
loop_
_atom_site_type_symbol
_atom_site_label
_atom_site_fract_x
_atom_site_fract_y
_atom_site_fract_z
Si Si1 0.080731 0.385772 0.853290
Si Si2 0.075093 0.667731 0.304378
Si Si3 0.072001 0.500000 0.585992
Si Si4 0.922149 0.170012 0.079149
Si Si5 0.422439 0.884719 0.240163
O O1 0.250000 0.372422 0.818531
O O2 0.062147 0.500000 0.894304
O O3 0.050407 0.295721 0.917972
O O4 0.962485 0.378948 0.781828
O O5 0.250000 0.650535 0.322993
O O6 0.030830 0.792439 0.302254
O O7 0.979877 0.606493 0.370231
O O8 0.250000 0.500000 0.579817
O O9 0.000000 0.500000 0.500000
O O10 0.750000 0.138957 0.073301
O O11 0.985207 0.117788 0.158701
O O12 0.000000 0.125108 0.000000
O O13 0.250000 0.866726 0.216451
O O14 0.447307 0.000000 0.279760
#
# Coordination Sequence:
#
# PCOD8209491 Si02
#       5
#     8   8   4   8   8
#     4   9  17  30  48  69  97 136 177 218 265 319
#     4  10  19  33  55  83 111 139 175 215 258 312
#     4  12  24  38  58  86 119 148 173 206 252 304
#     4  10  20  32  46  68  99 136 180 229 279 323
#     4   9  19  36  57  79 104 138 180 224 268 315
#
# _framework density 18.875457000000001
#
# number of rings (size 3 to 8) (size 9 to 14) (size 15 to 20)
#    0.000    2.222    1.111    2.333    0.000    3.111 
#    0.000    0.000    0.000    0.667    0.000    0.000 
#    0.000    0.000    0.000    0.000    0.000    0.000 
#
# Total GULP energy -446197.569550 kJ/mol
# GULP energy per Si atom -12394.376932 kJ/mol
# Density = 1.883250 g / cm^3
# Si number density = 18.875457 Si / 1000 Ang^3
#
#
#
# Elastic Constant Matrix: (Units=GPa)
#
#
# Indices 1 2 3 4 5 6 
#
# 1 103.2940 40.8009 47.5829 0.0000 0.0000 0.0000
# 2 40.8009 144.2338 34.6934 0.0000 0.0000 0.0000
# 3 47.5829 34.6934 81.8751 0.0000 0.0000 0.0000
# 4 0.0000 0.0000 0.0000 13.3931 0.0000 0.0000
# 5 0.0000 0.0000 0.0000 0.0000 28.8057 0.0000
# 6 0.0000 0.0000 0.0000 0.0000 0.0000 17.9575
#
#
#
# Elastic Compliance Matrix: (Units=1/GPa)
#
#
# Indices 1 2 3 4 5 6 
#
# 1 0.013821 -0.002202 -0.007099 0.000000 0.000000 0.000000
# 2 -0.002202 0.008071 -0.002140 0.000000 0.000000 0.000000
# 3 -0.007099 -0.002140 0.017246 0.000000 0.000000 0.000000
# 4 0.000000 0.000000 0.000000 0.074665 0.000000 0.000000
# 5 0.000000 0.000000 0.000000 0.000000 0.034715 0.000000
# 6 0.000000 0.000000 0.000000 0.000000 0.000000 0.055687
#
#
# Mechanical properties :
#
#
# Convention : Reuss Voigt Hill
#
# Bulk Modulus (GPa) = 61.51773 63.95081 62.73427
# Shear Modulus (GPa) = 21.50466 25.78633 23.64549
#
# Velocity S-wave (km/s) = 3.37900 3.70013 3.54321
# Velocity P-wave (km/s) = 6.91995 7.22555 7.07440
#
# Compressibility (1/GPa) = 0.01625548
#
# Stress axis : x y z
#
# Youngs Moduli (GPa) = 72.35221 123.90190 57.98299
#
# Poissons Ratio (x) = 0.27285 0.41164
# Poissons Ratio (y) = 0.15933 0.12409
# Poissons Ratio (z) = 0.51365 0.26517
#
# Static dielectric constant tensor:
#      x y z
#    x 3.578210 0.000000 0.000000 
#    y 0.000000 3.935150 0.000000 
#    z 0.000000 0.000000 3.019020 
# 
# 
# High freq. dielectric constant tensor:
#      x y z
#    x 1.742290 0.000000 0.000000 
#    y 0.000000 1.751890 0.000000 
#    z 0.000000 0.000000 1.679640 
# 
# From -- ./inp_files/20354.got.cif
#   From: 2010.03.12/outbox.cif.g09.slc.cpg/sg51_11_cif.got.tgz:20354.got - 2010.04.16 13:43:02.
