data_PCOD8209169
_publ_section_title
;
Structure prediction by ZEFSAII (Michael W. Deem and Ramdas Pophale) SiO2 
 PCOD8209169
Probable space group: P M M A
;
_chemical_formula_sum "Si O2"
_cell_formula_units_Z 56
_cell_length_a 22.053174
_cell_length_b 8.424025
_cell_length_c 14.931557
_cell_angle_alpha 90.000000
_cell_angle_beta 90.000000
_cell_angle_gamma 90.000000
_cell_volume 2773.932236
_symmetry_space_group_name_H-M "P M M A"
_symmetry_group_IT_number 51
_symmetry_cell_setting 'orthorhombic'
loop_
_space_group_symop_operation_xyz
x,y,z
1/2-x,-y,z
1/2+x,-y,-z
-x,y,-z
-x,-y,-z
1/2+x,y,-z
1/2-x,y,z
x,-y,z
loop_
_atom_site_type_symbol
_atom_site_label
_atom_site_fract_x
_atom_site_fract_y
_atom_site_fract_z
Si Si1 0.180500 0.810532 0.362432
Si Si2 0.068702 0.822561 0.028616
Si Si3 0.750000 0.681567 0.364797
Si Si4 0.630337 0.681900 0.134407
Si Si5 0.750000 0.820252 0.181197
Si Si6 0.421127 0.188290 0.229960
Si Si7 0.366994 0.185128 0.548631
Si Si8 0.950278 0.189190 0.296025
O O1 0.250000 0.744122 0.357966
O O2 0.141084 0.752148 0.277158
O O3 0.144101 0.742113 0.449426
O O4 0.183469 0.000000 0.366722
O O5 0.098660 0.699758 0.961067
O O6 0.097621 0.000000 0.023713
O O7 0.076343 0.749043 0.128252
O O8 0.000000 0.836864 0.000000
O O9 0.750000 0.500000 0.398794
O O10 0.750000 0.688103 0.258496
O O11 0.807771 0.778434 0.395407
O O12 0.646999 0.500000 0.151095
O O13 0.690106 0.789087 0.123770
O O14 0.588806 0.740163 0.215639
O O15 0.750000 0.000000 0.217926
O O16 0.480283 0.248011 0.285304
O O17 0.423311 0.000000 0.228880
O O18 0.424529 0.249843 0.606829
O O19 0.376214 0.000000 0.536560
O O20 0.944829 0.000000 0.289549
#
# Coordination Sequence:
#
# PCOD8209169 Si02
#       8
#     8   8   4   8   4   8   8   8
#     4   9  17  31  53  83 115 146 190 246 290 332
#     4  10  19  36  60  82 109 151 198 242 291 349
#     4  12  22  32  52  83 116 151 188 227 276 338
#     4  12  24  37  56  86 121 153 189 239 298 356
#     4  12  24  40  60  83 116 155 194 237 292 352
#     4   9  18  33  54  81 113 148 195 249 292 335
#     4  10  19  32  55  82 111 149 189 231 284 341
#     4  10  19  33  55  83 115 152 189 234 289 349
#
# _framework density 20.187947000000001
#
# number of rings (size 3 to 8) (size 9 to 14) (size 15 to 20)
#    0.000    1.714    3.571    2.571    0.000    0.857 
#    1.286    2.857    0.000    1.714    0.000    2.000 
#    0.000    0.000    0.000    0.000    0.000    0.000 
#
# Total GULP energy -694003.047760 kJ/mol
# GULP energy per Si atom -12392.911567 kJ/mol
# Density = 2.014200 g / cm^3
# Si number density = 20.187947 Si / 1000 Ang^3
#
#
#
# Elastic Constant Matrix: (Units=GPa)
#
#
# Indices 1 2 3 4 5 6 
#
# 1 122.0794 16.0237 70.6883 0.0000 0.0000 0.0000
# 2 16.0237 27.3369 15.1092 0.0000 0.0000 0.0000
# 3 70.6883 15.1092 152.2247 0.0000 0.0000 0.0000
# 4 0.0000 0.0000 0.0000 9.2184 0.0000 0.0000
# 5 0.0000 0.0000 0.0000 0.0000 26.1353 0.0000
# 6 0.0000 0.0000 0.0000 0.0000 0.0000 7.1521
#
#
#
# Elastic Compliance Matrix: (Units=1/GPa)
#
#
# Indices 1 2 3 4 5 6 
#
# 1 0.011613 -0.004048 -0.004991 0.000000 0.000000 0.000000
# 2 -0.004048 0.040115 -0.002102 0.000000 0.000000 0.000000
# 3 -0.004991 -0.002102 0.009095 0.000000 0.000000 0.000000
# 4 0.000000 0.000000 0.000000 0.108479 0.000000 0.000000
# 5 0.000000 0.000000 0.000000 0.000000 0.038262 0.000000
# 6 0.000000 0.000000 0.000000 0.000000 0.000000 0.139820
#
#
# Mechanical properties :
#
#
# Convention : Reuss Voigt Hill
#
# Bulk Modulus (GPa) = 25.94602 56.14260 41.04431
# Shear Modulus (GPa) = 13.07146 21.82247 17.44697
#
# Velocity S-wave (km/s) = 2.54734 3.29137 2.94296
# Velocity P-wave (km/s) = 4.64026 6.50496 5.65007
#
# Compressibility (1/GPa) = 0.03854156
#
# Stress axis : x y z
#
# Youngs Moduli (GPa) = 86.11390 24.92818 109.94634
#
# Poissons Ratio (x) = 0.10092 0.54870
# Poissons Ratio (y) = 0.34862 0.23108
# Poissons Ratio (z) = 0.42977 0.05239
#
# Static dielectric constant tensor:
#      x y z
#    x 4.101720 0.000000 0.000000 
#    y 0.000000 3.206100 0.000000 
#    z 0.000000 0.000000 3.920900 
# 
# 
# High freq. dielectric constant tensor:
#      x y z
#    x 1.789870 0.000000 0.000000 
#    y 0.000000 1.744830 0.000000 
#    z 0.000000 0.000000 1.790330 
# 
# From -- ./inp_files/25846.got.cif
#   From: 2010.03.12/outbox.cif.g09.slc.cpg/sg51_13_cif.got.tgz:25846.got - 2010.04.16 13:43:02.
