data_PCOD8209881
_publ_section_title
;
Structure prediction by ZEFSAII (Michael W. Deem and Ramdas Pophale) SiO2 
 PCOD8209881
Probable space group: P M M A
;
_chemical_formula_sum "Si O2"
_cell_formula_units_Z 48
_cell_length_a 29.903247
_cell_length_b 9.245278
_cell_length_c 9.336679
_cell_angle_alpha 90.000000
_cell_angle_beta 90.000000
_cell_angle_gamma 90.000000
_cell_volume 2581.254051
_symmetry_space_group_name_H-M "P M M A"
_symmetry_group_IT_number 51
_symmetry_cell_setting 'orthorhombic'
loop_
_space_group_symop_operation_xyz
x,y,z
1/2-x,-y,z
1/2+x,-y,-z
-x,y,-z
-x,-y,-z
1/2+x,y,-z
1/2-x,y,z
x,-y,z
loop_
_atom_site_type_symbol
_atom_site_label
_atom_site_fract_x
_atom_site_fract_y
_atom_site_fract_z
Si Si1 0.322842 0.840888 0.520337
Si Si2 0.397588 0.157196 0.748555
Si Si3 0.850367 0.167705 0.959753
Si Si4 0.250000 0.329398 0.684266
Si Si5 0.451243 0.331505 0.538375
Si Si6 0.875377 0.669723 0.691448
Si Si7 0.750000 0.165718 0.029055
O O1 0.366628 0.864117 0.612128
O O2 0.292649 0.733383 0.607844
O O3 0.333834 0.759249 0.373178
O O4 0.301360 0.000000 0.488655
O O5 0.436042 0.264293 0.691391
O O6 0.418454 0.000000 0.787734
O O7 0.368612 0.215160 0.883239
O O8 0.878945 0.267829 0.851926
O O9 0.861194 0.000000 0.929894
O O10 0.796449 0.192553 0.943103
O O11 0.250000 0.500000 0.673578
O O12 0.250000 0.282303 0.847109
O O13 0.500000 0.268829 0.500000
O O14 0.453432 0.500000 0.569795
O O15 0.419629 0.298829 0.401793
O O16 0.864385 0.500000 0.695385
O O17 0.750000 0.000000 0.089424
#
# Coordination Sequence:
#
# PCOD8209881 Si02
#       7
#     8   8   8   4   8   8   4
#     4  10  19  35  55  74 102 143 183 221 268 320
#     4   9  18  33  56  81 104 137 183 226 264 320
#     4  10  20  36  56  79 110 149 189 223 269 330
#     4  12  22  31  50  81 110 136 180 234 272 311
#     4   9  19  37  59  81 107 141 180 224 280 343
#     4  10  21  36  54  80 111 140 178 230 280 326
#     4  10  20  37  56  75 106 150 192 224 256 317
#
# _framework density 18.595614000000001
#
# number of rings (size 3 to 8) (size 9 to 14) (size 15 to 20)
#    0.000    2.167    1.667    1.750    0.000    3.667 
#    0.000    3.333    0.000    5.000    0.000    0.000 
#    0.000    0.000    0.000    0.000    0.000    0.000 
#
# Total GULP energy -594784.339061 kJ/mol
# GULP energy per Si atom -12391.340397 kJ/mol
# Density = 1.855329 g / cm^3
# Si number density = 18.595614 Si / 1000 Ang^3
#
#
#
# Elastic Constant Matrix: (Units=GPa)
#
#
# Indices 1 2 3 4 5 6 
#
# 1 74.6031 44.4285 28.2760 0.0000 0.0000 0.0000
# 2 44.4285 118.4408 47.0396 0.0000 0.0000 0.0000
# 3 28.2760 47.0396 94.0316 0.0000 0.0000 0.0000
# 4 0.0000 0.0000 0.0000 31.6346 0.0000 0.0000
# 5 0.0000 0.0000 0.0000 0.0000 22.6827 0.0000
# 6 0.0000 0.0000 0.0000 0.0000 0.0000 26.2943
#
#
#
# Elastic Compliance Matrix: (Units=1/GPa)
#
#
# Indices 1 2 3 4 5 6 
#
# 1 0.017719 -0.005654 -0.002500 0.000000 0.000000 0.000000
# 2 -0.005654 0.012340 -0.004473 0.000000 0.000000 0.000000
# 3 -0.002500 -0.004473 0.013624 0.000000 0.000000 0.000000
# 4 0.000000 0.000000 0.000000 0.031611 0.000000 0.000000
# 5 0.000000 0.000000 0.000000 0.000000 0.044087 0.000000
# 6 0.000000 0.000000 0.000000 0.000000 0.000000 0.038031
#
#
# Mechanical properties :
#
#
# Convention : Reuss Voigt Hill
#
# Bulk Modulus (GPa) = 54.26007 58.50709 56.38358
# Shear Modulus (GPa) = 26.48187 27.27775 26.87981
#
# Velocity S-wave (km/s) = 3.77781 3.83416 3.80609
# Velocity P-wave (km/s) = 6.94776 7.15068 7.04995
#
# Compressibility (1/GPa) = 0.01842976
#
# Stress axis : x y z
#
# Youngs Moduli (GPa) = 56.43759 81.03497 73.39889
#
# Poissons Ratio (x) = 0.45814 0.18349
# Poissons Ratio (y) = 0.31908 0.32833
# Poissons Ratio (z) = 0.14109 0.36249
#
# Static dielectric constant tensor:
#      x y z
#    x 3.450940 0.000000 0.000000 
#    y 0.000000 3.616310 0.000000 
#    z 0.000000 0.000000 3.344130 
# 
# 
# High freq. dielectric constant tensor:
#      x y z
#    x 1.701680 0.000000 0.000000 
#    y 0.000000 1.726230 0.000000 
#    z 0.000000 0.000000 1.714750 
# 
# From -- ./inp_files/12941.got.cif
#   From: 2010.03.12/outbox.cif.g09.slc.cpg/sg51_7_cif.got.tgz:12941.got - 2010.04.16 13:43:02.
