data_PCOD8209893
_publ_section_title
;
Structure prediction by ZEFSAII (Michael W. Deem and Ramdas Pophale) SiO2 
 PCOD8209893
Probable space group: P M M A
;
_chemical_formula_sum "Si O2"
_cell_formula_units_Z 48
_cell_length_a 8.621689
_cell_length_b 16.552064
_cell_length_c 18.657060
_cell_angle_alpha 90.000000
_cell_angle_beta 90.000000
_cell_angle_gamma 90.000000
_cell_volume 2662.488362
_symmetry_space_group_name_H-M "P M M A"
_symmetry_group_IT_number 51
_symmetry_cell_setting 'orthorhombic'
loop_
_space_group_symop_operation_xyz
x,y,z
1/2-x,-y,z
1/2+x,-y,-z
-x,y,-z
-x,-y,-z
1/2+x,y,-z
1/2-x,y,z
x,-y,z
loop_
_atom_site_type_symbol
_atom_site_label
_atom_site_fract_x
_atom_site_fract_y
_atom_site_fract_z
Si Si1 0.932505 0.261659 0.707660
Si Si2 0.565638 0.838750 0.576956
Si Si3 0.434211 0.000000 0.644697
Si Si4 0.932913 0.689277 0.075367
Si Si5 0.066884 0.000000 0.809178
Si Si6 0.934014 0.165750 0.844328
Si Si7 0.432661 0.591539 0.203590
O O1 0.750000 0.253334 0.707146
O O2 0.994771 0.232266 0.630579
O O3 0.996636 0.202145 0.769221
O O4 0.980935 0.353708 0.727380
O O5 0.500000 0.815425 0.500000
O O6 0.750000 0.844602 0.573866
O O7 0.499447 0.923198 0.603478
O O8 0.493384 0.000000 0.726879
O O9 0.250000 0.000000 0.640186
O O10 0.750000 0.696798 0.071395
O O11 0.004591 0.777100 0.092423
O O12 0.978887 0.622163 0.133624
O O13 0.000000 0.658971 0.000000
O O14 0.003077 0.923259 0.852291
O O15 0.250000 0.000000 0.811347
O O16 0.750000 0.162304 0.848207
O O17 0.250000 0.600016 0.188397
O O18 0.481344 0.500000 0.220932
#
# Coordination Sequence:
#
# PCOD8209893 Si02
#       7
#     8   8   4   8   4   8   8
#     4   8  16  31  52  75 100 134 174 215 262 315
#     4  11  21  34  50  72 104 142 182 221 270 318
#     4  11  22  34  49  74 107 139 178 221 267 312
#     4  11  22  37  56  80 111 143 175 213 264 317
#     4  11  21  32  51  80 109 137 178 225 269 312
#     4  10  19  35  56  77 102 139 184 222 264 312
#     4   9  18  35  59  85 108 134 173 218 264 318
#
# _framework density 18.028248000000001
#
# number of rings (size 3 to 8) (size 9 to 14) (size 15 to 20)
#    0.000    2.000    1.667    4.250    0.000    1.333 
#    0.000    1.250    0.000    0.500    0.000    0.000 
#    0.000    0.000    0.000    0.000    0.000    0.167 
#
# Total GULP energy -595154.313146 kJ/mol
# GULP energy per Si atom -12399.048191 kJ/mol
# Density = 1.798721 g / cm^3
# Si number density = 18.028248 Si / 1000 Ang^3
#
#
#
# Elastic Constant Matrix: (Units=GPa)
#
#
# Indices 1 2 3 4 5 6 
#
# 1 79.0468 35.3405 29.2933 0.0000 0.0000 0.0000
# 2 35.3405 148.0209 53.5663 0.0000 0.0000 0.0000
# 3 29.2933 53.5663 99.8973 0.0000 0.0000 0.0000
# 4 0.0000 0.0000 0.0000 19.8944 0.0000 0.0000
# 5 0.0000 0.0000 0.0000 0.0000 23.8161 0.0000
# 6 0.0000 0.0000 0.0000 0.0000 0.0000 20.9041
#
#
#
# Elastic Compliance Matrix: (Units=1/GPa)
#
#
# Indices 1 2 3 4 5 6 
#
# 1 0.014875 -0.002448 -0.003049 0.000000 0.000000 0.000000
# 2 -0.002448 0.008785 -0.003993 0.000000 0.000000 0.000000
# 3 -0.003049 -0.003993 0.013045 0.000000 0.000000 0.000000
# 4 0.000000 0.000000 0.000000 0.050265 0.000000 0.000000
# 5 0.000000 0.000000 0.000000 0.000000 0.041988 0.000000
# 6 0.000000 0.000000 0.000000 0.000000 0.000000 0.047838
#
#
# Mechanical properties :
#
#
# Convention : Reuss Voigt Hill
#
# Bulk Modulus (GPa) = 56.41581 62.59614 59.50597
# Shear Modulus (GPa) = 24.79098 26.84057 25.81578
#
# Velocity S-wave (km/s) = 3.71228 3.86269 3.78823
# Velocity P-wave (km/s) = 7.05235 7.39529 7.22586
#
# Compressibility (1/GPa) = 0.01772553
#
# Stress axis : x y z
#
# Youngs Moduli (GPa) = 67.22594 113.82710 76.65489
#
# Poissons Ratio (x) = 0.27865 0.23374
# Poissons Ratio (y) = 0.16457 0.30608
# Poissons Ratio (z) = 0.20499 0.45450
#
# Static dielectric constant tensor:
#      x y z
#    x 3.244380 0.000000 0.000000 
#    y 0.000000 3.593720 0.000000 
#    z 0.000000 0.000000 3.501230 
# 
# 
# High freq. dielectric constant tensor:
#      x y z
#    x 1.695340 0.000000 0.000000 
#    y 0.000000 1.694670 0.000000 
#    z 0.000000 0.000000 1.686710 
# 
# From -- ./inp_files/27642.got.cif
#   From: 2010.03.12/outbox.cif.g09.slc.cpg/sg51_14_cif.got.tgz:27642.got - 2010.04.16 13:43:02.
