data_PCOD8209565
_publ_section_title
;
Structure prediction by ZEFSAII (Michael W. Deem and Ramdas Pophale) SiO2 
 PCOD8209565
Probable space group: P M M A
;
_chemical_formula_sum "Si O2"
_cell_formula_units_Z 44
_cell_length_a 9.120663
_cell_length_b 16.876122
_cell_length_c 15.542973
_cell_angle_alpha 90.000000
_cell_angle_beta 90.000000
_cell_angle_gamma 90.000000
_cell_volume 2392.396499
_symmetry_space_group_name_H-M "P M M A"
_symmetry_group_IT_number 51
_symmetry_cell_setting 'orthorhombic'
loop_
_space_group_symop_operation_xyz
x,y,z
1/2-x,-y,z
1/2+x,-y,-z
-x,y,-z
-x,-y,-z
1/2+x,y,-z
1/2-x,y,z
x,-y,z
loop_
_atom_site_type_symbol
_atom_site_label
_atom_site_fract_x
_atom_site_fract_y
_atom_site_fract_z
Si Si1 0.414367 0.629230 0.689006
Si Si2 0.920839 0.783893 0.727445
Si Si3 0.913827 0.588691 0.116065
Si Si4 0.077793 0.500000 0.411076
Si Si5 0.579485 0.745636 0.918434
Si Si6 0.079229 0.090014 0.414486
O O1 0.250000 0.628476 0.649028
O O2 0.474502 0.717976 0.687996
O O3 0.409832 0.590557 0.781846
O O4 0.528890 0.579472 0.635246
O O5 0.750000 0.760094 0.717772
O O6 0.958390 0.792224 0.829645
O O7 0.958473 0.862780 0.673368
O O8 0.750000 0.607678 0.080865
O O9 0.963484 0.500000 0.087421
O O10 0.028457 0.653707 0.082938
O O11 0.250000 0.500000 0.421510
O O12 0.000000 0.500000 0.500000
O O13 0.750000 0.747239 0.936824
O O14 0.500000 0.787847 0.000000
O O15 0.250000 0.095252 0.434475
O O16 0.000000 0.124565 0.500000
O O17 0.027585 0.000000 0.397774
#
# Coordination Sequence:
#
# PCOD8209565 Si02
#       6
#     8   8   8   4   8   8
#     4  10  19  34  52  72  98 131 172 216 263 311
#     4   9  19  35  54  78 106 140 179 214 258 317
#     4   9  17  31  50  69  93 126 165 212 261 312
#     4  12  24  36  50  68  95 132 175 222 268 312
#     4  10  20  33  49  71  99 134 176 221 264 311
#     4   9  18  34  57  84 113 140 168 208 258 314
#
# _framework density 18.3916
#
# number of rings (size 3 to 8) (size 9 to 14) (size 15 to 20)
#    0.000    2.364    0.909    1.909    0.000    3.636 
#    0.000    1.818    0.000    0.545    0.000    0.000 
#    0.000    0.000    0.000    0.000    0.000    0.545 
#
# Total GULP energy -545364.530674 kJ/mol
# GULP energy per Si atom -12394.648424 kJ/mol
# Density = 1.834974 g / cm^3
# Si number density = 18.391600 Si / 1000 Ang^3
#
#
#
# Elastic Constant Matrix: (Units=GPa)
#
#
# Indices 1 2 3 4 5 6 
#
# 1 107.7291 37.7593 58.2247 0.0000 0.0000 0.0000
# 2 37.7593 73.3554 56.4466 0.0000 0.0000 0.0000
# 3 58.2247 56.4466 127.7163 0.0000 0.0000 0.0000
# 4 0.0000 0.0000 0.0000 21.9952 0.0000 0.0000
# 5 0.0000 0.0000 0.0000 0.0000 32.7049 0.0000
# 6 0.0000 0.0000 0.0000 0.0000 0.0000 21.4515
#
#
#
# Elastic Compliance Matrix: (Units=1/GPa)
#
#
# Indices 1 2 3 4 5 6 
#
# 1 0.012788 -0.003177 -0.004426 0.000000 0.000000 0.000000
# 2 -0.003177 0.021447 -0.008031 0.000000 0.000000 0.000000
# 3 -0.004426 -0.008031 0.013397 0.000000 0.000000 0.000000
# 4 0.000000 0.000000 0.000000 0.045464 0.000000 0.000000
# 5 0.000000 0.000000 0.000000 0.000000 0.030576 0.000000
# 6 0.000000 0.000000 0.000000 0.000000 0.000000 0.046617
#
#
# Mechanical properties :
#
#
# Convention : Reuss Voigt Hill
#
# Bulk Modulus (GPa) = 61.10516 68.18466 64.64491
# Shear Modulus (GPa) = 24.15323 25.65501 24.90412
#
# Velocity S-wave (km/s) = 3.62785 3.73893 3.68381
# Velocity P-wave (km/s) = 7.13057 7.46952 7.30201
#
# Compressibility (1/GPa) = 0.01636523
#
# Stress axis : x y z
#
# Youngs Moduli (GPa) = 78.19746 46.62642 74.64439
#
# Poissons Ratio (x) = 0.14813 0.33037
# Poissons Ratio (y) = 0.24843 0.59944
# Poissons Ratio (z) = 0.34609 0.37444
#
# Static dielectric constant tensor:
#      x y z
#    x 4.330790 0.000000 0.000000 
#    y 0.000000 3.189630 0.000000 
#    z 0.000000 0.000000 3.532950 
# 
# 
# High freq. dielectric constant tensor:
#      x y z
#    x 1.719940 0.000000 0.000000 
#    y 0.000000 1.679080 0.000000 
#    z 0.000000 0.000000 1.721600 
# 
# From -- ./inp_files/20870.got.cif
#   From: 2010.03.12/outbox.cif.g09.slc.cpg/sg51_11_cif.got.tgz:20870.got - 2010.04.16 13:43:02.
