data_PCOD8209094
_publ_section_title
;
Structure prediction by ZEFSAII (Michael W. Deem and Ramdas Pophale) SiO2 
 PCOD8209094
Probable space group: P M M A
;
_chemical_formula_sum "Si O2"
_cell_formula_units_Z 64
_cell_length_a 18.027692
_cell_length_b 8.957973
_cell_length_c 21.478185
_cell_angle_alpha 90.000000
_cell_angle_beta 90.000000
_cell_angle_gamma 90.000000
_cell_volume 3468.545992
_symmetry_space_group_name_H-M "P M M A"
_symmetry_group_IT_number 51
_symmetry_cell_setting 'orthorhombic'
loop_
_space_group_symop_operation_xyz
x,y,z
1/2-x,-y,z
1/2+x,-y,-z
-x,y,-z
-x,-y,-z
1/2+x,y,-z
1/2-x,y,z
x,-y,z
loop_
_atom_site_type_symbol
_atom_site_label
_atom_site_fract_x
_atom_site_fract_y
_atom_site_fract_z
Si Si1 0.036762 0.329249 0.691753
Si Si2 0.165986 0.328370 0.777798
Si Si3 0.336275 0.328043 0.998913
Si Si4 0.032059 0.325180 0.435897
Si Si5 0.094903 0.174767 0.247179
Si Si6 0.077948 0.673418 0.124206
Si Si7 0.333554 0.824948 0.374668
Si Si8 0.919186 0.176205 0.111544
O O1 0.010470 0.500000 0.702329
O O2 0.121992 0.307843 0.712504
O O3 0.025954 0.285634 0.619352
O O4 0.988696 0.221824 0.735551
O O5 0.250000 0.276624 0.765566
O O6 0.162611 0.500000 0.800048
O O7 0.130821 0.228263 0.831154
O O8 0.250000 0.286493 0.997664
O O9 0.349280 0.500000 0.979634
O O10 0.366916 0.296882 0.067511
O O11 0.379533 0.222026 0.952054
O O12 0.044311 0.500000 0.442985
O O13 0.112290 0.255464 0.422846
O O14 0.000000 0.257350 0.500000
O O15 0.119262 0.261030 0.185000
O O16 0.149007 0.221984 0.303534
O O17 0.097314 0.000000 0.233733
O O18 0.061461 0.500000 0.134205
O O19 0.000209 0.753492 0.113109
O O20 0.250000 0.776055 0.390464
O O21 0.345549 0.000000 0.382414
O O22 0.927808 0.000000 0.114142
#
# Coordination Sequence:
#
# PCOD8209094 Si02
#       8
#     8   8   8   8   8   8   8   8
#     4   9  17  32  53  75 105 143 178 214 262 322
#     4  10  20  34  54  78 104 138 179 222 270 324
#     4  10  23  42  59  76 103 140 180 221 268 324
#     4   9  18  33  54  82 113 146 186 231 272 315
#     4  10  19  32  53  80 107 138 175 220 270 317
#     4  11  22  37  58  81 106 140 179 220 267 325
#     4   9  19  35  54  79 113 150 187 225 269 325
#     4  12  24  37  56  81 107 137 177 224 272 322
#
# _framework density 18.451535
#
# number of rings (size 3 to 8) (size 9 to 14) (size 15 to 20)
#    0.000    2.000    1.250    2.625    0.000    6.000 
#    0.000    0.625    0.000    2.250    0.000    0.000 
#    0.000    0.000    0.000    0.000    0.000    0.000 
#
# Total GULP energy -793703.526675 kJ/mol
# GULP energy per Si atom -12401.617604 kJ/mol
# Density = 1.840954 g / cm^3
# Si number density = 18.451535 Si / 1000 Ang^3
#
#
#
# Elastic Constant Matrix: (Units=GPa)
#
#
# Indices 1 2 3 4 5 6 
#
# 1 80.6833 34.6537 43.3539 0.0000 0.0000 0.0000
# 2 34.6537 76.1239 43.6141 0.0000 0.0000 0.0000
# 3 43.3539 43.6141 122.0494 0.0000 0.0000 0.0000
# 4 0.0000 0.0000 0.0000 21.7159 0.0000 0.0000
# 5 0.0000 0.0000 0.0000 0.0000 23.1476 0.0000
# 6 0.0000 0.0000 0.0000 0.0000 0.0000 18.4847
#
#
#
# Elastic Compliance Matrix: (Units=1/GPa)
#
#
# Indices 1 2 3 4 5 6 
#
# 1 0.016887 -0.005345 -0.004088 0.000000 0.000000 0.000000
# 2 -0.005345 0.018210 -0.004609 0.000000 0.000000 0.000000
# 3 -0.004088 -0.004609 0.011293 0.000000 0.000000 0.000000
# 4 0.000000 0.000000 0.000000 0.046049 0.000000 0.000000
# 5 0.000000 0.000000 0.000000 0.000000 0.043201 0.000000
# 6 0.000000 0.000000 0.000000 0.000000 0.000000 0.054099
#
#
# Mechanical properties :
#
#
# Convention : Reuss Voigt Hill
#
# Bulk Modulus (GPa) = 54.62908 58.01109 56.32008
# Shear Modulus (GPa) = 22.32898 23.15196 22.74047
#
# Velocity S-wave (km/s) = 3.48248 3.54608 3.51443
# Velocity P-wave (km/s) = 6.77062 6.94796 6.85987
#
# Compressibility (1/GPa) = 0.01830527
#
# Stress axis : x y z
#
# Youngs Moduli (GPa) = 59.21852 54.91447 88.55346
#
# Poissons Ratio (x) = 0.29351 0.36204
# Poissons Ratio (y) = 0.31651 0.40812
# Poissons Ratio (z) = 0.24211 0.25309
#
# Static dielectric constant tensor:
#      x y z
#    x 3.442160 0.000000 0.000000 
#    y 0.000000 3.397080 0.000000 
#    z 0.000000 0.000000 3.558600 
# 
# 
# High freq. dielectric constant tensor:
#      x y z
#    x 1.711600 0.000000 0.000000 
#    y 0.000000 1.713110 0.000000 
#    z 0.000000 0.000000 1.716100 
# 
# From -- ./inp_files/33871.got.cif
#   From: 2010.03.12/outbox.cif.g09.slc.cpg/sg51_17_cif.got.tgz:33871.got - 2010.04.16 13:43:02.
