data_PCOD8209451
_publ_section_title
;
Structure prediction by ZEFSAII (Michael W. Deem and Ramdas Pophale) SiO2 
 PCOD8209451
Probable space group: P M M A
;
_chemical_formula_sum "Si O2"
_cell_formula_units_Z 56
_cell_length_a 13.977949
_cell_length_b 8.980505
_cell_length_c 23.069155
_cell_angle_alpha 90.000000
_cell_angle_beta 90.000000
_cell_angle_gamma 90.000000
_cell_volume 2895.848901
_symmetry_space_group_name_H-M "P M M A"
_symmetry_group_IT_number 51
_symmetry_cell_setting 'orthorhombic'
loop_
_space_group_symop_operation_xyz
x,y,z
1/2-x,-y,z
1/2+x,-y,-z
-x,y,-z
-x,-y,-z
1/2+x,y,-z
1/2-x,y,z
x,-y,z
loop_
_atom_site_type_symbol
_atom_site_label
_atom_site_fract_x
_atom_site_fract_y
_atom_site_fract_z
Si Si1 0.146303 0.336413 0.410190
Si Si2 0.391949 0.165906 0.519683
Si Si3 0.536821 0.823844 0.920296
Si Si4 0.969967 0.323057 0.696388
Si Si5 0.360585 0.173033 0.199671
Si Si6 0.859145 0.827515 0.352119
Si Si7 0.638662 0.322976 0.027217
O O1 0.250000 0.346511 0.379893
O O2 0.105823 0.500000 0.425031
O O3 0.163762 0.251947 0.470137
O O4 0.076947 0.259558 0.363261
O O5 0.500000 0.168986 0.500000
O O6 0.376389 0.238719 0.583008
O O7 0.349787 0.000000 0.522615
O O8 0.581436 0.789401 0.858211
O O9 0.430746 0.749894 0.923971
O O10 0.529398 0.000000 0.932489
O O11 0.608341 0.749170 0.966312
O O12 0.969509 0.500000 0.698319
O O13 0.909859 0.266181 0.750170
O O14 0.078010 0.260679 0.695413
O O15 0.250000 0.221277 0.192290
O O16 0.367872 0.000000 0.215346
O O17 0.750000 0.804006 0.333409
O O18 0.889248 0.000000 0.350597
O O19 0.750000 0.285299 0.040574
O O20 0.622418 0.500000 0.025102
#
# Coordination Sequence:
#
# PCOD8209451 Si02
#       7
#     8   8   8   8   8   8   8
#     4  10  21  35  51  75 107 139 171 212 266 327
#     4  10  19  33  55  80 105 134 172 219 269 325
#     4  10  20  35  58  87 118 153 195 240 282 329
#     4  11  23  38  57  80 109 142 182 228 275 330
#     4  10  22  40  61  85 113 147 188 232 279 331
#     4  10  21  38  58  79 106 141 182 227 276 333
#     4  10  20  34  55  86 124 162 196 232 278 331
#
# _framework density 19.338025999999999
#
# number of rings (size 3 to 8) (size 9 to 14) (size 15 to 20)
#    0.000    1.857    1.429    3.429    0.000    6.286 
#    0.000    0.714    0.000    0.857    0.000    0.000 
#    0.000    0.000    0.000    0.000    0.000    0.000 
#
# Total GULP energy -694191.606171 kJ/mol
# GULP energy per Si atom -12396.278682 kJ/mol
# Density = 1.929401 g / cm^3
# Si number density = 19.338026 Si / 1000 Ang^3
#
#
#
# Elastic Constant Matrix: (Units=GPa)
#
#
# Indices 1 2 3 4 5 6 
#
# 1 149.5423 58.8648 61.0571 0.0000 0.0000 0.0000
# 2 58.8648 89.0103 52.8604 0.0000 0.0000 0.0000
# 3 61.0571 52.8604 99.8042 0.0000 0.0000 0.0000
# 4 0.0000 0.0000 0.0000 17.5655 0.0000 0.0000
# 5 0.0000 0.0000 0.0000 0.0000 28.5563 0.0000
# 6 0.0000 0.0000 0.0000 0.0000 0.0000 29.2558
#
#
#
# Elastic Compliance Matrix: (Units=1/GPa)
#
#
# Indices 1 2 3 4 5 6 
#
# 1 0.009935 -0.004319 -0.003790 0.000000 0.000000 0.000000
# 2 -0.004319 0.018268 -0.007033 0.000000 0.000000 0.000000
# 3 -0.003790 -0.007033 0.016063 0.000000 0.000000 0.000000
# 4 0.000000 0.000000 0.000000 0.056930 0.000000 0.000000
# 5 0.000000 0.000000 0.000000 0.000000 0.035018 0.000000
# 6 0.000000 0.000000 0.000000 0.000000 0.000000 0.034181
#
#
# Mechanical properties :
#
#
# Convention : Reuss Voigt Hill
#
# Bulk Modulus (GPa) = 71.52533 75.99126 73.75829
# Shear Modulus (GPa) = 24.34984 26.11384 25.23184
#
# Velocity S-wave (km/s) = 3.55233 3.67875 3.61609
# Velocity P-wave (km/s) = 7.34115 7.57799 7.46051
#
# Compressibility (1/GPa) = 0.01398106
#
# Stress axis : x y z
#
# Youngs Moduli (GPa) = 100.65661 54.74128 62.25400
#
# Poissons Ratio (x) = 0.23644 0.23595
# Poissons Ratio (y) = 0.43477 0.43783
# Poissons Ratio (z) = 0.38150 0.38499
#
# Static dielectric constant tensor:
#      x y z
#    x 3.698500 0.000000 0.000000 
#    y 0.000000 3.544620 0.000000 
#    z 0.000000 0.000000 3.390130 
# 
# 
# High freq. dielectric constant tensor:
#      x y z
#    x 1.769290 0.000000 0.000000 
#    y 0.000000 1.750190 0.000000 
#    z 0.000000 0.000000 1.733260 
# 
# From -- ./inp_files/33470.got.cif
#   From: 2010.03.12/outbox.cif.g09.slc.cpg/sg51_17_cif.got.tgz:33470.got - 2010.04.16 13:43:02.
