data_PCOD8209910
_publ_section_title
;
Structure prediction by ZEFSAII (Michael W. Deem and Ramdas Pophale) SiO2 
 PCOD8209910
Probable space group: P M M A
;
_chemical_formula_sum "Si O2"
_cell_formula_units_Z 48
_cell_length_a 30.751270
_cell_length_b 8.450647
_cell_length_c 9.681244
_cell_angle_alpha 90.000000
_cell_angle_beta 90.000000
_cell_angle_gamma 90.000000
_cell_volume 2515.846751
_symmetry_space_group_name_H-M "P M M A"
_symmetry_group_IT_number 51
_symmetry_cell_setting 'orthorhombic'
loop_
_space_group_symop_operation_xyz
x,y,z
1/2-x,-y,z
1/2+x,-y,-z
-x,y,-z
-x,-y,-z
1/2+x,y,-z
1/2-x,y,z
x,-y,z
loop_
_atom_site_type_symbol
_atom_site_label
_atom_site_fract_x
_atom_site_fract_y
_atom_site_fract_z
Si Si1 0.299416 0.312674 0.207884
Si Si2 0.517868 0.816791 0.350649
Si Si3 0.563989 0.684930 0.776227
Si Si4 0.389102 0.684917 0.694087
Si Si5 0.135678 0.816366 0.415248
Si Si6 0.629531 0.312653 0.003824
O O1 0.250000 0.256458 0.188622
O O2 0.303044 0.500000 0.227788
O O3 0.318866 0.231015 0.344522
O O4 0.326365 0.256324 0.072858
O O5 0.500000 0.766893 0.500000
O O6 0.480727 0.781114 0.237790
O O7 0.559531 0.711879 0.317315
O O8 0.531249 0.000000 0.346861
O O9 0.553129 0.500000 0.780754
O O10 0.595842 0.716865 0.647401
O O11 0.587738 0.745191 0.915655
O O12 0.379002 0.500000 0.681485
O O13 0.361920 0.777019 0.577484
O O14 0.372580 0.754788 0.841223
O O15 0.125869 0.000000 0.392644
O O16 0.628184 0.500000 0.008635
#
# Coordination Sequence:
#
# PCOD8209910 Si02
#       6
#     8   8   8   8   8   8
#     4   9  18  37  64  87 106 135 177 219 263 322
#     4  11  22  34  50  76 111 145 186 233 275 316
#     4  10  19  35  57  78 103 141 188 227 267 317
#     4  11  21  35  55  78 109 147 186 224 270 321
#     4  11  21  34  53  80 113 142 175 220 268 316
#     4   8  18  35  55  82 110 137 176 228 273 316
#
# _framework density 19.079065
#
# number of rings (size 3 to 8) (size 9 to 14) (size 15 to 20)
#    0.000    2.000    1.667    4.000    0.000    1.667 
#    0.000   12.500    0.000    3.000    0.000    0.000 
#    0.000    0.000    0.000    0.000    0.000    0.000 
#
# Total GULP energy -595269.616220 kJ/mol
# GULP energy per Si atom -12401.450338 kJ/mol
# Density = 1.903564 g / cm^3
# Si number density = 19.079065 Si / 1000 Ang^3
#
#
#
# Elastic Constant Matrix: (Units=GPa)
#
#
# Indices 1 2 3 4 5 6 
#
# 1 107.1646 13.7658 56.8437 0.0000 0.0000 0.0000
# 2 13.7658 38.7697 16.2849 0.0000 0.0000 0.0000
# 3 56.8437 16.2849 148.9895 0.0000 0.0000 0.0000
# 4 0.0000 0.0000 0.0000 11.0495 0.0000 0.0000
# 5 0.0000 0.0000 0.0000 0.0000 21.6780 0.0000
# 6 0.0000 0.0000 0.0000 0.0000 0.0000 15.4849
#
#
#
# Elastic Compliance Matrix: (Units=1/GPa)
#
#
# Indices 1 2 3 4 5 6 
#
# 1 0.011914 -0.002433 -0.004280 0.000000 0.000000 0.000000
# 2 -0.002433 0.027531 -0.002081 0.000000 0.000000 0.000000
# 3 -0.004280 -0.002081 0.008572 0.000000 0.000000 0.000000
# 4 0.000000 0.000000 0.000000 0.090502 0.000000 0.000000
# 5 0.000000 0.000000 0.000000 0.000000 0.046130 0.000000
# 6 0.000000 0.000000 0.000000 0.000000 0.000000 0.064579
#
#
# Mechanical properties :
#
#
# Convention : Reuss Voigt Hill
#
# Bulk Modulus (GPa) = 32.86163 52.07918 42.47040
# Shear Modulus (GPa) = 18.05324 23.51110 20.78217
#
# Velocity S-wave (km/s) = 3.07943 3.51422 3.30398
# Velocity P-wave (km/s) = 5.46856 6.61982 6.07154
#
# Compressibility (1/GPa) = 0.03043062
#
# Stress axis : x y z
#
# Youngs Moduli (GPa) = 83.93501 36.32243 116.65679
#
# Poissons Ratio (x) = 0.08836 0.49925
# Poissons Ratio (y) = 0.20418 0.24278
# Poissons Ratio (z) = 0.35921 0.07559
#
# Static dielectric constant tensor:
#      x y z
#    x 3.444840 0.000000 0.000000 
#    y 0.000000 3.272010 0.000000 
#    z 0.000000 0.000000 3.803120 
# 
# 
# High freq. dielectric constant tensor:
#      x y z
#    x 1.726670 0.000000 0.000000 
#    y 0.000000 1.730140 0.000000 
#    z 0.000000 0.000000 1.741840 
# 
# From -- ./inp_files/12855.got.cif
#   From: 2010.03.12/outbox.cif.g09.slc.cpg/sg51_7_cif.got.tgz:12855.got - 2010.04.16 13:43:02.
