data_PCOD8209872
_publ_section_title
;
Structure prediction by ZEFSAII (Michael W. Deem and Ramdas Pophale) SiO2 
 PCOD8209872
Probable space group: P M M A
;
_chemical_formula_sum "Si O2"
_cell_formula_units_Z 64
_cell_length_a 33.405210
_cell_length_b 12.563595
_cell_length_c 8.154498
_cell_angle_alpha 90.000000
_cell_angle_beta 90.000000
_cell_angle_gamma 90.000000
_cell_volume 3422.357428
_symmetry_space_group_name_H-M "P M M A"
_symmetry_group_IT_number 51
_symmetry_cell_setting 'orthorhombic'
loop_
_space_group_symop_operation_xyz
x,y,z
1/2-x,-y,z
1/2+x,-y,-z
-x,y,-z
-x,-y,-z
1/2+x,y,-z
1/2-x,y,z
x,-y,z
loop_
_atom_site_type_symbol
_atom_site_label
_atom_site_fract_x
_atom_site_fract_y
_atom_site_fract_z
Si Si1 0.955250 0.877151 0.059879
Si Si2 0.862255 0.878032 0.504799
Si Si3 0.796553 0.716832 0.512515
Si Si4 0.334901 0.621769 0.178088
Si Si5 0.591248 0.734015 0.283069
Si Si6 0.334355 0.377234 0.816875
Si Si7 0.409772 0.226836 0.225512
Si Si8 0.955759 0.376314 0.562360
O O1 0.947157 0.792267 0.204218
O O2 0.948993 0.000000 0.115160
O O3 0.922899 0.847101 0.923361
O O4 0.000000 0.859055 0.000000
O O5 0.819893 0.825542 0.552779
O O6 0.878966 0.827269 0.339156
O O7 0.896515 0.858946 0.639643
O O8 0.853755 0.000000 0.475547
O O9 0.750000 0.741310 0.503558
O O10 0.805177 0.639033 0.667479
O O11 0.810332 0.673994 0.334675
O O12 0.349630 0.500000 0.184391
O O13 0.373168 0.696263 0.189264
O O14 0.314487 0.643547 0.997846
O O15 0.619346 0.662564 0.166141
O O16 0.576755 0.655338 0.425824
O O17 0.334884 0.500000 0.774027
O O18 0.447096 0.301033 0.281617
O O19 0.950415 0.500000 0.609079
O O20 0.000000 0.352420 0.500000
#
# Coordination Sequence:
#
# PCOD8209872 Si02
#       8
#     8   8   8   8   8   8   8   8
#     4  11  22  34  51  77 108 143 181 229 285 327
#     4   9  19  35  58  80  98 138 187 224 274 322
#     4  10  22  37  56  84 117 145 177 223 275 334
#     4  10  20  35  57  82 109 145 184 222 269 326
#     4  10  19  35  54  75 107 139 182 232 270 327
#     4  10  20  35  57  82 109 145 184 222 269 326
#     4  10  19  35  54  75 107 139 182 232 270 327
#     4  10  20  33  51  76 107 144 182 226 284 337
#
# _framework density 18.700559999999999
#
# number of rings (size 3 to 8) (size 9 to 14) (size 15 to 20)
#    0.000    2.000    1.250    3.375    0.000    1.750 
#    0.000    1.250    0.000    9.000    0.000    3.500 
#    0.000    0.000    0.000    0.000    0.000    0.000 
#
# Total GULP energy -793124.248149 kJ/mol
# GULP energy per Si atom -12392.566377 kJ/mol
# Density = 1.865800 g / cm^3
# Si number density = 18.700560 Si / 1000 Ang^3
#
#
#
# Elastic Constant Matrix: (Units=GPa)
#
#
# Indices 1 2 3 4 5 6 
#
# 1 79.2342 23.4679 6.8929 0.0000 0.0000 0.0000
# 2 23.4679 65.6700 5.3426 0.0000 0.0000 0.0000
# 3 6.8929 5.3426 74.9842 0.0000 0.0000 0.0000
# 4 0.0000 0.0000 0.0000 19.6909 0.0000 0.0000
# 5 0.0000 0.0000 0.0000 0.0000 20.9024 0.0000
# 6 0.0000 0.0000 0.0000 0.0000 0.0000 18.0661
#
#
#
# Elastic Compliance Matrix: (Units=1/GPa)
#
#
# Indices 1 2 3 4 5 6 
#
# 1 0.014181 -0.004991 -0.000948 0.000000 0.000000 0.000000
# 2 -0.004991 0.017073 -0.000758 0.000000 0.000000 0.000000
# 3 -0.000948 -0.000758 0.013477 0.000000 0.000000 0.000000
# 4 0.000000 0.000000 0.000000 0.050785 0.000000 0.000000
# 5 0.000000 0.000000 0.000000 0.000000 0.047841 0.000000
# 6 0.000000 0.000000 0.000000 0.000000 0.000000 0.055352
#
#
# Mechanical properties :
#
#
# Convention : Reuss Voigt Hill
#
# Bulk Modulus (GPa) = 31.90949 32.36610 32.13780
# Shear Modulus (GPa) = 22.46692 24.01087 23.23890
#
# Velocity S-wave (km/s) = 3.46989 3.58713 3.52900
# Velocity P-wave (km/s) = 5.75794 5.87383 5.81617
#
# Compressibility (1/GPa) = 0.03133864
#
# Stress axis : x y z
#
# Youngs Moduli (GPa) = 70.51454 58.57267 74.19895
#
# Poissons Ratio (x) = 0.29232 0.07034
# Poissons Ratio (y) = 0.35192 0.05622
# Poissons Ratio (z) = 0.06685 0.04438
#
# Static dielectric constant tensor:
#      x y z
#    x 3.294320 0.000000 0.000000 
#    y 0.000000 3.418130 0.000000 
#    z 0.000000 0.000000 3.645800 
# 
# 
# High freq. dielectric constant tensor:
#      x y z
#    x 1.712260 0.000000 0.000000 
#    y 0.000000 1.726620 0.000000 
#    z 0.000000 0.000000 1.731140 
# 
# From -- ./inp_files/13163.got.cif
#   From: 2010.03.12/outbox.cif.g09.slc.cpg/sg51_7_cif.got.tgz:13163.got - 2010.04.16 13:43:02.
