data_PCOD8209735
_publ_section_title
;
Structure prediction by ZEFSAII (Michael W. Deem and Ramdas Pophale) SiO2 
 PCOD8209735
Probable space group: P M M A
;
_chemical_formula_sum "Si O2"
_cell_formula_units_Z 32
_cell_length_a 13.296843
_cell_length_b 8.716187
_cell_length_c 13.677348
_cell_angle_alpha 90.000000
_cell_angle_beta 90.000000
_cell_angle_gamma 90.000000
_cell_volume 1585.174134
_symmetry_space_group_name_H-M "P M M A"
_symmetry_group_IT_number 51
_symmetry_cell_setting 'orthorhombic'
loop_
_space_group_symop_operation_xyz
x,y,z
1/2-x,-y,z
1/2+x,-y,-z
-x,y,-z
-x,-y,-z
1/2+x,y,-z
1/2-x,y,z
x,-y,z
loop_
_atom_site_type_symbol
_atom_site_label
_atom_site_fract_x
_atom_site_fract_y
_atom_site_fract_z
Si Si1 0.611298 0.668602 0.031406
Si Si2 0.250000 0.319296 0.321914
Si Si3 0.637999 0.318083 0.249951
Si Si4 0.750000 0.824051 0.886755
Si Si5 0.034200 0.683005 0.393825
O O1 0.664443 0.500000 0.028809
O O2 0.622460 0.741352 0.139327
O O3 0.500000 0.642863 0.000000
O O4 0.654485 0.786364 0.953000
O O5 0.250000 0.500000 0.335287
O O6 0.250000 0.281262 0.208195
O O7 0.353095 0.253122 0.370594
O O8 0.750000 0.268037 0.286921
O O9 0.628572 0.500000 0.252061
O O10 0.548980 0.249849 0.317890
O O11 0.750000 0.000000 0.854099
O O12 0.035518 0.500000 0.388970
O O13 0.000000 0.741406 0.500000
#
# Coordination Sequence:
#
# PCOD8209735 Si02
#       5
#     8   4   8   4   8
#     4  10  19  34  57  81 108 145 188 230 277 335
#     4  10  20  36  55  78 112 146 185 228 273 340
#     4   9  16  27  46  74 106 136 172 219 271 326
#     4  12  24  36  53  80 116 152 187 228 277 336
#     4   9  18  30  50  81 110 139 174 224 283 326
#
# _framework density 20.187058
#
# number of rings (size 3 to 8) (size 9 to 14) (size 15 to 20)
#    0.000    2.250    1.250    2.625    1.750    4.500 
#    0.000    0.000    0.000    0.750    0.000    1.750 
#    0.000    0.000    0.000    0.000    0.000    0.000 
#
# Total GULP energy -396533.043262 kJ/mol
# GULP energy per Si atom -12391.657602 kJ/mol
# Density = 2.014111 g / cm^3
# Si number density = 20.187058 Si / 1000 Ang^3
#
#
#
# Elastic Constant Matrix: (Units=GPa)
#
#
# Indices 1 2 3 4 5 6 
#
# 1 193.7606 7.5448 85.3189 0.0000 0.0000 0.0000
# 2 7.5448 12.1042 -2.9875 0.0000 0.0000 0.0000
# 3 85.3189 -2.9875 147.4486 0.0000 0.0000 0.0000
# 4 0.0000 0.0000 0.0000 14.3612 0.0000 0.0000
# 5 0.0000 0.0000 0.0000 0.0000 39.2854 0.0000
# 6 0.0000 0.0000 0.0000 0.0000 0.0000 -174.0801
#
#
#
# Elastic Compliance Matrix: (Units=1/GPa)
#
#
# Indices 1 2 3 4 5 6 
#
# 1 0.007286 -0.005610 -0.004330 0.000000 0.000000 0.000000
# 2 -0.005610 0.087351 0.005016 0.000000 0.000000 0.000000
# 3 -0.004330 0.005016 0.009389 0.000000 0.000000 0.000000
# 4 0.000000 0.000000 0.000000 0.069632 0.000000 0.000000
# 5 0.000000 0.000000 0.000000 0.000000 0.025455 0.000000
# 6 0.000000 0.000000 0.000000 0.000000 0.000000 -0.005744
#
#
# Mechanical properties :
#
#
# Convention : Reuss Voigt Hill
#
# Bulk Modulus (GPa) = 10.61816 59.22954 34.92385
# Shear Modulus (GPa) = 21.31219 -6.52420 7.39399
#
# Velocity S-wave (km/s) = 3.25273 -1.79969 1.91590
# Velocity P-wave (km/s) = 4.40208 5.00855 4.71507
#
# Compressibility (1/GPa) = 0.09417831
#
# Stress axis : x y z
#
# Youngs Moduli (GPa) = 137.25172 11.44811 106.50903
#
# Poissons Ratio (x) = 0.06422 0.46113
# Poissons Ratio (y) = 0.76998 -0.53425
# Poissons Ratio (z) = 0.59424 -0.05742
#
# Static dielectric constant tensor:
#      x y z
#    x 4.065280 0.000000 0.000000 
#    y 0.000000 2.905580 0.000000 
#    z 0.000000 0.000000 3.773410 
# 
# 
# High freq. dielectric constant tensor:
#      x y z
#    x 1.815050 0.000000 0.000000 
#    y 0.000000 1.706900 0.000000 
#    z 0.000000 0.000000 1.793100 
# 
# From -- ./inp_files/15988.got.cif
#   From: 2010.03.12/outbox.cif.g09.slc.cpg/sg51_8_cif.got.tgz:15988.got - 2010.04.16 13:43:02.
