data_PCOD8209028
_publ_section_title
;
Structure prediction by ZEFSAII (Michael W. Deem and Ramdas Pophale) SiO2 
 PCOD8209028
Probable space group: P M M A
;
_chemical_formula_sum "Si O2"
_cell_formula_units_Z 40
_cell_length_a 8.969460
_cell_length_b 7.840250
_cell_length_c 28.892598
_cell_angle_alpha 90.000000
_cell_angle_beta 90.000000
_cell_angle_gamma 90.000000
_cell_volume 2031.808644
_symmetry_space_group_name_H-M "P M M A"
_symmetry_group_IT_number 51
_symmetry_cell_setting 'orthorhombic'
loop_
_space_group_symop_operation_xyz
x,y,z
1/2-x,-y,z
1/2+x,-y,-z
-x,y,-z
-x,-y,-z
1/2+x,y,-z
1/2-x,y,z
x,-y,z
loop_
_atom_site_type_symbol
_atom_site_label
_atom_site_fract_x
_atom_site_fract_y
_atom_site_fract_z
Si Si1 0.072758 0.000000 0.450114
Si Si2 0.426353 0.308892 0.210008
Si Si3 0.072965 0.188361 0.111817
Si Si4 0.575926 0.692075 0.397241
Si Si5 0.572349 0.500000 0.950223
Si Si6 0.584245 0.193334 0.298935
O O1 0.000000 0.000000 0.500000
O O2 0.023330 0.172599 0.424514
O O3 0.250000 0.000000 0.454271
O O4 0.250000 0.307564 0.208577
O O5 0.489402 0.500000 0.211895
O O6 0.489702 0.220511 0.163548
O O7 0.476024 0.210119 0.255522
O O8 0.250000 0.199521 0.113208
O O9 0.013295 0.332203 0.076725
O O10 0.020138 0.000000 0.095348
O O11 0.750000 0.739883 0.403348
O O12 0.543700 0.500000 0.415573
O O13 0.532501 0.695013 0.342804
O O14 0.750000 0.500000 0.954598
O O15 0.500000 0.500000 0.000000
O O16 0.750000 0.247911 0.283087
O O17 0.581156 0.000000 0.316567
#
# Coordination Sequence:
#
# PCOD8209028 Si02
#       6
#     4   8   8   8   4   8
#     4  12  26  44  68  94 126 162 204 258 311 362
#     4  10  19  32  52  80 112 146 189 236 279 335
#     4   9  17  32  54  77 105 142 181 226 279 336
#     4  10  21  41  67  91 122 164 207 250 300 362
#     4  10  20  36  56  78 104 138 184 230 285 342
#     4  10  20  35  56  83 119 159 196 235 286 346
#
# _framework density 19.686893000000001
#
# number of rings (size 3 to 8) (size 9 to 14) (size 15 to 20)
#    0.000    2.000    2.000    2.100    0.000    4.400 
#    0.000    1.000    0.000    1.200    0.000    0.000 
#    0.000    0.000    0.000    0.000    0.000    0.000 
#
# Total GULP energy -495934.117813 kJ/mol
# GULP energy per Si atom -12398.352945 kJ/mol
# Density = 1.964208 g / cm^3
# Si number density = 19.686893 Si / 1000 Ang^3
#
#
#
# Elastic Constant Matrix: (Units=GPa)
#
#
# Indices 1 2 3 4 5 6 
#
# 1 52.1925 39.6876 42.1928 0.0000 0.0000 0.0000
# 2 39.6876 149.9972 66.7455 0.0000 0.0000 0.0000
# 3 42.1928 66.7455 133.9095 0.0000 0.0000 0.0000
# 4 0.0000 0.0000 0.0000 24.1656 0.0000 0.0000
# 5 0.0000 0.0000 0.0000 0.0000 31.8149 0.0000
# 6 0.0000 0.0000 0.0000 0.0000 0.0000 19.6940
#
#
#
# Elastic Compliance Matrix: (Units=1/GPa)
#
#
# Indices 1 2 3 4 5 6 
#
# 1 0.027843 -0.004450 -0.006555 0.000000 0.000000 0.000000
# 2 -0.004450 0.009278 -0.003222 0.000000 0.000000 0.000000
# 3 -0.006555 -0.003222 0.011139 0.000000 0.000000 0.000000
# 4 0.000000 0.000000 0.000000 0.041381 0.000000 0.000000
# 5 0.000000 0.000000 0.000000 0.000000 0.031432 0.000000
# 6 0.000000 0.000000 0.000000 0.000000 0.000000 0.050777
#
#
# Mechanical properties :
#
#
# Convention : Reuss Voigt Hill
#
# Bulk Modulus (GPa) = 50.49105 70.37235 60.43170
# Shear Modulus (GPa) = 24.16556 27.63311 25.89933
#
# Velocity S-wave (km/s) = 3.50736 3.75057 3.63100
# Velocity P-wave (km/s) = 6.48882 7.38777 6.95284
#
# Compressibility (1/GPa) = 0.01980549
#
# Stress axis : x y z
#
# Youngs Moduli (GPa) = 35.91620 107.78003 89.77333
#
# Poissons Ratio (x) = 0.47964 0.58843
# Poissons Ratio (y) = 0.15983 0.28929
# Poissons Ratio (z) = 0.23542 0.34731
#
# Static dielectric constant tensor:
#      x y z
#    x 3.224760 0.000000 0.000000 
#    y 0.000000 5.443430 0.000000 
#    z 0.000000 0.000000 3.556960 
# 
# 
# High freq. dielectric constant tensor:
#      x y z
#    x 1.728770 0.000000 0.000000 
#    y 0.000000 1.786240 0.000000 
#    z 0.000000 0.000000 1.766900 
# 
# From -- ./inp_files/36079.got.cif
#   From: 2010.03.12/outbox.cif.g09.slc.cpg/sg51_19_cif.got.tgz:36079.got - 2010.04.16 13:43:02.
