data_PCOD8209171
_publ_section_title
;
Structure prediction by ZEFSAII (Michael W. Deem and Ramdas Pophale) SiO2 
 PCOD8209171
Probable space group: P M M A
;
_chemical_formula_sum "Si O2"
_cell_formula_units_Z 52
_cell_length_a 25.224619
_cell_length_b 21.149594
_cell_length_c 5.056610
_cell_angle_alpha 90.000000
_cell_angle_beta 90.000000
_cell_angle_gamma 90.000000
_cell_volume 2697.653148
_symmetry_space_group_name_H-M "P M M A"
_symmetry_group_IT_number 51
_symmetry_cell_setting 'orthorhombic'
loop_
_space_group_symop_operation_xyz
x,y,z
1/2-x,-y,z
1/2+x,-y,-z
-x,y,-z
-x,-y,-z
1/2+x,y,-z
1/2-x,y,z
x,-y,z
loop_
_atom_site_type_symbol
_atom_site_label
_atom_site_fract_x
_atom_site_fract_y
_atom_site_fract_z
Si Si1 0.192756 0.927339 0.480908
Si Si2 0.688925 0.427292 0.863026
Si Si3 0.938416 0.190221 0.003108
Si Si4 0.437328 0.268993 0.498738
Si Si5 0.123363 0.605519 0.651947
Si Si6 0.538051 0.500000 0.253008
Si Si7 0.871492 0.072579 0.032050
O O1 0.250000 0.893384 0.508138
O O2 0.150624 0.900334 0.690054
O O3 0.199109 0.000000 0.561420
O O4 0.174883 0.920442 0.180620
O O5 0.750000 0.405249 0.825549
O O6 0.686605 0.500000 0.956882
O O7 0.658035 0.422149 0.586741
O O8 0.661366 0.385346 0.092606
O O9 0.919725 0.240047 0.781403
O O10 0.921262 0.216993 0.285436
O O11 0.917872 0.119628 0.948548
O O12 0.000000 0.181558 0.000000
O O13 0.500000 0.286167 0.500000
O O14 0.402110 0.329762 0.554473
O O15 0.075123 0.561217 0.742713
O O16 0.500000 0.500000 0.500000
O O17 0.500000 0.500000 0.000000
O O18 0.892672 0.000000 0.046385
#
# Coordination Sequence:
#
# PCOD8209171 Si02
#       7
#     8   8   8   8   8   4   8
#     4   9  17  30  50  78 110 141 175 217 274 344
#     4  11  22  39  62  89 118 152 197 238 282 343
#     4  10  21  38  57  80 110 148 194 231 272 341
#     4  10  22  39  60  81 109 155 195 224 274 354
#     4  12  22  40  61  87 118 154 190 236 293 329
#     4  12  24  36  55  90 125 144 176 236 292 334
#     4  10  19  32  55  83 110 140 182 236 291 332
#
# _framework density 19.276015000000001
#
# number of rings (size 3 to 8) (size 9 to 14) (size 15 to 20)
#    0.000    1.538    1.538    4.154    0.000    5.231 
#    0.000    0.000    0.000   24.000    0.000    0.000 
#    0.000    0.000    0.000    0.000    0.000    0.000 
#
# Total GULP energy -644690.252848 kJ/mol
# GULP energy per Si atom -12397.889478 kJ/mol
# Density = 1.923214 g / cm^3
# Si number density = 19.276015 Si / 1000 Ang^3
#
#
#
# Elastic Constant Matrix: (Units=GPa)
#
#
# Indices 1 2 3 4 5 6 
#
# 1 95.8106 62.7903 54.0886 0.0000 0.0000 0.0000
# 2 62.7903 92.5193 17.7119 0.0000 0.0000 0.0000
# 3 54.0886 17.7119 114.5172 0.0000 0.0000 0.0000
# 4 0.0000 0.0000 0.0000 40.1020 0.0000 0.0000
# 5 0.0000 0.0000 0.0000 0.0000 31.4435 0.0000
# 6 0.0000 0.0000 0.0000 0.0000 0.0000 22.9827
#
#
#
# Elastic Compliance Matrix: (Units=1/GPa)
#
#
# Indices 1 2 3 4 5 6 
#
# 1 0.026830 -0.016265 -0.010157 0.000000 0.000000 0.000000
# 2 -0.016265 0.020998 0.004434 0.000000 0.000000 0.000000
# 3 -0.010157 0.004434 0.012844 0.000000 0.000000 0.000000
# 4 0.000000 0.000000 0.000000 0.024936 0.000000 0.000000
# 5 0.000000 0.000000 0.000000 0.000000 0.031803 0.000000
# 6 0.000000 0.000000 0.000000 0.000000 0.000000 0.043511
#
#
# Mechanical properties :
#
#
# Convention : Reuss Voigt Hill
#
# Bulk Modulus (GPa) = 59.88779 63.55875 61.72327
# Shear Modulus (GPa) = 23.75718 30.12272 26.93995
#
# Velocity S-wave (km/s) = 3.51447 3.95739 3.74249
# Velocity P-wave (km/s) = 6.89961 7.34342 7.12497
#
# Compressibility (1/GPa) = 0.01669790
#
# Stress axis : x y z
#
# Youngs Moduli (GPa) = 37.27125 47.62372 77.85883
#
# Poissons Ratio (x) = 0.77458 0.79080
# Poissons Ratio (y) = 0.60620 -0.34526
# Poissons Ratio (z) = 0.37856 -0.21118
#
# Static dielectric constant tensor:
#      x y z
#    x 3.626030 0.000000 0.000000 
#    y 0.000000 3.353290 0.000000 
#    z 0.000000 0.000000 3.104190 
# 
# 
# High freq. dielectric constant tensor:
#      x y z
#    x 1.749090 0.000000 0.000000 
#    y 0.000000 1.725570 0.000000 
#    z 0.000000 0.000000 1.772050 
# 
# From -- ./inp_files/2580.got.cif
#   From: 2010.03.12/outbox.cif.g09.slc.cpg/sg51_2_cif.got.tgz:2580.got - 2010.04.16 13:43:02.
