data_PCOD8209168
_publ_section_title
;
Structure prediction by ZEFSAII (Michael W. Deem and Ramdas Pophale) SiO2 
 PCOD8209168
Probable space group: P M M A
;
_chemical_formula_sum "Si O2"
_cell_formula_units_Z 64
_cell_length_a 18.712696
_cell_length_b 9.035087
_cell_length_c 19.979646
_cell_angle_alpha 90.000000
_cell_angle_beta 90.000000
_cell_angle_gamma 90.000000
_cell_volume 3377.975459
_symmetry_space_group_name_H-M "P M M A"
_symmetry_group_IT_number 51
_symmetry_cell_setting 'orthorhombic'
loop_
_space_group_symop_operation_xyz
x,y,z
1/2-x,-y,z
1/2+x,-y,-z
-x,y,-z
-x,-y,-z
1/2+x,y,-z
1/2-x,y,z
x,-y,z
loop_
_atom_site_type_symbol
_atom_site_label
_atom_site_fract_x
_atom_site_fract_y
_atom_site_fract_z
Si Si1 0.585639 0.325200 0.155008
Si Si2 0.933950 0.173266 0.643966
Si Si3 0.833071 0.172679 0.887526
Si Si4 0.419639 0.172779 0.982144
Si Si5 0.934455 0.675277 0.786149
Si Si6 0.410399 0.826350 0.600875
Si Si7 0.669461 0.823940 0.528404
Si Si8 0.833263 0.830204 0.268171
O O1 0.589245 0.500000 0.152774
O O2 0.604564 0.262968 0.082388
O O3 0.507730 0.269558 0.179273
O O4 0.646243 0.265789 0.204229
O O5 0.930710 0.266204 0.711156
O O6 0.868294 0.223979 0.597393
O O7 0.005702 0.210044 0.602390
O O8 0.930685 0.000000 0.662302
O O9 0.750000 0.212542 0.890752
O O10 0.867526 0.262306 0.826863
O O11 0.846363 0.000000 0.874195
O O12 0.868455 0.221188 0.957364
O O13 0.412779 0.000000 0.965959
O O14 0.500000 0.217644 0.000000
O O15 0.929960 0.500000 0.784844
O O16 0.374084 0.756302 0.534697
O O17 0.373647 0.761752 0.667595
O O18 0.395959 0.000000 0.599538
O O19 0.750000 0.760867 0.528070
O O20 0.669552 0.000000 0.523663
O O21 0.750000 0.816591 0.282197
O O22 0.856226 0.000000 0.255290
#
# Coordination Sequence:
#
# PCOD8209168 Si02
#       8
#     8   8   8   8   8   8   8   8
#     4  11  23  37  56  82 114 150 188 228 275 333
#     4  10  19  32  55  82 108 143 188 234 282 336
#     4  10  22  40  62  88 115 145 187 237 285 334
#     4  10  20  36  61  87 112 144 183 228 280 333
#     4  11  23  38  57  82 114 153 192 231 279 334
#     4   9  16  29  51  79 110 142 179 228 282 336
#     4   9  17  29  48  79 114 141 175 230 290 340
#     4  10  20  34  55  82 110 144 185 229 279 333
#
# _framework density 18.946261
#
# number of rings (size 3 to 8) (size 9 to 14) (size 15 to 20)
#    0.000    2.000    2.500    1.500    0.000    6.250 
#    0.000    2.500    0.000    2.250    0.000    0.000 
#    0.000    0.000    0.000    0.000    0.000    0.000 
#
# Total GULP energy -793799.412035 kJ/mol
# GULP energy per Si atom -12403.115813 kJ/mol
# Density = 1.890314 g / cm^3
# Si number density = 18.946261 Si / 1000 Ang^3
#
#
#
# Elastic Constant Matrix: (Units=GPa)
#
#
# Indices 1 2 3 4 5 6 
#
# 1 103.1132 24.5536 41.5320 0.0000 0.0000 0.0000
# 2 24.5536 37.0435 30.9102 0.0000 0.0000 0.0000
# 3 41.5320 30.9102 111.5225 0.0000 0.0000 0.0000
# 4 0.0000 0.0000 0.0000 -1.0303 0.0000 0.0000
# 5 0.0000 0.0000 0.0000 0.0000 37.3173 0.0000
# 6 0.0000 0.0000 0.0000 0.0000 0.0000 15.9639
#
#
#
# Elastic Compliance Matrix: (Units=1/GPa)
#
#
# Indices 1 2 3 4 5 6 
#
# 1 0.012244 -0.005608 -0.003005 0.000000 0.000000 0.000000
# 2 -0.005608 0.037685 -0.008357 0.000000 0.000000 0.000000
# 3 -0.003005 -0.008357 0.012402 0.000000 0.000000 0.000000
# 4 0.000000 0.000000 0.000000 -0.970588 0.000000 0.000000
# 5 0.000000 0.000000 0.000000 0.000000 0.026797 0.000000
# 6 0.000000 0.000000 0.000000 0.000000 0.000000 0.062641
#
#
# Mechanical properties :
#
#
# Convention : Reuss Voigt Hill
#
# Bulk Modulus (GPa) = 35.22165 49.51900 42.37032
# Shear Modulus (GPa) = -6.44816 20.76242 7.15713
#
# Velocity S-wave (km/s) = -1.84683 3.31397 1.94571
# Velocity P-wave (km/s) = 3.75272 6.39034 5.24020
#
# Compressibility (1/GPa) = 0.02839163
#
# Stress axis : x y z
#
# Youngs Moduli (GPa) = 81.67289 26.53550 80.63049
#
# Poissons Ratio (x) = 0.14881 0.24233
# Poissons Ratio (y) = 0.45801 0.67380
# Poissons Ratio (z) = 0.24547 0.22175
#
# Static dielectric constant tensor:
#      x y z
#    x 3.576970 0.000000 0.000000 
#    y 0.000000 3.110160 0.000000 
#    z 0.000000 0.000000 3.569180 
# 
# 
# High freq. dielectric constant tensor:
#      x y z
#    x 1.742490 0.000000 0.000000 
#    y 0.000000 1.698050 0.000000 
#    z 0.000000 0.000000 1.750390 
# 
# From -- ./inp_files/30639.got.cif
#   From: 2010.03.12/outbox.cif.g09.slc.cpg/sg51_16_cif.got.tgz:30639.got - 2010.04.16 13:43:02.
