data_PCOD8209395
_publ_section_title
;
Structure prediction by ZEFSAII (Michael W. Deem and Ramdas Pophale) SiO2 
 PCOD8209395
Probable space group: P M M A
;
_chemical_formula_sum "Si O2"
_cell_formula_units_Z 48
_cell_length_a 16.216491
_cell_length_b 8.770199
_cell_length_c 17.328036
_cell_angle_alpha 90.000000
_cell_angle_beta 90.000000
_cell_angle_gamma 90.000000
_cell_volume 2464.425391
_symmetry_space_group_name_H-M "P M M A"
_symmetry_group_IT_number 51
_symmetry_cell_setting 'orthorhombic'
loop_
_space_group_symop_operation_xyz
x,y,z
1/2-x,-y,z
1/2+x,-y,-z
-x,y,-z
-x,-y,-z
1/2+x,y,-z
1/2-x,y,z
x,-y,z
loop_
_atom_site_type_symbol
_atom_site_label
_atom_site_fract_x
_atom_site_fract_y
_atom_site_fract_z
Si Si1 0.428614 0.679488 0.836949
Si Si2 0.155489 0.324794 0.987147
Si Si3 0.157909 0.680918 0.685853
Si Si4 0.750000 0.179063 0.738457
Si Si5 0.116983 0.678807 0.154837
Si Si6 0.750000 0.819534 0.561073
Si Si7 0.091750 0.680438 0.523510
O O1 0.411230 0.500000 0.840403
O O2 0.380953 0.751329 0.763846
O O3 0.523551 0.716417 0.825192
O O4 0.396836 0.752361 0.917826
O O5 0.250000 0.306607 0.963866
O O6 0.128233 0.500000 0.994867
O O7 0.137945 0.249572 0.070565
O O8 0.250000 0.746590 0.675396
O O9 0.160413 0.500000 0.692309
O O10 0.103033 0.728936 0.612647
O O11 0.668896 0.242360 0.778999
O O12 0.750000 0.231536 0.650018
O O13 0.750000 0.000000 0.746089
O O14 0.137534 0.500000 0.155769
O O15 0.834375 0.755240 0.524875
O O16 0.750000 0.000000 0.550716
O O17 0.099193 0.500000 0.511444
O O18 0.000000 0.738085 0.500000
#
# Coordination Sequence:
#
# PCOD8209395 Si02
#       7
#     8   8   8   4   8   4   8
#     4   9  17  26  46  80 115 142 170 218 272 321
#     4   9  15  26  45  76 113 144 174 214 266 318
#     4   9  16  29  48  77 114 145 172 211 272 336
#     4  11  25  41  55  74 105 144 184 227 279 329
#     4  10  19  33  54  81 107 136 181 229 271 318
#     4  11  25  43  61  82 113 154 196 235 285 349
#     4  10  21  37  61  90 117 145 185 240 294 343
#
# _framework density 19.477156000000001
#
# number of rings (size 3 to 8) (size 9 to 14) (size 15 to 20)
#    0.000    2.333    1.667    1.500    2.333    5.667 
#    0.000    0.000    0.000    2.000    0.000    1.167 
#    0.000    0.000    0.000    0.000    0.000    0.000 
#
# Total GULP energy -595040.702031 kJ/mol
# GULP energy per Si atom -12396.681292 kJ/mol
# Density = 1.943283 g / cm^3
# Si number density = 19.477156 Si / 1000 Ang^3
#
#
#
# Elastic Constant Matrix: (Units=GPa)
#
#
# Indices 1 2 3 4 5 6 
#
# 1 130.6653 24.2224 84.1044 0.0000 0.0000 0.0000
# 2 24.2224 24.4288 28.8948 0.0000 0.0000 0.0000
# 3 84.1044 28.8948 169.9038 0.0000 0.0000 0.0000
# 4 0.0000 0.0000 0.0000 12.6740 0.0000 0.0000
# 5 0.0000 0.0000 0.0000 0.0000 41.2017 0.0000
# 6 0.0000 0.0000 0.0000 0.0000 0.0000 6.3700
#
#
#
# Elastic Compliance Matrix: (Units=1/GPa)
#
#
# Indices 1 2 3 4 5 6 
#
# 1 0.011906 -0.006052 -0.004864 0.000000 0.000000 0.000000
# 2 -0.006052 0.054319 -0.006242 0.000000 0.000000 0.000000
# 3 -0.004864 -0.006242 0.009355 0.000000 0.000000 0.000000
# 4 0.000000 0.000000 0.000000 0.078902 0.000000 0.000000
# 5 0.000000 0.000000 0.000000 0.000000 0.024271 0.000000
# 6 0.000000 0.000000 0.000000 0.000000 0.000000 0.156985
#
#
# Mechanical properties :
#
#
# Convention : Reuss Voigt Hill
#
# Bulk Modulus (GPa) = 24.23428 66.60456 45.41942
# Shear Modulus (GPa) = 13.02730 24.56756 18.79743
#
# Velocity S-wave (km/s) = 2.58902 3.55541 3.10998
# Velocity P-wave (km/s) = 4.62675 7.15018 6.02212
#
# Compressibility (1/GPa) = 0.04126386
#
# Stress axis : x y z
#
# Youngs Moduli (GPa) = 83.99090 18.40968 106.89214
#
# Poissons Ratio (x) = 0.11141 0.51997
# Poissons Ratio (y) = 0.50829 0.66724
# Poissons Ratio (z) = 0.40857 0.11492
#
# Static dielectric constant tensor:
#      x y z
#    x 3.653340 0.000000 0.000000 
#    y 0.000000 2.948610 0.000000 
#    z 0.000000 0.000000 3.948660 
# 
# 
# High freq. dielectric constant tensor:
#      x y z
#    x 1.774000 0.000000 0.000000 
#    y 0.000000 1.686940 0.000000 
#    z 0.000000 0.000000 1.780640 
# 
# From -- ./inp_files/29552.got.cif
#   From: 2010.03.12/outbox.cif.g09.slc.cpg/sg51_15_cif.got.tgz:29552.got - 2010.04.16 13:43:02.
