data_PCOD8209999
_publ_section_title
;
Structure prediction by ZEFSAII (Michael W. Deem and Ramdas Pophale) SiO2 
 PCOD8209999
Probable space group: P M M A
;
_chemical_formula_sum "Si O2"
_cell_formula_units_Z 48
_cell_length_a 19.373312
_cell_length_b 7.856139
_cell_length_c 16.336000
_cell_angle_alpha 90.000000
_cell_angle_beta 90.000000
_cell_angle_gamma 90.000000
_cell_volume 2486.329921
_symmetry_space_group_name_H-M "P M M A"
_symmetry_group_IT_number 51
_symmetry_cell_setting 'orthorhombic'
loop_
_space_group_symop_operation_xyz
x,y,z
1/2-x,-y,z
1/2+x,-y,-z
-x,y,-z
-x,-y,-z
1/2+x,y,-z
1/2-x,y,z
x,-y,z
loop_
_atom_site_type_symbol
_atom_site_label
_atom_site_fract_x
_atom_site_fract_y
_atom_site_fract_z
Si Si1 0.569930 0.500000 0.050706
Si Si2 0.172861 0.500000 0.094802
Si Si3 0.544212 0.810852 0.162317
Si Si4 0.066069 0.305513 0.659424
Si Si5 0.419491 0.195675 0.373874
Si Si6 0.328297 0.701544 0.524640
Si Si7 0.613864 0.806291 0.808120
O O1 0.578848 0.668017 0.106234
O O2 0.500000 0.500000 0.000000
O O3 0.631444 0.500000 0.988198
O O4 0.250000 0.500000 0.064314
O O5 0.161443 0.329208 0.146962
O O6 0.567595 0.799234 0.256624
O O7 0.462498 0.785027 0.155783
O O8 0.564804 0.000000 0.130871
O O9 0.081638 0.500000 0.681118
O O10 0.125867 0.230665 0.600503
O O11 0.991643 0.295386 0.614062
O O12 0.362844 0.237053 0.441264
O O13 0.385142 0.242469 0.287367
O O14 0.440704 0.000000 0.375871
O O15 0.250000 0.773442 0.530956
O O16 0.327679 0.500000 0.524936
O O17 0.640668 0.000000 0.821884
#
# Coordination Sequence:
#
# PCOD8209999 Si02
#       7
#     4   4   8   8   8   8   8
#     4  12  22  40  66  91 119 150 191 244 291 355
#     4  12  26  40  60  89 121 161 193 230 296 362
#     4  10  20  37  65  96 118 147 196 250 298 348
#     4  10  19  35  60  86 116 152 198 251 295 343
#     4  10  21  35  56  85 117 150 197 251 295 342
#     4  10  22  37  53  80 117 161 205 244 292 346
#     4   9  20  38  59  88 120 152 194 245 294 349
#
# _framework density 19.305565000000001
#
# number of rings (size 3 to 8) (size 9 to 14) (size 15 to 20)
#    0.000    1.833    2.500    2.500    4.667    5.667 
#    0.000    2.500    0.000    1.000    0.000    0.000 
#    0.000    0.000    0.000    0.000    0.000    0.000 
#
# Total GULP energy -595209.181089 kJ/mol
# GULP energy per Si atom -12400.191273 kJ/mol
# Density = 1.926162 g / cm^3
# Si number density = 19.305565 Si / 1000 Ang^3
#
#
#
# Elastic Constant Matrix: (Units=GPa)
#
#
# Indices 1 2 3 4 5 6 
#
# 1 115.1034 40.2413 73.6215 0.0000 0.0000 0.0000
# 2 40.2413 100.2915 50.7703 0.0000 0.0000 0.0000
# 3 73.6215 50.7703 104.9730 0.0000 0.0000 0.0000
# 4 0.0000 0.0000 0.0000 17.1218 0.0000 0.0000
# 5 0.0000 0.0000 0.0000 0.0000 19.8099 0.0000
# 6 0.0000 0.0000 0.0000 0.0000 0.0000 4.5819
#
#
#
# Elastic Compliance Matrix: (Units=1/GPa)
#
#
# Indices 1 2 3 4 5 6 
#
# 1 0.015826 -0.000968 -0.010631 0.000000 0.000000 0.000000
# 2 -0.000968 0.013263 -0.005735 0.000000 0.000000 0.000000
# 3 -0.010631 -0.005735 0.019756 0.000000 0.000000 0.000000
# 4 0.000000 0.000000 0.000000 0.058405 0.000000 0.000000
# 5 0.000000 0.000000 0.000000 0.000000 0.050480 0.000000
# 6 0.000000 0.000000 0.000000 0.000000 0.000000 0.218249
#
#
# Mechanical properties :
#
#
# Convention : Reuss Voigt Hill
#
# Bulk Modulus (GPa) = 70.54481 72.18157 71.36319
# Shear Modulus (GPa) = 12.03733 18.68503 15.36118
#
# Velocity S-wave (km/s) = 2.49974 3.11442 2.82385
# Velocity P-wave (km/s) = 6.70463 7.09950 6.90489
#
# Compressibility (1/GPa) = 0.01417539
#
# Stress axis : x y z
#
# Youngs Moduli (GPa) = 63.18631 75.39796 50.61684
#
# Poissons Ratio (x) = 0.07301 0.53812
# Poissons Ratio (y) = 0.06119 0.29031
# Poissons Ratio (z) = 0.67174 0.43244
#
# Static dielectric constant tensor:
#      x y z
#    x 3.629100 0.000000 0.000000 
#    y 0.000000 3.679960 0.000000 
#    z 0.000000 0.000000 3.926160 
# 
# 
# High freq. dielectric constant tensor:
#      x y z
#    x 1.723910 0.000000 0.000000 
#    y 0.000000 1.762960 0.000000 
#    z 0.000000 0.000000 1.752270 
# 
# From -- ./inp_files/24918.got.cif
#   From: 2010.03.12/outbox.cif.g09.slc.cpg/sg51_13_cif.got.tgz:24918.got - 2010.04.16 13:43:02.
