data_PCOD8209135
_publ_section_title
;
Structure prediction by ZEFSAII (Michael W. Deem and Ramdas Pophale) SiO2 
 PCOD8209135
Probable space group: P M M A
;
_chemical_formula_sum "Si O2"
_cell_formula_units_Z 56
_cell_length_a 19.355445
_cell_length_b 9.050803
_cell_length_c 17.320152
_cell_angle_alpha 90.000000
_cell_angle_beta 90.000000
_cell_angle_gamma 90.000000
_cell_volume 3034.184404
_symmetry_space_group_name_H-M "P M M A"
_symmetry_group_IT_number 51
_symmetry_cell_setting 'orthorhombic'
loop_
_space_group_symop_operation_xyz
x,y,z
1/2-x,-y,z
1/2+x,-y,-z
-x,y,-z
-x,-y,-z
1/2+x,y,-z
1/2-x,y,z
x,-y,z
loop_
_atom_site_type_symbol
_atom_site_label
_atom_site_fract_x
_atom_site_fract_y
_atom_site_fract_z
Si Si1 0.328909 0.833466 0.094170
Si Si2 0.895897 0.330824 0.772853
Si Si3 0.830131 0.828220 0.475174
Si Si4 0.551728 0.667324 0.189988
Si Si5 0.427697 0.826511 0.381676
Si Si6 0.570584 0.174023 0.037156
Si Si7 0.430143 0.324483 0.636609
O O1 0.250000 0.830954 0.070134
O O2 0.339222 0.730691 0.168408
O O3 0.354049 0.000000 0.114370
O O4 0.369017 0.772693 0.019646
O O5 0.879443 0.500000 0.751515
O O6 0.893085 0.235153 0.695560
O O7 0.969398 0.315586 0.814405
O O8 0.750000 0.784123 0.487320
O O9 0.873069 0.790034 0.551624
O O10 0.861623 0.732127 0.405731
O O11 0.837151 0.000000 0.453844
O O12 0.575052 0.500000 0.176885
O O13 0.585438 0.762101 0.122000
O O14 0.577453 0.722642 0.273785
O O15 0.501001 0.748852 0.399784
O O16 0.441355 0.000000 0.373473
O O17 0.567833 0.000000 0.046891
O O18 0.500000 0.235420 0.000000
O O19 0.438438 0.500000 0.628764
#
# Coordination Sequence:
#
# PCOD8209135 Si02
#       7
#     8   8   8   8   8   8   8
#     4  10  21  36  52  74 108 145 178 218 272 328
#     4  10  20  34  53  80 110 139 177 223 270 324
#     4  10  22  39  57  80 110 146 188 230 278 335
#     4   9  19  34  53  79 107 137 173 219 271 319
#     4  10  20  35  58  84 112 146 185 228 276 328
#     4  10  19  32  54  81 104 133 181 227 263 312
#     4  10  21  37  57  84 114 144 184 232 279 329
#
# _framework density 18.456358999999999
#
# number of rings (size 3 to 8) (size 9 to 14) (size 15 to 20)
#    0.000    2.143    1.429    2.571    0.000    7.714 
#    0.000    2.143    0.000    2.571    0.000    0.000 
#    0.000    0.000    0.000    0.000    0.000    0.000 
#
# Total GULP energy -694514.276209 kJ/mol
# GULP energy per Si atom -12402.040647 kJ/mol
# Density = 1.841435 g / cm^3
# Si number density = 18.456359 Si / 1000 Ang^3
#
#
#
# Elastic Constant Matrix: (Units=GPa)
#
#
# Indices 1 2 3 4 5 6 
#
# 1 96.8754 38.3020 59.8747 0.0000 0.0000 0.0000
# 2 38.3020 70.9157 50.5286 0.0000 0.0000 0.0000
# 3 59.8747 50.5286 119.6822 0.0000 0.0000 0.0000
# 4 0.0000 0.0000 0.0000 28.3762 0.0000 0.0000
# 5 0.0000 0.0000 0.0000 0.0000 26.5087 0.0000
# 6 0.0000 0.0000 0.0000 0.0000 0.0000 21.2338
#
#
#
# Elastic Compliance Matrix: (Units=1/GPa)
#
#
# Indices 1 2 3 4 5 6 
#
# 1 0.015748 -0.004136 -0.006132 0.000000 0.000000 0.000000
# 2 -0.004136 0.021255 -0.006904 0.000000 0.000000 0.000000
# 3 -0.006132 -0.006904 0.014338 0.000000 0.000000 0.000000
# 4 0.000000 0.000000 0.000000 0.035241 0.000000 0.000000
# 5 0.000000 0.000000 0.000000 0.000000 0.037724 0.000000
# 6 0.000000 0.000000 0.000000 0.000000 0.000000 0.047095
#
#
# Mechanical properties :
#
#
# Convention : Reuss Voigt Hill
#
# Bulk Modulus (GPa) = 58.83909 64.98711 61.91310
# Shear Modulus (GPa) = 23.65072 24.47492 24.06282
#
# Velocity S-wave (km/s) = 3.58360 3.64551 3.61469
# Velocity P-wave (km/s) = 7.00516 7.28061 7.14422
#
# Compressibility (1/GPa) = 0.01699551
#
# Stress axis : x y z
#
# Youngs Moduli (GPa) = 63.50047 47.04857 69.74431
#
# Poissons Ratio (x) = 0.19461 0.42768
# Poissons Ratio (y) = 0.26266 0.48153
# Poissons Ratio (z) = 0.38939 0.32483
#
# Static dielectric constant tensor:
#      x y z
#    x 3.255010 0.000000 0.000000 
#    y 0.000000 3.388140 0.000000 
#    z 0.000000 0.000000 3.413600 
# 
# 
# High freq. dielectric constant tensor:
#      x y z
#    x 1.697380 0.000000 0.000000 
#    y 0.000000 1.716940 0.000000 
#    z 0.000000 0.000000 1.723100 
# 
# From -- ./inp_files/30405.got.cif
#   From: 2010.03.12/outbox.cif.g09.slc.cpg/sg51_16_cif.got.tgz:30405.got - 2010.04.16 13:43:02.
