data_PCOD8209706
_publ_section_title
;
Structure prediction by ZEFSAII (Michael W. Deem and Ramdas Pophale) SiO2 
 PCOD8209706
Probable space group: P M M A
;
_chemical_formula_sum "Si O2"
_cell_formula_units_Z 56
_cell_length_a 14.506215
_cell_length_b 9.014508
_cell_length_c 23.337848
_cell_angle_alpha 90.000000
_cell_angle_beta 90.000000
_cell_angle_gamma 90.000000
_cell_volume 3051.806161
_symmetry_space_group_name_H-M "P M M A"
_symmetry_group_IT_number 51
_symmetry_cell_setting 'orthorhombic'
loop_
_space_group_symop_operation_xyz
x,y,z
1/2-x,-y,z
1/2+x,-y,-z
-x,y,-z
-x,-y,-z
1/2+x,y,-z
1/2-x,y,z
x,-y,z
loop_
_atom_site_type_symbol
_atom_site_label
_atom_site_fract_x
_atom_site_fract_y
_atom_site_fract_z
Si Si1 0.145367 0.169639 0.023579
Si Si2 0.029455 0.825858 0.133991
Si Si3 0.250000 0.163982 0.404466
Si Si4 0.576840 0.672932 0.643026
Si Si5 0.354769 0.325425 0.905509
Si Si6 0.857045 0.671577 0.768188
Si Si7 0.750000 0.162267 0.461633
Si Si8 0.448545 0.822360 0.558023
O O1 0.250000 0.190584 0.045604
O O2 0.076807 0.216552 0.073937
O O3 0.127892 0.000000 0.004385
O O4 0.124443 0.273810 0.969970
O O5 0.096380 0.769624 0.183407
O O6 0.928299 0.750755 0.137179
O O7 0.016978 0.000000 0.141243
O O8 0.163068 0.258549 0.388148
O O9 0.250000 0.140574 0.471176
O O10 0.250000 0.000000 0.375115
O O11 0.572282 0.500000 0.629205
O O12 0.585161 0.702131 0.710644
O O13 0.488675 0.753955 0.616301
O O14 0.250000 0.280162 0.887867
O O15 0.368268 0.500000 0.901863
O O16 0.750000 0.718272 0.759479
O O17 0.862928 0.500000 0.785974
O O18 0.844269 0.242813 0.442886
O O19 0.750000 0.000000 0.432691
O O20 0.500000 0.768588 0.500000
O O21 0.452415 0.000000 0.561136
#
# Coordination Sequence:
#
# PCOD8209706 Si02
#       8
#     8   8   4   8   8   8   4   8
#     4   9  18  33  52  78 114 146 173 217 273 324
#     4  11  22  35  55  83 111 141 182 229 274 321
#     4  11  19  33  57  83 111 149 187 222 269 326
#     4  11  22  37  55  82 115 146 184 228 273 325
#     4  10  21  36  55  79 107 144 187 224 267 328
#     4  10  22  40  58  78 110 147 179 219 273 326
#     4   9  18  33  53  81 115 145 179 226 271 320
#     4  10  19  34  56  82 112 148 187 224 271 326
#
# _framework density 18.349789000000001
#
# number of rings (size 3 to 8) (size 9 to 14) (size 15 to 20)
#    0.000    1.857    2.143    2.357    0.000    6.000 
#    0.000    1.786    1.571    0.000    0.000    0.000 
#    0.000    0.000    0.000    0.000    0.000    0.000 
#
# Total GULP energy -694301.981439 kJ/mol
# GULP energy per Si atom -12398.249669 kJ/mol
# Density = 1.830802 g / cm^3
# Si number density = 18.349789 Si / 1000 Ang^3
#
#
#
# Elastic Constant Matrix: (Units=GPa)
#
#
# Indices 1 2 3 4 5 6 
#
# 1 139.0960 50.0563 46.9624 0.0000 0.0000 0.0000
# 2 50.0563 66.0564 40.9648 0.0000 0.0000 0.0000
# 3 46.9624 40.9648 64.6488 0.0000 0.0000 0.0000
# 4 0.0000 0.0000 0.0000 33.4045 0.0000 0.0000
# 5 0.0000 0.0000 0.0000 0.0000 36.7377 0.0000
# 6 0.0000 0.0000 0.0000 0.0000 0.0000 29.8037
#
#
#
# Elastic Compliance Matrix: (Units=1/GPa)
#
#
# Indices 1 2 3 4 5 6 
#
# 1 0.010559 -0.005345 -0.004283 0.000000 0.000000 0.000000
# 2 -0.005345 0.027644 -0.013634 0.000000 0.000000 0.000000
# 3 -0.004283 -0.013634 0.027219 0.000000 0.000000 0.000000
# 4 0.000000 0.000000 0.000000 0.029936 0.000000 0.000000
# 5 0.000000 0.000000 0.000000 0.000000 0.027220 0.000000
# 6 0.000000 0.000000 0.000000 0.000000 0.000000 0.033553
#
#
# Mechanical properties :
#
#
# Convention : Reuss Voigt Hill
#
# Bulk Modulus (GPa) = 52.91788 60.64090 56.77939
# Shear Modulus (GPa) = 23.92865 28.77703 26.35284
#
# Velocity S-wave (km/s) = 3.61505 3.96441 3.79375
# Velocity P-wave (km/s) = 6.80631 7.35352 7.08520
#
# Compressibility (1/GPa) = 0.01889720
#
# Stress axis : x y z
#
# Youngs Moduli (GPa) = 94.70615 36.17418 36.73921
#
# Poissons Ratio (x) = 0.19335 0.15737
# Poissons Ratio (y) = 0.50621 0.50090
# Poissons Ratio (z) = 0.40566 0.49319
#
# Static dielectric constant tensor:
#      x y z
#    x 3.661740 0.000000 0.000000 
#    y 0.000000 3.373490 0.000000 
#    z 0.000000 0.000000 3.214990 
# 
# 
# High freq. dielectric constant tensor:
#      x y z
#    x 1.724430 0.000000 0.000000 
#    y 0.000000 1.708620 0.000000 
#    z 0.000000 0.000000 1.688460 
# 
# From -- ./inp_files/33551.got.cif
#   From: 2010.03.12/outbox.cif.g09.slc.cpg/sg51_17_cif.got.tgz:33551.got - 2010.04.16 13:43:02.
