data_PCOD8209220
_publ_section_title
;
Structure prediction by ZEFSAII (Michael W. Deem and Ramdas Pophale) SiO2 
 PCOD8209220
Probable space group: P M M A
;
_chemical_formula_sum "Si O2"
_cell_formula_units_Z 64
_cell_length_a 18.101556
_cell_length_b 12.781062
_cell_length_c 15.788562
_cell_angle_alpha 90.000000
_cell_angle_beta 90.000000
_cell_angle_gamma 90.000000
_cell_volume 3652.796068
_symmetry_space_group_name_H-M "P M M A"
_symmetry_group_IT_number 51
_symmetry_cell_setting 'orthorhombic'
loop_
_space_group_symop_operation_xyz
x,y,z
1/2-x,-y,z
1/2+x,-y,-z
-x,y,-z
-x,-y,-z
1/2+x,y,-z
1/2-x,y,z
x,-y,z
loop_
_atom_site_type_symbol
_atom_site_label
_atom_site_fract_x
_atom_site_fract_y
_atom_site_fract_z
Si Si1 0.457184 0.379589 0.086834
Si Si2 0.333238 0.380633 0.496771
Si Si3 0.334904 0.118218 0.944247
Si Si4 0.459656 0.743063 0.415147
Si Si5 0.664024 0.778957 0.880684
Si Si6 0.066415 0.240948 0.815843
Si Si7 0.061650 0.121569 0.257167
Si Si8 0.088387 0.379585 0.667735
O O1 0.444523 0.500000 0.107631
O O2 0.376495 0.326469 0.087683
O O3 0.508203 0.329434 0.157976
O O4 0.500000 0.361132 0.000000
O O5 0.250000 0.345172 0.480778
O O6 0.346971 0.500000 0.470007
O O7 0.382488 0.309136 0.437584
O O8 0.350179 0.366516 0.595920
O O9 0.250000 0.133715 0.918320
O O10 0.381130 0.201826 0.890530
O O11 0.361065 0.000000 0.924482
O O12 0.345875 0.136727 0.044172
O O13 0.500000 0.785475 0.500000
O O14 0.440446 0.838751 0.353678
O O15 0.508983 0.655263 0.368878
O O16 0.750000 0.754213 0.863271
O O17 0.626963 0.822949 0.795600
O O18 0.113014 0.299689 0.742528
O O19 0.019095 0.142132 0.783223
O O20 0.078691 0.000000 0.257888
O O21 0.083678 0.500000 0.699030
#
# Coordination Sequence:
#
# PCOD8209220 Si02
#       8
#     8   8   8   8   8   8   8   8
#     4  10  19  33  53  76 103 136 174 213 256 305
#     4   9  17  30  50  75 100 127 161 202 248 303
#     4  10  20  34  52  72  98 136 178 220 264 305
#     4   9  18  33  52  75 102 133 166 204 256 318
#     4  10  21  37  54  76 106 139 178 221 264 308
#     4  10  19  33  51  76 103 134 172 216 258 304
#     4  10  21  34  53  78 101 132 174 220 267 311
#     4   9  17  30  50  74 102 132 164 203 252 306
#
# _framework density 17.520824999999999
#
# number of rings (size 3 to 8) (size 9 to 14) (size 15 to 20)
#    0.000    2.375    1.250    1.500    0.000    3.750 
#    0.000    2.500    0.000    1.125    0.000    0.000 
#    0.000    0.000    0.000    0.000    0.000    0.000 
#
# Total GULP energy -793514.137183 kJ/mol
# GULP energy per Si atom -12398.658393 kJ/mol
# Density = 1.748095 g / cm^3
# Si number density = 17.520825 Si / 1000 Ang^3
#
#
#
# Elastic Constant Matrix: (Units=GPa)
#
#
# Indices 1 2 3 4 5 6 
#
# 1 88.7267 48.7021 39.8813 0.0000 0.0000 0.0000
# 2 48.7021 103.7385 39.3890 0.0000 0.0000 0.0000
# 3 39.8813 39.3890 89.5555 0.0000 0.0000 0.0000
# 4 0.0000 0.0000 0.0000 23.2390 0.0000 0.0000
# 5 0.0000 0.0000 0.0000 0.0000 20.8441 0.0000
# 6 0.0000 0.0000 0.0000 0.0000 0.0000 19.5964
#
#
#
# Elastic Compliance Matrix: (Units=1/GPa)
#
#
# Indices 1 2 3 4 5 6 
#
# 1 0.016742 -0.006037 -0.004800 0.000000 0.000000 0.000000
# 2 -0.006037 0.013749 -0.003359 0.000000 0.000000 0.000000
# 3 -0.004800 -0.003359 0.014781 0.000000 0.000000 0.000000
# 4 0.000000 0.000000 0.000000 0.043031 0.000000 0.000000
# 5 0.000000 0.000000 0.000000 0.000000 0.047975 0.000000
# 6 0.000000 0.000000 0.000000 0.000000 0.000000 0.051030
#
#
# Mechanical properties :
#
#
# Convention : Reuss Voigt Hill
#
# Bulk Modulus (GPa) = 59.24201 59.77392 59.50796
# Shear Modulus (GPa) = 22.59090 23.00578 22.79834
#
# Velocity S-wave (km/s) = 3.59468 3.62754 3.61115
# Velocity P-wave (km/s) = 7.14946 7.19273 7.17113
#
# Compressibility (1/GPa) = 0.01687991
#
# Stress axis : x y z
#
# Youngs Moduli (GPa) = 59.72975 72.73134 67.65339
#
# Poissons Ratio (x) = 0.43910 0.32476
# Poissons Ratio (y) = 0.36060 0.22723
# Poissons Ratio (z) = 0.28672 0.24429
#
# Static dielectric constant tensor:
#      x y z
#    x 3.185080 0.000000 0.000000 
#    y 0.000000 3.144590 0.000000 
#    z 0.000000 0.000000 3.341330 
# 
# 
# High freq. dielectric constant tensor:
#      x y z
#    x 1.671060 0.000000 0.000000 
#    y 0.000000 1.669750 0.000000 
#    z 0.000000 0.000000 1.681030 
# 
# From -- ./inp_files/25208.got.cif
#   From: 2010.03.12/outbox.cif.g09.slc.cpg/sg51_13_cif.got.tgz:25208.got - 2010.04.16 13:43:02.
