data_PCOD8209582
_publ_section_title
;
Structure prediction by ZEFSAII (Michael W. Deem and Ramdas Pophale) SiO2 
 PCOD8209582
Probable space group: P M M A
;
_chemical_formula_sum "Si O2"
_cell_formula_units_Z 64
_cell_length_a 19.654096
_cell_length_b 9.415381
_cell_length_c 19.863935
_cell_angle_alpha 90.000000
_cell_angle_beta 90.000000
_cell_angle_gamma 90.000000
_cell_volume 3675.837104
_symmetry_space_group_name_H-M "P M M A"
_symmetry_group_IT_number 51
_symmetry_cell_setting 'orthorhombic'
loop_
_space_group_symop_operation_xyz
x,y,z
1/2-x,-y,z
1/2+x,-y,-z
-x,y,-z
-x,-y,-z
1/2+x,y,-z
1/2-x,y,z
x,-y,z
loop_
_atom_site_type_symbol
_atom_site_label
_atom_site_fract_x
_atom_site_fract_y
_atom_site_fract_z
Si Si1 0.172456 0.667083 0.485289
Si Si2 0.048284 0.165047 0.438381
Si Si3 0.446492 0.334022 0.052731
Si Si4 0.960936 0.163061 0.306721
Si Si5 0.324054 0.843847 0.055454
Si Si6 0.175166 0.159372 0.215028
Si Si7 0.953815 0.667807 0.792513
Si Si8 0.826192 0.838099 0.379738
O O1 0.250000 0.695763 0.460011
O O2 0.157047 0.500000 0.487857
O O3 0.118002 0.743503 0.436561
O O4 0.162437 0.730902 0.559313
O O5 0.007349 0.198097 0.370843
O O6 0.000000 0.211865 0.500000
O O7 0.068037 0.000000 0.444745
O O8 0.440811 0.500000 0.045700
O O9 0.375161 0.272379 0.027523
O O10 0.463616 0.289935 0.129245
O O11 0.500000 0.270453 0.000000
O O12 0.982093 0.265637 0.245893
O O13 0.881783 0.195912 0.322560
O O14 0.970436 0.000000 0.284329
O O15 0.250000 0.808536 0.025381
O O16 0.320881 0.838829 0.135362
O O17 0.347765 0.000000 0.032018
O O18 0.250000 0.205566 0.243300
O O19 0.116079 0.267018 0.238491
O O20 0.157531 0.000000 0.240733
O O21 0.951423 0.500000 0.781911
O O22 0.750000 0.820164 0.349517
O O23 0.837503 0.000000 0.406002
#
# Coordination Sequence:
#
# PCOD8209582 Si02
#       8
#     8   8   8   8   8   8   8   8
#     4  10  20  32  48  74 105 133 163 203 250 293
#     4  10  19  34  53  74  97 126 166 203 240 289
#     4   9  18  32  49  70  97 129 166 203 240 290
#     4  10  20  34  52  74 100 129 163 204 247 296
#     4   8  14  25  43  69  97 121 151 194 240 284
#     4   8  14  27  47  68  92 124 159 195 235 282
#     4  10  20  32  48  72 100 130 164 203 247 293
#     4   9  17  32  54  75  95 125 166 208 246 287
#
# _framework density 17.410999
#
# number of rings (size 3 to 8) (size 9 to 14) (size 15 to 20)
#    0.000    2.750    1.250    1.500    0.000    3.250 
#    0.000    3.125    0.000    1.500    0.000    3.500 
#    0.000    0.000    0.000    0.000    0.000    0.000 
#
# Total GULP energy -793289.693833 kJ/mol
# GULP energy per Si atom -12395.151466 kJ/mol
# Density = 1.737137 g / cm^3
# Si number density = 17.410999 Si / 1000 Ang^3
#
#
#
# Elastic Constant Matrix: (Units=GPa)
#
#
# Indices 1 2 3 4 5 6 
#
# 1 132.9802 57.2814 44.0528 0.0000 0.0000 0.0000
# 2 57.2814 68.0404 34.4303 0.0000 0.0000 0.0000
# 3 44.0528 34.4303 49.6556 0.0000 0.0000 0.0000
# 4 0.0000 0.0000 0.0000 20.0469 0.0000 0.0000
# 5 0.0000 0.0000 0.0000 0.0000 23.2209 0.0000
# 6 0.0000 0.0000 0.0000 0.0000 0.0000 35.9962
#
#
#
# Elastic Compliance Matrix: (Units=1/GPa)
#
#
# Indices 1 2 3 4 5 6 
#
# 1 0.012868 -0.007789 -0.006015 0.000000 0.000000 0.000000
# 2 -0.007789 0.027356 -0.012058 0.000000 0.000000 0.000000
# 3 -0.006015 -0.012058 0.033836 0.000000 0.000000 0.000000
# 4 0.000000 0.000000 0.000000 0.049883 0.000000 0.000000
# 5 0.000000 0.000000 0.000000 0.000000 0.043065 0.000000
# 6 0.000000 0.000000 0.000000 0.000000 0.000000 0.027781
#
#
# Mechanical properties :
#
#
# Convention : Reuss Voigt Hill
#
# Bulk Modulus (GPa) = 44.77181 58.02279 51.39730
# Shear Modulus (GPa) = 19.68833 23.51361 21.60097
#
# Velocity S-wave (km/s) = 3.36638 3.67891 3.52611
# Velocity P-wave (km/s) = 6.39379 7.17241 6.79426
#
# Compressibility (1/GPa) = 0.02233548
#
# Stress axis : x y z
#
# Youngs Moduli (GPa) = 77.71375 36.55450 29.55459
#
# Poissons Ratio (x) = 0.28473 0.17777
# Poissons Ratio (y) = 0.60534 0.35637
# Poissons Ratio (z) = 0.46744 0.44077
#
# Static dielectric constant tensor:
#      x y z
#    x 3.713500 0.000000 0.000000 
#    y 0.000000 3.250890 0.000000 
#    z 0.000000 0.000000 2.921880 
# 
# 
# High freq. dielectric constant tensor:
#      x y z
#    x 1.684340 0.000000 0.000000 
#    y 0.000000 1.671740 0.000000 
#    z 0.000000 0.000000 1.626820 
# 
# From -- ./inp_files/33889.got.cif
#   From: 2010.03.12/outbox.cif.g09.slc.cpg/sg51_17_cif.got.tgz:33889.got - 2010.04.16 13:43:02.
