data_PCOD8209140
_publ_section_title
;
Structure prediction by ZEFSAII (Michael W. Deem and Ramdas Pophale) SiO2 
 PCOD8209140
Probable space group: P M M A
;
_chemical_formula_sum "Si O2"
_cell_formula_units_Z 48
_cell_length_a 9.078161
_cell_length_b 14.258124
_cell_length_c 20.662627
_cell_angle_alpha 90.000000
_cell_angle_beta 90.000000
_cell_angle_gamma 90.000000
_cell_volume 2674.519717
_symmetry_space_group_name_H-M "P M M A"
_symmetry_group_IT_number 51
_symmetry_cell_setting 'orthorhombic'
loop_
_space_group_symop_operation_xyz
x,y,z
1/2-x,-y,z
1/2+x,-y,-z
-x,y,-z
-x,-y,-z
1/2+x,y,-z
1/2-x,y,z
x,-y,z
loop_
_atom_site_type_symbol
_atom_site_label
_atom_site_fract_x
_atom_site_fract_y
_atom_site_fract_z
Si Si1 0.423089 0.107768 0.564455
Si Si2 0.075296 0.398252 0.121628
Si Si3 0.580049 0.890550 0.183288
Si Si4 0.074740 0.204785 0.065771
Si Si5 0.921058 0.394285 0.732282
Si Si6 0.924077 0.218762 0.310923
O O1 0.500000 0.147480 0.500000
O O2 0.250000 0.120188 0.555956
O O3 0.483209 0.164837 0.626026
O O4 0.466892 0.000000 0.575918
O O5 0.250000 0.399554 0.124010
O O6 0.018338 0.500000 0.095019
O O7 0.019933 0.312121 0.077822
O O8 0.017560 0.383971 0.194609
O O9 0.750000 0.866313 0.167623
O O10 0.478772 0.861567 0.123287
O O11 0.523517 0.836062 0.246746
O O12 0.559878 0.000000 0.197054
O O13 0.250000 0.197531 0.059996
O O14 0.000000 0.169020 0.000000
O O15 0.750000 0.367978 0.729442
O O16 0.947944 0.500000 0.707075
O O17 0.009826 0.323098 0.687077
O O18 0.750000 0.224994 0.312591
#
# Coordination Sequence:
#
# PCOD8209140 Si02
#       6
#     8   8   8   8   8   8
#     4   9  18  33  52  77 110 145 176 208 252 304
#     4   8  15  30  51  73  99 130 162 201 252 305
#     4  10  21  37  55  75 100 131 169 212 257 306
#     4  11  22  36  54  74 100 133 170 212 258 308
#     4   9  17  31  52  77 105 136 169 207 254 306
#     4  10  19  32  54  81 108 135 168 212 259 301
#
# _framework density 17.947147000000001
#
# number of rings (size 3 to 8) (size 9 to 14) (size 15 to 20)
#    0.000    2.500    1.667    2.000    0.000    4.000 
#    0.000    0.000    0.000    5.000    0.000    0.000 
#    0.000    0.000    0.000    0.000    0.000    0.000 
#
# Total GULP energy -595150.229616 kJ/mol
# GULP energy per Si atom -12398.963117 kJ/mol
# Density = 1.790630 g / cm^3
# Si number density = 17.947147 Si / 1000 Ang^3
#
#
#
# Elastic Constant Matrix: (Units=GPa)
#
#
# Indices 1 2 3 4 5 6 
#
# 1 37.8388 29.9671 38.6086 0.0000 0.0000 0.0000
# 2 29.9671 91.5363 51.6934 0.0000 0.0000 0.0000
# 3 38.6086 51.6934 126.7646 0.0000 0.0000 0.0000
# 4 0.0000 0.0000 0.0000 29.4917 0.0000 0.0000
# 5 0.0000 0.0000 0.0000 0.0000 25.5802 0.0000
# 6 0.0000 0.0000 0.0000 0.0000 0.0000 28.8880
#
#
#
# Elastic Compliance Matrix: (Units=1/GPa)
#
#
# Indices 1 2 3 4 5 6 
#
# 1 0.043087 -0.008698 -0.009576 0.000000 0.000000 0.000000
# 2 -0.008698 0.015949 -0.003855 0.000000 0.000000 0.000000
# 3 -0.009576 -0.003855 0.012377 0.000000 0.000000 0.000000
# 4 0.000000 0.000000 0.000000 0.033908 0.000000 0.000000
# 5 0.000000 0.000000 0.000000 0.000000 0.039093 0.000000
# 6 0.000000 0.000000 0.000000 0.000000 0.000000 0.034617
#
#
# Mechanical properties :
#
#
# Convention : Reuss Voigt Hill
#
# Bulk Modulus (GPa) = 36.82445 55.18644 46.00544
# Shear Modulus (GPa) = 21.52016 25.85001 23.68508
#
# Velocity S-wave (km/s) = 3.46654 3.79930 3.63673
# Velocity P-wave (km/s) = 6.04858 7.07548 6.58209
#
# Compressibility (1/GPa) = 0.02715587
#
# Stress axis : x y z
#
# Youngs Moduli (GPa) = 23.20867 62.69967 80.79401
#
# Poissons Ratio (x) = 0.54536 0.77369
# Poissons Ratio (y) = 0.20187 0.31144
# Poissons Ratio (z) = 0.22225 0.24169
#
# Static dielectric constant tensor:
#      x y z
#    x 3.060470 0.000000 0.000000 
#    y 0.000000 3.510240 0.000000 
#    z 0.000000 0.000000 3.290590 
# 
# 
# High freq. dielectric constant tensor:
#      x y z
#    x 1.674870 0.000000 0.000000 
#    y 0.000000 1.699700 0.000000 
#    z 0.000000 0.000000 1.680500 
# 
# From -- ./inp_files/27564.got.cif
#   From: 2010.03.12/outbox.cif.g09.slc.cpg/sg51_14_cif.got.tgz:27564.got - 2010.04.16 13:43:02.
