data_PCOD8209341
_publ_section_title
;
Structure prediction by ZEFSAII (Michael W. Deem and Ramdas Pophale) SiO2 
 PCOD8209341
Probable space group: P M M A
;
_chemical_formula_sum "Si O2"
_cell_formula_units_Z 48
_cell_length_a 9.026410
_cell_length_b 14.626439
_cell_length_c 18.816897
_cell_angle_alpha 90.000000
_cell_angle_beta 90.000000
_cell_angle_gamma 90.000000
_cell_volume 2484.286436
_symmetry_space_group_name_H-M "P M M A"
_symmetry_group_IT_number 51
_symmetry_cell_setting 'orthorhombic'
loop_
_space_group_symop_operation_xyz
x,y,z
1/2-x,-y,z
1/2+x,-y,-z
-x,y,-z
-x,-y,-z
1/2+x,y,-z
1/2-x,y,z
x,-y,z
loop_
_atom_site_type_symbol
_atom_site_label
_atom_site_fract_x
_atom_site_fract_y
_atom_site_fract_z
Si Si1 0.914406 0.900794 0.717332
Si Si2 0.424828 0.104728 0.074480
Si Si3 0.921449 0.772439 0.191262
Si Si4 0.425951 0.350789 0.427652
Si Si5 0.415196 0.856062 0.436054
Si Si6 0.079966 0.397679 0.717467
O O1 0.750000 0.858862 0.734702
O O2 0.931014 0.916607 0.633682
O O3 0.048392 0.837432 0.741595
O O4 0.926309 0.000000 0.754343
O O5 0.250000 0.115571 0.066533
O O6 0.480885 0.183262 0.128430
O O7 0.465097 0.000000 0.098159
O O8 0.500000 0.127064 0.000000
O O9 0.750000 0.774106 0.168685
O O10 0.972034 0.671562 0.218852
O O11 0.500000 0.392393 0.500000
O O12 0.250000 0.366950 0.431149
O O13 0.475196 0.245653 0.421079
O O14 0.485743 0.395563 0.355086
O O15 0.500000 0.905402 0.500000
O O16 0.250000 0.848009 0.463444
O O17 0.250000 0.373749 0.698344
O O18 0.065139 0.500000 0.749049
#
# Coordination Sequence:
#
# PCOD8209341 Si02
#       6
#     8   8   8   8   8   8
#     4  10  20  34  51  73 104 142 181 221 269 326
#     4  10  21  38  62  92 125 157 186 218 258 310
#     4  11  22  36  57  83 113 146 181 225 275 324
#     4  10  19  33  54  77 103 137 181 236 294 348
#     4   9  18  31  47  68  96 132 175 222 271 324
#     4  10  22  39  57  79 108 144 188 236 286 338
#
# _framework density 19.321442999999999
#
# number of rings (size 3 to 8) (size 9 to 14) (size 15 to 20)
#    0.000    2.000    1.667    2.000    0.000    6.333 
#    0.000    0.000    0.000    0.500    0.000    0.000 
#    0.000    0.000    0.000    0.000    0.000    0.000 
#
# Total GULP energy -594703.691678 kJ/mol
# GULP energy per Si atom -12389.660243 kJ/mol
# Density = 1.927747 g / cm^3
# Si number density = 19.321443 Si / 1000 Ang^3
#
#
#
# Elastic Constant Matrix: (Units=GPa)
#
#
# Indices 1 2 3 4 5 6 
#
# 1 77.6391 38.3935 51.4933 0.0000 0.0000 0.0000
# 2 38.3935 109.0747 51.5513 0.0000 0.0000 0.0000
# 3 51.4933 51.5513 114.5496 0.0000 0.0000 0.0000
# 4 0.0000 0.0000 0.0000 43.2768 0.0000 0.0000
# 5 0.0000 0.0000 0.0000 0.0000 37.1219 0.0000
# 6 0.0000 0.0000 0.0000 0.0000 0.0000 16.6662
#
#
#
# Elastic Compliance Matrix: (Units=1/GPa)
#
#
# Indices 1 2 3 4 5 6 
#
# 1 0.019307 -0.003422 -0.007139 0.000000 0.000000 0.000000
# 2 -0.003422 0.012251 -0.003975 0.000000 0.000000 0.000000
# 3 -0.007139 -0.003975 0.013728 0.000000 0.000000 0.000000
# 4 0.000000 0.000000 0.000000 0.023107 0.000000 0.000000
# 5 0.000000 0.000000 0.000000 0.000000 0.026938 0.000000
# 6 0.000000 0.000000 0.000000 0.000000 0.000000 0.060002
#
#
# Mechanical properties :
#
#
# Convention : Reuss Voigt Hill
#
# Bulk Modulus (GPa) = 61.67512 64.90441 63.28977
# Shear Modulus (GPa) = 26.34198 30.06799 28.20499
#
# Velocity S-wave (km/s) = 3.69637 3.94915 3.82485
# Velocity P-wave (km/s) = 7.08572 7.37965 7.23417
#
# Compressibility (1/GPa) = 0.01621399
#
# Stress axis : x y z
#
# Youngs Moduli (GPa) = 51.79399 81.62387 72.84298
#
# Poissons Ratio (x) = 0.27930 0.52004
# Poissons Ratio (y) = 0.17723 0.28957
# Poissons Ratio (z) = 0.36977 0.32448
#
# Static dielectric constant tensor:
#      x y z
#    x 3.542030 0.000000 0.000000 
#    y 0.000000 3.552770 0.000000 
#    z 0.000000 0.000000 3.508930 
# 
# 
# High freq. dielectric constant tensor:
#      x y z
#    x 1.751240 0.000000 0.000000 
#    y 0.000000 1.743580 0.000000 
#    z 0.000000 0.000000 1.738750 
# 
# From -- ./inp_files/27592.got.cif
#   From: 2010.03.12/outbox.cif.g09.slc.cpg/sg51_14_cif.got.tgz:27592.got - 2010.04.16 13:43:02.
