data_PCOD8209262
_publ_section_title
;
Structure prediction by ZEFSAII (Michael W. Deem and Ramdas Pophale) SiO2 
 PCOD8209262
Probable space group: P M M A
;
_chemical_formula_sum "Si O2"
_cell_formula_units_Z 56
_cell_length_a 14.035907
_cell_length_b 9.617119
_cell_length_c 22.745745
_cell_angle_alpha 90.000000
_cell_angle_beta 90.000000
_cell_angle_gamma 90.000000
_cell_volume 3070.334113
_symmetry_space_group_name_H-M "P M M A"
_symmetry_group_IT_number 51
_symmetry_cell_setting 'orthorhombic'
loop_
_space_group_symop_operation_xyz
x,y,z
1/2-x,-y,z
1/2+x,-y,-z
-x,y,-z
-x,-y,-z
1/2+x,y,-z
1/2-x,y,z
x,-y,z
loop_
_atom_site_type_symbol
_atom_site_label
_atom_site_fract_x
_atom_site_fract_y
_atom_site_fract_z
Si Si1 0.045979 0.164871 0.089800
Si Si2 0.144172 0.164347 0.969880
Si Si3 0.478664 0.662966 0.308211
Si Si4 0.140874 0.839395 0.650459
Si Si5 0.608360 0.154870 0.481730
Si Si6 0.639103 0.337977 0.807269
Si Si7 0.353464 0.654127 0.415001
O O1 0.084331 0.247067 0.145189
O O2 0.935611 0.210291 0.077778
O O3 0.053165 0.000000 0.101132
O O4 0.110568 0.210832 0.034562
O O5 0.250000 0.227273 0.956096
O O6 0.149982 0.000000 0.969032
O O7 0.501979 0.500000 0.310295
O O8 0.577052 0.748821 0.304718
O O9 0.410003 0.698504 0.254322
O O10 0.426469 0.715500 0.367485
O O11 0.250000 0.817538 0.669181
O O12 0.124638 0.786540 0.583731
O O13 0.110258 0.000000 0.655961
O O14 0.500000 0.153833 0.500000
O O15 0.660563 0.253428 0.527406
O O16 0.652321 0.000000 0.485421
O O17 0.750000 0.295666 0.804259
O O18 0.627712 0.500000 0.823007
O O19 0.250000 0.646058 0.384115
O O20 0.387197 0.500000 0.434248
#
# Coordination Sequence:
#
# PCOD8209262 Si02
#       7
#     8   8   8   8   8   8   8
#     4   9  17  30  52  81 108 138 179 219 251 296
#     4   8  14  27  49  78 112 145 174 210 258 303
#     4  10  21  37  55  73  98 132 172 212 250 299
#     4  10  21  37  55  75 101 132 166 207 256 308
#     4  10  19  33  53  75 101 131 160 197 252 314
#     4  10  21  37  55  75 103 138 170 207 261 312
#     4  10  20  33  51  75 100 127 163 207 251 298
#
# _framework density 18.239056999999999
#
# number of rings (size 3 to 8) (size 9 to 14) (size 15 to 20)
#    0.000    2.429    1.429    2.143    0.000    5.143 
#    0.000    2.143    0.000    6.429    0.000    0.000 
#    0.000    0.000    0.000    0.000    0.000    0.000 
#
# Total GULP energy -694139.855216 kJ/mol
# GULP energy per Si atom -12395.354557 kJ/mol
# Density = 1.819754 g / cm^3
# Si number density = 18.239057 Si / 1000 Ang^3
#
#
#
# Elastic Constant Matrix: (Units=GPa)
#
#
# Indices 1 2 3 4 5 6 
#
# 1 145.8855 45.0414 55.5201 0.0000 0.0000 0.0000
# 2 45.0414 55.6825 48.5385 0.0000 0.0000 0.0000
# 3 55.5201 48.5385 89.0823 0.0000 0.0000 0.0000
# 4 0.0000 0.0000 0.0000 30.3502 0.0000 0.0000
# 5 0.0000 0.0000 0.0000 0.0000 27.2774 0.0000
# 6 0.0000 0.0000 0.0000 0.0000 0.0000 6.6118
#
#
#
# Elastic Compliance Matrix: (Units=1/GPa)
#
#
# Indices 1 2 3 4 5 6 
#
# 1 0.009634 -0.004874 -0.003349 0.000000 0.000000 0.000000
# 2 -0.004874 0.036671 -0.016944 0.000000 0.000000 0.000000
# 3 -0.003349 -0.016944 0.022545 0.000000 0.000000 0.000000
# 4 0.000000 0.000000 0.000000 0.032949 0.000000 0.000000
# 5 0.000000 0.000000 0.000000 0.000000 0.036660 0.000000
# 6 0.000000 0.000000 0.000000 0.000000 0.000000 0.151245
#
#
# Mechanical properties :
#
#
# Convention : Reuss Voigt Hill
#
# Bulk Modulus (GPa) = 54.00239 65.42779 59.71509
# Shear Modulus (GPa) = 14.44218 22.28457 18.36337
#
# Velocity S-wave (km/s) = 2.81699 3.49922 3.17648
# Velocity P-wave (km/s) = 6.34452 7.23024 6.80181
#
# Compressibility (1/GPa) = 0.01851770
#
# Stress axis : x y z
#
# Youngs Moduli (GPa) = 103.80074 27.26949 44.35637
#
# Poissons Ratio (x) = 0.13290 0.14853
# Poissons Ratio (y) = 0.50590 0.75155
# Poissons Ratio (z) = 0.34759 0.46204
#
# Static dielectric constant tensor:
#      x y z
#    x 3.712330 0.000000 0.000000 
#    y 0.000000 3.214140 0.000000 
#    z 0.000000 0.000000 3.166520 
# 
# 
# High freq. dielectric constant tensor:
#      x y z
#    x 1.724650 0.000000 0.000000 
#    y 0.000000 1.685000 0.000000 
#    z 0.000000 0.000000 1.685800 
# 
# From -- ./inp_files/33300.got.cif
#   From: 2010.03.12/outbox.cif.g09.slc.cpg/sg51_17_cif.got.tgz:33300.got - 2010.04.16 13:43:02.
