data_PCOD8209332
_publ_section_title
;
Structure prediction by ZEFSAII (Michael W. Deem and Ramdas Pophale) SiO2 
 PCOD8209332
Probable space group: P M M A
;
_chemical_formula_sum "Si O2"
_cell_formula_units_Z 32
_cell_length_a 16.566371
_cell_length_b 19.334736
_cell_length_c 5.037307
_cell_angle_alpha 90.000000
_cell_angle_beta 90.000000
_cell_angle_gamma 90.000000
_cell_volume 1613.481720
_symmetry_space_group_name_H-M "P M M A"
_symmetry_group_IT_number 51
_symmetry_cell_setting 'orthorhombic'
loop_
_space_group_symop_operation_xyz
x,y,z
1/2-x,-y,z
1/2+x,-y,-z
-x,y,-z
-x,-y,-z
1/2+x,y,-z
1/2-x,y,z
x,-y,z
loop_
_atom_site_type_symbol
_atom_site_label
_atom_site_fract_x
_atom_site_fract_y
_atom_site_fract_z
Si Si1 0.443236 0.072875 0.250588
Si Si2 0.412332 0.420012 0.606185
Si Si3 0.842536 0.647640 0.876851
Si Si4 0.442726 0.777520 0.249866
O O1 0.500000 0.069836 0.500000
O O2 0.396892 0.146867 0.262514
O O3 0.390852 0.000000 0.244542
O O4 0.500000 0.074249 0.000000
O O5 0.500000 0.397539 0.500000
O O6 0.408993 0.500000 0.687895
O O7 0.650018 0.406137 0.632987
O O8 0.393923 0.376150 0.868982
O O9 0.750000 0.652823 0.965261
O O10 0.872269 0.721419 0.768412
O O11 0.500000 0.763595 0.500000
O O12 0.500000 0.772680 0.000000
#
# Coordination Sequence:
#
# PCOD8209332 Si02
#       4
#     8   8   8   8
#     4   8  14  25  44  72 100 128 170 220 260 296
#     4  11  24  42  62  81 104 139 182 225 271 327
#     4  12  24  37  56  83 114 143 176 222 273 326
#     4  10  19  33  54  76 104 142 180 218 260 313
#
# _framework density 19.832889000000002
#
# number of rings (size 3 to 8) (size 9 to 14) (size 15 to 20)
#    0.000    1.750    0.000    6.000    0.000    5.000 
#    0.000    0.000    0.000    0.750    0.000    0.000 
#    0.000   24.000    0.000    0.000    0.000    4.250 
#
# Total GULP energy -396440.612814 kJ/mol
# GULP energy per Si atom -12388.769150 kJ/mol
# Density = 1.978775 g / cm^3
# Si number density = 19.832889 Si / 1000 Ang^3
#
#
#
# Elastic Constant Matrix: (Units=GPa)
#
#
# Indices 1 2 3 4 5 6 
#
# 1 71.0924 56.4587 22.1857 0.0000 0.0000 0.0000
# 2 56.4587 156.5694 41.5411 0.0000 0.0000 0.0000
# 3 22.1857 41.5411 143.8180 0.0000 0.0000 0.0000
# 4 0.0000 0.0000 0.0000 29.1132 0.0000 0.0000
# 5 0.0000 0.0000 0.0000 0.0000 20.4152 0.0000
# 6 0.0000 0.0000 0.0000 0.0000 0.0000 6.6763
#
#
#
# Elastic Compliance Matrix: (Units=1/GPa)
#
#
# Indices 1 2 3 4 5 6 
#
# 1 0.019864 -0.006877 -0.001078 0.000000 0.000000 0.000000
# 2 -0.006877 0.009298 -0.001625 0.000000 0.000000 0.000000
# 3 -0.001078 -0.001625 0.007589 0.000000 0.000000 0.000000
# 4 0.000000 0.000000 0.000000 0.034349 0.000000 0.000000
# 5 0.000000 0.000000 0.000000 0.000000 0.048983 0.000000
# 6 0.000000 0.000000 0.000000 0.000000 0.000000 0.149784
#
#
# Mechanical properties :
#
#
# Convention : Reuss Voigt Hill
#
# Bulk Modulus (GPa) = 56.84592 67.98342 62.41467
# Shear Modulus (GPa) = 16.95552 27.99388 22.47470
#
# Velocity S-wave (km/s) = 2.92707 3.76105 3.36996
# Velocity P-wave (km/s) = 6.33627 7.29474 6.83233
#
# Compressibility (1/GPa) = 0.01759141
#
# Stress axis : x y z
#
# Youngs Moduli (GPa) = 50.34237 107.55175 131.77275
#
# Poissons Ratio (x) = 0.73963 0.14204
# Poissons Ratio (y) = 0.34620 0.21410
# Poissons Ratio (z) = 0.05426 0.17475
#
# Static dielectric constant tensor:
#      x y z
#    x 3.052840 0.000000 0.000000 
#    y 0.000000 4.755360 0.000000 
#    z 0.000000 0.000000 3.750890 
# 
# 
# High freq. dielectric constant tensor:
#      x y z
#    x 1.702090 0.000000 0.000000 
#    y 0.000000 1.808290 0.000000 
#    z 0.000000 0.000000 1.803190 
# 
# From -- ./inp_files/1373.got.cif
#   From: 2010.03.12/outbox.cif.g09.slc.cpg/sg51_1_cif.got.tgz:1373.got - 2010.04.16 13:43:02.
