data_PCOD8209048
_publ_section_title
;
Structure prediction by ZEFSAII (Michael W. Deem and Ramdas Pophale) SiO2 
 PCOD8209048
Probable space group: P M M A
;
_chemical_formula_sum "Si O2"
_cell_formula_units_Z 56
_cell_length_a 18.234325
_cell_length_b 17.812482
_cell_length_c 9.514208
_cell_angle_alpha 90.000000
_cell_angle_beta 90.000000
_cell_angle_gamma 90.000000
_cell_volume 3090.201304
_symmetry_space_group_name_H-M "P M M A"
_symmetry_group_IT_number 51
_symmetry_cell_setting 'orthorhombic'
loop_
_space_group_symop_operation_xyz
x,y,z
1/2-x,-y,z
1/2+x,-y,-z
-x,y,-z
-x,-y,-z
1/2+x,y,-z
1/2-x,y,z
x,-y,z
loop_
_atom_site_type_symbol
_atom_site_label
_atom_site_fract_x
_atom_site_fract_y
_atom_site_fract_z
Si Si1 0.080832 0.686093 0.998204
Si Si2 0.835174 0.084039 0.658868
Si Si3 0.669131 0.085728 0.331050
Si Si4 0.835921 0.701229 0.444036
Si Si5 0.925831 0.796378 0.240959
Si Si6 0.409407 0.763736 0.284424
Si Si7 0.836285 0.415610 0.215952
O O1 0.076276 0.764459 0.914981
O O2 0.132986 0.627017 0.920891
O O3 0.108058 0.709620 0.152316
O O4 0.000000 0.649043 0.000000
O O5 0.750000 0.088172 0.696283
O O6 0.848954 0.097029 0.494916
O O7 0.873927 0.153781 0.737753
O O8 0.864522 0.000000 0.702316
O O9 0.750000 0.120410 0.296995
O O10 0.600434 0.117423 0.239183
O O11 0.671785 0.000000 0.289738
O O12 0.750000 0.706435 0.477131
O O13 0.859304 0.764964 0.335762
O O14 0.879453 0.713498 0.588027
O O15 0.857298 0.623052 0.365237
O O16 0.004412 0.778987 0.309497
O O17 0.750000 0.415025 0.196313
O O18 0.867742 0.500000 0.219675
#
# Coordination Sequence:
#
# PCOD8209048 Si02
#       7
#     8   8   8   8   8   8   8
#     4   9  21  37  53  76 109 143 174 209 257 309
#     4   9  18  31  47  71 105 139 171 215 269 314
#     4   9  17  30  49  73 101 135 177 222 266 311
#     4  10  19  32  53  77 103 132 164 210 262 307
#     4  10  19  33  51  73 102 137 175 217 256 305
#     4  11  20  32  52  78 104 136 178 219 255 306
#     4   9  19  37  59  81 105 136 172 208 254 314
#
# _framework density 18.121796
#
# number of rings (size 3 to 8) (size 9 to 14) (size 15 to 20)
#    0.000    2.429    1.429    2.143    0.000    2.571 
#    0.000    2.857    0.000   17.143    0.000    0.000 
#    0.000    0.000    0.000    0.000    0.000    0.000 
#
# Total GULP energy -693862.959691 kJ/mol
# GULP energy per Si atom -12390.409994 kJ/mol
# Density = 1.808055 g / cm^3
# Si number density = 18.121796 Si / 1000 Ang^3
#
#
#
# Elastic Constant Matrix: (Units=GPa)
#
#
# Indices 1 2 3 4 5 6 
#
# 1 77.2855 47.1887 40.8746 0.0000 0.0000 0.0000
# 2 47.1887 108.1125 42.8327 0.0000 0.0000 0.0000
# 3 40.8746 42.8327 88.2706 0.0000 0.0000 0.0000
# 4 0.0000 0.0000 0.0000 18.1956 0.0000 0.0000
# 5 0.0000 0.0000 0.0000 0.0000 22.8430 0.0000
# 6 0.0000 0.0000 0.0000 0.0000 0.0000 21.7802
#
#
#
# Elastic Compliance Matrix: (Units=1/GPa)
#
#
# Indices 1 2 3 4 5 6 
#
# 1 0.020085 -0.006291 -0.006248 0.000000 0.000000 0.000000
# 2 -0.006291 0.013422 -0.003600 0.000000 0.000000 0.000000
# 3 -0.006248 -0.003600 0.015968 0.000000 0.000000 0.000000
# 4 0.000000 0.000000 0.000000 0.054958 0.000000 0.000000
# 5 0.000000 0.000000 0.000000 0.000000 0.043777 0.000000
# 6 0.000000 0.000000 0.000000 0.000000 0.000000 0.045913
#
#
# Mechanical properties :
#
#
# Convention : Reuss Voigt Hill
#
# Bulk Modulus (GPa) = 58.14648 59.49563 58.82106
# Shear Modulus (GPa) = 21.53940 22.08194 21.81067
#
# Velocity S-wave (km/s) = 3.45134 3.49453 3.47300
# Velocity P-wave (km/s) = 6.93098 7.01317 6.97220
#
# Compressibility (1/GPa) = 0.01719795
#
# Stress axis : x y z
#
# Youngs Moduli (GPa) = 49.78961 74.50616 62.62340
#
# Poissons Ratio (x) = 0.46874 0.39124
# Poissons Ratio (y) = 0.31324 0.22542
# Poissons Ratio (z) = 0.31106 0.26819
#
# Static dielectric constant tensor:
#      x y z
#    x 3.435360 0.000000 0.000000 
#    y 0.000000 3.582250 0.000000 
#    z 0.000000 0.000000 3.199150 
# 
# 
# High freq. dielectric constant tensor:
#      x y z
#    x 1.704590 0.000000 0.000000 
#    y 0.000000 1.698490 0.000000 
#    z 0.000000 0.000000 1.680760 
# 
# From -- ./inp_files/8532.got.cif
#   From: 2010.03.12/outbox.cif.g09.slc.cpg/sg51_5_cif.got.tgz:8532.got - 2010.04.16 13:43:02.
