data_PCOD8209827
_publ_section_title
;
Structure prediction by ZEFSAII (Michael W. Deem and Ramdas Pophale) SiO2 
 PCOD8209827
Probable space group: P M M A
;
_chemical_formula_sum "Si O2"
_cell_formula_units_Z 64
_cell_length_a 8.922599
_cell_length_b 24.865350
_cell_length_c 14.414240
_cell_angle_alpha 90.000000
_cell_angle_beta 90.000000
_cell_angle_gamma 90.000000
_cell_volume 3197.994414
_symmetry_space_group_name_H-M "P M M A"
_symmetry_group_IT_number 51
_symmetry_cell_setting 'orthorhombic'
loop_
_space_group_symop_operation_xyz
x,y,z
1/2-x,-y,z
1/2+x,-y,-z
-x,y,-z
-x,-y,-z
1/2+x,y,-z
1/2-x,y,z
x,-y,z
loop_
_atom_site_type_symbol
_atom_site_label
_atom_site_fract_x
_atom_site_fract_y
_atom_site_fract_z
Si Si1 0.571941 0.940264 0.283968
Si Si2 0.922782 0.354650 0.595425
Si Si3 0.075061 0.231967 0.905544
Si Si4 0.427993 0.840305 0.599202
Si Si5 0.418616 0.435968 0.091135
Si Si6 0.423715 0.250963 0.280349
Si Si7 0.923191 0.894216 0.092830
Si Si8 0.423885 0.437011 0.721895
O O1 0.750000 0.938262 0.277967
O O2 0.518365 0.898507 0.362703
O O3 0.507679 0.923754 0.182992
O O4 0.514142 0.000000 0.310253
O O5 0.750000 0.367365 0.576780
O O6 0.945565 0.306105 0.665722
O O7 0.000000 0.337819 0.500000
O O8 0.998934 0.408080 0.635500
O O9 0.250000 0.246580 0.905135
O O10 0.047145 0.168691 0.894381
O O11 0.991158 0.261270 0.821306
O O12 0.000000 0.253222 0.000000
O O13 0.500000 0.829830 0.500000
O O14 0.250000 0.836448 0.590538
O O15 0.482388 0.795529 0.670369
O O16 0.250000 0.413323 0.094477
O O17 0.418547 0.500000 0.086828
O O18 0.504824 0.415870 0.182234
O O19 0.500000 0.412423 0.000000
O O20 0.250000 0.233936 0.274735
O O21 0.750000 0.907555 0.082528
O O22 0.000000 0.916675 0.000000
O O23 0.250000 0.422574 0.724351
O O24 0.452342 0.500000 0.708678
#
# Coordination Sequence:
#
# PCOD8209827 Si02
#       8
#     8   8   8   8   8   8   8   8
#     4   9  18  34  54  77 111 152 192 236 288 347
#     4  11  25  43  63  88 117 151 194 242 296 348
#     4  10  19  34  58  89 121 156 193 235 287 345
#     4  11  22  38  59  84 110 146 193 241 298 354
#     4   9  16  28  50  81 117 156 197 240 284 333
#     4  11  23  40  63  90 118 151 191 240 291 346
#     4   9  17  31  51  79 110 147 188 228 278 337
#     4  10  21  38  61  89 121 158 198 239 288 345
#
# _framework density 20.012542
#
# number of rings (size 3 to 8) (size 9 to 14) (size 15 to 20)
#    0.000    2.000    1.250    2.625    0.000    6.500 
#    0.000    0.625    0.000    5.625    0.000    0.000 
#    0.000    0.000    0.000    0.000    0.000    0.000 
#
# Total GULP energy -793789.112003 kJ/mol
# GULP energy per Si atom -12402.954875 kJ/mol
# Density = 1.996699 g / cm^3
# Si number density = 20.012542 Si / 1000 Ang^3
#
#
#
# Elastic Constant Matrix: (Units=GPa)
#
#
# Indices 1 2 3 4 5 6 
#
# 1 122.5457 46.0067 63.9183 0.0000 0.0000 0.0000
# 2 46.0067 53.2926 36.8574 0.0000 0.0000 0.0000
# 3 63.9183 36.8574 146.2547 0.0000 0.0000 0.0000
# 4 0.0000 0.0000 0.0000 19.6254 0.0000 0.0000
# 5 0.0000 0.0000 0.0000 0.0000 40.6632 0.0000
# 6 0.0000 0.0000 0.0000 0.0000 0.0000 19.4343
#
#
#
# Elastic Compliance Matrix: (Units=1/GPa)
#
#
# Indices 1 2 3 4 5 6 
#
# 1 0.013460 -0.009145 -0.003578 0.000000 0.000000 0.000000
# 2 -0.009145 0.028939 -0.003296 0.000000 0.000000 0.000000
# 3 -0.003578 -0.003296 0.009232 0.000000 0.000000 0.000000
# 4 0.000000 0.000000 0.000000 0.050954 0.000000 0.000000
# 5 0.000000 0.000000 0.000000 0.000000 0.024592 0.000000
# 6 0.000000 0.000000 0.000000 0.000000 0.000000 0.051456
#
#
# Mechanical properties :
#
#
# Convention : Reuss Voigt Hill
#
# Bulk Modulus (GPa) = 51.04064 68.40641 59.72352
# Shear Modulus (GPa) = 23.02018 27.63195 25.32607
#
# Velocity S-wave (km/s) = 3.39527 3.71985 3.56126
# Velocity P-wave (km/s) = 6.39767 7.25987 6.84236
#
# Compressibility (1/GPa) = 0.01959223
#
# Stress axis : x y z
#
# Youngs Moduli (GPa) = 74.29645 34.55566 108.32393
#
# Poissons Ratio (x) = 0.31602 0.38754
# Poissons Ratio (y) = 0.67945 0.35704
# Poissons Ratio (z) = 0.26581 0.11390
#
# Static dielectric constant tensor:
#      x y z
#    x 3.642010 0.000000 0.000000 
#    y 0.000000 3.472260 0.000000 
#    z 0.000000 0.000000 3.801610 
# 
# 
# High freq. dielectric constant tensor:
#      x y z
#    x 1.778460 0.000000 0.000000 
#    y 0.000000 1.763570 0.000000 
#    z 0.000000 0.000000 1.794230 
# 
# From -- ./inp_files/22273.got.cif
#   From: 2010.03.12/outbox.cif.g09.slc.cpg/sg51_12_cif.got.tgz:22273.got - 2010.04.16 13:43:02.
