data_PCOD8209815
_publ_section_title
;
Structure prediction by ZEFSAII (Michael W. Deem and Ramdas Pophale) SiO2 
 PCOD8209815
Probable space group: P M M A
;
_chemical_formula_sum "Si O2"
_cell_formula_units_Z 52
_cell_length_a 9.029523
_cell_length_b 15.039479
_cell_length_c 20.195347
_cell_angle_alpha 90.000000
_cell_angle_beta 90.000000
_cell_angle_gamma 90.000000
_cell_volume 2742.514421
_symmetry_space_group_name_H-M "P M M A"
_symmetry_group_IT_number 51
_symmetry_cell_setting 'orthorhombic'
loop_
_space_group_symop_operation_xyz
x,y,z
1/2-x,-y,z
1/2+x,-y,-z
-x,y,-z
-x,-y,-z
1/2+x,y,-z
1/2-x,y,z
x,-y,z
loop_
_atom_site_type_symbol
_atom_site_label
_atom_site_fract_x
_atom_site_fract_y
_atom_site_fract_z
Si Si1 0.078887 0.095850 0.295192
Si Si2 0.083032 0.602317 0.778941
Si Si3 0.423758 0.100998 0.067619
Si Si4 0.580023 0.500000 0.568077
Si Si5 0.423435 0.177484 0.431825
Si Si6 0.417530 0.655657 0.630008
Si Si7 0.424960 0.771299 0.186089
O O1 0.250000 0.092938 0.275159
O O2 0.062279 0.104039 0.374596
O O3 0.012079 0.177727 0.252277
O O4 0.006901 0.000000 0.276000
O O5 0.250000 0.597601 0.805951
O O6 0.019336 0.500000 0.777702
O O7 0.080416 0.651586 0.708638
O O8 0.989853 0.671319 0.823700
O O9 0.250000 0.107240 0.056784
O O10 0.476067 0.168259 0.124653
O O11 0.470283 0.000000 0.086754
O O12 0.500000 0.131644 0.000000
O O13 0.750000 0.500000 0.552746
O O14 0.500000 0.500000 0.500000
O O15 0.536026 0.584193 0.609476
O O16 0.500000 0.144067 0.500000
O O17 0.250000 0.202744 0.443630
O O18 0.522012 0.256230 0.403103
O O19 0.250000 0.637655 0.604054
O O20 0.250000 0.759325 0.189917
#
# Coordination Sequence:
#
# PCOD8209815 Si02
#       7
#     8   8   8   4   8   8   8
#     4   9  18  33  54  79 106 138 180 227 276 329
#     4  10  21  37  56  79 109 143 178 223 281 333
#     4   9  18  33  56  88 125 159 188 221 264 317
#     4  12  24  36  52  74 100 130 171 222 281 344
#     4  11  22  36  53  74 100 137 182 228 280 333
#     4  11  21  37  55  73 101 135 174 223 281 339
#     4  10  19  34  58  86 113 145 186 228 270 319
#
# _framework density 18.960702000000001
#
# number of rings (size 3 to 8) (size 9 to 14) (size 15 to 20)
#    0.000    1.846    2.308    2.538    0.000    3.692 
#    0.000    0.000    0.000    5.077    0.000    0.000 
#    0.000    0.000    0.000    0.000    0.000    0.000 
#
# Total GULP energy -644254.636214 kJ/mol
# GULP energy per Si atom -12389.512235 kJ/mol
# Density = 1.891755 g / cm^3
# Si number density = 18.960702 Si / 1000 Ang^3
#
#
#
# Elastic Constant Matrix: (Units=GPa)
#
#
# Indices 1 2 3 4 5 6 
#
# 1 77.7749 35.9732 33.3853 0.0000 0.0000 0.0000
# 2 35.9732 126.9288 45.4653 0.0000 0.0000 0.0000
# 3 33.3853 45.4653 98.6775 0.0000 0.0000 0.0000
# 4 0.0000 0.0000 0.0000 29.1748 0.0000 0.0000
# 5 0.0000 0.0000 0.0000 0.0000 26.8673 0.0000
# 6 0.0000 0.0000 0.0000 0.0000 0.0000 23.8891
#
#
#
# Elastic Compliance Matrix: (Units=1/GPa)
#
#
# Indices 1 2 3 4 5 6 
#
# 1 0.016005 -0.003110 -0.003982 0.000000 0.000000 0.000000
# 2 -0.003110 0.010040 -0.003574 0.000000 0.000000 0.000000
# 3 -0.003982 -0.003574 0.013128 0.000000 0.000000 0.000000
# 4 0.000000 0.000000 0.000000 0.034276 0.000000 0.000000
# 5 0.000000 0.000000 0.000000 0.000000 0.037220 0.000000
# 6 0.000000 0.000000 0.000000 0.000000 0.000000 0.041860
#
#
# Mechanical properties :
#
#
# Convention : Reuss Voigt Hill
#
# Bulk Modulus (GPa) = 56.04834 59.22542 57.63688
# Shear Modulus (GPa) = 27.80743 28.55672 28.18208
#
# Velocity S-wave (km/s) = 3.83375 3.88506 3.85949
# Velocity P-wave (km/s) = 7.01579 7.17138 7.09401
#
# Compressibility (1/GPa) = 0.01784174
#
# Stress axis : x y z
#
# Youngs Moduli (GPa) = 62.47908 99.60306 76.17355
#
# Poissons Ratio (x) = 0.30973 0.30334
# Poissons Ratio (y) = 0.19429 0.27222
# Poissons Ratio (z) = 0.24881 0.35595
#
# Static dielectric constant tensor:
#      x y z
#    x 3.347840 0.000000 0.000000 
#    y 0.000000 2.777720 0.000000 
#    z 0.000000 0.000000 3.418840 
# 
# 
# High freq. dielectric constant tensor:
#      x y z
#    x 1.721460 0.000000 0.000000 
#    y 0.000000 1.741330 0.000000 
#    z 0.000000 0.000000 1.719650 
# 
# From -- ./inp_files/31711.got.cif
#   From: 2010.03.12/outbox.cif.g09.slc.cpg/sg51_16_cif.got.tgz:31711.got - 2010.04.16 13:43:02.
