data_PCOD8209515
_publ_section_title
;
Structure prediction by ZEFSAII (Michael W. Deem and Ramdas Pophale) SiO2 
 PCOD8209515
Probable space group: P M M A
;
_chemical_formula_sum "Si O2"
_cell_formula_units_Z 64
_cell_length_a 18.599530
_cell_length_b 9.340302
_cell_length_c 19.693867
_cell_angle_alpha 90.000000
_cell_angle_beta 90.000000
_cell_angle_gamma 90.000000
_cell_volume 3421.321520
_symmetry_space_group_name_H-M "P M M A"
_symmetry_group_IT_number 51
_symmetry_cell_setting 'orthorhombic'
loop_
_space_group_symop_operation_xyz
x,y,z
1/2-x,-y,z
1/2+x,-y,-z
-x,y,-z
-x,-y,-z
1/2+x,y,-z
1/2-x,y,z
x,-y,z
loop_
_atom_site_type_symbol
_atom_site_label
_atom_site_fract_x
_atom_site_fract_y
_atom_site_fract_z
Si Si1 0.581532 0.335131 0.148475
Si Si2 0.945656 0.166780 0.649630
Si Si3 0.834130 0.164921 0.883579
Si Si4 0.419079 0.167587 0.983936
Si Si5 0.930839 0.666043 0.787517
Si Si6 0.397651 0.833578 0.599187
Si Si7 0.668751 0.830040 0.540726
Si Si8 0.833505 0.663429 0.278370
O O1 0.600944 0.500000 0.135761
O O2 0.607559 0.247716 0.083233
O O3 0.496928 0.313163 0.161012
O O4 0.624322 0.275121 0.213405
O O5 0.950000 0.261238 0.716578
O O6 0.877437 0.219718 0.605698
O O7 0.017248 0.193658 0.605422
O O8 0.938711 0.000000 0.669740
O O9 0.750000 0.188619 0.889702
O O10 0.861959 0.258976 0.820892
O O11 0.854334 0.000000 0.869106
O O12 0.869062 0.216474 0.953980
O O13 0.412888 0.000000 0.969737
O O14 0.500000 0.214404 0.000000
O O15 0.913997 0.500000 0.774480
O O16 0.369992 0.772441 0.527192
O O17 0.352939 0.754663 0.656532
O O18 0.379369 0.000000 0.606105
O O19 0.750000 0.768581 0.546472
O O20 0.670109 0.000000 0.538466
O O21 0.750000 0.676425 0.262503
O O22 0.857139 0.500000 0.291985
#
# Coordination Sequence:
#
# PCOD8209515 Si02
#       8
#     8   8   8   8   8   8   8   8
#     4  10  21  36  55  80 110 146 184 222 270 327
#     4  10  20  34  56  83 110 145 188 231 281 337
#     4  10  22  40  60  84 115 149 186 230 283 337
#     4  10  20  35  58  84 109 140 180 225 272 323
#     4  11  22  37  58  83 113 148 189 234 276 325
#     4  10  19  33  56  83 110 141 183 233 277 327
#     4   9  18  33  53  79 111 144 182 230 283 335
#     4  10  21  37  55  78 112 149 181 217 270 332
#
# _framework density 18.706222
#
# number of rings (size 3 to 8) (size 9 to 14) (size 15 to 20)
#    0.000    2.000    2.500    1.125    0.000    5.250 
#    0.000    1.875    0.000    2.250    0.000    0.000 
#    0.000    0.000    0.000    0.000    0.000    0.000 
#
# Total GULP energy -793826.384979 kJ/mol
# GULP energy per Si atom -12403.537265 kJ/mol
# Density = 1.866365 g / cm^3
# Si number density = 18.706222 Si / 1000 Ang^3
#
#
#
# Elastic Constant Matrix: (Units=GPa)
#
#
# Indices 1 2 3 4 5 6 
#
# 1 88.0976 27.9961 24.8755 0.0000 0.0000 0.0000
# 2 27.9961 55.1423 37.9906 0.0000 0.0000 0.0000
# 3 24.8755 37.9906 82.8549 0.0000 0.0000 0.0000
# 4 0.0000 0.0000 0.0000 5.2094 0.0000 0.0000
# 5 0.0000 0.0000 0.0000 0.0000 35.8525 0.0000
# 6 0.0000 0.0000 0.0000 0.0000 0.0000 20.1658
#
#
#
# Elastic Compliance Matrix: (Units=1/GPa)
#
#
# Indices 1 2 3 4 5 6 
#
# 1 0.013636 -0.005997 -0.001344 0.000000 0.000000 0.000000
# 2 -0.005997 0.029147 -0.011564 0.000000 0.000000 0.000000
# 3 -0.001344 -0.011564 0.017775 0.000000 0.000000 0.000000
# 4 0.000000 0.000000 0.000000 0.191960 0.000000 0.000000
# 5 0.000000 0.000000 0.000000 0.000000 0.027892 0.000000
# 6 0.000000 0.000000 0.000000 0.000000 0.000000 0.049589
#
#
# Mechanical properties :
#
#
# Convention : Reuss Voigt Hill
#
# Bulk Modulus (GPa) = 43.96037 45.31325 44.63681
# Shear Modulus (GPa) = 13.31939 21.26104 17.29022
#
# Velocity S-wave (km/s) = 2.67128 3.37497 3.04353
# Velocity P-wave (km/s) = 5.75028 6.28199 6.02201
#
# Compressibility (1/GPa) = 0.02274776
#
# Stress axis : x y z
#
# Youngs Moduli (GPa) = 73.33298 34.30929 56.25856
#
# Poissons Ratio (x) = 0.20576 0.07562
# Poissons Ratio (y) = 0.43979 0.65056
# Poissons Ratio (z) = 0.09858 0.39674
#
# Static dielectric constant tensor:
#      x y z
#    x 3.543640 0.000000 0.000000 
#    y 0.000000 3.255360 0.000000 
#    z 0.000000 0.000000 3.455550 
# 
# 
# High freq. dielectric constant tensor:
#      x y z
#    x 1.731510 0.000000 0.000000 
#    y 0.000000 1.704910 0.000000 
#    z 0.000000 0.000000 1.733870 
# 
# From -- ./inp_files/30641.got.cif
#   From: 2010.03.12/outbox.cif.g09.slc.cpg/sg51_16_cif.got.tgz:30641.got - 2010.04.16 13:43:02.
