data_PCOD8209200
_publ_section_title
;
Structure prediction by ZEFSAII (Michael W. Deem and Ramdas Pophale) SiO2 
 PCOD8209200
Probable space group: P M M A
;
_chemical_formula_sum "Si O2"
_cell_formula_units_Z 64
_cell_length_a 8.841600
_cell_length_b 31.361341
_cell_length_c 14.414141
_cell_angle_alpha 90.000000
_cell_angle_beta 90.000000
_cell_angle_gamma 90.000000
_cell_volume 3996.816908
_symmetry_space_group_name_H-M "P M M A"
_symmetry_group_IT_number 51
_symmetry_cell_setting 'orthorhombic'
loop_
_space_group_symop_operation_xyz
x,y,z
1/2-x,-y,z
1/2+x,-y,-z
-x,y,-z
-x,-y,-z
1/2+x,y,-z
1/2-x,y,z
x,-y,z
loop_
_atom_site_type_symbol
_atom_site_label
_atom_site_fract_x
_atom_site_fract_y
_atom_site_fract_z
Si Si1 0.572117 0.862892 0.899854
Si Si2 0.928495 0.547829 0.097344
Si Si3 0.071945 0.758983 0.595711
Si Si4 0.429581 0.217146 0.218816
Si Si5 0.073563 0.659726 0.594137
Si Si6 0.572431 0.044980 0.900291
Si Si7 0.070562 0.373571 0.786583
Si Si8 0.929768 0.707903 0.100447
O O1 0.750000 0.859990 0.914871
O O2 0.518217 0.826876 0.828685
O O3 0.524358 0.909407 0.855366
O O4 0.500000 0.854786 0.000000
O O5 0.750000 0.551038 0.085378
O O6 0.978590 0.500000 0.126130
O O7 0.986358 0.580568 0.176107
O O8 0.000000 0.561298 0.000000
O O9 0.250000 0.768045 0.596763
O O10 0.035329 0.709172 0.609608
O O11 0.000000 0.775382 0.500000
O O12 0.989412 0.785097 0.676429
O O13 0.250000 0.223781 0.216564
O O14 0.511337 0.255430 0.166987
O O15 0.250000 0.652092 0.584202
O O16 0.006119 0.634240 0.682872
O O17 0.000000 0.641891 0.500000
O O18 0.750000 0.045449 0.914103
O O19 0.526124 0.000000 0.847454
O O20 0.500000 0.043690 0.000000
O O21 0.250000 0.371581 0.780976
O O22 0.014937 0.337066 0.857192
O O23 0.750000 0.710811 0.093743
O O24 0.000000 0.713916 0.000000
#
# Coordination Sequence:
#
# PCOD8209200 Si02
#       8
#     8   8   8   8   8   8   8   8
#     4   9  18  29  41  60  87 120 155 188 223 264
#     4   9  17  30  49  70  91 117 147 180 220 265
#     4  10  19  33  51  69  89 116 149 189 229 268
#     4  11  21  32  45  64  91 123 155 186 221 268
#     4   9  17  31  48  67  88 113 142 180 221 261
#     4   8  13  23  39  57  78 107 145 187 226 262
#     4   9  17  31  48  66  91 117 146 183 223 265
#     4  11  21  33  45  62  89 122 155 189 224 262
#
# _framework density 16.012743
#
# number of rings (size 3 to 8) (size 9 to 14) (size 15 to 20)
#    0.000    2.500    1.250    1.875    0.000    2.500 
#    0.000    1.250    0.000    0.375    0.000    0.000 
#    0.000    0.500    0.000    0.875    0.000    1.500 
#
# Total GULP energy -793088.950034 kJ/mol
# GULP energy per Si atom -12392.014844 kJ/mol
# Density = 1.597630 g / cm^3
# Si number density = 16.012743 Si / 1000 Ang^3
#
#
#
# Elastic Constant Matrix: (Units=GPa)
#
#
# Indices 1 2 3 4 5 6 
#
# 1 34.2827 27.0134 27.5889 0.0000 0.0000 0.0000
# 2 27.0134 117.1734 59.2790 0.0000 0.0000 0.0000
# 3 27.5889 59.2790 117.0291 0.0000 0.0000 0.0000
# 4 0.0000 0.0000 0.0000 10.7679 0.0000 0.0000
# 5 0.0000 0.0000 0.0000 0.0000 25.6478 0.0000
# 6 0.0000 0.0000 0.0000 0.0000 0.0000 14.9295
#
#
#
# Elastic Compliance Matrix: (Units=1/GPa)
#
#
# Indices 1 2 3 4 5 6 
#
# 1 0.038718 -0.005793 -0.006193 0.000000 0.000000 0.000000
# 2 -0.005793 0.012342 -0.004886 0.000000 0.000000 0.000000
# 3 -0.006193 -0.004886 0.012480 0.000000 0.000000 0.000000
# 4 0.000000 0.000000 0.000000 0.092869 0.000000 0.000000
# 5 0.000000 0.000000 0.000000 0.000000 0.038990 0.000000
# 6 0.000000 0.000000 0.000000 0.000000 0.000000 0.066982
#
#
# Mechanical properties :
#
#
# Convention : Reuss Voigt Hill
#
# Bulk Modulus (GPa) = 33.56229 55.13862 44.35046
# Shear Modulus (GPa) = 16.33696 20.57597 18.45646
#
# Velocity S-wave (km/s) = 3.19760 3.58854 3.39870
# Velocity P-wave (km/s) = 5.88541 7.18882 6.56952
#
# Compressibility (1/GPa) = 0.02979535
#
# Stress axis : x y z
#
# Youngs Moduli (GPa) = 25.82796 81.02670 80.13014
#
# Poissons Ratio (x) = 0.46938 0.49626
# Poissons Ratio (y) = 0.14962 0.39150
# Poissons Ratio (z) = 0.15996 0.39588
#
# Static dielectric constant tensor:
#      x y z
#    x 2.961940 0.000000 0.000000 
#    y 0.000000 3.511580 0.000000 
#    z 0.000000 0.000000 3.077800 
# 
# 
# High freq. dielectric constant tensor:
#      x y z
#    x 1.611260 0.000000 0.000000 
#    y 0.000000 1.612050 0.000000 
#    z 0.000000 0.000000 1.595920 
# 
# From -- ./inp_files/22608.got.cif
#   From: 2010.03.12/outbox.cif.g09.slc.cpg/sg51_12_cif.got.tgz:22608.got - 2010.04.16 13:43:02.
