data_PCOD8209502
_publ_section_title
;
Structure prediction by ZEFSAII (Michael W. Deem and Ramdas Pophale) SiO2 
 PCOD8209502
Probable space group: P M M A
;
_chemical_formula_sum "Si O2"
_cell_formula_units_Z 64
_cell_length_a 19.930657
_cell_length_b 9.126428
_cell_length_c 20.067786
_cell_angle_alpha 90.000000
_cell_angle_beta 90.000000
_cell_angle_gamma 90.000000
_cell_volume 3650.244104
_symmetry_space_group_name_H-M "P M M A"
_symmetry_group_IT_number 51
_symmetry_cell_setting 'orthorhombic'
loop_
_space_group_symop_operation_xyz
x,y,z
1/2-x,-y,z
1/2+x,-y,-z
-x,y,-z
-x,-y,-z
1/2+x,y,-z
1/2-x,y,z
x,-y,z
loop_
_atom_site_type_symbol
_atom_site_label
_atom_site_fract_x
_atom_site_fract_y
_atom_site_fract_z
Si Si1 0.084918 0.827947 0.825318
Si Si2 0.826882 0.167123 0.423673
Si Si3 0.432724 0.172459 0.198386
Si Si4 0.606161 0.329332 0.307348
Si Si5 0.952689 0.671219 0.668103
Si Si6 0.825184 0.174060 0.906959
Si Si7 0.568857 0.171453 0.534932
Si Si8 0.325006 0.174002 0.944957
O O1 0.119026 0.748673 0.762864
O O2 0.121070 0.766425 0.891730
O O3 0.006254 0.790083 0.830410
O O4 0.096862 0.000000 0.816227
O O5 0.750000 0.185118 0.444652
O O6 0.841299 0.267984 0.360362
O O7 0.870484 0.216604 0.486794
O O8 0.844650 0.000000 0.404310
O O9 0.419273 0.254017 0.267695
O O10 0.378759 0.235712 0.145850
O O11 0.424354 0.000000 0.210669
O O12 0.618759 0.500000 0.297553
O O13 0.531722 0.294484 0.333531
O O14 0.937303 0.500000 0.670668
O O15 0.919699 0.739414 0.602532
O O16 0.750000 0.225299 0.887051
O O17 0.828906 0.000000 0.907300
O O18 0.843272 0.233031 0.981070
O O19 0.500000 0.220132 0.500000
O O20 0.568115 0.000000 0.552199
O O21 0.250000 0.226559 0.925143
O O22 0.327294 0.000000 0.946085
#
# Coordination Sequence:
#
# PCOD8209502 Si02
#       8
#     8   8   8   8   8   8   8   8
#     4   9  17  28  45  70  98 126 159 199 243 289
#     4  10  21  36  53  75 102 129 159 198 243 288
#     4   9  17  29  47  71  97 124 158 203 245 285
#     4  10  20  33  49  70  98 131 165 199 237 285
#     4  10  20  33  51  74  99 128 163 200 240 289
#     4   8  14  26  45  69  95 123 158 201 249 295
#     4  10  19  33  56  79  97 124 162 202 240 284
#     4   8  14  25  42  66  95 124 156 197 244 293
#
# _framework density 17.533073999999999
#
# number of rings (size 3 to 8) (size 9 to 14) (size 15 to 20)
#    0.000    2.750    1.250    1.500    0.000    3.000 
#    0.000    4.375    0.000    4.875    0.000    5.250 
#    0.000    0.000    0.000    0.000    0.000    0.000 
#
# Total GULP energy -793595.652019 kJ/mol
# GULP energy per Si atom -12399.932063 kJ/mol
# Density = 1.749317 g / cm^3
# Si number density = 17.533074 Si / 1000 Ang^3
#
#
#
# Elastic Constant Matrix: (Units=GPa)
#
#
# Indices 1 2 3 4 5 6 
#
# 1 99.9459 30.5502 85.0276 0.0000 0.0000 0.0000
# 2 30.5502 42.7601 47.7212 0.0000 0.0000 0.0000
# 3 85.0276 47.7212 164.2305 0.0000 0.0000 0.0000
# 4 0.0000 0.0000 0.0000 1.2588 0.0000 0.0000
# 5 0.0000 0.0000 0.0000 0.0000 32.6792 0.0000
# 6 0.0000 0.0000 0.0000 0.0000 0.0000 12.4962
#
#
#
# Elastic Compliance Matrix: (Units=1/GPa)
#
#
# Indices 1 2 3 4 5 6 
#
# 1 0.018267 -0.003694 -0.008384 0.000000 0.000000 0.000000
# 2 -0.003694 0.035357 -0.008361 0.000000 0.000000 0.000000
# 3 -0.008384 -0.008361 0.012859 0.000000 0.000000 0.000000
# 4 0.000000 0.000000 0.000000 0.794389 0.000000 0.000000
# 5 0.000000 0.000000 0.000000 0.000000 0.030601 0.000000
# 6 0.000000 0.000000 0.000000 0.000000 0.000000 0.080024
#
#
# Mechanical properties :
#
#
# Convention : Reuss Voigt Hill
#
# Bulk Modulus (GPa) = 39.05590 70.39274 54.72432
# Shear Modulus (GPa) = 4.89758 18.86268 11.88013
#
# Velocity S-wave (km/s) = 1.67314 3.28355 2.60587
# Velocity P-wave (km/s) = 5.10455 7.38995 6.35090
#
# Compressibility (1/GPa) = 0.02560433
#
# Stress axis : x y z
#
# Youngs Moduli (GPa) = 54.74251 28.28301 77.76487
#
# Poissons Ratio (x) = 0.10449 0.65199
# Poissons Ratio (y) = 0.20224 0.65020
# Poissons Ratio (z) = 0.45897 0.23648
#
# Static dielectric constant tensor:
#      x y z
#    x 3.266960 0.000000 0.000000 
#    y 0.000000 2.941970 0.000000 
#    z 0.000000 0.000000 3.428800 
# 
# 
# High freq. dielectric constant tensor:
#      x y z
#    x 1.666880 0.000000 0.000000 
#    y 0.000000 1.647060 0.000000 
#    z 0.000000 0.000000 1.685410 
# 
# From -- ./inp_files/33774.got.cif
#   From: 2010.03.12/outbox.cif.g09.slc.cpg/sg51_17_cif.got.tgz:33774.got - 2010.04.16 13:43:02.
