data_PCOD8209568
_publ_section_title
;
Structure prediction by ZEFSAII (Michael W. Deem and Ramdas Pophale) SiO2 
 PCOD8209568
Probable space group: P M M A
;
_chemical_formula_sum "Si O2"
_cell_formula_units_Z 48
_cell_length_a 30.807067
_cell_length_b 9.209517
_cell_length_c 9.481056
_cell_angle_alpha 90.000000
_cell_angle_beta 90.000000
_cell_angle_gamma 90.000000
_cell_volume 2689.948211
_symmetry_space_group_name_H-M "P M M A"
_symmetry_group_IT_number 51
_symmetry_cell_setting 'orthorhombic'
loop_
_space_group_symop_operation_xyz
x,y,z
1/2-x,-y,z
1/2+x,-y,-z
-x,y,-z
-x,-y,-z
1/2+x,y,-z
1/2-x,y,z
x,-y,z
loop_
_atom_site_type_symbol
_atom_site_label
_atom_site_fract_x
_atom_site_fract_y
_atom_site_fract_z
Si Si1 0.138340 0.669312 0.585517
Si Si2 0.932234 0.830504 0.235388
Si Si3 0.108444 0.666914 0.279946
Si Si4 0.988674 0.670574 0.660385
Si Si5 0.368022 0.166027 0.008384
Si Si6 0.300005 0.169556 0.777012
O O1 0.135436 0.500000 0.625795
O O2 0.096741 0.749549 0.648978
O O3 0.137910 0.691564 0.417679
O O4 0.182775 0.738608 0.643987
O O5 0.979881 0.760090 0.235737
O O6 0.934301 0.000000 0.274468
O O7 0.911984 0.807569 0.080381
O O8 0.105654 0.500000 0.239018
O O9 0.059833 0.725033 0.307064
O O10 0.131734 0.745701 0.151744
O O11 0.994769 0.500000 0.688284
O O12 0.000000 0.709849 0.500000
O O13 0.362948 0.000000 0.051557
O O14 0.326675 0.216244 0.915785
O O15 0.250000 0.206720 0.802862
O O16 0.307799 0.000000 0.744154
#
# Coordination Sequence:
#
# PCOD8209568 Si02
#       6
#     8   8   8   8   8   8
#     4  10  19  34  55  79 108 138 173 217 263 311
#     4  10  20  34  52  77 105 140 184 223 263 308
#     4  10  21  35  52  76 107 143 178 218 266 314
#     4  10  19  34  52  73 105 143 185 227 267 307
#     4   9  20  36  53  76 108 141 173 217 267 317
#     4   9  19  38  61  83 106 134 172 215 261 319
#
# _framework density 17.844208999999999
#
# number of rings (size 3 to 8) (size 9 to 14) (size 15 to 20)
#    0.000    2.333    1.667    2.000    0.000    6.667 
#    0.000    4.167    0.000    3.000    0.000    0.000 
#    0.000    0.000    0.000    0.000    0.000    0.000 
#
# Total GULP energy -595282.555418 kJ/mol
# GULP energy per Si atom -12401.719905 kJ/mol
# Density = 1.780359 g / cm^3
# Si number density = 17.844209 Si / 1000 Ang^3
#
#
#
# Elastic Constant Matrix: (Units=GPa)
#
#
# Indices 1 2 3 4 5 6 
#
# 1 121.7968 47.4875 57.5601 0.0000 0.0000 0.0000
# 2 47.4875 77.1509 56.6322 0.0000 0.0000 0.0000
# 3 57.5601 56.6322 108.2250 0.0000 0.0000 0.0000
# 4 0.0000 0.0000 0.0000 25.2532 0.0000 0.0000
# 5 0.0000 0.0000 0.0000 0.0000 19.2430 0.0000
# 6 0.0000 0.0000 0.0000 0.0000 0.0000 25.1827
#
#
#
# Elastic Compliance Matrix: (Units=1/GPa)
#
#
# Indices 1 2 3 4 5 6 
#
# 1 0.011788 -0.004308 -0.004015 0.000000 0.000000 0.000000
# 2 -0.004308 0.022620 -0.009545 0.000000 0.000000 0.000000
# 3 -0.004015 -0.009545 0.016370 0.000000 0.000000 0.000000
# 4 0.000000 0.000000 0.000000 0.039599 0.000000 0.000000
# 5 0.000000 0.000000 0.000000 0.000000 0.051967 0.000000
# 6 0.000000 0.000000 0.000000 0.000000 0.000000 0.039710
#
#
# Mechanical properties :
#
#
# Convention : Reuss Voigt Hill
#
# Bulk Modulus (GPa) = 66.48503 70.05915 68.27209
# Shear Modulus (GPa) = 22.44126 23.63532 23.03829
#
# Velocity S-wave (km/s) = 3.55014 3.64337 3.59706
# Velocity P-wave (km/s) = 7.35827 7.55286 7.45620
#
# Compressibility (1/GPa) = 0.01504098
#
# Stress axis : x y z
#
# Youngs Moduli (GPa) = 84.83533 44.20845 61.08677
#
# Poissons Ratio (x) = 0.19047 0.24525
# Poissons Ratio (y) = 0.36550 0.58309
# Poissons Ratio (z) = 0.34060 0.42198
#
# Static dielectric constant tensor:
#      x y z
#    x 3.314470 0.000000 0.000000 
#    y 0.000000 3.320440 0.000000 
#    z 0.000000 0.000000 3.170000 
# 
# 
# High freq. dielectric constant tensor:
#      x y z
#    x 1.681800 0.000000 0.000000 
#    y 0.000000 1.692890 0.000000 
#    z 0.000000 0.000000 1.682120 
# 
# From -- ./inp_files/12829.got.cif
#   From: 2010.03.12/outbox.cif.g09.slc.cpg/sg51_7_cif.got.tgz:12829.got - 2010.04.16 13:43:02.
