data_PCOD8209441
_publ_section_title
;
Structure prediction by ZEFSAII (Michael W. Deem and Ramdas Pophale) SiO2 
 PCOD8209441
Probable space group: P M M A
;
_chemical_formula_sum "Si O2"
_cell_formula_units_Z 48
_cell_length_a 26.895345
_cell_length_b 8.796914
_cell_length_c 10.374963
_cell_angle_alpha 90.000000
_cell_angle_beta 90.000000
_cell_angle_gamma 90.000000
_cell_volume 2454.675129
_symmetry_space_group_name_H-M "P M M A"
_symmetry_group_IT_number 51
_symmetry_cell_setting 'orthorhombic'
loop_
_space_group_symop_operation_xyz
x,y,z
1/2-x,-y,z
1/2+x,-y,-z
-x,y,-z
-x,-y,-z
1/2+x,y,-z
1/2-x,y,z
x,-y,z
loop_
_atom_site_type_symbol
_atom_site_label
_atom_site_fract_x
_atom_site_fract_y
_atom_site_fract_z
Si Si1 0.525348 0.318790 0.628947
Si Si2 0.692397 0.823212 0.884479
Si Si3 0.194019 0.319308 0.607244
Si Si4 0.644079 0.680599 0.129192
Si Si5 0.468955 0.319013 0.879109
Si Si6 0.637787 0.680743 0.644812
O O1 0.500000 0.254218 0.500000
O O2 0.524619 0.500000 0.628354
O O3 0.494361 0.254971 0.749889
O O4 0.581558 0.258639 0.636329
O O5 0.750000 0.791123 0.858220
O O6 0.661250 0.740403 0.775324
O O7 0.679737 0.000000 0.882347
O O8 0.678545 0.756129 0.022643
O O9 0.250000 0.254226 0.612933
O O10 0.194798 0.500000 0.603048
O O11 0.163641 0.263868 0.731898
O O12 0.167531 0.255583 0.478895
O O13 0.647783 0.500000 0.115231
O O14 0.587627 0.738556 0.112465
O O15 0.469965 0.500000 0.878200
O O16 0.500000 0.254905 0.000000
O O17 0.639225 0.500000 0.648177
#
# Coordination Sequence:
#
# PCOD8209441 Si02
#       6
#     8   8   8   8   8   8
#     4   9  16  27  47  78 111 136 162 204 257 308
#     4  11  24  39  53  73 104 140 178 222 268 311
#     4   9  17  29  48  77 106 128 162 215 262 301
#     4  10  19  33  55  79 103 135 173 213 260 313
#     4   9  16  26  43  71 103 130 161 203 248 296
#     4  10  19  33  56  82 107 139 176 213 257 312
#
# _framework density 19.554521000000001
#
# number of rings (size 3 to 8) (size 9 to 14) (size 15 to 20)
#    0.000    2.333    0.000    3.500    0.000    9.333 
#    0.000    0.833    0.000    8.000    0.000    0.000 
#    0.000    0.000    0.000    0.000    0.000    0.000 
#
# Total GULP energy -595276.606554 kJ/mol
# GULP energy per Si atom -12401.595970 kJ/mol
# Density = 1.951001 g / cm^3
# Si number density = 19.554521 Si / 1000 Ang^3
#
#
#
# Elastic Constant Matrix: (Units=GPa)
#
#
# Indices 1 2 3 4 5 6 
#
# 1 109.8599 17.5568 29.6232 0.0000 0.0000 0.0000
# 2 17.5568 12.8132 7.6785 0.0000 0.0000 0.0000
# 3 29.6232 7.6785 122.9267 0.0000 0.0000 0.0000
# 4 0.0000 0.0000 0.0000 -1.2357 0.0000 0.0000
# 5 0.0000 0.0000 0.0000 0.0000 47.1849 0.0000
# 6 0.0000 0.0000 0.0000 0.0000 0.0000 8.5149
#
#
#
# Elastic Compliance Matrix: (Units=1/GPa)
#
#
# Indices 1 2 3 4 5 6 
#
# 1 0.012089 -0.015395 -0.001952 0.000000 0.000000 0.000000
# 2 -0.015395 0.100684 -0.002579 0.000000 0.000000 0.000000
# 3 -0.001952 -0.002579 0.008766 0.000000 0.000000 0.000000
# 4 0.000000 0.000000 0.000000 -0.809234 0.000000 0.000000
# 5 0.000000 0.000000 0.000000 0.000000 0.021193 0.000000
# 6 0.000000 0.000000 0.000000 0.000000 0.000000 0.117441
#
#
# Mechanical properties :
#
#
# Convention : Reuss Voigt Hill
#
# Bulk Modulus (GPa) = 12.24170 39.47965 25.86067
# Shear Modulus (GPa) = -10.37389 23.60893 6.61752
#
# Velocity S-wave (km/s) = -2.30578 3.47845 1.84160
# Velocity P-wave (km/s) = 0.90275 6.03044 4.21611
#
# Compressibility (1/GPa) = 0.08168799
#
# Stress axis : x y z
#
# Youngs Moduli (GPa) = 82.71980 9.93205 114.07266
#
# Poissons Ratio (x) = 0.15290 0.22263
# Poissons Ratio (y) = 1.27346 0.29422
# Poissons Ratio (z) = 0.16144 0.02562
#
# Static dielectric constant tensor:
#      x y z
#    x 3.850160 0.000000 0.000000 
#    y 0.000000 2.930560 0.000000 
#    z 0.000000 0.000000 3.791180 
# 
# 
# High freq. dielectric constant tensor:
#      x y z
#    x 1.782440 0.000000 0.000000 
#    y 0.000000 1.694210 0.000000 
#    z 0.000000 0.000000 1.782510 
# 
# From -- ./inp_files/12745.got.cif
#   From: 2010.03.12/outbox.cif.g09.slc.cpg/sg51_7_cif.got.tgz:12745.got - 2010.04.16 13:43:02.
