data_PCOD8209599
_publ_section_title
;
Structure prediction by ZEFSAII (Michael W. Deem and Ramdas Pophale) SiO2 
 PCOD8209599
Probable space group: P M M A
;
_chemical_formula_sum "Si O2"
_cell_formula_units_Z 40
_cell_length_a 25.486088
_cell_length_b 8.655876
_cell_length_c 9.612786
_cell_angle_alpha 90.000000
_cell_angle_beta 90.000000
_cell_angle_gamma 90.000000
_cell_volume 2120.623056
_symmetry_space_group_name_H-M "P M M A"
_symmetry_group_IT_number 51
_symmetry_cell_setting 'orthorhombic'
loop_
_space_group_symop_operation_xyz
x,y,z
1/2-x,-y,z
1/2+x,-y,-z
-x,y,-z
-x,-y,-z
1/2+x,y,-z
1/2-x,y,z
x,-y,z
loop_
_atom_site_type_symbol
_atom_site_label
_atom_site_fract_x
_atom_site_fract_y
_atom_site_fract_z
Si Si1 0.340336 0.180233 0.099402
Si Si2 0.658829 0.817421 0.588134
Si Si3 0.750000 0.681831 0.405089
Si Si4 0.250000 0.184470 0.901568
Si Si5 0.042292 0.180369 0.112819
Si Si6 0.548262 0.680273 0.594784
O O1 0.329980 0.245338 0.255183
O O2 0.399798 0.216380 0.052222
O O3 0.329652 0.000000 0.107854
O O4 0.300623 0.249578 0.985638
O O5 0.698116 0.737594 0.482590
O O6 0.599420 0.774957 0.546572
O O7 0.666295 0.000000 0.577872
O O8 0.750000 0.500000 0.399032
O O9 0.750000 0.746088 0.250296
O O10 0.250000 0.000000 0.888883
O O11 0.031808 0.281329 0.248296
O O12 0.037330 0.000000 0.151904
O O13 0.000000 0.232148 0.000000
O O14 0.500000 0.733081 0.500000
O O15 0.560480 0.500000 0.579220
#
# Coordination Sequence:
#
# PCOD8209599 Si02
#       6
#     8   8   4   4   8   8
#     4   8  16  32  55  79 101 130 176 228 266 307
#     4  10  20  38  62  83 104 140 189 230 268 320
#     4  12  25  38  52  80 118 146 175 220 274 326
#     4  10  19  34  54  76 104 138 175 216 266 318
#     4   9  18  33  53  78 106 139 183 227 265 314
#     4  10  21  36  54  81 116 148 179 221 275 329
#
# _framework density 18.862380999999999
#
# number of rings (size 3 to 8) (size 9 to 14) (size 15 to 20)
#    0.000    2.400    0.000    3.900    0.000    5.200 
#    0.000    8.000    0.000    0.000    0.000    0.000 
#    0.000    0.000    0.000    0.000    0.000    0.000 
#
# Total GULP energy -495977.849898 kJ/mol
# GULP energy per Si atom -12399.446247 kJ/mol
# Density = 1.881945 g / cm^3
# Si number density = 18.862381 Si / 1000 Ang^3
#
#
#
# Elastic Constant Matrix: (Units=GPa)
#
#
# Indices 1 2 3 4 5 6 
#
# 1 155.6657 33.6377 104.8363 0.0000 0.0000 0.0000
# 2 33.6377 46.4282 34.7445 0.0000 0.0000 0.0000
# 3 104.8363 34.7445 133.5497 0.0000 0.0000 0.0000
# 4 0.0000 0.0000 0.0000 15.7919 0.0000 0.0000
# 5 0.0000 0.0000 0.0000 0.0000 42.1992 0.0000
# 6 0.0000 0.0000 0.0000 0.0000 0.0000 21.0490
#
#
#
# Elastic Compliance Matrix: (Units=1/GPa)
#
#
# Indices 1 2 3 4 5 6 
#
# 1 0.013834 -0.002354 -0.010247 0.000000 0.000000 0.000000
# 2 -0.002354 0.027147 -0.005214 0.000000 0.000000 0.000000
# 3 -0.010247 -0.005214 0.016888 0.000000 0.000000 0.000000
# 4 0.000000 0.000000 0.000000 0.063324 0.000000 0.000000
# 5 0.000000 0.000000 0.000000 0.000000 0.023697 0.000000
# 6 0.000000 0.000000 0.000000 0.000000 0.000000 0.047508
#
#
# Mechanical properties :
#
#
# Convention : Reuss Voigt Hill
#
# Bulk Modulus (GPa) = 44.96960 75.78674 60.37817
# Shear Modulus (GPa) = 21.23668 26.63635 23.93652
#
# Velocity S-wave (km/s) = 3.35905 3.76192 3.56618
# Velocity P-wave (km/s) = 6.23994 7.68996 7.00258
#
# Compressibility (1/GPa) = 0.02223725
#
# Stress axis : x y z
#
# Youngs Moduli (GPa) = 72.28647 36.83715 59.21263
#
# Poissons Ratio (x) = 0.08673 0.60675
# Poissons Ratio (y) = 0.17019 0.30875
# Poissons Ratio (z) = 0.74072 0.19208
#
# Static dielectric constant tensor:
#      x y z
#    x 3.730420 0.000000 0.000000 
#    y 0.000000 3.252120 0.000000 
#    z 0.000000 0.000000 3.557920 
# 
# 
# High freq. dielectric constant tensor:
#      x y z
#    x 1.747440 0.000000 0.000000 
#    y 0.000000 1.713520 0.000000 
#    z 0.000000 0.000000 1.729600 
# 
# From -- ./inp_files/12137.got.cif
#   From: 2010.03.12/outbox.cif.g09.slc.cpg/sg51_7_cif.got.tgz:12137.got - 2010.04.16 13:43:02.
