data_PCOD8209038
_publ_section_title
;
Structure prediction by ZEFSAII (Michael W. Deem and Ramdas Pophale) SiO2 
 PCOD8209038
Probable space group: P M M A
;
_chemical_formula_sum "Si O2"
_cell_formula_units_Z 64
_cell_length_a 23.607304
_cell_length_b 9.782885
_cell_length_c 16.299861
_cell_angle_alpha 90.000000
_cell_angle_beta 90.000000
_cell_angle_gamma 90.000000
_cell_volume 3764.412803
_symmetry_space_group_name_H-M "P M M A"
_symmetry_group_IT_number 51
_symmetry_cell_setting 'orthorhombic'
loop_
_space_group_symop_operation_xyz
x,y,z
1/2-x,-y,z
1/2+x,-y,-z
-x,y,-z
-x,-y,-z
1/2+x,y,-z
1/2-x,y,z
x,-y,z
loop_
_atom_site_type_symbol
_atom_site_label
_atom_site_fract_x
_atom_site_fract_y
_atom_site_fract_z
Si Si1 0.886780 0.154113 0.136225
Si Si2 0.527123 0.842447 0.277843
Si Si3 0.187197 0.661512 0.483777
Si Si4 0.906411 0.160683 0.792009
Si Si5 0.813249 0.652568 0.227954
Si Si6 0.315735 0.342259 0.296397
Si Si7 0.604055 0.656941 0.378476
Si Si8 0.557698 0.157478 0.968053
O O1 0.941536 0.192517 0.191744
O O2 0.833856 0.248934 0.156159
O O3 0.868889 0.000000 0.155755
O O4 0.896926 0.174382 0.039959
O O5 0.460857 0.811278 0.265401
O O6 0.550138 0.749333 0.353023
O O7 0.537027 0.000000 0.302056
O O8 0.250000 0.720611 0.507076
O O9 0.190163 0.500000 0.495805
O O10 0.172888 0.699843 0.390472
O O11 0.135828 0.716957 0.540753
O O12 0.852919 0.244091 0.759843
O O13 0.918870 0.219658 0.883397
O O14 0.891141 0.000000 0.793344
O O15 0.750000 0.692085 0.253084
O O16 0.817340 0.500000 0.192682
O O17 0.849746 0.670072 0.308449
O O18 0.250000 0.320144 0.274037
O O19 0.332919 0.500000 0.281820
O O20 0.583638 0.500000 0.390434
O O21 0.543085 0.000000 0.948305
O O22 0.500000 0.229824 0.000000
#
# Coordination Sequence:
#
# PCOD8209038 Si02
#       8
#     8   8   8   8   8   8   8   8
#     4   9  16  28  47  68  90 118 155 196 230 267
#     4   9  17  29  45  69 100 128 151 184 237 289
#     4   8  14  28  51  73  91 119 164 208 238 272
#     4  10  19  32  53  76  96 123 159 197 239 286
#     4   9  17  28  42  63  95 129 154 183 230 282
#     4   9  19  36  55  73  95 124 158 199 245 285
#     4   9  16  27  47  72  94 120 160 201 232 270
#     4   9  15  28  51  74  92 116 157 200 233 270
#
# _framework density 17.001324
#
# number of rings (size 3 to 8) (size 9 to 14) (size 15 to 20)
#    0.000    3.000    1.250    1.125    0.000    2.500 
#    0.000    2.500    0.000   10.125    0.000    0.000 
#    0.000    0.000    0.000    0.000    0.000    0.000 
#
# Total GULP energy -793255.299034 kJ/mol
# GULP energy per Si atom -12394.614047 kJ/mol
# Density = 1.696263 g / cm^3
# Si number density = 17.001324 Si / 1000 Ang^3
#
#
#
# Elastic Constant Matrix: (Units=GPa)
#
#
# Indices 1 2 3 4 5 6 
#
# 1 81.8893 45.1740 46.3847 0.0000 0.0000 0.0000
# 2 45.1740 56.5171 37.9766 0.0000 0.0000 0.0000
# 3 46.3847 37.9766 94.6231 0.0000 0.0000 0.0000
# 4 0.0000 0.0000 0.0000 22.2506 0.0000 0.0000
# 5 0.0000 0.0000 0.0000 0.0000 20.9236 0.0000
# 6 0.0000 0.0000 0.0000 0.0000 0.0000 29.2747
#
#
#
# Elastic Compliance Matrix: (Units=1/GPa)
#
#
# Indices 1 2 3 4 5 6 
#
# 1 0.023774 -0.015297 -0.005515 0.000000 0.000000 0.000000
# 2 -0.015297 0.034070 -0.006175 0.000000 0.000000 0.000000
# 3 -0.005515 -0.006175 0.015750 0.000000 0.000000 0.000000
# 4 0.000000 0.000000 0.000000 0.044943 0.000000 0.000000
# 5 0.000000 0.000000 0.000000 0.000000 0.047793 0.000000
# 6 0.000000 0.000000 0.000000 0.000000 0.000000 0.034159
#
#
# Mechanical properties :
#
#
# Convention : Reuss Voigt Hill
#
# Bulk Modulus (GPa) = 50.96792 54.67779 52.82285
# Shear Modulus (GPa) = 19.15698 21.38940 20.27319
#
# Velocity S-wave (km/s) = 3.36042 3.55082 3.45693
# Velocity P-wave (km/s) = 6.71568 7.00299 6.86084
#
# Compressibility (1/GPa) = 0.01962019
#
# Stress axis : x y z
#
# Youngs Moduli (GPa) = 42.06336 29.35153 63.49202
#
# Poissons Ratio (x) = 0.44898 0.35014
# Poissons Ratio (y) = 0.64343 0.39208
# Poissons Ratio (z) = 0.23197 0.18125
#
# Static dielectric constant tensor:
#      x y z
#    x 3.143290 0.000000 0.000000 
#    y 0.000000 3.009030 0.000000 
#    z 0.000000 0.000000 3.218330 
# 
# 
# High freq. dielectric constant tensor:
#      x y z
#    x 1.648840 0.000000 0.000000 
#    y 0.000000 1.626250 0.000000 
#    z 0.000000 0.000000 1.649640 
# 
# From -- ./inp_files/30816.got.cif
#   From: 2010.03.12/outbox.cif.g09.slc.cpg/sg51_16_cif.got.tgz:30816.got - 2010.04.16 13:43:02.
