data_PCOD8209482
_publ_section_title
;
Structure prediction by ZEFSAII (Michael W. Deem and Ramdas Pophale) SiO2 
 PCOD8209482
Probable space group: P M M A
;
_chemical_formula_sum "Si O2"
_cell_formula_units_Z 44
_cell_length_a 9.160804
_cell_length_b 17.873671
_cell_length_c 14.232232
_cell_angle_alpha 90.000000
_cell_angle_beta 90.000000
_cell_angle_gamma 90.000000
_cell_volume 2330.345772
_symmetry_space_group_name_H-M "P M M A"
_symmetry_group_IT_number 51
_symmetry_cell_setting 'orthorhombic'
loop_
_space_group_symop_operation_xyz
x,y,z
1/2-x,-y,z
1/2+x,-y,-z
-x,y,-z
-x,-y,-z
1/2+x,y,-z
1/2-x,y,z
x,-y,z
loop_
_atom_site_type_symbol
_atom_site_label
_atom_site_fract_x
_atom_site_fract_y
_atom_site_fract_z
Si Si1 0.583965 0.415766 0.269959
Si Si2 0.420409 0.850315 0.294841
Si Si3 0.578374 0.280680 0.401039
Si Si4 0.417561 0.188553 0.089790
Si Si5 0.921700 0.360475 0.906909
Si Si6 0.079495 0.000000 0.401495
O O1 0.750000 0.399510 0.237461
O O2 0.566913 0.500000 0.308913
O O3 0.539976 0.359963 0.353702
O O4 0.477981 0.406460 0.181840
O O5 0.250000 0.831111 0.311783
O O6 0.519176 0.784941 0.335561
O O7 0.452596 0.858370 0.183637
O O8 0.467350 0.927564 0.342672
O O9 0.500000 0.276710 0.500000
O O10 0.750000 0.269392 0.415999
O O11 0.250000 0.184523 0.062702
O O12 0.465245 0.274031 0.108297
O O13 0.500000 0.153831 0.000000
O O14 0.750000 0.372675 0.916988
O O15 0.000000 0.391953 0.000000
O O16 0.000000 0.000000 0.500000
O O17 0.250000 0.000000 0.422022
#
# Coordination Sequence:
#
# PCOD8209482 Si02
#       6
#     8   8   8   8   8   4
#     4  10  22  39  56  78 110 145 185 233 281 331
#     4  10  20  38  60  85 115 149 186 228 275 329
#     4  11  23  38  59  83 108 143 185 231 281 334
#     4   9  18  32  54  82 113 145 182 224 269 322
#     4  10  19  33  55  82 111 146 185 228 277 331
#     4  10  22  38  59  84 116 150 185 230 281 328
#
# _framework density 18.881316999999999
#
# number of rings (size 3 to 8) (size 9 to 14) (size 15 to 20)
#    0.000    2.000    1.818    1.636    0.000    5.455 
#    0.000    0.455    0.000    0.000    0.000    0.000 
#    0.000    0.000    0.000    0.000    0.000    0.000 
#
# Total GULP energy -545727.184341 kJ/mol
# GULP energy per Si atom -12402.890553 kJ/mol
# Density = 1.883834 g / cm^3
# Si number density = 18.881317 Si / 1000 Ang^3
#
#
#
# Elastic Constant Matrix: (Units=GPa)
#
#
# Indices 1 2 3 4 5 6 
#
# 1 74.3478 41.0212 53.2162 0.0000 0.0000 0.0000
# 2 41.0212 103.7507 53.4348 0.0000 0.0000 0.0000
# 3 53.2162 53.4348 132.2966 0.0000 0.0000 0.0000
# 4 0.0000 0.0000 0.0000 18.3339 0.0000 0.0000
# 5 0.0000 0.0000 0.0000 0.0000 36.4864 0.0000
# 6 0.0000 0.0000 0.0000 0.0000 0.0000 19.5518
#
#
#
# Elastic Compliance Matrix: (Units=1/GPa)
#
#
# Indices 1 2 3 4 5 6 
#
# 1 0.020703 -0.004920 -0.006341 0.000000 0.000000 0.000000
# 2 -0.004920 0.013339 -0.003409 0.000000 0.000000 0.000000
# 3 -0.006341 -0.003409 0.011486 0.000000 0.000000 0.000000
# 4 0.000000 0.000000 0.000000 0.054544 0.000000 0.000000
# 5 0.000000 0.000000 0.000000 0.000000 0.027408 0.000000
# 6 0.000000 0.000000 0.000000 0.000000 0.000000 0.051146
#
#
# Mechanical properties :
#
#
# Convention : Reuss Voigt Hill
#
# Bulk Modulus (GPa) = 61.76682 67.30437 64.53560
# Shear Modulus (GPa) = 23.43433 25.72260 24.57846
#
# Velocity S-wave (km/s) = 3.52680 3.69498 3.61187
# Velocity P-wave (km/s) = 7.02628 7.34352 7.18665
#
# Compressibility (1/GPa) = 0.01618992
#
# Stress axis : x y z
#
# Youngs Moduli (GPa) = 48.30112 74.96586 87.06181
#
# Poissons Ratio (x) = 0.36884 0.55203
# Poissons Ratio (y) = 0.23765 0.29677
# Poissons Ratio (z) = 0.30626 0.25554
#
# Static dielectric constant tensor:
#      x y z
#    x 3.469970 0.000000 0.000000 
#    y 0.000000 3.441460 0.000000 
#    z 0.000000 0.000000 3.540600 
# 
# 
# High freq. dielectric constant tensor:
#      x y z
#    x 1.735210 0.000000 0.000000 
#    y 0.000000 1.721170 0.000000 
#    z 0.000000 0.000000 1.741680 
# 
# From -- ./inp_files/20875.got.cif
#   From: 2010.03.12/outbox.cif.g09.slc.cpg/sg51_11_cif.got.tgz:20875.got - 2010.04.16 13:43:02.
