data_PCOD8209838
_publ_section_title
;
Structure prediction by ZEFSAII (Michael W. Deem and Ramdas Pophale) SiO2 
 PCOD8209838
Probable space group: P M M A
;
_chemical_formula_sum "Si O2"
_cell_formula_units_Z 56
_cell_length_a 14.744797
_cell_length_b 8.904475
_cell_length_c 21.892019
_cell_angle_alpha 90.000000
_cell_angle_beta 90.000000
_cell_angle_gamma 90.000000
_cell_volume 2874.305547
_symmetry_space_group_name_H-M "P M M A"
_symmetry_group_IT_number 51
_symmetry_cell_setting 'orthorhombic'
loop_
_space_group_symop_operation_xyz
x,y,z
1/2-x,-y,z
1/2+x,-y,-z
-x,y,-z
-x,-y,-z
1/2+x,y,-z
1/2-x,y,z
x,-y,z
loop_
_atom_site_type_symbol
_atom_site_label
_atom_site_fract_x
_atom_site_fract_y
_atom_site_fract_z
Si Si1 0.650633 0.830928 0.889693
Si Si2 0.102787 0.675854 0.991332
Si Si3 0.936623 0.324386 0.444932
Si Si4 0.646784 0.672369 0.143187
Si Si5 0.989923 0.178001 0.790383
Si Si6 0.250000 0.822590 0.524760
Si Si7 0.068450 0.323741 0.334817
Si Si8 0.250000 0.177742 0.383835
O O1 0.750000 0.824538 0.858643
O O2 0.658876 0.745053 0.953474
O O3 0.578863 0.760998 0.842443
O O4 0.620698 0.000000 0.904375
O O5 0.117120 0.500000 0.995108
O O6 0.137844 0.734616 0.925973
O O7 0.000000 0.726458 0.000000
O O8 0.916894 0.500000 0.453286
O O9 0.840228 0.240842 0.443172
O O10 0.000000 0.264803 0.500000
O O11 0.989245 0.287219 0.382850
O O12 0.750000 0.684004 0.164865
O O13 0.611998 0.500000 0.146469
O O14 0.590530 0.776474 0.189067
O O15 0.966329 0.263338 0.729068
O O16 0.982083 0.000000 0.780361
O O17 0.250000 0.772332 0.454286
O O18 0.250000 0.000000 0.532295
O O19 0.087996 0.500000 0.331454
O O20 0.161160 0.242238 0.351961
O O21 0.250000 0.000000 0.376201
#
# Coordination Sequence:
#
# PCOD8209838 Si02
#       8
#     8   8   8   8   8   4   8   4
#     4  10  22  38  56  82 117 155 191 233 294 362
#     4  10  19  34  59  87 115 147 191 249 302 351
#     4  10  21  40  65  91 124 162 204 254 301 354
#     4  10  21  39  62  86 115 154 201 253 307 363
#     4  11  24  41  61  85 119 159 198 248 305 361
#     4  11  23  37  63  99 131 163 200 247 304 363
#     4  11  24  42  65  92 122 164 211 252 299 359
#     4  11  23  39  63  97 133 165 196 243 302 361
#
# _framework density 19.482966999999999
#
# number of rings (size 3 to 8) (size 9 to 14) (size 15 to 20)
#    0.000    1.571    2.857    1.714    1.000    4.571 
#    1.286    0.000    0.000    0.000    0.000    0.000 
#    0.000    0.000    0.000    0.000    0.000    0.000 
#
# Total GULP energy -694569.630614 kJ/mol
# GULP energy per Si atom -12403.029118 kJ/mol
# Density = 1.943862 g / cm^3
# Si number density = 19.482967 Si / 1000 Ang^3
#
#
#
# Elastic Constant Matrix: (Units=GPa)
#
#
# Indices 1 2 3 4 5 6 
#
# 1 135.5195 46.9866 60.1892 0.0000 0.0000 0.0000
# 2 46.9866 50.5573 39.9343 0.0000 0.0000 0.0000
# 3 60.1892 39.9343 122.0108 0.0000 0.0000 0.0000
# 4 0.0000 0.0000 0.0000 30.5484 0.0000 0.0000
# 5 0.0000 0.0000 0.0000 0.0000 21.7577 0.0000
# 6 0.0000 0.0000 0.0000 0.0000 0.0000 27.4259
#
#
#
# Elastic Compliance Matrix: (Units=1/GPa)
#
#
# Indices 1 2 3 4 5 6 
#
# 1 0.011633 -0.008467 -0.002967 0.000000 0.000000 0.000000
# 2 -0.008467 0.032840 -0.006571 0.000000 0.000000 0.000000
# 3 -0.002967 -0.006571 0.011811 0.000000 0.000000 0.000000
# 4 0.000000 0.000000 0.000000 0.032735 0.000000 0.000000
# 5 0.000000 0.000000 0.000000 0.000000 0.045961 0.000000
# 6 0.000000 0.000000 0.000000 0.000000 0.000000 0.036462
#
#
# Mechanical properties :
#
#
# Convention : Reuss Voigt Hill
#
# Bulk Modulus (GPa) = 49.33171 66.92309 58.12740
# Shear Modulus (GPa) = 23.34172 26.67824 25.00998
#
# Velocity S-wave (km/s) = 3.46505 3.70443 3.58674
# Velocity P-wave (km/s) = 6.43305 7.26094 6.85950
#
# Compressibility (1/GPa) = 0.02027094
#
# Stress axis : x y z
#
# Youngs Moduli (GPa) = 85.96556 30.45113 84.67036
#
# Poissons Ratio (x) = 0.25784 0.25122
# Poissons Ratio (y) = 0.72790 0.55640
# Poissons Ratio (z) = 0.25507 0.20011
#
# Static dielectric constant tensor:
#      x y z
#    x 3.733700 0.000000 0.000000 
#    y 0.000000 3.475780 0.000000 
#    z 0.000000 0.000000 3.555650 
# 
# 
# High freq. dielectric constant tensor:
#      x y z
#    x 1.772630 0.000000 0.000000 
#    y 0.000000 1.754330 0.000000 
#    z 0.000000 0.000000 1.755000 
# 
# From -- ./inp_files/33586.got.cif
#   From: 2010.03.12/outbox.cif.g09.slc.cpg/sg51_17_cif.got.tgz:33586.got - 2010.04.16 13:43:02.
