data_PCOD8209902
_publ_section_title
;
Structure prediction by ZEFSAII (Michael W. Deem and Ramdas Pophale) SiO2 
 PCOD8209902
Probable space group: P M M A
;
_chemical_formula_sum "Si O2"
_cell_formula_units_Z 48
_cell_length_a 8.677644
_cell_length_b 10.143621
_cell_length_c 27.856784
_cell_angle_alpha 90.000000
_cell_angle_beta 90.000000
_cell_angle_gamma 90.000000
_cell_volume 2452.030230
_symmetry_space_group_name_H-M "P M M A"
_symmetry_group_IT_number 51
_symmetry_cell_setting 'orthorhombic'
loop_
_space_group_symop_operation_xyz
x,y,z
1/2-x,-y,z
1/2+x,-y,-z
-x,y,-z
-x,-y,-z
1/2+x,y,-z
1/2-x,y,z
x,-y,z
loop_
_atom_site_type_symbol
_atom_site_label
_atom_site_fract_x
_atom_site_fract_y
_atom_site_fract_z
Si Si1 0.932342 0.000000 0.724369
Si Si2 0.067304 0.500000 0.700896
Si Si3 0.432390 0.500000 0.592509
Si Si4 0.066801 0.648058 0.129905
Si Si5 0.066715 0.725457 0.234951
Si Si6 0.933360 0.000000 0.615349
Si Si7 0.567524 0.149432 0.949208
Si Si8 0.566947 0.774891 0.448870
O O1 0.991828 0.872098 0.752873
O O2 0.993445 0.000000 0.670005
O O3 0.750000 0.000000 0.723402
O O4 0.250000 0.500000 0.702441
O O5 0.002707 0.500000 0.646608
O O6 0.005177 0.629864 0.726075
O O7 0.250000 0.500000 0.594912
O O8 0.491340 0.628146 0.563992
O O9 0.250000 0.654465 0.130059
O O10 0.010092 0.500000 0.117382
O O11 0.004368 0.688335 0.182239
O O12 0.000701 0.751166 0.090943
O O13 0.250000 0.712259 0.237452
O O14 0.000685 0.870063 0.591349
O O15 0.750000 0.000000 0.611364
O O16 0.750000 0.158848 0.952025
O O17 0.515471 0.000000 0.936559
O O18 0.500000 0.194542 0.000000
O O19 0.500000 0.817590 0.500000
O O20 0.750000 0.786594 0.450018
#
# Coordination Sequence:
#
# PCOD8209902 Si02
#       8
#     4   4   4   8   8   4   8   8
#     4   9  20  34  56  85 110 135 181 233 270 313
#     4  11  21  36  56  80 111 147 182 218 262 325
#     4   9  21  38  58  82 110 143 181 220 267 325
#     4   9  17  30  51  78 104 134 176 220 263 317
#     4  10  19  35  56  81 109 142 180 227 275 319
#     4  11  22  38  55  81 114 145 179 221 268 323
#     4   9  18  32  51  75 103 137 176 219 266 317
#     4  11  22  39  60  83 109 142 180 223 271 322
#
# _framework density 19.575614999999999
#
# number of rings (size 3 to 8) (size 9 to 14) (size 15 to 20)
#    0.000    2.167    0.833    2.500    1.167    0.333 
#    0.000    5.833    0.000    0.000    0.000    0.000 
#    0.000    0.000    0.000    0.000    0.000    0.000 
#
# Total GULP energy -595271.269735 kJ/mol
# GULP energy per Si atom -12401.484786 kJ/mol
# Density = 1.953106 g / cm^3
# Si number density = 19.575615 Si / 1000 Ang^3
#
#
#
# Elastic Constant Matrix: (Units=GPa)
#
#
# Indices 1 2 3 4 5 6 
#
# 1 38.0161 20.1329 17.3920 0.0000 0.0000 0.0000
# 2 20.1329 147.9442 60.5762 0.0000 0.0000 0.0000
# 3 17.3920 60.5762 132.9660 0.0000 0.0000 0.0000
# 4 0.0000 0.0000 0.0000 46.0412 0.0000 0.0000
# 5 0.0000 0.0000 0.0000 0.0000 24.7460 0.0000
# 6 0.0000 0.0000 0.0000 0.0000 0.0000 15.7307
#
#
#
# Elastic Compliance Matrix: (Units=1/GPa)
#
#
# Indices 1 2 3 4 5 6 
#
# 1 0.028983 -0.002940 -0.002451 0.000000 0.000000 0.000000
# 2 -0.002940 0.008608 -0.003537 0.000000 0.000000 0.000000
# 3 -0.002451 -0.003537 0.009453 0.000000 0.000000 0.000000
# 4 0.000000 0.000000 0.000000 0.021720 0.000000 0.000000
# 5 0.000000 0.000000 0.000000 0.000000 0.040411 0.000000
# 6 0.000000 0.000000 0.000000 0.000000 0.000000 0.063570
#
#
# Mechanical properties :
#
#
# Convention : Reuss Voigt Hill
#
# Bulk Modulus (GPa) = 34.26268 57.23647 45.74958
# Shear Modulus (GPa) = 24.95881 32.02527 28.49204
#
# Velocity S-wave (km/s) = 3.57458 4.04911 3.81922
# Velocity P-wave (km/s) = 5.88027 7.15280 6.54752
#
# Compressibility (1/GPa) = 0.02918628
#
# Stress axis : x y z
#
# Youngs Moduli (GPa) = 34.50254 116.17626 105.79037
#
# Poissons Ratio (x) = 0.34161 0.25934
# Poissons Ratio (y) = 0.10145 0.37416
# Poissons Ratio (z) = 0.08458 0.41089
#
# Static dielectric constant tensor:
#      x y z
#    x 3.205680 0.000000 0.000000 
#    y 0.000000 3.656490 0.000000 
#    z 0.000000 0.000000 3.774790 
# 
# 
# High freq. dielectric constant tensor:
#      x y z
#    x 1.726220 0.000000 0.000000 
#    y 0.000000 1.779930 0.000000 
#    z 0.000000 0.000000 1.774220 
# 
# From -- ./inp_files/37247.got.cif
#   From: 2010.03.12/outbox.cif.g09.slc.cpg/sg51_19_cif.got.tgz:37247.got - 2010.04.16 13:43:02.
