data_PCOD8209001
_publ_section_title
;
Structure prediction by ZEFSAII (Michael W. Deem and Ramdas Pophale) SiO2 
 PCOD8209001
Probable space group: P M M A
;
_chemical_formula_sum "Si O2"
_cell_formula_units_Z 36
_cell_length_a 8.870433
_cell_length_b 23.612094
_cell_length_c 9.058647
_cell_angle_alpha 90.000000
_cell_angle_beta 90.000000
_cell_angle_gamma 90.000000
_cell_volume 1897.329065
_symmetry_space_group_name_H-M "P M M A"
_symmetry_group_IT_number 51
_symmetry_cell_setting 'orthorhombic'
loop_
_space_group_symop_operation_xyz
x,y,z
1/2-x,-y,z
1/2+x,-y,-z
-x,y,-z
-x,-y,-z
1/2+x,y,-z
1/2-x,y,z
x,-y,z
loop_
_atom_site_type_symbol
_atom_site_label
_atom_site_fract_x
_atom_site_fract_y
_atom_site_fract_z
Si Si1 0.428528 0.000000 0.159384
Si Si2 0.428458 0.782272 0.157629
Si Si3 0.574484 0.559700 0.342917
Si Si4 0.427056 0.891915 0.341380
Si Si5 0.071158 0.682935 0.661783
O O1 0.486464 0.944713 0.245965
O O2 0.250000 0.000000 0.141946
O O3 0.500000 0.000000 0.000000
O O4 0.250000 0.775883 0.142065
O O5 0.475003 0.834129 0.261988
O O6 0.497257 0.725445 0.223941
O O7 0.500000 0.794492 0.000000
O O8 0.500000 0.557683 0.500000
O O9 0.750000 0.560484 0.372434
O O10 0.530720 0.500000 0.257060
O O11 0.531475 0.620151 0.269685
O O12 0.500000 0.893895 0.500000
O O13 0.250000 0.895860 0.362410
O O14 0.250000 0.693509 0.650658
O O15 0.000000 0.691224 0.500000
#
# Coordination Sequence:
#
# PCOD8209001 Si02
#       5
#     4   8   8   8   8
#     4  10  21  38  58  84 114 144 179 216 258 308
#     4  11  23  38  55  77 105 139 178 220 268 320
#     4   8  14  25  43  69 100 132 167 209 257 307
#     4  10  22  38  58  83 110 140 177 219 262 310
#     4  10  19  32  52  78 107 139 175 217 263 313
#
# _framework density 18.974042000000001
#
# number of rings (size 3 to 8) (size 9 to 14) (size 15 to 20)
#    0.000    2.222    0.000    3.000    0.000    5.333 
#    0.000    0.000    0.000    0.667    0.000    0.000 
#    0.000    0.000    0.000    0.000    0.000    0.000 
#
# Total GULP energy -446064.959998 kJ/mol
# GULP energy per Si atom -12390.693333 kJ/mol
# Density = 1.893086 g / cm^3
# Si number density = 18.974042 Si / 1000 Ang^3
#
#
#
# Elastic Constant Matrix: (Units=GPa)
#
#
# Indices 1 2 3 4 5 6 
#
# 1 52.8419 52.2662 42.7445 0.0000 0.0000 0.0000
# 2 52.2662 190.9556 76.4731 0.0000 0.0000 0.0000
# 3 42.7445 76.4731 128.4553 0.0000 0.0000 0.0000
# 4 0.0000 0.0000 0.0000 -36.9182 0.0000 0.0000
# 5 0.0000 0.0000 0.0000 0.0000 33.7611 0.0000
# 6 0.0000 0.0000 0.0000 0.0000 0.0000 25.1689
#
#
#
# Elastic Compliance Matrix: (Units=1/GPa)
#
#
# Indices 1 2 3 4 5 6 
#
# 1 0.029698 -0.005477 -0.006622 0.000000 0.000000 0.000000
# 2 -0.005477 0.007886 -0.002872 0.000000 0.000000 0.000000
# 3 -0.006622 -0.002872 0.011698 0.000000 0.000000 0.000000
# 4 0.000000 0.000000 0.000000 -0.027087 0.000000 0.000000
# 5 0.000000 0.000000 0.000000 0.000000 0.029620 0.000000
# 6 0.000000 0.000000 0.000000 0.000000 0.000000 0.039732
#
#
# Mechanical properties :
#
#
# Convention : Reuss Voigt Hill
#
# Bulk Modulus (GPa) = 51.70490 79.46893 65.58692
# Shear Modulus (GPa) = 39.08218 17.78696 28.43457
#
# Velocity S-wave (km/s) = 4.54339 3.06508 3.87538
# Velocity P-wave (km/s) = 7.40491 7.38242 7.39368
#
# Compressibility (1/GPa) = 0.01934053
#
# Stress axis : x y z
#
# Youngs Moduli (GPa) = 33.67245 126.80377 85.48252
#
# Poissons Ratio (x) = 0.69447 0.56604
# Poissons Ratio (y) = 0.18441 0.24554
# Poissons Ratio (z) = 0.22297 0.36424
#
# Static dielectric constant tensor:
#      x y z
#    x 3.526920 0.000000 0.000000 
#    y 0.000000 4.390500 0.000000 
#    z 0.000000 0.000000 3.132250 
# 
# 
# High freq. dielectric constant tensor:
#      x y z
#    x 1.740410 0.000000 0.000000 
#    y 0.000000 1.773100 0.000000 
#    z 0.000000 0.000000 1.706130 
# 
# From -- ./inp_files/5275.got.cif
#   From: 2010.03.12/outbox.cif.g09.slc.cpg/sg51_3_cif.got.tgz:5275.got - 2010.04.16 13:43:02.
