data_PCOD8209016
_publ_section_title
;
Structure prediction by ZEFSAII (Michael W. Deem and Ramdas Pophale) SiO2 
 PCOD8209016
Probable space group: P M M A
;
_chemical_formula_sum "Si O2"
_cell_formula_units_Z 64
_cell_length_a 23.937014
_cell_length_b 9.487115
_cell_length_c 14.921506
_cell_angle_alpha 90.000000
_cell_angle_beta 90.000000
_cell_angle_gamma 90.000000
_cell_volume 3388.572615
_symmetry_space_group_name_H-M "P M M A"
_symmetry_group_IT_number 51
_symmetry_cell_setting 'orthorhombic'
loop_
_space_group_symop_operation_xyz
x,y,z
1/2-x,-y,z
1/2+x,-y,-z
-x,y,-z
-x,-y,-z
1/2+x,y,-z
1/2-x,y,z
x,-y,z
loop_
_atom_site_type_symbol
_atom_site_label
_atom_site_fract_x
_atom_site_fract_y
_atom_site_fract_z
Si Si1 0.352521 0.839110 0.026803
Si Si2 0.001995 0.665916 0.273908
Si Si3 0.686068 0.668079 0.482013
Si Si4 0.119987 0.332313 0.689692
Si Si5 0.186148 0.340122 0.862778
Si Si6 0.117829 0.665991 0.346619
Si Si7 0.187941 0.157619 0.218352
Si Si8 0.542686 0.659315 0.918968
O O1 0.311377 0.831288 0.111209
O O2 0.409747 0.765934 0.053166
O O3 0.364571 0.000000 0.998398
O O4 0.322200 0.760101 0.946588
O O5 0.994461 0.500000 0.270158
O O6 0.943413 0.729353 0.310547
O O7 0.052009 0.707182 0.342892
O O8 0.014453 0.717827 0.172564
O O9 0.750000 0.724806 0.487833
O O10 0.686727 0.500000 0.481493
O O11 0.655545 0.728725 0.393638
O O12 0.648989 0.724817 0.565319
O O13 0.120208 0.500000 0.682479
O O14 0.148869 0.282948 0.781288
O O15 0.250000 0.335586 0.830857
O O16 0.168647 0.500000 0.888670
O O17 0.125440 0.500000 0.339762
O O18 0.145297 0.730747 0.258415
O O19 0.250000 0.192386 0.253292
O O20 0.170124 0.000000 0.248072
O O21 0.565810 0.500000 0.903149
O O22 0.500000 0.657789 0.000000
#
# Coordination Sequence:
#
# PCOD8209016 Si02
#       8
#     8   8   8   8   8   8   8   8
#     4  11  22  35  52  76 107 141 177 221 271 323
#     4   9  17  29  47  74 106 139 174 214 261 314
#     4   9  17  29  48  77 109 138 171 217 271 320
#     4   9  17  31  51  76 107 139 173 217 270 323
#     4  10  20  34  54  78 103 137 182 227 272 325
#     4  10  19  32  52  79 109 137 172 218 266 313
#     4  10  21  36  52  72 102 141 178 212 258 315
#     4  10  19  33  53  75 105 143 183 226 266 312
#
# _framework density 18.88701
#
# number of rings (size 3 to 8) (size 9 to 14) (size 15 to 20)
#    0.000    2.250    1.250    2.250    0.000    6.250 
#    0.000    2.500    0.000    0.750    0.000    0.875 
#    0.000    0.000    0.000    0.000    0.000    0.000 
#
# Total GULP energy -793425.323497 kJ/mol
# GULP energy per Si atom -12397.270680 kJ/mol
# Density = 1.884402 g / cm^3
# Si number density = 18.887010 Si / 1000 Ang^3
#
#
#
# Elastic Constant Matrix: (Units=GPa)
#
#
# Indices 1 2 3 4 5 6 
#
# 1 143.4076 30.2450 60.0528 0.0000 0.0000 0.0000
# 2 30.2450 45.2067 26.6625 0.0000 0.0000 0.0000
# 3 60.0528 26.6625 106.8221 0.0000 0.0000 0.0000
# 4 0.0000 0.0000 0.0000 7.2669 0.0000 0.0000
# 5 0.0000 0.0000 0.0000 0.0000 37.6034 0.0000
# 6 0.0000 0.0000 0.0000 0.0000 0.0000 9.4204
#
#
#
# Elastic Compliance Matrix: (Units=1/GPa)
#
#
# Indices 1 2 3 4 5 6 
#
# 1 0.009652 -0.003819 -0.004473 0.000000 0.000000 0.000000
# 2 -0.003819 0.027451 -0.004704 0.000000 0.000000 0.000000
# 3 -0.004473 -0.004704 0.013050 0.000000 0.000000 0.000000
# 4 0.000000 0.000000 0.000000 0.137611 0.000000 0.000000
# 5 0.000000 0.000000 0.000000 0.000000 0.026593 0.000000
# 6 0.000000 0.000000 0.000000 0.000000 0.000000 0.106152
#
#
# Mechanical properties :
#
#
# Convention : Reuss Voigt Hill
#
# Bulk Modulus (GPa) = 41.39189 58.81745 50.10467
# Shear Modulus (GPa) = 14.10221 22.75654 18.42938
#
# Velocity S-wave (km/s) = 2.73548 3.47490 3.12712
# Velocity P-wave (km/s) = 5.65157 6.87817 6.29482
#
# Compressibility (1/GPa) = 0.02415932
#
# Stress axis : x y z
#
# Youngs Moduli (GPa) = 103.61009 36.42913 76.62867
#
# Poissons Ratio (x) = 0.13914 0.34273
# Poissons Ratio (y) = 0.39573 0.36049
# Poissons Ratio (z) = 0.46340 0.17138
#
# Static dielectric constant tensor:
#      x y z
#    x 2.904870 0.000000 0.000000 
#    y 0.000000 3.084320 0.000000 
#    z 0.000000 0.000000 3.644980 
# 
# 
# High freq. dielectric constant tensor:
#      x y z
#    x 1.748500 0.000000 0.000000 
#    y 0.000000 1.682000 0.000000 
#    z 0.000000 0.000000 1.736420 
# 
# From -- ./inp_files/26163.got.cif
#   From: 2010.03.12/outbox.cif.g09.slc.cpg/sg51_14_cif.got.tgz:26163.got - 2010.04.16 13:43:02.
