data_PCOD8209646
_publ_section_title
;
Structure prediction by ZEFSAII (Michael W. Deem and Ramdas Pophale) SiO2 
 PCOD8209646
Probable space group: P M M A
;
_chemical_formula_sum "Si O2"
_cell_formula_units_Z 52
_cell_length_a 8.779778
_cell_length_b 22.598839
_cell_length_c 14.253190
_cell_angle_alpha 90.000000
_cell_angle_beta 90.000000
_cell_angle_gamma 90.000000
_cell_volume 2828.015187
_symmetry_space_group_name_H-M "P M M A"
_symmetry_group_IT_number 51
_symmetry_cell_setting 'orthorhombic'
loop_
_space_group_symop_operation_xyz
x,y,z
1/2-x,-y,z
1/2+x,-y,-z
-x,y,-z
-x,-y,-z
1/2+x,y,-z
1/2-x,y,z
x,-y,z
loop_
_atom_site_type_symbol
_atom_site_label
_atom_site_fract_x
_atom_site_fract_y
_atom_site_fract_z
Si Si1 0.570322 0.000000 0.897403
Si Si2 0.573565 0.431037 0.098116
Si Si3 0.571575 0.779061 0.898093
Si Si4 0.927721 0.848881 0.405870
Si Si5 0.929353 0.889208 0.204690
Si Si6 0.430098 0.714907 0.595981
Si Si7 0.926924 0.664023 0.777167
O O1 0.519041 0.057426 0.841425
O O2 0.750000 0.000000 0.907973
O O3 0.500000 0.000000 0.000000
O O4 0.750000 0.413673 0.094558
O O5 0.548439 0.500000 0.117912
O O6 0.491112 0.396629 0.181337
O O7 0.500000 0.411893 0.000000
O O8 0.750000 0.794729 0.903608
O O9 0.483507 0.828144 0.839299
O O10 0.540708 0.716556 0.849819
O O11 0.500000 0.776384 0.000000
O O12 0.750000 0.846637 0.422717
O O13 0.968449 0.888707 0.315626
O O14 0.989275 0.782262 0.389049
O O15 0.000000 0.876981 0.500000
O O16 0.750000 0.897001 0.187073
O O17 0.500000 0.689350 0.500000
O O18 0.250000 0.711650 0.591247
O O19 0.487687 0.674767 0.680220
O O20 0.750000 0.656972 0.755853
#
# Coordination Sequence:
#
# PCOD8209646 Si02
#       7
#     4   8   8   8   8   8   8
#     4  12  26  44  63  84 109 148 191 234 280 334
#     4  10  21  37  57  81 112 152 195 238 284 337
#     4  11  23  36  53  80 113 147 183 229 281 334
#     4   9  19  34  57  85 114 147 182 226 278 331
#     4  11  22  40  61  84 112 147 187 231 280 333
#     4  10  19  34  55  83 116 151 187 231 282 337
#     4  11  22  35  55  84 115 150 190 233 283 338
#
# _framework density 18.387453000000001
#
# number of rings (size 3 to 8) (size 9 to 14) (size 15 to 20)
#    0.000    1.538    1.538    3.923    0.000    5.846 
#    0.000    0.385    0.000    0.462    0.000    0.000 
#    0.000    0.000    0.000    0.000    0.000    0.000 
#
# Total GULP energy -645024.247369 kJ/mol
# GULP energy per Si atom -12404.312449 kJ/mol
# Density = 1.834560 g / cm^3
# Si number density = 18.387453 Si / 1000 Ang^3
#
#
#
# Elastic Constant Matrix: (Units=GPa)
#
#
# Indices 1 2 3 4 5 6 
#
# 1 103.7016 38.6880 64.9178 0.0000 0.0000 0.0000
# 2 38.6880 63.2598 42.6997 0.0000 0.0000 0.0000
# 3 64.9178 42.6997 150.3167 0.0000 0.0000 0.0000
# 4 0.0000 0.0000 0.0000 45.2394 0.0000 0.0000
# 5 0.0000 0.0000 0.0000 0.0000 38.3858 0.0000
# 6 0.0000 0.0000 0.0000 0.0000 0.0000 30.4060
#
#
#
# Elastic Compliance Matrix: (Units=1/GPa)
#
#
# Indices 1 2 3 4 5 6 
#
# 1 0.014782 -0.005854 -0.004721 0.000000 0.000000 0.000000
# 2 -0.005854 0.021876 -0.003686 0.000000 0.000000 0.000000
# 3 -0.004721 -0.003686 0.009739 0.000000 0.000000 0.000000
# 4 0.000000 0.000000 0.000000 0.022105 0.000000 0.000000
# 5 0.000000 0.000000 0.000000 0.000000 0.026051 0.000000
# 6 0.000000 0.000000 0.000000 0.000000 0.000000 0.032888
#
#
# Mechanical properties :
#
#
# Convention : Reuss Voigt Hill
#
# Bulk Modulus (GPa) = 55.94471 67.76546 61.85508
# Shear Modulus (GPa) = 30.87908 34.20440 32.54174
#
# Velocity S-wave (km/s) = 4.10244 4.31769 4.21144
# Velocity P-wave (km/s) = 7.27541 7.86071 7.57371
#
# Compressibility (1/GPa) = 0.01787479
#
# Stress axis : x y z
#
# Youngs Moduli (GPa) = 67.64763 45.71238 102.68284
#
# Poissons Ratio (x) = 0.26759 0.48480
# Poissons Ratio (y) = 0.39599 0.37850
# Poissons Ratio (z) = 0.31939 0.16850
#
# Static dielectric constant tensor:
#      x y z
#    x 3.523300 0.000000 0.000000 
#    y 0.000000 3.210580 0.000000 
#    z 0.000000 0.000000 3.517810 
# 
# 
# High freq. dielectric constant tensor:
#      x y z
#    x 1.729010 0.000000 0.000000 
#    y 0.000000 1.694400 0.000000 
#    z 0.000000 0.000000 1.725030 
# 
# From -- ./inp_files/14618.got.cif
#   From: 2010.03.12/outbox.cif.g09.slc.cpg/sg51_8_cif.got.tgz:14618.got - 2010.04.16 13:43:02.
