data_PCOD8209189
_publ_section_title
;
Structure prediction by ZEFSAII (Michael W. Deem and Ramdas Pophale) SiO2 
 PCOD8209189
Probable space group: P M M A
;
_chemical_formula_sum "Si O2"
_cell_formula_units_Z 64
_cell_length_a 28.064110
_cell_length_b 8.713309
_cell_length_c 14.380550
_cell_angle_alpha 90.000000
_cell_angle_beta 90.000000
_cell_angle_gamma 90.000000
_cell_volume 3516.494043
_symmetry_space_group_name_H-M "P M M A"
_symmetry_group_IT_number 51
_symmetry_cell_setting 'orthorhombic'
loop_
_space_group_symop_operation_xyz
x,y,z
1/2-x,-y,z
1/2+x,-y,-z
-x,y,-z
-x,-y,-z
1/2+x,y,-z
1/2-x,y,z
x,-y,z
loop_
_atom_site_type_symbol
_atom_site_label
_atom_site_fract_x
_atom_site_fract_y
_atom_site_fract_z
Si Si1 0.112837 0.679125 0.643493
Si Si2 0.061795 0.317002 0.263684
Si Si3 0.124652 0.324878 0.102145
Si Si4 0.462359 0.825156 0.771756
Si Si5 0.195347 0.819074 0.759792
Si Si6 0.552394 0.318400 0.526619
Si Si7 0.054421 0.169015 0.979410
Si Si8 0.196074 0.317994 0.955012
O O1 0.124491 0.500000 0.644824
O O2 0.067219 0.712601 0.706677
O O3 0.160780 0.764996 0.676354
O O4 0.095241 0.736069 0.541395
O O5 0.055428 0.500000 0.254344
O O6 0.108349 0.260235 0.203666
O O7 0.067651 0.265012 0.370353
O O8 0.016149 0.234493 0.220009
O O9 0.137868 0.500000 0.116858
O O10 0.080689 0.305653 0.032077
O O11 0.169094 0.248309 0.046449
O O12 0.436263 0.817198 0.870246
O O13 0.462000 0.000000 0.733890
O O14 0.250000 0.765747 0.739390
O O15 0.176844 0.751440 0.858030
O O16 0.192167 0.000000 0.766430
O O17 0.500000 0.248964 0.500000
O O18 0.548125 0.500000 0.520094
O O19 0.071601 0.000000 0.014299
O O20 0.000000 0.191089 0.000000
O O21 0.250000 0.266959 0.969086
O O22 0.189328 0.500000 0.948376
#
# Coordination Sequence:
#
# PCOD8209189 Si02
#       8
#     8   8   8   8   8   8   8   8
#     4  11  21  34  55  77 101 135 173 213 258 309
#     4  10  19  33  50  69  98 134 173 212 254 302
#     4  10  20  31  49  74  97 129 170 212 252 292
#     4  11  21  32  47  70 101 135 172 209 251 300
#     4  10  21  37  56  80 108 135 166 208 258 307
#     4   9  17  32  52  73  99 135 174 211 255 302
#     4  10  20  32  43  61  96 136 163 192 242 300
#     4   9  18  34  54  77 105 135 169 207 250 305
#
# _framework density 18.199945
#
# number of rings (size 3 to 8) (size 9 to 14) (size 15 to 20)
#    0.000    2.000    2.500    1.875    0.000    4.500 
#    0.000    1.875    0.000    0.750    0.000    3.500 
#    0.000    2.000    0.000    0.000    0.000    0.000 
#
# Total GULP energy -793057.805774 kJ/mol
# GULP energy per Si atom -12391.528215 kJ/mol
# Density = 1.815852 g / cm^3
# Si number density = 18.199945 Si / 1000 Ang^3
#
#
#
# Elastic Constant Matrix: (Units=GPa)
#
#
# Indices 1 2 3 4 5 6 
#
# 1 84.9672 18.7461 69.8754 0.0000 0.0000 0.0000
# 2 18.7461 25.1962 12.0997 0.0000 0.0000 0.0000
# 3 69.8754 12.0997 120.6789 0.0000 0.0000 0.0000
# 4 0.0000 0.0000 0.0000 8.9187 0.0000 0.0000
# 5 0.0000 0.0000 0.0000 0.0000 31.2223 0.0000
# 6 0.0000 0.0000 0.0000 0.0000 0.0000 17.1082
#
#
#
# Elastic Compliance Matrix: (Units=1/GPa)
#
#
# Indices 1 2 3 4 5 6 
#
# 1 0.025799 -0.012629 -0.013672 0.000000 0.000000 0.000000
# 2 -0.012629 0.047878 0.002512 0.000000 0.000000 0.000000
# 3 -0.013672 0.002512 0.015951 0.000000 0.000000 0.000000
# 4 0.000000 0.000000 0.000000 0.112124 0.000000 0.000000
# 5 0.000000 0.000000 0.000000 0.000000 0.032028 0.000000
# 6 0.000000 0.000000 0.000000 0.000000 0.000000 0.058452
#
#
# Mechanical properties :
#
#
# Convention : Reuss Voigt Hill
#
# Bulk Modulus (GPa) = 23.78101 48.03165 35.90633
# Shear Modulus (GPa) = 14.13117 20.12457 17.12787
#
# Velocity S-wave (km/s) = 2.78949 3.32889 3.07105
# Velocity P-wave (km/s) = 4.84458 6.42057 5.68743
#
# Compressibility (1/GPa) = 0.04205036
#
# Stress axis : x y z
#
# Youngs Moduli (GPa) = 38.76098 20.88622 62.69236
#
# Poissons Ratio (x) = 0.26378 0.85713
# Poissons Ratio (y) = 0.48952 -0.15749
# Poissons Ratio (z) = 0.52994 -0.05247
#
# Static dielectric constant tensor:
#      x y z
#    x 3.452520 0.000000 0.000000 
#    y 0.000000 3.207620 0.000000 
#    z 0.000000 0.000000 3.684000 
# 
# 
# High freq. dielectric constant tensor:
#      x y z
#    x 1.690870 0.000000 0.000000 
#    y 0.000000 1.689680 0.000000 
#    z 0.000000 0.000000 1.703000 
# 
# From -- ./inp_files/26730.got.cif
#   From: 2010.03.12/outbox.cif.g09.slc.cpg/sg51_14_cif.got.tgz:26730.got - 2010.04.16 13:43:02.
