data_PCOD8209917
_publ_section_title
;
Structure prediction by ZEFSAII (Michael W. Deem and Ramdas Pophale) SiO2 
 PCOD8209917
Probable space group: P M M A
;
_chemical_formula_sum "Si O2"
_cell_formula_units_Z 64
_cell_length_a 9.069924
_cell_length_b 19.737179
_cell_length_c 19.869705
_cell_angle_alpha 90.000000
_cell_angle_beta 90.000000
_cell_angle_gamma 90.000000
_cell_volume 3556.969548
_symmetry_space_group_name_H-M "P M M A"
_symmetry_group_IT_number 51
_symmetry_cell_setting 'orthorhombic'
loop_
_space_group_symop_operation_xyz
x,y,z
1/2-x,-y,z
1/2+x,-y,-z
-x,y,-z
-x,-y,-z
1/2+x,y,-z
1/2-x,y,z
x,-y,z
loop_
_atom_site_type_symbol
_atom_site_label
_atom_site_fract_x
_atom_site_fract_y
_atom_site_fract_z
Si Si1 0.916199 0.395478 0.260868
Si Si2 0.075234 0.705465 0.066272
Si Si3 0.422173 0.427179 0.389751
Si Si4 0.077811 0.923629 0.932357
Si Si5 0.916316 0.244064 0.303787
Si Si6 0.424724 0.282396 0.433246
Si Si7 0.077570 0.195207 0.835721
Si Si8 0.920821 0.576305 0.110136
O O1 0.750000 0.418716 0.275784
O O2 0.932378 0.315068 0.265901
O O3 0.966585 0.420107 0.188079
O O4 0.018346 0.432298 0.314516
O O5 0.250000 0.710642 0.060704
O O6 0.018751 0.745337 0.131494
O O7 0.025642 0.626969 0.069377
O O8 0.000000 0.738275 0.000000
O O9 0.250000 0.416271 0.384676
O O10 0.459903 0.500000 0.425673
O O11 0.485217 0.360500 0.427327
O O12 0.250000 0.920694 0.946810
O O13 0.034245 0.876339 0.869427
O O14 0.026079 0.000000 0.914793
O O15 0.000000 0.897053 0.000000
O O16 0.750000 0.232610 0.330404
O O17 0.957296 0.190212 0.244686
O O18 0.024543 0.239263 0.368027
O O19 0.500000 0.251611 0.500000
O O20 0.250000 0.277192 0.439970
O O21 0.250000 0.212731 0.846344
O O22 0.750000 0.598082 0.100974
O O23 0.947490 0.500000 0.083705
#
# Coordination Sequence:
#
# PCOD8209917 Si02
#       8
#     8   8   8   8   8   8   8   8
#     4   9  16  29  48  68  89 115 151 194 244 301
#     4  12  25  38  53  71  96 127 167 213 261 311
#     4   9  18  30  43  62  89 118 151 194 243 297
#     4   9  18  32  52  80 114 150 182 211 247 294
#     4   9  17  31  52  73  96 126 161 203 248 294
#     4  10  20  33  48  67  94 126 161 202 251 305
#     4  10  19  35  57  79 106 137 173 213 252 297
#     4  10  20  35  53  70  91 120 158 207 263 319
#
# _framework density 17.992844999999999
#
# number of rings (size 3 to 8) (size 9 to 14) (size 15 to 20)
#    0.000    2.250    1.250    2.250    0.000    4.500 
#    0.000    0.000    0.000    0.000    0.000    0.000 
#    0.000    0.500    0.000    0.875    0.000    1.250 
#
# Total GULP energy -793370.422949 kJ/mol
# GULP energy per Si atom -12396.412859 kJ/mol
# Density = 1.795189 g / cm^3
# Si number density = 17.992845 Si / 1000 Ang^3
#
#
#
# Elastic Constant Matrix: (Units=GPa)
#
#
# Indices 1 2 3 4 5 6 
#
# 1 64.0796 26.7754 45.6074 0.0000 0.0000 0.0000
# 2 26.7754 63.6454 37.5735 0.0000 0.0000 0.0000
# 3 45.6074 37.5735 112.3752 0.0000 0.0000 0.0000
# 4 0.0000 0.0000 0.0000 10.6773 0.0000 0.0000
# 5 0.0000 0.0000 0.0000 0.0000 29.3643 0.0000
# 6 0.0000 0.0000 0.0000 0.0000 0.0000 13.7178
#
#
#
# Elastic Compliance Matrix: (Units=1/GPa)
#
#
# Indices 1 2 3 4 5 6 
#
# 1 0.023273 -0.005251 -0.007689 0.000000 0.000000 0.000000
# 2 -0.005251 0.020761 -0.004810 0.000000 0.000000 0.000000
# 3 -0.007689 -0.004810 0.013628 0.000000 0.000000 0.000000
# 4 0.000000 0.000000 0.000000 0.093657 0.000000 0.000000
# 5 0.000000 0.000000 0.000000 0.000000 0.034055 0.000000
# 6 0.000000 0.000000 0.000000 0.000000 0.000000 0.072898
#
#
# Mechanical properties :
#
#
# Convention : Reuss Voigt Hill
#
# Bulk Modulus (GPa) = 45.12733 51.11252 48.11992
# Shear Modulus (GPa) = 16.60248 19.42813 18.01530
#
# Velocity S-wave (km/s) = 3.04094 3.28955 3.16768
# Velocity P-wave (km/s) = 6.12086 6.54958 6.33884
#
# Compressibility (1/GPa) = 0.02215952
#
# Stress axis : x y z
#
# Youngs Moduli (GPa) = 42.96906 48.16710 73.37890
#
# Poissons Ratio (x) = 0.25293 0.56424
# Poissons Ratio (y) = 0.22564 0.35298
# Poissons Ratio (z) = 0.33041 0.23170
#
# Static dielectric constant tensor:
#      x y z
#    x 3.217030 0.000000 0.000000 
#    y 0.000000 3.245780 0.000000 
#    z 0.000000 0.000000 3.332910 
# 
# 
# High freq. dielectric constant tensor:
#      x y z
#    x 1.689920 0.000000 0.000000 
#    y 0.000000 1.658510 0.000000 
#    z 0.000000 0.000000 1.692560 
# 
# From -- ./inp_files/32588.got.cif
#   From: 2010.03.12/outbox.cif.g09.slc.cpg/sg51_17_cif.got.tgz:32588.got - 2010.04.16 13:43:02.
