data_PCOD8209362
_publ_section_title
;
Structure prediction by ZEFSAII (Michael W. Deem and Ramdas Pophale) SiO2 
 PCOD8209362
Probable space group: P M M A
;
_chemical_formula_sum "Si O2"
_cell_formula_units_Z 48
_cell_length_a 9.546526
_cell_length_b 7.888364
_cell_length_c 33.782894
_cell_angle_alpha 90.000000
_cell_angle_beta 90.000000
_cell_angle_gamma 90.000000
_cell_volume 2544.070562
_symmetry_space_group_name_H-M "P M M A"
_symmetry_group_IT_number 51
_symmetry_cell_setting 'orthorhombic'
loop_
_space_group_symop_operation_xyz
x,y,z
1/2-x,-y,z
1/2+x,-y,-z
-x,y,-z
-x,-y,-z
1/2+x,y,-z
1/2-x,y,z
x,-y,z
loop_
_atom_site_type_symbol
_atom_site_label
_atom_site_fract_x
_atom_site_fract_y
_atom_site_fract_z
Si Si1 0.414809 0.500000 0.459935
Si Si2 0.405998 0.694203 0.175943
Si Si3 0.082365 0.500000 0.040602
Si Si4 0.588834 0.696671 0.334032
Si Si5 0.915772 0.187011 0.906810
Si Si6 0.410357 0.189664 0.405018
Si Si7 0.910186 0.199049 0.247949
O O1 0.250000 0.500000 0.469319
O O2 0.500000 0.500000 0.500000
O O3 0.460530 0.330823 0.436309
O O4 0.250000 0.763549 0.185896
O O5 0.397255 0.500000 0.163234
O O6 0.472806 0.790539 0.138070
O O7 0.501733 0.712438 0.214060
O O8 0.250000 0.500000 0.033764
O O9 0.029112 0.332536 0.063868
O O10 0.000000 0.500000 0.000000
O O11 0.750000 0.754042 0.337601
O O12 0.569298 0.500000 0.343444
O O13 0.500529 0.802998 0.365286
O O14 0.532283 0.738230 0.290250
O O15 0.750000 0.204648 0.904347
O O16 0.961500 0.000000 0.922318
O O17 0.250000 0.226149 0.393335
O O18 0.427577 0.000000 0.423223
O O19 0.750000 0.257253 0.242943
O O20 0.927664 0.000000 0.244393
#
# Coordination Sequence:
#
# PCOD8209362 Si02
#       7
#     4   8   4   8   8   8   8
#     4  10  22  40  60  85 116 145 179 224 273 330
#     4  10  19  33  54  79 104 136 183 229 266 315
#     4  10  20  36  56  79 106 135 171 212 263 322
#     4  10  20  35  56  80 108 146 190 229 270 323
#     4   9  17  32  55  79 105 138 174 216 264 314
#     4  10  21  38  60  85 114 148 184 226 276 323
#     4  10  21  35  50  74 110 148 185 226 272 320
#
# _framework density 18.8674
#
# number of rings (size 3 to 8) (size 9 to 14) (size 15 to 20)
#    0.000    2.167    1.667    1.500    0.000    5.000 
#    0.000    0.833    0.000    1.000    0.000    0.000 
#    0.000    0.000    0.000    0.000    0.000    0.000 
#
# Total GULP energy -595192.708531 kJ/mol
# GULP energy per Si atom -12399.848094 kJ/mol
# Density = 1.882446 g / cm^3
# Si number density = 18.867400 Si / 1000 Ang^3
#
#
#
# Elastic Constant Matrix: (Units=GPa)
#
#
# Indices 1 2 3 4 5 6 
#
# 1 46.7083 28.0414 49.9863 0.0000 0.0000 0.0000
# 2 28.0414 124.1209 62.6149 0.0000 0.0000 0.0000
# 3 49.9863 62.6149 144.6548 0.0000 0.0000 0.0000
# 4 0.0000 0.0000 0.0000 22.2982 0.0000 0.0000
# 5 0.0000 0.0000 0.0000 0.0000 33.0309 0.0000
# 6 0.0000 0.0000 0.0000 0.0000 0.0000 19.0467
#
#
#
# Elastic Compliance Matrix: (Units=1/GPa)
#
#
# Indices 1 2 3 4 5 6 
#
# 1 0.034468 -0.002275 -0.010926 0.000000 0.000000 0.000000
# 2 -0.002275 0.010458 -0.003740 0.000000 0.000000 0.000000
# 3 -0.010926 -0.003740 0.012308 0.000000 0.000000 0.000000
# 4 0.000000 0.000000 0.000000 0.044847 0.000000 0.000000
# 5 0.000000 0.000000 0.000000 0.000000 0.030275 0.000000
# 6 0.000000 0.000000 0.000000 0.000000 0.000000 0.052502
#
#
# Mechanical properties :
#
#
# Convention : Reuss Voigt Hill
#
# Bulk Modulus (GPa) = 42.82619 66.30768 54.56693
# Shear Modulus (GPa) = 22.07279 26.53126 24.30203
#
# Velocity S-wave (km/s) = 3.42408 3.75400 3.59283
# Velocity P-wave (km/s) = 6.19517 7.34917 6.79671
#
# Compressibility (1/GPa) = 0.02335020
#
# Stress axis : x y z
#
# Youngs Moduli (GPa) = 29.01243 95.62412 81.25117
#
# Poissons Ratio (x) = 0.21758 0.88773
# Poissons Ratio (y) = 0.06601 0.30391
# Poissons Ratio (z) = 0.31698 0.35767
#
# Static dielectric constant tensor:
#      x y z
#    x 3.264000 0.000000 0.000000 
#    y 0.000000 3.690020 0.000000 
#    z 0.000000 0.000000 3.351960 
# 
# 
# High freq. dielectric constant tensor:
#      x y z
#    x 1.703940 0.000000 0.000000 
#    y 0.000000 1.752270 0.000000 
#    z 0.000000 0.000000 1.728610 
# 
# From -- ./inp_files/37069.got.cif
#   From: 2010.03.12/outbox.cif.g09.slc.cpg/sg51_19_cif.got.tgz:37069.got - 2010.04.16 13:43:02.
