data_PCOD8209802
_publ_section_title
;
Structure prediction by ZEFSAII (Michael W. Deem and Ramdas Pophale) SiO2 
 PCOD8209802
Probable space group: P M M A
;
_chemical_formula_sum "Si O2"
_cell_formula_units_Z 48
_cell_length_a 19.113138
_cell_length_b 9.098755
_cell_length_c 15.009145
_cell_angle_alpha 90.000000
_cell_angle_beta 90.000000
_cell_angle_gamma 90.000000
_cell_volume 2610.176767
_symmetry_space_group_name_H-M "P M M A"
_symmetry_group_IT_number 51
_symmetry_cell_setting 'orthorhombic'
loop_
_space_group_symop_operation_xyz
x,y,z
1/2-x,-y,z
1/2+x,-y,-z
-x,y,-z
-x,-y,-z
1/2+x,y,-z
1/2-x,y,z
x,-y,z
loop_
_atom_site_type_symbol
_atom_site_label
_atom_site_fract_x
_atom_site_fract_y
_atom_site_fract_z
Si Si1 0.576933 0.669058 0.977039
Si Si2 0.574172 0.330119 0.770709
Si Si3 0.430220 0.826799 0.726533
Si Si4 0.330604 0.826637 0.367390
Si Si5 0.670625 0.173340 0.116275
Si Si6 0.924782 0.173725 0.472665
O O1 0.580458 0.500000 0.007274
O O2 0.593522 0.689532 0.873653
O O3 0.500000 0.732678 0.000000
O O4 0.635604 0.757149 0.029786
O O5 0.568491 0.500000 0.744057
O O6 0.500913 0.254692 0.750845
O O7 0.636061 0.254379 0.716486
O O8 0.369766 0.777785 0.794378
O O9 0.405314 0.778745 0.627791
O O10 0.445331 0.000000 0.731093
O O11 0.250000 0.782761 0.372975
O O12 0.366447 0.768783 0.458533
O O13 0.341450 0.000000 0.354778
O O14 0.750000 0.230301 0.124371
O O15 0.668014 0.000000 0.104364
O O16 0.000000 0.241237 0.500000
O O17 0.928751 0.000000 0.479283
#
# Coordination Sequence:
#
# PCOD8209802 Si02
#       6
#     8   8   8   8   8   8
#     4  10  21  38  58  80 107 144 190 230 271 330
#     4  11  22  36  57  82 110 143 186 233 275 324
#     4  10  19  34  58  83 112 147 184 225 271 326
#     4  10  21  37  57  82 112 146 184 226 275 330
#     4  10  22  37  55  85 118 144 177 227 283 330
#     4   9  16  30  55  83 108 138 181 224 265 321
#
# _framework density 18.389558000000001
#
# number of rings (size 3 to 8) (size 9 to 14) (size 15 to 20)
#    0.000    2.000    3.333    0.500    0.000    3.667 
#    0.000    8.333    0.000    0.000    0.000    2.333 
#    0.000    0.000    0.000    0.000    0.000    0.000 
#
# Total GULP energy -595283.917928 kJ/mol
# GULP energy per Si atom -12401.748290 kJ/mol
# Density = 1.834770 g / cm^3
# Si number density = 18.389558 Si / 1000 Ang^3
#
#
#
# Elastic Constant Matrix: (Units=GPa)
#
#
# Indices 1 2 3 4 5 6 
#
# 1 161.9061 41.3470 82.3241 0.0000 0.0000 0.0000
# 2 41.3470 35.5490 37.5282 0.0000 0.0000 0.0000
# 3 82.3241 37.5282 136.8488 0.0000 0.0000 0.0000
# 4 0.0000 0.0000 0.0000 3.3367 0.0000 0.0000
# 5 0.0000 0.0000 0.0000 0.0000 35.6707 0.0000
# 6 0.0000 0.0000 0.0000 0.0000 0.0000 7.6356
#
#
#
# Elastic Compliance Matrix: (Units=1/GPa)
#
#
# Indices 1 2 3 4 5 6 
#
# 1 0.010159 -0.007550 -0.004041 0.000000 0.000000 0.000000
# 2 -0.007550 0.045203 -0.007854 0.000000 0.000000 0.000000
# 3 -0.004041 -0.007854 0.011892 0.000000 0.000000 0.000000
# 4 0.000000 0.000000 0.000000 0.299693 0.000000 0.000000
# 5 0.000000 0.000000 0.000000 0.000000 0.028034 0.000000
# 6 0.000000 0.000000 0.000000 0.000000 0.000000 0.130966
#
#
# Mechanical properties :
#
#
# Convention : Reuss Voigt Hill
#
# Bulk Modulus (GPa) = 35.25608 72.96694 54.11151
# Shear Modulus (GPa) = 8.70635 20.86892 14.78763
#
# Velocity S-wave (km/s) = 2.17823 3.37237 2.83880
# Velocity P-wave (km/s) = 5.05368 7.41137 6.34303
#
# Compressibility (1/GPa) = 0.02836390
#
# Stress axis : x y z
#
# Youngs Moduli (GPa) = 98.43192 22.12230 84.08927
#
# Poissons Ratio (x) = 0.16703 0.33981
# Poissons Ratio (y) = 0.74319 0.66045
# Poissons Ratio (z) = 0.39776 0.17375
#
# Static dielectric constant tensor:
#      x y z
#    x 3.522720 0.000000 0.000000 
#    y 0.000000 3.188890 0.000000 
#    z 0.000000 0.000000 3.782680 
# 
# 
# High freq. dielectric constant tensor:
#      x y z
#    x 1.713720 0.000000 0.000000 
#    y 0.000000 1.688720 0.000000 
#    z 0.000000 0.000000 1.729730 
# 
# From -- ./inp_files/24698.got.cif
#   From: 2010.03.12/outbox.cif.g09.slc.cpg/sg51_13_cif.got.tgz:24698.got - 2010.04.16 13:43:02.
