data_PCOD8209760
_publ_section_title
;
Structure prediction by ZEFSAII (Michael W. Deem and Ramdas Pophale) SiO2 
 PCOD8209760
Probable space group: P M M A
;
_chemical_formula_sum "Si O2"
_cell_formula_units_Z 64
_cell_length_a 25.421932
_cell_length_b 9.039608
_cell_length_c 14.334843
_cell_angle_alpha 90.000000
_cell_angle_beta 90.000000
_cell_angle_gamma 90.000000
_cell_volume 3294.208560
_symmetry_space_group_name_H-M "P M M A"
_symmetry_group_IT_number 51
_symmetry_cell_setting 'orthorhombic'
loop_
_space_group_symop_operation_xyz
x,y,z
1/2-x,-y,z
1/2+x,-y,-z
-x,y,-z
-x,-y,-z
1/2+x,y,-z
1/2-x,y,z
x,-y,z
loop_
_atom_site_type_symbol
_atom_site_label
_atom_site_fract_x
_atom_site_fract_y
_atom_site_fract_z
Si Si1 0.190821 0.670099 0.223615
Si Si2 0.496728 0.175250 0.214716
Si Si3 0.191933 0.324321 0.769922
Si Si4 0.093214 0.329081 0.101742
Si Si5 0.690016 0.826237 0.589063
Si Si6 0.018739 0.330039 0.600456
Si Si7 0.358985 0.330424 0.581331
Si Si8 0.093709 0.674161 0.885737
O O1 0.250000 0.715812 0.193139
O O2 0.188852 0.500000 0.254350
O O3 0.152472 0.700613 0.136854
O O4 0.171151 0.763997 0.311733
O O5 0.446243 0.224757 0.156700
O O6 0.490564 0.233572 0.320209
O O7 0.548656 0.240230 0.168147
O O8 0.500197 0.000000 0.215364
O O9 0.250000 0.261163 0.794160
O O10 0.192796 0.500000 0.768830
O O11 0.175489 0.268446 0.667124
O O12 0.150149 0.270463 0.847079
O O13 0.076830 0.500000 0.116479
O O14 0.090964 0.285349 0.993910
O O15 0.750000 0.776879 0.568991
O O16 0.652231 0.764915 0.509602
O O17 0.683964 0.000000 0.592336
O O18 0.000964 0.500000 0.613155
O O19 0.000000 0.270458 0.500000
O O20 0.080900 0.312797 0.611000
O O21 0.345197 0.500000 0.558517
O O22 0.085791 0.500000 0.867694
#
# Coordination Sequence:
#
# PCOD8209760 Si02
#       8
#     8   8   8   8   8   8   8   8
#     4   9  19  37  59  85 116 149 189 238 289 341
#     4  12  25  40  60  86 119 154 191 239 287 344
#     4   9  17  31  56  88 117 146 185 235 291 348
#     4  10  22  38  62  88 113 150 194 241 291 345
#     4  10  21  35  52  78 114 154 190 227 275 334
#     4  10  22  40  62  87 116 151 190 235 288 346
#     4  10  19  34  57  83 113 149 190 237 286 341
#     4  10  20  39  62  86 116 151 193 241 292 345
#
# _framework density 19.428035000000001
#
# number of rings (size 3 to 8) (size 9 to 14) (size 15 to 20)
#    0.000    2.000    1.250    2.250    1.750    5.000 
#    0.000    2.500    0.000    0.375    0.000    1.750 
#    0.000    0.000    0.000    0.000    0.000    0.000 
#
# Total GULP energy -793785.138360 kJ/mol
# GULP energy per Si atom -12402.892787 kJ/mol
# Density = 1.938382 g / cm^3
# Si number density = 19.428035 Si / 1000 Ang^3
#
#
#
# Elastic Constant Matrix: (Units=GPa)
#
#
# Indices 1 2 3 4 5 6 
#
# 1 106.2474 35.8782 58.6500 0.0000 0.0000 0.0000
# 2 35.8782 70.4113 54.3562 0.0000 0.0000 0.0000
# 3 58.6500 54.3562 145.1276 0.0000 0.0000 0.0000
# 4 0.0000 0.0000 0.0000 6.6846 0.0000 0.0000
# 5 0.0000 0.0000 0.0000 0.0000 29.0282 0.0000
# 6 0.0000 0.0000 0.0000 0.0000 0.0000 10.6167
#
#
#
# Elastic Compliance Matrix: (Units=1/GPa)
#
#
# Indices 1 2 3 4 5 6 
#
# 1 0.012710 -0.003533 -0.003813 0.000000 0.000000 0.000000
# 2 -0.003533 0.020961 -0.006423 0.000000 0.000000 0.000000
# 3 -0.003813 -0.006423 0.010837 0.000000 0.000000 0.000000
# 4 0.000000 0.000000 0.000000 0.149597 0.000000 0.000000
# 5 0.000000 0.000000 0.000000 0.000000 0.034449 0.000000
# 6 0.000000 0.000000 0.000000 0.000000 0.000000 0.094192
#
#
# Mechanical properties :
#
#
# Convention : Reuss Voigt Hill
#
# Bulk Modulus (GPa) = 58.92737 68.83947 63.88342
# Shear Modulus (GPa) = 14.04729 20.79270 17.41999
#
# Velocity S-wave (km/s) = 2.69186 3.27500 2.99765
# Velocity P-wave (km/s) = 6.32917 7.05768 6.70333
#
# Compressibility (1/GPa) = 0.01697004
#
# Stress axis : x y z
#
# Youngs Moduli (GPa) = 78.67894 47.70820 92.27418
#
# Poissons Ratio (x) = 0.16853 0.35187
# Poissons Ratio (y) = 0.27793 0.59268
# Poissons Ratio (z) = 0.30003 0.30643
#
# Static dielectric constant tensor:
#      x y z
#    x 3.731230 0.000000 0.000000 
#    y 0.000000 3.297480 0.000000 
#    z 0.000000 0.000000 3.608800 
# 
# 
# High freq. dielectric constant tensor:
#      x y z
#    x 1.765110 0.000000 0.000000 
#    y 0.000000 1.727770 0.000000 
#    z 0.000000 0.000000 1.764450 
# 
# From -- ./inp_files/26224.got.cif
#   From: 2010.03.12/outbox.cif.g09.slc.cpg/sg51_14_cif.got.tgz:26224.got - 2010.04.16 13:43:02.
