data_PCOD8209687
_publ_section_title
;
Structure prediction by ZEFSAII (Michael W. Deem and Ramdas Pophale) SiO2 
 PCOD8209687
Probable space group: P M M A
;
_chemical_formula_sum "Si O2"
_cell_formula_units_Z 52
_cell_length_a 8.827361
_cell_length_b 22.995900
_cell_length_c 14.282003
_cell_angle_alpha 90.000000
_cell_angle_beta 90.000000
_cell_angle_gamma 90.000000
_cell_volume 2899.148218
_symmetry_space_group_name_H-M "P M M A"
_symmetry_group_IT_number 51
_symmetry_cell_setting 'orthorhombic'
loop_
_space_group_symop_operation_xyz
x,y,z
1/2-x,-y,z
1/2+x,-y,-z
-x,y,-z
-x,-y,-z
1/2+x,y,-z
1/2-x,y,z
x,-y,z
loop_
_atom_site_type_symbol
_atom_site_label
_atom_site_fract_x
_atom_site_fract_y
_atom_site_fract_z
Si Si1 0.429731 0.887049 0.784046
Si Si2 0.570411 0.215771 0.899464
Si Si3 0.571131 0.434832 0.901433
Si Si4 0.072631 0.722867 0.404783
Si Si5 0.927775 0.000000 0.101378
Si Si6 0.429600 0.326872 0.213068
Si Si7 0.571343 0.857944 0.596799
O O1 0.250000 0.878623 0.783947
O O2 0.510475 0.831665 0.827950
O O3 0.490955 0.894369 0.678707
O O4 0.480737 0.943490 0.841805
O O5 0.750000 0.210656 0.906199
O O6 0.516996 0.278479 0.861409
O O7 0.500000 0.204304 0.000000
O O8 0.750000 0.430409 0.913180
O O9 0.521072 0.500000 0.871884
O O10 0.512726 0.389902 0.822273
O O11 0.500000 0.416900 0.000000
O O12 0.250000 0.713861 0.413956
O O13 0.005163 0.686702 0.316603
O O14 0.031714 0.790131 0.388915
O O15 0.000000 0.698470 0.500000
O O16 0.750000 0.000000 0.087347
O O17 0.000000 0.000000 0.000000
O O18 0.250000 0.324895 0.219711
O O19 0.500000 0.880475 0.500000
O O20 0.750000 0.869335 0.597368
#
# Coordination Sequence:
#
# PCOD8209687 Si02
#       7
#     8   8   8   8   4   8   8
#     4  11  22  38  57  79 105 137 175 216 259 312
#     4  11  21  34  50  74 105 136 168 212 265 313
#     4   9  17  30  49  71  97 134 175 211 250 299
#     4   9  17  31  49  72 101 133 165 204 252 304
#     4  10  24  42  59  78 103 138 179 218 258 308
#     4   9  17  31  49  71 103 134 166 209 257 307
#     4  10  19  34  56  82 109 139 171 212 261 313
#
# _framework density 17.936302999999999
#
# number of rings (size 3 to 8) (size 9 to 14) (size 15 to 20)
#    0.000    2.154    1.538    2.308    0.000    3.077 
#    0.000    1.923    0.000    0.462    0.000    0.000 
#    0.000    0.000    0.000    0.000    0.000    0.000 
#
# Total GULP energy -644822.164524 kJ/mol
# GULP energy per Si atom -12400.426241 kJ/mol
# Density = 1.789548 g / cm^3
# Si number density = 17.936303 Si / 1000 Ang^3
#
#
#
# Elastic Constant Matrix: (Units=GPa)
#
#
# Indices 1 2 3 4 5 6 
#
# 1 47.3926 29.6822 38.8605 0.0000 0.0000 0.0000
# 2 29.6822 94.4114 58.1281 0.0000 0.0000 0.0000
# 3 38.8605 58.1281 157.5937 0.0000 0.0000 0.0000
# 4 0.0000 0.0000 0.0000 32.0949 0.0000 0.0000
# 5 0.0000 0.0000 0.0000 0.0000 34.5379 0.0000
# 6 0.0000 0.0000 0.0000 0.0000 0.0000 18.5194
#
#
#
# Elastic Compliance Matrix: (Units=1/GPa)
#
#
# Indices 1 2 3 4 5 6 
#
# 1 0.028917 -0.006082 -0.004887 0.000000 0.000000 0.000000
# 2 -0.006082 0.014983 -0.004027 0.000000 0.000000 0.000000
# 3 -0.004887 -0.004027 0.009036 0.000000 0.000000 0.000000
# 4 0.000000 0.000000 0.000000 0.031158 0.000000 0.000000
# 5 0.000000 0.000000 0.000000 0.000000 0.028954 0.000000
# 6 0.000000 0.000000 0.000000 0.000000 0.000000 0.053997
#
#
# Mechanical properties :
#
#
# Convention : Reuss Voigt Hill
#
# Bulk Modulus (GPa) = 43.58477 61.41548 52.50012
# Shear Modulus (GPa) = 24.42774 28.54557 26.48665
#
# Velocity S-wave (km/s) = 3.69442 3.99368 3.84696
# Velocity P-wave (km/s) = 6.52310 7.45528 7.00471
#
# Compressibility (1/GPa) = 0.02294380
#
# Stress axis : x y z
#
# Youngs Moduli (GPa) = 34.58170 66.74038 110.67099
#
# Poissons Ratio (x) = 0.40594 0.54086
# Poissons Ratio (y) = 0.21034 0.44565
# Poissons Ratio (z) = 0.16900 0.26875
#
# Static dielectric constant tensor:
#      x y z
#    x 3.184880 0.000000 0.000000 
#    y 0.000000 3.397520 0.000000 
#    z 0.000000 0.000000 3.637650 
# 
# 
# High freq. dielectric constant tensor:
#      x y z
#    x 1.684750 0.000000 0.000000 
#    y 0.000000 1.678050 0.000000 
#    z 0.000000 0.000000 1.706110 
# 
# From -- ./inp_files/21651.got.cif
#   From: 2010.03.12/outbox.cif.g09.slc.cpg/sg51_11_cif.got.tgz:21651.got - 2010.04.16 13:43:02.
