data_PCOD8209518
_publ_section_title
;
Structure prediction by ZEFSAII (Michael W. Deem and Ramdas Pophale) SiO2 
 PCOD8209518
Probable space group: P M M A
;
_chemical_formula_sum "Si O2"
_cell_formula_units_Z 48
_cell_length_a 18.963485
_cell_length_b 9.134841
_cell_length_c 15.033982
_cell_angle_alpha 90.000000
_cell_angle_beta 90.000000
_cell_angle_gamma 90.000000
_cell_volume 2604.312952
_symmetry_space_group_name_H-M "P M M A"
_symmetry_group_IT_number 51
_symmetry_cell_setting 'orthorhombic'
loop_
_space_group_symop_operation_xyz
x,y,z
1/2-x,-y,z
1/2+x,-y,-z
-x,y,-z
-x,-y,-z
1/2+x,y,-z
1/2-x,y,z
x,-y,z
loop_
_atom_site_type_symbol
_atom_site_label
_atom_site_fract_x
_atom_site_fract_y
_atom_site_fract_z
Si Si1 0.328011 0.826718 0.435506
Si Si2 0.666759 0.166776 0.365663
Si Si3 0.580234 0.826203 0.727114
Si Si4 0.564790 0.328910 0.239635
Si Si5 0.575342 0.329061 0.034741
Si Si6 0.330781 0.827605 0.102460
O O1 0.250000 0.759810 0.418864
O O2 0.355134 0.785968 0.534199
O O3 0.381513 0.765933 0.361584
O O4 0.322223 0.000000 0.426840
O O5 0.750000 0.181222 0.353611
O O6 0.630520 0.276700 0.297611
O O7 0.642579 0.000000 0.346863
O O8 0.504133 0.755114 0.728892
O O9 0.625762 0.774507 0.811648
O O10 0.571786 0.000000 0.725305
O O11 0.552108 0.500000 0.253167
O O12 0.582461 0.291463 0.138060
O O13 0.582740 0.500000 0.014448
O O14 0.500000 0.270526 0.000000
O O15 0.638344 0.247028 0.985285
O O16 0.250000 0.778700 0.114896
O O17 0.336872 0.000000 0.089952
#
# Coordination Sequence:
#
# PCOD8209518 Si02
#       6
#     8   8   8   8   8   8
#     4   8  15  31  56  82 108 141 179 219 264 317
#     4   9  19  37  59  81 106 139 181 225 267 316
#     4  10  19  33  56  83 111 142 177 217 265 322
#     4  11  23  37  55  78 108 144 182 224 269 317
#     4  10  21  39  57  73 102 146 188 220 260 320
#     4  10  21  35  55  86 115 137 171 224 277 320
#
# _framework density 18.430963999999999
#
# number of rings (size 3 to 8) (size 9 to 14) (size 15 to 20)
#    0.000    2.333    1.667    2.000    0.000    5.667 
#    0.000    7.500    0.000    2.500    0.000    0.000 
#    0.000    0.000    0.000    0.000    0.000    0.000 
#
# Total GULP energy -595277.951703 kJ/mol
# GULP energy per Si atom -12401.623994 kJ/mol
# Density = 1.838901 g / cm^3
# Si number density = 18.430964 Si / 1000 Ang^3
#
#
#
# Elastic Constant Matrix: (Units=GPa)
#
#
# Indices 1 2 3 4 5 6 
#
# 1 86.2567 26.4320 58.6437 0.0000 0.0000 0.0000
# 2 26.4320 28.6701 38.3216 0.0000 0.0000 0.0000
# 3 58.6437 38.3216 136.5616 0.0000 0.0000 0.0000
# 4 0.0000 0.0000 0.0000 20.6980 0.0000 0.0000
# 5 0.0000 0.0000 0.0000 0.0000 35.5734 0.0000
# 6 0.0000 0.0000 0.0000 0.0000 0.0000 12.2204
#
#
#
# Elastic Compliance Matrix: (Units=1/GPa)
#
#
# Indices 1 2 3 4 5 6 
#
# 1 0.018012 -0.010029 -0.004921 0.000000 0.000000 0.000000
# 2 -0.010029 0.061399 -0.012923 0.000000 0.000000 0.000000
# 3 -0.004921 -0.012923 0.013062 0.000000 0.000000 0.000000
# 4 0.000000 0.000000 0.000000 0.048314 0.000000 0.000000
# 5 0.000000 0.000000 0.000000 0.000000 0.028111 0.000000
# 6 0.000000 0.000000 0.000000 0.000000 0.000000 0.081830
#
#
# Mechanical properties :
#
#
# Convention : Reuss Voigt Hill
#
# Bulk Modulus (GPa) = 27.22701 55.36479 41.29590
# Shear Modulus (GPa) = 15.68799 22.23776 18.96288
#
# Velocity S-wave (km/s) = 2.92066 3.47730 3.21106
# Velocity P-wave (km/s) = 5.11646 6.79900 6.01683
#
# Compressibility (1/GPa) = 0.03672824
#
# Stress axis : x y z
#
# Youngs Moduli (GPa) = 55.51907 16.28697 76.55705
#
# Poissons Ratio (x) = 0.16334 0.37671
# Poissons Ratio (y) = 0.55679 0.98934
# Poissons Ratio (z) = 0.27319 0.21048
#
# Static dielectric constant tensor:
#      x y z
#    x 3.421290 0.000000 0.000000 
#    y 0.000000 3.132360 0.000000 
#    z 0.000000 0.000000 3.612520 
# 
# 
# High freq. dielectric constant tensor:
#      x y z
#    x 1.718810 0.000000 0.000000 
#    y 0.000000 1.688260 0.000000 
#    z 0.000000 0.000000 1.727820 
# 
# From -- ./inp_files/24722.got.cif
#   From: 2010.03.12/outbox.cif.g09.slc.cpg/sg51_13_cif.got.tgz:24722.got - 2010.04.16 13:43:02.
