data_PCOD8209550
_publ_section_title
;
Structure prediction by ZEFSAII (Michael W. Deem and Ramdas Pophale) SiO2 
 PCOD8209550
Probable space group: P M M A
;
_chemical_formula_sum "Si O2"
_cell_formula_units_Z 48
_cell_length_a 15.821603
_cell_length_b 18.638799
_cell_length_c 7.669636
_cell_angle_alpha 90.000000
_cell_angle_beta 90.000000
_cell_angle_gamma 90.000000
_cell_volume 2261.742510
_symmetry_space_group_name_H-M "P M M A"
_symmetry_group_IT_number 51
_symmetry_cell_setting 'orthorhombic'
loop_
_space_group_symop_operation_xyz
x,y,z
1/2-x,-y,z
1/2+x,-y,-z
-x,y,-z
-x,-y,-z
1/2+x,y,-z
1/2-x,y,z
x,-y,z
loop_
_atom_site_type_symbol
_atom_site_label
_atom_site_fract_x
_atom_site_fract_y
_atom_site_fract_z
Si Si1 0.656263 0.332082 0.774705
Si Si2 0.088810 0.174641 0.710841
Si Si3 0.655877 0.322216 0.182325
Si Si4 0.153049 0.080726 0.012717
Si Si5 0.602947 0.181191 0.676939
Si Si6 0.003761 0.580424 0.792369
O O1 0.750000 0.365426 0.740563
O O2 0.652216 0.256535 0.674668
O O3 0.582345 0.385932 0.711539
O O4 0.641873 0.316558 0.977082
O O5 0.148533 0.242017 0.746658
O O6 0.101493 0.111708 0.849845
O O7 0.108272 0.146123 0.515733
O O8 0.992546 0.200141 0.729995
O O9 0.750000 0.351331 0.227353
O O10 0.586081 0.374523 0.268758
O O11 0.250000 0.081845 0.956854
O O12 0.120811 0.000000 0.047449
O O13 0.142619 0.125437 0.189089
O O14 0.012492 0.500000 0.718147
O O15 0.000000 0.578821 0.000000
#
# Coordination Sequence:
#
# PCOD8209550 Si02
#       6
#     8   8   8   8   8   8
#     4  10  19  33  57  86 119 161 207 256 309 364
#     4  11  23  39  63  92 122 161 211 260 306 365
#     4  10  19  33  57  86 119 161 207 256 309 364
#     4  11  25  43  63  91 127 164 203 253 313 373
#     4  11  23  39  63  92 122 161 211 260 306 365
#     4   9  18  32  53  85 123 161 203 252 309 372
#
# _framework density 21.222576
#
# number of rings (size 3 to 8) (size 9 to 14) (size 15 to 20)
#    0.000    1.667    3.333    1.500    0.000    5.333 
#    0.000    6.667    0.000    2.000    0.000    2.333 
#    0.000    0.000    0.000    0.000    0.000    0.000 
#
# Total GULP energy -595243.984812 kJ/mol
# GULP energy per Si atom -12400.916350 kJ/mol
# Density = 2.117427 g / cm^3
# Si number density = 21.222576 Si / 1000 Ang^3
#
#
#
# Elastic Constant Matrix: (Units=GPa)
#
#
# Indices 1 2 3 4 5 6 
#
# 1 126.6397 37.5130 14.2271 0.0000 0.0000 0.0000
# 2 37.5130 126.8652 16.7707 0.0000 0.0000 0.0000
# 3 14.2271 16.7707 54.8051 0.0000 0.0000 0.0000
# 4 0.0000 0.0000 0.0000 2.1158 0.0000 0.0000
# 5 0.0000 0.0000 0.0000 0.0000 17.0015 0.0000
# 6 0.0000 0.0000 0.0000 0.0000 0.0000 29.2531
#
#
#
# Elastic Compliance Matrix: (Units=1/GPa)
#
#
# Indices 1 2 3 4 5 6 
#
# 1 0.008779 -0.002391 -0.001547 0.000000 0.000000 0.000000
# 2 -0.002391 0.008866 -0.002092 0.000000 0.000000 0.000000
# 3 -0.001547 -0.002092 0.019288 0.000000 0.000000 0.000000
# 4 0.000000 0.000000 0.000000 0.472632 0.000000 0.000000
# 5 0.000000 0.000000 0.000000 0.000000 0.058818 0.000000
# 6 0.000000 0.000000 0.000000 0.000000 0.000000 0.034184
#
#
# Mechanical properties :
#
#
# Convention : Reuss Voigt Hill
#
# Bulk Modulus (GPa) = 40.20649 49.48129 44.84389
# Shear Modulus (GPa) = 8.02672 25.66069 16.84370
#
# Velocity S-wave (km/s) = 1.94689 3.48102 2.82027
# Velocity P-wave (km/s) = 4.90307 6.28670 5.63750
#
# Compressibility (1/GPa) = 0.02487161
#
# Stress axis : x y z
#
# Youngs Moduli (GPa) = 113.91398 112.78996 51.84473
#
# Poissons Ratio (x) = 0.26971 0.08021
# Poissons Ratio (y) = 0.27239 0.10848
# Poissons Ratio (z) = 0.17624 0.23599
#
# Static dielectric constant tensor:
#      x y z
#    x 4.042340 0.000000 0.000000 
#    y 0.000000 3.764520 0.000000 
#    z 0.000000 0.000000 3.649360 
# 
# 
# High freq. dielectric constant tensor:
#      x y z
#    x 1.846970 0.000000 0.000000 
#    y 0.000000 1.812080 0.000000 
#    z 0.000000 0.000000 1.819240 
# 
# From -- ./inp_files/8291.got.cif
#   From: 2010.03.12/outbox.cif.g09.slc.cpg/sg51_5_cif.got.tgz:8291.got - 2010.04.16 13:43:02.
