data_PCOD8209329
_publ_section_title
;
Structure prediction by ZEFSAII (Michael W. Deem and Ramdas Pophale) SiO2 
 PCOD8209329
Probable space group: P M M A
;
_chemical_formula_sum "Si O2"
_cell_formula_units_Z 56
_cell_length_a 14.054894
_cell_length_b 9.239883
_cell_length_c 23.123390
_cell_angle_alpha 90.000000
_cell_angle_beta 90.000000
_cell_angle_gamma 90.000000
_cell_volume 3002.932365
_symmetry_space_group_name_H-M "P M M A"
_symmetry_group_IT_number 51
_symmetry_cell_setting 'orthorhombic'
loop_
_space_group_symop_operation_xyz
x,y,z
1/2-x,-y,z
1/2+x,-y,-z
-x,y,-z
-x,-y,-z
1/2+x,y,-z
1/2-x,y,z
x,-y,z
loop_
_atom_site_type_symbol
_atom_site_label
_atom_site_fract_x
_atom_site_fract_y
_atom_site_fract_z
Si Si1 0.642512 0.828132 0.254010
Si Si2 0.857671 0.667550 0.596516
Si Si3 0.362353 0.335780 0.966232
Si Si4 0.467485 0.171384 0.633327
Si Si5 0.455651 0.167630 0.862102
Si Si6 0.356841 0.166266 0.079158
Si Si7 0.138716 0.336909 0.536676
O O1 0.750000 0.765759 0.250282
O O2 0.592430 0.770366 0.312027
O O3 0.580478 0.773029 0.199572
O O4 0.645642 0.000000 0.255252
O O5 0.750000 0.720711 0.607236
O O6 0.867485 0.500000 0.613060
O O7 0.887175 0.691919 0.529906
O O8 0.926918 0.761554 0.636820
O O9 0.250000 0.327017 0.961397
O O10 0.399319 0.500000 0.967190
O O11 0.403870 0.255200 0.911564
O O12 0.395537 0.260267 0.025586
O O13 0.416044 0.221361 0.575085
O O14 0.476113 0.000000 0.633388
O O15 0.570154 0.189461 0.867482
O O16 0.427732 0.000000 0.869327
O O17 0.250000 0.212991 0.098513
O O18 0.357175 0.000000 0.058780
O O19 0.250000 0.316380 0.546798
O O20 0.107590 0.500000 0.553898
#
# Coordination Sequence:
#
# PCOD8209329 Si02
#       7
#     8   8   8   8   8   8   8
#     4   9  19  35  52  72 101 134 165 200 246 297
#     4   9  19  36  55  74 100 135 172 209 251 302
#     4  10  20  32  48  74 106 134 159 196 251 304
#     4  11  21  32  50  77 106 135 168 209 258 306
#     4  10  19  33  54  74  94 130 175 209 240 285
#     4   9  18  32  50  74 101 127 161 204 245 290
#     4   9  18  33  53  76 102 135 173 209 249 302
#
# _framework density 18.648439
#
# number of rings (size 3 to 8) (size 9 to 14) (size 15 to 20)
#    0.000    2.429    0.000    3.429    0.000    7.143 
#    0.000    3.571    0.000    6.000    0.000    2.000 
#    0.000    0.000    0.000    0.000    0.000    0.000 
#
# Total GULP energy -694392.220103 kJ/mol
# GULP energy per Si atom -12399.861073 kJ/mol
# Density = 1.860599 g / cm^3
# Si number density = 18.648439 Si / 1000 Ang^3
#
#
#
# Elastic Constant Matrix: (Units=GPa)
#
#
# Indices 1 2 3 4 5 6 
#
# 1 86.8546 41.0474 79.8385 0.0000 0.0000 0.0000
# 2 41.0474 63.7141 39.0109 0.0000 0.0000 0.0000
# 3 79.8385 39.0109 88.8494 0.0000 0.0000 0.0000
# 4 0.0000 0.0000 0.0000 -0.6297 0.0000 0.0000
# 5 0.0000 0.0000 0.0000 0.0000 34.0425 0.0000
# 6 0.0000 0.0000 0.0000 0.0000 0.0000 28.6733
#
#
#
# Elastic Compliance Matrix: (Units=1/GPa)
#
#
# Indices 1 2 3 4 5 6 
#
# 1 0.069724 -0.008970 -0.058715 0.000000 0.000000 0.000000
# 2 -0.008970 0.022620 -0.001872 0.000000 0.000000 0.000000
# 3 -0.058715 -0.001872 0.064837 0.000000 0.000000 0.000000
# 4 0.000000 0.000000 0.000000 -1.588107 0.000000 0.000000
# 5 0.000000 0.000000 0.000000 0.000000 0.029375 0.000000
# 6 0.000000 0.000000 0.000000 0.000000 0.000000 0.034876
#
#
# Mechanical properties :
#
#
# Convention : Reuss Voigt Hill
#
# Bulk Modulus (GPa) = 55.34401 62.13463 58.73932
# Shear Modulus (GPa) = -4.09319 17.71865 6.81273
#
# Velocity S-wave (km/s) = -1.48313 3.08578 1.91342
# Velocity P-wave (km/s) = 5.17775 6.78876 6.03723
#
# Compressibility (1/GPa) = 0.01806880
#
# Stress axis : x y z
#
# Youngs Moduli (GPa) = 14.34221 44.20924 15.42335
#
# Poissons Ratio (x) = 0.39654 0.90558
# Poissons Ratio (y) = 0.12864 0.02887
# Poissons Ratio (z) = 0.84210 0.08275
#
# Static dielectric constant tensor:
#      x y z
#    x 3.728270 0.000000 0.000000 
#    y 0.000000 3.280910 0.000000 
#    z 0.000000 0.000000 3.340670 
# 
# 
# High freq. dielectric constant tensor:
#      x y z
#    x 1.743860 0.000000 0.000000 
#    y 0.000000 1.705790 0.000000 
#    z 0.000000 0.000000 1.702100 
# 
# From -- ./inp_files/33294.got.cif
#   From: 2010.03.12/outbox.cif.g09.slc.cpg/sg51_17_cif.got.tgz:33294.got - 2010.04.16 13:43:02.
