data_PCOD8209501
_publ_section_title
;
Structure prediction by ZEFSAII (Michael W. Deem and Ramdas Pophale) SiO2 
 PCOD8209501
Probable space group: P M M A
;
_chemical_formula_sum "Si O2"
_cell_formula_units_Z 48
_cell_length_a 17.950380
_cell_length_b 8.841150
_cell_length_c 16.623467
_cell_angle_alpha 90.000000
_cell_angle_beta 90.000000
_cell_angle_gamma 90.000000
_cell_volume 2638.177495
_symmetry_space_group_name_H-M "P M M A"
_symmetry_group_IT_number 51
_symmetry_cell_setting 'orthorhombic'
loop_
_space_group_symop_operation_xyz
x,y,z
1/2-x,-y,z
1/2+x,-y,-z
-x,y,-z
-x,-y,-z
1/2+x,y,-z
1/2-x,y,z
x,-y,z
loop_
_atom_site_type_symbol
_atom_site_label
_atom_site_fract_x
_atom_site_fract_y
_atom_site_fract_z
Si Si1 0.546999 0.171965 0.240356
Si Si2 0.531186 0.180517 0.914693
Si Si3 0.835781 0.178359 0.362173
Si Si4 0.107289 0.173647 0.323264
Si Si5 0.665257 0.325460 0.832683
Si Si6 0.084637 0.679051 0.488348
O O1 0.524561 0.246161 0.154559
O O2 0.619365 0.242778 0.284030
O O3 0.479447 0.188997 0.302395
O O4 0.565662 0.000000 0.220776
O O5 0.613273 0.246979 0.899724
O O6 0.537775 0.000000 0.909545
O O7 0.500000 0.235917 0.000000
O O8 0.750000 0.215002 0.346875
O O9 0.863342 0.265084 0.440207
O O10 0.850813 0.000000 0.374033
O O11 0.156890 0.249981 0.254540
O O12 0.121008 0.255812 0.407427
O O13 0.131936 0.000000 0.330659
O O14 0.750000 0.305299 0.862037
O O15 0.642730 0.500000 0.825164
O O16 0.086505 0.500000 0.484061
O O17 0.000000 0.738053 0.500000
#
# Coordination Sequence:
#
# PCOD8209501 Si02
#       6
#     8   8   8   8   8   8
#     4   8  15  30  51  75 101 131 167 213 259 304
#     4   9  18  34  57  84 111 140 179 222 264 318
#     4  10  20  34  52  73 100 137 180 222 265 312
#     4  10  19  33  56  78 101 137 179 222 265 314
#     4  10  21  36  54  79 113 146 177 221 275 326
#     4  11  22  34  51  76 106 140 179 223 269 318
#
# _framework density 18.194376999999999
#
# number of rings (size 3 to 8) (size 9 to 14) (size 15 to 20)
#    0.000    2.333    1.667    2.500    0.000    3.333 
#    0.000    0.833    0.000    3.000    0.000    0.000 
#    0.000    0.000    0.000    0.000    0.000    0.000 
#
# Total GULP energy -595099.319483 kJ/mol
# GULP energy per Si atom -12397.902489 kJ/mol
# Density = 1.815297 g / cm^3
# Si number density = 18.194377 Si / 1000 Ang^3
#
#
#
# Elastic Constant Matrix: (Units=GPa)
#
#
# Indices 1 2 3 4 5 6 
#
# 1 101.6836 36.3810 63.6253 0.0000 0.0000 0.0000
# 2 36.3810 62.2728 39.4204 0.0000 0.0000 0.0000
# 3 63.6253 39.4204 144.0542 0.0000 0.0000 0.0000
# 4 0.0000 0.0000 0.0000 15.5455 0.0000 0.0000
# 5 0.0000 0.0000 0.0000 0.0000 23.7596 0.0000
# 6 0.0000 0.0000 0.0000 0.0000 0.0000 23.4924
#
#
#
# Elastic Compliance Matrix: (Units=1/GPa)
#
#
# Indices 1 2 3 4 5 6 
#
# 1 0.015017 -0.005533 -0.005118 0.000000 0.000000 0.000000
# 2 -0.005533 0.021462 -0.003429 0.000000 0.000000 0.000000
# 3 -0.005118 -0.003429 0.010141 0.000000 0.000000 0.000000
# 4 0.000000 0.000000 0.000000 0.064327 0.000000 0.000000
# 5 0.000000 0.000000 0.000000 0.000000 0.042088 0.000000
# 6 0.000000 0.000000 0.000000 0.000000 0.000000 0.042567
#
#
# Mechanical properties :
#
#
# Convention : Reuss Voigt Hill
#
# Bulk Modulus (GPa) = 54.17679 65.20712 59.69196
# Shear Modulus (GPa) = 21.74710 23.79842 22.77276
#
# Velocity S-wave (km/s) = 3.46101 3.62056 3.54169
# Velocity P-wave (km/s) = 6.76851 7.30718 7.04300
#
# Compressibility (1/GPa) = 0.01845809
#
# Stress axis : x y z
#
# Youngs Moduli (GPa) = 66.59235 46.59482 98.61032
#
# Poissons Ratio (x) = 0.25781 0.50473
# Poissons Ratio (y) = 0.36845 0.33815
# Poissons Ratio (z) = 0.34085 0.15978
#
# Static dielectric constant tensor:
#      x y z
#    x 3.357180 0.000000 0.000000 
#    y 0.000000 3.228450 0.000000 
#    z 0.000000 0.000000 3.449540 
# 
# 
# High freq. dielectric constant tensor:
#      x y z
#    x 1.698100 0.000000 0.000000 
#    y 0.000000 1.691510 0.000000 
#    z 0.000000 0.000000 1.701940 
# 
# From -- ./inp_files/30022.got.cif
#   From: 2010.03.12/outbox.cif.g09.slc.cpg/sg51_16_cif.got.tgz:30022.got - 2010.04.16 13:43:02.
