data_PCOD8209201
_publ_section_title
;
Structure prediction by ZEFSAII (Michael W. Deem and Ramdas Pophale) SiO2 
 PCOD8209201
Probable space group: P M M A
;
_chemical_formula_sum "Si O2"
_cell_formula_units_Z 64
_cell_length_a 14.225897
_cell_length_b 9.636310
_cell_length_c 28.167680
_cell_angle_alpha 90.000000
_cell_angle_beta 90.000000
_cell_angle_gamma 90.000000
_cell_volume 3861.370737
_symmetry_space_group_name_H-M "P M M A"
_symmetry_group_IT_number 51
_symmetry_cell_setting 'orthorhombic'
loop_
_space_group_symop_operation_xyz
x,y,z
1/2-x,-y,z
1/2+x,-y,-z
-x,y,-z
-x,-y,-z
1/2+x,y,-z
1/2-x,y,z
x,-y,z
loop_
_atom_site_type_symbol
_atom_site_label
_atom_site_fract_x
_atom_site_fract_y
_atom_site_fract_z
Si Si1 0.039540 0.835288 0.570800
Si Si2 0.858919 0.838643 0.335636
Si Si3 0.857775 0.840034 0.880850
Si Si4 0.147437 0.654583 0.928685
Si Si5 0.354968 0.834944 0.478117
Si Si6 0.983122 0.663794 0.155596
Si Si7 0.107998 0.155072 0.012589
Si Si8 0.857912 0.660721 0.245054
O O1 0.077681 0.780398 0.621111
O O2 0.107503 0.779477 0.528908
O O3 0.931040 0.787179 0.561920
O O4 0.044965 0.000000 0.570239
O O5 0.750000 0.814528 0.348696
O O6 0.889003 0.751980 0.289764
O O7 0.878905 0.000000 0.325344
O O8 0.750000 0.820927 0.865751
O O9 0.873153 0.787097 0.934718
O O10 0.918937 0.746831 0.844872
O O11 0.889661 0.000000 0.876544
O O12 0.250000 0.649391 0.904083
O O13 0.115704 0.500000 0.944038
O O14 0.074853 0.715041 0.890455
O O15 0.158805 0.747007 0.975298
O O16 0.250000 0.774384 0.467748
O O17 0.349918 0.000000 0.479099
O O18 0.002327 0.500000 0.154150
O O19 0.924443 0.705449 0.201882
O O20 0.150171 0.000000 0.008624
O O21 0.000000 0.156081 0.000000
O O22 0.750000 0.691262 0.230836
O O23 0.871573 0.500000 0.258214
#
# Coordination Sequence:
#
# PCOD8209201 Si02
#       8
#     8   8   8   8   8   8   8   8
#     4   8  13  20  32  54  85 118 149 184 226 265
#     4   9  16  26  42  65  91 117 147 185 226 266
#     4  10  21  36  52  70  94 123 153 186 223 262
#     4  10  20  32  48  71  96 120 146 180 222 265
#     4   8  12  18  30  51  82 119 154 185 220 265
#     4  10  20  34  52  71  92 117 149 188 227 269
#     4  10  19  33  51  69  93 124 154 180 212 260
#     4   9  18  33  51  70  93 120 148 182 229 281
#
# _framework density 16.574425999999999
#
# number of rings (size 3 to 8) (size 9 to 14) (size 15 to 20)
#    0.000    2.750    1.250    1.875    0.000    5.250 
#    0.000    0.000    0.000    3.000    0.000    3.500 
#    0.000    1.000    0.000    0.000    0.000    0.000 
#
# Total GULP energy -793313.045295 kJ/mol
# GULP energy per Si atom -12395.516333 kJ/mol
# Density = 1.653670 g / cm^3
# Si number density = 16.574426 Si / 1000 Ang^3
#
#
#
# Elastic Constant Matrix: (Units=GPa)
#
#
# Indices 1 2 3 4 5 6 
#
# 1 115.0797 33.2731 61.2471 0.0000 0.0000 0.0000
# 2 33.2731 41.6311 45.1955 0.0000 0.0000 0.0000
# 3 61.2471 45.1955 116.0542 0.0000 0.0000 0.0000
# 4 0.0000 0.0000 0.0000 13.2928 0.0000 0.0000
# 5 0.0000 0.0000 0.0000 0.0000 28.4255 0.0000
# 6 0.0000 0.0000 0.0000 0.0000 0.0000 14.4085
#
#
#
# Elastic Compliance Matrix: (Units=1/GPa)
#
#
# Indices 1 2 3 4 5 6 
#
# 1 0.012648 -0.004959 -0.004744 0.000000 0.000000 0.000000
# 2 -0.004959 0.043558 -0.014346 0.000000 0.000000 0.000000
# 3 -0.004744 -0.014346 0.016707 0.000000 0.000000 0.000000
# 4 0.000000 0.000000 0.000000 0.075229 0.000000 0.000000
# 5 0.000000 0.000000 0.000000 0.000000 0.035180 0.000000
# 6 0.000000 0.000000 0.000000 0.000000 0.000000 0.069404
#
#
# Mechanical properties :
#
#
# Convention : Reuss Voigt Hill
#
# Bulk Modulus (GPa) = 40.29678 61.35513 50.82596
# Shear Modulus (GPa) = 16.17628 20.09531 18.13579
#
# Velocity S-wave (km/s) = 3.12745 3.48577 3.31146
# Velocity P-wave (km/s) = 6.11610 7.30063 6.73446
#
# Compressibility (1/GPa) = 0.02481588
#
# Stress axis : x y z
#
# Youngs Moduli (GPa) = 79.06308 22.95783 59.85502
#
# Poissons Ratio (x) = 0.11384 0.28394
# Poissons Ratio (y) = 0.39206 0.85868
# Poissons Ratio (z) = 0.37506 0.32935
#
# Static dielectric constant tensor:
#      x y z
#    x 3.257960 0.000000 0.000000 
#    y 0.000000 2.874470 0.000000 
#    z 0.000000 0.000000 3.048280 
# 
# 
# High freq. dielectric constant tensor:
#      x y z
#    x 1.642630 0.000000 0.000000 
#    y 0.000000 1.607300 0.000000 
#    z 0.000000 0.000000 1.619180 
# 
# From -- ./inp_files/37802.got.cif
#   From: 2010.03.12/outbox.cif.g09.slc.cpg/sg51_19_cif.got.tgz:37802.got - 2010.04.16 13:43:02.
