data_PCOD8209348
_publ_section_title
;
Structure prediction by ZEFSAII (Michael W. Deem and Ramdas Pophale) SiO2 
 PCOD8209348
Probable space group: P M M A
;
_chemical_formula_sum "Si O2"
_cell_formula_units_Z 48
_cell_length_a 8.541155
_cell_length_b 14.831578
_cell_length_c 19.049442
_cell_angle_alpha 90.000000
_cell_angle_beta 90.000000
_cell_angle_gamma 90.000000
_cell_volume 2413.160579
_symmetry_space_group_name_H-M "P M M A"
_symmetry_group_IT_number 51
_symmetry_cell_setting 'orthorhombic'
loop_
_space_group_symop_operation_xyz
x,y,z
1/2-x,-y,z
1/2+x,-y,-z
-x,y,-z
-x,-y,-z
1/2+x,y,-z
1/2-x,y,z
x,-y,z
loop_
_atom_site_type_symbol
_atom_site_label
_atom_site_fract_x
_atom_site_fract_y
_atom_site_fract_z
Si Si1 0.563118 0.334789 0.571863
Si Si2 0.066044 0.863628 0.571405
Si Si3 0.070981 0.764720 0.804969
Si Si4 0.436198 0.102421 0.924264
Si Si5 0.566015 0.400131 0.724996
Si Si6 0.426071 0.902100 0.289451
O O1 0.500000 0.384295 0.500000
O O2 0.750000 0.322298 0.567178
O O3 0.473145 0.241328 0.575901
O O4 0.513355 0.384821 0.643987
O O5 0.250000 0.880537 0.578435
O O6 0.000000 0.905392 0.500000
O O7 0.971379 0.916753 0.630383
O O8 0.250000 0.744027 0.820281
O O9 0.996695 0.820676 0.870941
O O10 0.994518 0.669662 0.784055
O O11 0.051725 0.832239 0.740101
O O12 0.250000 0.105418 0.923872
O O13 0.492139 0.000000 0.904569
O O14 0.500000 0.129769 0.000000
O O15 0.750000 0.393310 0.727909
O O16 0.507313 0.500000 0.746724
O O17 0.250000 0.862504 0.281850
O O18 0.436853 0.000000 0.252037
#
# Coordination Sequence:
#
# PCOD8209348 Si02
#       6
#     8   8   8   8   8   8
#     4  10  19  33  54  77 106 141 185 238 294 350
#     4  11  21  34  53  74 102 140 183 232 285 338
#     4  11  22  37  59  86 117 150 185 232 283 332
#     4   9  19  36  59  90 125 156 187 223 268 326
#     4  10  22  39  58  81 112 151 194 240 290 346
#     4  11  23  37  54  78 108 145 188 230 276 336
#
# _framework density 19.890926
#
# number of rings (size 3 to 8) (size 9 to 14) (size 15 to 20)
#    0.000    1.667    1.667    4.500    0.000    5.000 
#    0.000    1.667    0.000    0.500    0.000    0.000 
#    0.000    0.000    0.000    0.000    0.000    0.000 
#
# Total GULP energy -594752.495362 kJ/mol
# GULP energy per Si atom -12390.676987 kJ/mol
# Density = 1.984565 g / cm^3
# Si number density = 19.890926 Si / 1000 Ang^3
#
#
#
# Elastic Constant Matrix: (Units=GPa)
#
#
# Indices 1 2 3 4 5 6 
#
# 1 44.6671 21.0896 16.4666 0.0000 0.0000 0.0000
# 2 21.0896 133.3254 66.2580 0.0000 0.0000 0.0000
# 3 16.4666 66.2580 123.7881 0.0000 0.0000 0.0000
# 4 0.0000 0.0000 0.0000 22.8688 0.0000 0.0000
# 5 0.0000 0.0000 0.0000 0.0000 30.6651 0.0000
# 6 0.0000 0.0000 0.0000 0.0000 0.0000 10.5511
#
#
#
# Elastic Compliance Matrix: (Units=1/GPa)
#
#
# Indices 1 2 3 4 5 6 
#
# 1 0.024428 -0.003064 -0.001609 0.000000 0.000000 0.000000
# 2 -0.003064 0.010603 -0.005268 0.000000 0.000000 0.000000
# 3 -0.001609 -0.005268 0.011112 0.000000 0.000000 0.000000
# 4 0.000000 0.000000 0.000000 0.043728 0.000000 0.000000
# 5 0.000000 0.000000 0.000000 0.000000 0.032610 0.000000
# 6 0.000000 0.000000 0.000000 0.000000 0.000000 0.094777
#
#
# Mechanical properties :
#
#
# Convention : Reuss Voigt Hill
#
# Bulk Modulus (GPa) = 38.08022 56.60100 47.34061
# Shear Modulus (GPa) = 20.33399 26.01477 23.17438
#
# Velocity S-wave (km/s) = 3.20077 3.62037 3.41702
# Velocity P-wave (km/s) = 5.73114 6.78186 6.27852
#
# Compressibility (1/GPa) = 0.02626035
#
# Stress axis : x y z
#
# Youngs Moduli (GPa) = 40.93680 94.31281 89.99330
#
# Poissons Ratio (x) = 0.28900 0.14483
# Poissons Ratio (y) = 0.12544 0.47406
# Poissons Ratio (z) = 0.06588 0.49681
#
# Static dielectric constant tensor:
#      x y z
#    x 3.515920 0.000000 0.000000 
#    y 0.000000 3.671720 0.000000 
#    z 0.000000 0.000000 3.918770 
# 
# 
# High freq. dielectric constant tensor:
#      x y z
#    x 1.771790 0.000000 0.000000 
#    y 0.000000 1.766430 0.000000 
#    z 0.000000 0.000000 1.764630 
# 
# From -- ./inp_files/27582.got.cif
#   From: 2010.03.12/outbox.cif.g09.slc.cpg/sg51_14_cif.got.tgz:27582.got - 2010.04.16 13:43:02.
