data_PCOD8209943
_publ_section_title
;
Structure prediction by ZEFSAII (Michael W. Deem and Ramdas Pophale) SiO2 
 PCOD8209943
Probable space group: P M M A
;
_chemical_formula_sum "Si O2"
_cell_formula_units_Z 28
_cell_length_a 16.575957
_cell_length_b 16.516675
_cell_length_c 5.023499
_cell_angle_alpha 90.000000
_cell_angle_beta 90.000000
_cell_angle_gamma 90.000000
_cell_volume 1375.332022
_symmetry_space_group_name_H-M "P M M A"
_symmetry_group_IT_number 51
_symmetry_cell_setting 'orthorhombic'
loop_
_space_group_symop_operation_xyz
x,y,z
1/2-x,-y,z
1/2+x,-y,-z
-x,y,-z
-x,-y,-z
1/2+x,y,-z
1/2-x,y,z
x,-y,z
loop_
_atom_site_type_symbol
_atom_site_label
_atom_site_fract_x
_atom_site_fract_y
_atom_site_fract_z
Si Si1 0.587585 0.093615 0.606926
Si Si2 0.942439 0.325272 0.249635
Si Si3 0.657531 0.173039 0.123939
Si Si4 0.943794 0.500000 0.250857
O O1 0.500000 0.119839 0.500000
O O2 0.605900 0.145216 0.869804
O O3 0.590911 0.000000 0.689261
O O4 0.650137 0.109885 0.367854
O O5 0.896328 0.413780 0.258144
O O6 0.000000 0.309662 0.500000
O O7 0.872191 0.259360 0.233081
O O8 0.000000 0.319261 0.000000
O O9 0.750000 0.179139 0.034946
O O10 0.000000 0.500000 0.500000
O O11 0.000000 0.500000 0.000000
#
# Coordination Sequence:
#
# PCOD8209943 Si02
#       4
#     8   8   8   4
#     4  11  24  42  62  82 108 148 196 239 282 339
#     4  10  19  35  58  81 110 147 189 229 271 327
#     4  12  24  37  57  87 119 149 184 232 292 346
#     4   8  16  30  53  82 105 138 187 232 267 314
#
# _framework density 20.358720000000002
#
# number of rings (size 3 to 8) (size 9 to 14) (size 15 to 20)
#    0.000    1.429    0.000    6.857    0.000    5.714 
#    0.000    0.714    0.000    0.000    0.000   16.000 
#    0.000    0.000    0.000    0.000    0.000    0.000 
#
# Total GULP energy -347055.887402 kJ/mol
# GULP energy per Si atom -12394.853122 kJ/mol
# Density = 2.031238 g / cm^3
# Si number density = 20.358720 Si / 1000 Ang^3
#
#
#
# Elastic Constant Matrix: (Units=GPa)
#
#
# Indices 1 2 3 4 5 6 
#
# 1 84.7912 60.7440 27.1443 0.0000 0.0000 0.0000
# 2 60.7440 142.9742 45.0916 0.0000 0.0000 0.0000
# 3 27.1443 45.0916 147.8463 0.0000 0.0000 0.0000
# 4 0.0000 0.0000 0.0000 31.6389 0.0000 0.0000
# 5 0.0000 0.0000 0.0000 0.0000 24.0351 0.0000
# 6 0.0000 0.0000 0.0000 0.0000 0.0000 9.9550
#
#
#
# Elastic Compliance Matrix: (Units=1/GPa)
#
#
# Indices 1 2 3 4 5 6 
#
# 1 0.017092 -0.006940 -0.001022 0.000000 0.000000 0.000000
# 2 -0.006940 0.010556 -0.001945 0.000000 0.000000 0.000000
# 3 -0.001022 -0.001945 0.007545 0.000000 0.000000 0.000000
# 4 0.000000 0.000000 0.000000 0.031607 0.000000 0.000000
# 5 0.000000 0.000000 0.000000 0.000000 0.041606 0.000000
# 6 0.000000 0.000000 0.000000 0.000000 0.000000 0.100452
#
#
# Mechanical properties :
#
#
# Convention : Reuss Voigt Hill
#
# Bulk Modulus (GPa) = 65.02022 71.28573 68.15298
# Shear Modulus (GPa) = 21.38603 29.30125 25.34364
#
# Velocity S-wave (km/s) = 3.24460 3.79786 3.53208
# Velocity P-wave (km/s) = 6.78551 7.37038 7.08398
#
# Compressibility (1/GPa) = 0.01537983
#
# Stress axis : x y z
#
# Youngs Moduli (GPa) = 58.50614 94.73113 132.54376
#
# Poissons Ratio (x) = 0.65740 0.13540
# Poissons Ratio (y) = 0.40601 0.25786
# Poissons Ratio (z) = 0.05977 0.18429
#
# Static dielectric constant tensor:
#      x y z
#    x 3.263240 0.000000 0.000000 
#    y 0.000000 12.244020 0.000000 
#    z 0.000000 0.000000 3.818690 
# 
# 
# High freq. dielectric constant tensor:
#      x y z
#    x 1.744970 0.000000 0.000000 
#    y 0.000000 1.822190 0.000000 
#    z 0.000000 0.000000 1.822570 
# 
# From -- ./inp_files/1747.got.cif
#   From: 2010.03.12/outbox.cif.g09.slc.cpg/sg51_1_cif.got.tgz:1747.got - 2010.04.16 13:43:02.
