data_PCOD8209326
_publ_section_title
;
Structure prediction by ZEFSAII (Michael W. Deem and Ramdas Pophale) SiO2 
 PCOD8209326
Probable space group: P M M A
;
_chemical_formula_sum "Si O2"
_cell_formula_units_Z 48
_cell_length_a 8.893656
_cell_length_b 14.522343
_cell_length_c 20.419358
_cell_angle_alpha 90.000000
_cell_angle_beta 90.000000
_cell_angle_gamma 90.000000
_cell_volume 2637.297364
_symmetry_space_group_name_H-M "P M M A"
_symmetry_group_IT_number 51
_symmetry_cell_setting 'orthorhombic'
loop_
_space_group_symop_operation_xyz
x,y,z
1/2-x,-y,z
1/2+x,-y,-z
-x,y,-z
-x,-y,-z
1/2+x,y,-z
1/2-x,y,z
x,-y,z
loop_
_atom_site_type_symbol
_atom_site_label
_atom_site_fract_x
_atom_site_fract_y
_atom_site_fract_z
Si Si1 0.428070 0.694598 0.808949
Si Si2 0.072213 0.000000 0.872979
Si Si3 0.071736 0.190633 0.931740
Si Si4 0.078189 0.000000 0.265864
Si Si5 0.928457 0.500000 0.235466
Si Si6 0.923498 0.801321 0.692095
Si Si7 0.571752 0.313505 0.566420
Si Si8 0.929407 0.500000 0.385311
O O1 0.250000 0.694652 0.805841
O O2 0.483845 0.735475 0.877947
O O3 0.491806 0.590790 0.800970
O O4 0.481597 0.758044 0.750179
O O5 0.010987 0.090048 0.910515
O O6 0.250000 0.000000 0.872460
O O7 0.022705 0.000000 0.798275
O O8 0.250000 0.190596 0.938561
O O9 0.000000 0.220471 0.000000
O O10 0.043821 0.910595 0.310184
O O11 0.250000 0.000000 0.241732
O O12 0.750000 0.500000 0.233848
O O13 0.984128 0.500000 0.310186
O O14 0.750000 0.779731 0.706364
O O15 0.973245 0.758063 0.623235
O O16 0.500000 0.273248 0.500000
O O17 0.750000 0.324822 0.559533
O O18 0.496897 0.411559 0.579660
O O19 0.750000 0.500000 0.391905
#
# Coordination Sequence:
#
# PCOD8209326 Si02
#       8
#     8   4   8   4   4   8   8   4
#     4  10  19  35  57  80 107 141 181 224 267 319
#     4  10  19  33  53  81 109 137 177 225 271 320
#     4  10  21  34  52  77 110 145 179 221 268 322
#     4  10  20  35  56  83 110 139 174 221 276 324
#     4   9  18  32  55  84 108 136 176 221 270 319
#     4  10  21  36  56  81 109 141 178 222 270 320
#     4  11  23  38  55  80 114 148 182 223 270 324
#     4  11  20  34  59  86 111 144 180 222 276 328
#
# _framework density 18.200451000000001
#
# number of rings (size 3 to 8) (size 9 to 14) (size 15 to 20)
#    0.000    1.833    3.333    1.250    0.000    2.000 
#    0.000    1.250    0.000    0.000    0.000    0.000 
#    0.000    0.000    0.000    0.000    0.000    0.000 
#
# Total GULP energy -595269.562866 kJ/mol
# GULP energy per Si atom -12401.449226 kJ/mol
# Density = 1.815903 g / cm^3
# Si number density = 18.200451 Si / 1000 Ang^3
#
#
#
# Elastic Constant Matrix: (Units=GPa)
#
#
# Indices 1 2 3 4 5 6 
#
# 1 33.6145 22.7365 34.3630 0.0000 0.0000 0.0000
# 2 22.7365 130.7641 68.0533 0.0000 0.0000 0.0000
# 3 34.3630 68.0533 154.3968 0.0000 0.0000 0.0000
# 4 0.0000 0.0000 0.0000 34.7430 0.0000 0.0000
# 5 0.0000 0.0000 0.0000 0.0000 30.4932 0.0000
# 6 0.0000 0.0000 0.0000 0.0000 0.0000 7.9373
#
#
#
# Elastic Compliance Matrix: (Units=1/GPa)
#
#
# Indices 1 2 3 4 5 6 
#
# 1 0.039378 -0.002966 -0.007457 0.000000 0.000000 0.000000
# 2 -0.002966 0.010147 -0.003812 0.000000 0.000000 0.000000
# 3 -0.007457 -0.003812 0.009817 0.000000 0.000000 0.000000
# 4 0.000000 0.000000 0.000000 0.028783 0.000000 0.000000
# 5 0.000000 0.000000 0.000000 0.000000 0.032794 0.000000
# 6 0.000000 0.000000 0.000000 0.000000 0.000000 0.125988
#
#
# Mechanical properties :
#
#
# Convention : Reuss Voigt Hill
#
# Bulk Modulus (GPa) = 32.39229 63.23122 47.81176
# Shear Modulus (GPa) = 17.50284 27.54289 22.52286
#
# Velocity S-wave (km/s) = 3.10445 3.89435 3.52161
# Velocity P-wave (km/s) = 5.53952 7.41878 6.54693
#
# Compressibility (1/GPa) = 0.03087154
#
# Stress axis : x y z
#
# Youngs Moduli (GPa) = 25.39483 98.54964 101.86632
#
# Poissons Ratio (x) = 0.29231 0.75959
# Poissons Ratio (y) = 0.07532 0.38836
# Poissons Ratio (z) = 0.18936 0.37571
#
# Static dielectric constant tensor:
#      x y z
#    x 3.229680 0.000000 0.000000 
#    y 0.000000 3.750390 0.000000 
#    z 0.000000 0.000000 3.449300 
# 
# 
# High freq. dielectric constant tensor:
#      x y z
#    x 1.693850 0.000000 0.000000 
#    y 0.000000 1.711030 0.000000 
#    z 0.000000 0.000000 1.705210 
# 
# From -- ./inp_files/27703.got.cif
#   From: 2010.03.12/outbox.cif.g09.slc.cpg/sg51_14_cif.got.tgz:27703.got - 2010.04.16 13:43:02.
