data_PCOD8209733
_publ_section_title
;
Structure prediction by ZEFSAII (Michael W. Deem and Ramdas Pophale) SiO2 
 PCOD8209733
Probable space group: P M M A
;
_chemical_formula_sum "Si O2"
_cell_formula_units_Z 56
_cell_length_a 14.806274
_cell_length_b 9.053650
_cell_length_c 22.004589
_cell_angle_alpha 90.000000
_cell_angle_beta 90.000000
_cell_angle_gamma 90.000000
_cell_volume 2949.733256
_symmetry_space_group_name_H-M "P M M A"
_symmetry_group_IT_number 51
_symmetry_cell_setting 'orthorhombic'
loop_
_space_group_symop_operation_xyz
x,y,z
1/2-x,-y,z
1/2+x,-y,-z
-x,y,-z
-x,-y,-z
1/2+x,y,-z
1/2-x,y,z
x,-y,z
loop_
_atom_site_type_symbol
_atom_site_label
_atom_site_fract_x
_atom_site_fract_y
_atom_site_fract_z
Si Si1 0.564731 0.672805 0.445582
Si Si2 0.849766 0.329542 0.130755
Si Si3 0.149625 0.165084 0.122846
Si Si4 0.485188 0.325986 0.206201
Si Si5 0.101025 0.828488 0.990104
Si Si6 0.750000 0.174146 0.474335
Si Si7 0.930459 0.326181 0.662177
Si Si8 0.250000 0.174164 0.384113
O O1 0.500000 0.728162 0.500000
O O2 0.586339 0.500000 0.453038
O O3 0.659744 0.758437 0.444375
O O4 0.511652 0.708709 0.383871
O O5 0.750000 0.306821 0.158368
O O6 0.872453 0.500000 0.119722
O O7 0.853335 0.253886 0.065501
O O8 0.920360 0.262570 0.179644
O O9 0.250000 0.169930 0.149775
O O10 0.092538 0.282709 0.159548
O O11 0.107941 0.000000 0.130193
O O12 0.154689 0.206674 0.051788
O O13 0.489578 0.500000 0.211425
O O14 0.464373 0.263076 0.273022
O O15 0.102691 0.000000 0.973435
O O16 0.000000 0.770418 0.000000
O O17 0.750000 0.214698 0.545120
O O18 0.750000 0.000000 0.462812
O O19 0.908359 0.500000 0.663172
O O20 0.839151 0.242056 0.645557
O O21 0.250000 0.000000 0.372799
#
# Coordination Sequence:
#
# PCOD8209733 Si02
#       8
#     8   8   8   8   8   4   8   4
#     4  10  20  37  62  88 115 152 198 242 283 333
#     4  10  21  37  57  81 109 143 185 234 287 340
#     4  10  21  36  54  79 111 144 181 227 278 335
#     4  10  22  39  57  80 111 147 186 230 281 332
#     4  10  19  34  57  81 107 142 183 229 281 333
#     4  11  23  37  59  91 125 155 186 235 298 349
#     4  10  22  40  60  85 117 154 195 239 282 334
#     4  11  23  37  59  91 121 155 188 225 286 349
#
# _framework density 18.984767999999999
#
# number of rings (size 3 to 8) (size 9 to 14) (size 15 to 20)
#    0.000    1.857    2.857    0.857    1.000    4.000 
#    1.286    0.000    0.000    0.000    0.000    0.000 
#    0.000    0.000    0.000    0.000    0.000    0.000 
#
# Total GULP energy -694410.208055 kJ/mol
# GULP energy per Si atom -12400.182287 kJ/mol
# Density = 1.894156 g / cm^3
# Si number density = 18.984768 Si / 1000 Ang^3
#
#
#
# Elastic Constant Matrix: (Units=GPa)
#
#
# Indices 1 2 3 4 5 6 
#
# 1 146.1314 40.9260 64.2857 0.0000 0.0000 0.0000
# 2 40.9260 39.4412 33.1847 0.0000 0.0000 0.0000
# 3 64.2857 33.1847 115.9519 0.0000 0.0000 0.0000
# 4 0.0000 0.0000 0.0000 20.5373 0.0000 0.0000
# 5 0.0000 0.0000 0.0000 0.0000 7.6404 0.0000
# 6 0.0000 0.0000 0.0000 0.0000 0.0000 19.6091
#
#
#
# Elastic Compliance Matrix: (Units=1/GPa)
#
#
# Indices 1 2 3 4 5 6 
#
# 1 0.010690 -0.008043 -0.003625 0.000000 0.000000 0.000000
# 2 -0.008043 0.039446 -0.006830 0.000000 0.000000 0.000000
# 3 -0.003625 -0.006830 0.012589 0.000000 0.000000 0.000000
# 4 0.000000 0.000000 0.000000 0.048692 0.000000 0.000000
# 5 0.000000 0.000000 0.000000 0.000000 0.130884 0.000000
# 6 0.000000 0.000000 0.000000 0.000000 0.000000 0.050997
#
#
# Mechanical properties :
#
#
# Convention : Reuss Voigt Hill
#
# Bulk Modulus (GPa) = 38.86605 64.25748 51.56176
# Shear Modulus (GPa) = 14.75486 20.43256 17.59371
#
# Velocity S-wave (km/s) = 2.79085 3.28420 3.04752
# Velocity P-wave (km/s) = 5.55894 6.94994 6.29299
#
# Compressibility (1/GPa) = 0.02572940
#
# Stress axis : x y z
#
# Youngs Moduli (GPa) = 93.54196 25.35080 79.43504
#
# Poissons Ratio (x) = 0.20389 0.28796
# Poissons Ratio (y) = 0.75233 0.54257
# Poissons Ratio (z) = 0.33910 0.17315
#
# Static dielectric constant tensor:
#      x y z
#    x 3.657460 0.000000 0.000000 
#    y 0.000000 3.328460 0.000000 
#    z 0.000000 0.000000 3.586900 
# 
# 
# High freq. dielectric constant tensor:
#      x y z
#    x 1.751740 0.000000 0.000000 
#    y 0.000000 1.723500 0.000000 
#    z 0.000000 0.000000 1.734720 
# 
# From -- ./inp_files/33523.got.cif
#   From: 2010.03.12/outbox.cif.g09.slc.cpg/sg51_17_cif.got.tgz:33523.got - 2010.04.16 13:43:02.
