data_PCOD8209810
_publ_section_title
;
Structure prediction by ZEFSAII (Michael W. Deem and Ramdas Pophale) SiO2 
 PCOD8209810
Probable space group: P M M A
;
_chemical_formula_sum "Si O2"
_cell_formula_units_Z 56
_cell_length_a 19.165626
_cell_length_b 8.753616
_cell_length_c 16.408979
_cell_angle_alpha 90.000000
_cell_angle_beta 90.000000
_cell_angle_gamma 90.000000
_cell_volume 2752.910292
_symmetry_space_group_name_H-M "P M M A"
_symmetry_group_IT_number 51
_symmetry_cell_setting 'orthorhombic'
loop_
_space_group_symop_operation_xyz
x,y,z
1/2-x,-y,z
1/2+x,-y,-z
-x,y,-z
-x,-y,-z
1/2+x,y,-z
1/2-x,y,z
x,-y,z
loop_
_atom_site_type_symbol
_atom_site_label
_atom_site_fract_x
_atom_site_fract_y
_atom_site_fract_z
Si Si1 0.577747 0.177363 0.499282
Si Si2 0.427677 0.177120 0.321344
Si Si3 0.830467 0.322782 0.989563
Si Si4 0.330035 0.818062 0.649030
Si Si5 0.169700 0.823954 0.176876
Si Si6 0.555853 0.320225 0.246047
Si Si7 0.548150 0.820676 0.074584
O O1 0.500000 0.251037 0.500000
O O2 0.607781 0.203755 0.590335
O O3 0.630824 0.247127 0.432340
O O4 0.570309 0.000000 0.477260
O O5 0.372145 0.233185 0.255177
O O6 0.498857 0.273171 0.313694
O O7 0.447541 0.000000 0.309583
O O8 0.750000 0.280549 0.001897
O O9 0.845603 0.500000 0.003962
O O10 0.854964 0.277178 0.899068
O O11 0.872246 0.224192 0.055368
O O12 0.250000 0.759500 0.648490
O O13 0.369616 0.751571 0.728350
O O14 0.331687 0.000000 0.652953
O O15 0.250000 0.797179 0.197583
O O16 0.153957 0.000000 0.155352
O O17 0.564330 0.500000 0.240691
O O18 0.527692 0.257217 0.159614
O O19 0.539387 0.000000 0.085657
O O20 0.500000 0.760180 0.000000
#
# Coordination Sequence:
#
# PCOD8209810 Si02
#       7
#     8   8   8   8   8   8   8
#     4   9  16  31  58  86 113 146 187 239 290 335
#     4  10  19  34  58  84 116 153 193 237 285 341
#     4  10  21  37  57  81 112 150 188 229 282 343
#     4  10  21  39  63  89 117 154 201 247 294 349
#     4   9  18  32  52  81 115 150 188 233 285 339
#     4  12  25  39  58  84 117 155 193 237 290 348
#     4  11  24  41  62  87 114 146 191 243 293 344
#
# _framework density 20.342110000000002
#
# number of rings (size 3 to 8) (size 9 to 14) (size 15 to 20)
#    0.000    1.857    1.429    3.000    0.000    7.429 
#    0.000    4.286    0.000    0.000    0.000    2.000 
#    0.000    0.000    0.000    0.000    0.000    0.000 
#
# Total GULP energy -694440.955183 kJ/mol
# GULP energy per Si atom -12400.731343 kJ/mol
# Density = 2.029581 g / cm^3
# Si number density = 20.342110 Si / 1000 Ang^3
#
#
#
# Elastic Constant Matrix: (Units=GPa)
#
#
# Indices 1 2 3 4 5 6 
#
# 1 87.0490 26.9888 38.8170 0.0000 0.0000 0.0000
# 2 26.9888 49.5359 24.1244 0.0000 0.0000 0.0000
# 3 38.8170 24.1244 98.4307 0.0000 0.0000 0.0000
# 4 0.0000 0.0000 0.0000 2.5747 0.0000 0.0000
# 5 0.0000 0.0000 0.0000 0.0000 40.9330 0.0000
# 6 0.0000 0.0000 0.0000 0.0000 0.0000 19.2149
#
#
#
# Elastic Compliance Matrix: (Units=1/GPa)
#
#
# Indices 1 2 3 4 5 6 
#
# 1 0.015446 -0.006188 -0.004575 0.000000 0.000000 0.000000
# 2 -0.006188 0.025402 -0.003786 0.000000 0.000000 0.000000
# 3 -0.004575 -0.003786 0.012891 0.000000 0.000000 0.000000
# 4 0.000000 0.000000 0.000000 0.388396 0.000000 0.000000
# 5 0.000000 0.000000 0.000000 0.000000 0.024430 0.000000
# 6 0.000000 0.000000 0.000000 0.000000 0.000000 0.052043
#
#
# Mechanical properties :
#
#
# Convention : Reuss Voigt Hill
#
# Bulk Modulus (GPa) = 40.57854 46.09734 43.33794
# Shear Modulus (GPa) = 8.99411 22.21687 15.60549
#
# Velocity S-wave (km/s) = 2.10500 3.30837 2.77276
# Velocity P-wave (km/s) = 5.08914 6.10770 5.62154
#
# Compressibility (1/GPa) = 0.02464356
#
# Stress axis : x y z
#
# Youngs Moduli (GPa) = 64.74077 39.36659 77.57112
#
# Poissons Ratio (x) = 0.24359 0.35487
# Poissons Ratio (y) = 0.40059 0.29366
# Poissons Ratio (z) = 0.29618 0.14903
#
# Static dielectric constant tensor:
#      x y z
#    x 3.826300 0.000000 0.000000 
#    y 0.000000 3.357890 0.000000 
#    z 0.000000 0.000000 3.846740 
# 
# 
# High freq. dielectric constant tensor:
#      x y z
#    x 1.795720 0.000000 0.000000 
#    y 0.000000 1.763180 0.000000 
#    z 0.000000 0.000000 1.804280 
# 
# From -- ./inp_files/25738.got.cif
#   From: 2010.03.12/outbox.cif.g09.slc.cpg/sg51_13_cif.got.tgz:25738.got - 2010.04.16 13:43:02.
