data_PCOD8209133
_publ_section_title
;
Structure prediction by ZEFSAII (Michael W. Deem and Ramdas Pophale) SiO2 
 PCOD8209133
Probable space group: P M M A
;
_chemical_formula_sum "Si O2"
_cell_formula_units_Z 56
_cell_length_a 9.394143
_cell_length_b 14.416190
_cell_length_c 20.982823
_cell_angle_alpha 90.000000
_cell_angle_beta 90.000000
_cell_angle_gamma 90.000000
_cell_volume 2841.656515
_symmetry_space_group_name_H-M "P M M A"
_symmetry_group_IT_number 51
_symmetry_cell_setting 'orthorhombic'
loop_
_space_group_symop_operation_xyz
x,y,z
1/2-x,-y,z
1/2+x,-y,-z
-x,y,-z
-x,-y,-z
1/2+x,y,-z
1/2-x,y,z
x,-y,z
loop_
_atom_site_type_symbol
_atom_site_label
_atom_site_fract_x
_atom_site_fract_y
_atom_site_fract_z
Si Si1 0.912456 0.390102 0.060728
Si Si2 0.081749 0.396630 0.301149
Si Si3 0.090824 0.610260 0.440996
Si Si4 0.413068 0.300480 0.171862
Si Si5 0.590491 0.898259 0.793980
Si Si6 0.591486 0.110280 0.559119
Si Si7 0.593393 0.893209 0.328179
O O1 0.750000 0.355099 0.055243
O O2 0.919278 0.500000 0.064026
O O3 0.982285 0.351508 0.124388
O O4 0.000000 0.352610 0.000000
O O5 0.250000 0.402987 0.307069
O O6 0.021772 0.500000 0.285146
O O7 0.025791 0.361918 0.370891
O O8 0.038448 0.326020 0.244269
O O9 0.250000 0.650142 0.448640
O O10 0.092962 0.500000 0.444524
O O11 0.000000 0.651842 0.500000
O O12 0.250000 0.333400 0.160210
O O13 0.426673 0.189410 0.158902
O O14 0.750000 0.894885 0.763861
O O15 0.472373 0.884260 0.741089
O O16 0.568638 0.000000 0.827518
O O17 0.500000 0.145690 0.500000
O O18 0.750000 0.152500 0.555506
O O19 0.513588 0.152936 0.621097
O O20 0.600969 0.000000 0.561282
O O21 0.750000 0.845952 0.329135
O O22 0.610828 0.000000 0.347707
#
# Coordination Sequence:
#
# PCOD8209133 Si02
#       7
#     8   8   8   8   8   8   8
#     4  10  21  37  58  86 120 153 180 208 246 298
#     4   8  14  25  43  69  99 129 164 207 255 311
#     4   8  13  22  37  58  86 121 159 198 243 299
#     4  10  19  32  54  80 106 141 181 220 264 314
#     4   9  18  32  49  71  99 131 170 217 267 315
#     4   9  15  22  34  54  80 108 141 188 249 317
#     4   9  16  26  41  60  82 112 153 202 257 314
#
# _framework density 19.706814999999999
#
# number of rings (size 3 to 8) (size 9 to 14) (size 15 to 20)
#    0.000    3.000    0.000    2.571    0.000    5.429 
#    0.000    0.714    0.000    3.857    0.000    2.000 
#    0.000    0.000    0.000    0.000    0.000    0.000 
#
# Total GULP energy -693845.039840 kJ/mol
# GULP energy per Si atom -12390.089997 kJ/mol
# Density = 1.966196 g / cm^3
# Si number density = 19.706815 Si / 1000 Ang^3
#
#
#
# Elastic Constant Matrix: (Units=GPa)
#
#
# Indices 1 2 3 4 5 6 
#
# 1 127.1305 8.5271 48.1622 0.0000 0.0000 0.0000
# 2 8.5271 50.1987 15.3221 0.0000 0.0000 0.0000
# 3 48.1622 15.3221 106.1419 0.0000 0.0000 0.0000
# 4 0.0000 0.0000 0.0000 -0.9488 0.0000 0.0000
# 5 0.0000 0.0000 0.0000 0.0000 31.0449 0.0000
# 6 0.0000 0.0000 0.0000 0.0000 0.0000 8.3763
#
#
#
# Elastic Compliance Matrix: (Units=1/GPa)
#
#
# Indices 1 2 3 4 5 6 
#
# 1 0.009503 -0.000312 -0.004267 0.000000 0.000000 0.000000
# 2 -0.000312 0.020849 -0.002868 0.000000 0.000000 0.000000
# 3 -0.004267 -0.002868 0.011772 0.000000 0.000000 0.000000
# 4 0.000000 0.000000 0.000000 -1.053931 0.000000 0.000000
# 5 0.000000 0.000000 0.000000 0.000000 0.032211 0.000000
# 6 0.000000 0.000000 0.000000 0.000000 0.000000 0.119385
#
#
# Mechanical properties :
#
#
# Convention : Reuss Voigt Hill
#
# Bulk Modulus (GPa) = 36.72438 47.49934 42.11186
# Shear Modulus (GPa) = -5.97915 21.79179 7.90632
#
# Velocity S-wave (km/s) = -1.74374 3.32896 2.00516
# Velocity P-wave (km/s) = 3.82383 6.23950 5.17460
#
# Compressibility (1/GPa) = 0.02722987
#
# Stress axis : x y z
#
# Youngs Moduli (GPa) = 105.22509 47.96328 84.94991
#
# Poissons Ratio (x) = 0.01496 0.36250
# Poissons Ratio (y) = 0.03281 0.24365
# Poissons Ratio (z) = 0.44902 0.13757
#
# Static dielectric constant tensor:
#      x y z
#    x 3.686060 0.000000 0.000000 
#    y 0.000000 3.447400 0.000000 
#    z 0.000000 0.000000 3.446060 
# 
# 
# High freq. dielectric constant tensor:
#      x y z
#    x 1.758060 0.000000 0.000000 
#    y 0.000000 1.752310 0.000000 
#    z 0.000000 0.000000 1.740060 
# 
# From -- ./inp_files/31962.got.cif
#   From: 2010.03.12/outbox.cif.g09.slc.cpg/sg51_16_cif.got.tgz:31962.got - 2010.04.16 13:43:02.
