data_PCOD8209816
_publ_section_title
;
Structure prediction by ZEFSAII (Michael W. Deem and Ramdas Pophale) SiO2 
 PCOD8209816
Probable space group: P M M A
;
_chemical_formula_sum "Si O2"
_cell_formula_units_Z 64
_cell_length_a 24.890459
_cell_length_b 9.015422
_cell_length_c 14.713804
_cell_angle_alpha 90.000000
_cell_angle_beta 90.000000
_cell_angle_gamma 90.000000
_cell_volume 3301.748067
_symmetry_space_group_name_H-M "P M M A"
_symmetry_group_IT_number 51
_symmetry_cell_setting 'orthorhombic'
loop_
_space_group_symop_operation_xyz
x,y,z
1/2-x,-y,z
1/2+x,-y,-z
-x,y,-z
-x,-y,-z
1/2+x,y,-z
1/2-x,y,z
x,-y,z
loop_
_atom_site_type_symbol
_atom_site_label
_atom_site_fract_x
_atom_site_fract_y
_atom_site_fract_z
Si Si1 0.603705 0.831184 0.660642
Si Si2 0.189450 0.829624 0.807686
Si Si3 0.506808 0.831418 0.784539
Si Si4 0.060378 0.176643 0.524121
Si Si5 0.053784 0.663671 0.054916
Si Si6 0.848118 0.172243 0.995955
Si Si7 0.592841 0.324286 0.288873
Si Si8 0.190296 0.823643 0.200429
O O1 0.541920 0.820544 0.693491
O O2 0.600749 0.770977 0.557387
O O3 0.647405 0.752118 0.727438
O O4 0.622474 0.000000 0.657513
O O5 0.250000 0.797618 0.774395
O O6 0.150118 0.725240 0.750515
O O7 0.173159 0.000000 0.789090
O O8 0.188320 0.797208 0.915977
O O9 0.547035 0.774896 0.861556
O O10 0.453985 0.730636 0.778777
O O11 0.488944 0.000000 0.804487
O O12 0.082980 0.255537 0.612754
O O13 0.000000 0.228201 0.500000
O O14 0.061976 0.000000 0.539186
O O15 0.071188 0.500000 0.089015
O O16 0.097930 0.733642 0.988396
O O17 0.000000 0.650969 0.000000
O O18 0.820662 0.230746 0.902802
O O19 0.862871 0.000000 0.987518
O O20 0.591122 0.500000 0.294979
O O21 0.250000 0.770779 0.228827
O O22 0.186273 0.000000 0.200545
#
# Coordination Sequence:
#
# PCOD8209816 Si02
#       8
#     8   8   8   8   8   8   8   8
#     4   9  17  31  54  84 113 144 184 235 292 340
#     4  10  22  41  64  89 116 153 205 256 294 336
#     4  11  20  36  59  83 113 149 193 242 292 346
#     4  10  19  36  61  86 116 152 193 242 290 346
#     4  11  23  35  48  76 118 158 193 235 291 352
#     4  10  19  34  58  86 113 148 195 242 288 341
#     4  12  25  39  58  88 122 156 193 238 303 369
#     4   9  16  29  53  86 118 144 180 234 288 338
#
# _framework density 19.383671
#
# number of rings (size 3 to 8) (size 9 to 14) (size 15 to 20)
#    0.000    1.750    2.500    3.000    0.000    5.500 
#    0.000    0.625    0.000    3.375    0.000    0.000 
#    0.000    0.000    0.000    0.000    0.000    0.000 
#
# Total GULP energy -793380.118103 kJ/mol
# GULP energy per Si atom -12396.564345 kJ/mol
# Density = 1.933955 g / cm^3
# Si number density = 19.383671 Si / 1000 Ang^3
#
#
#
# Elastic Constant Matrix: (Units=GPa)
#
#
# Indices 1 2 3 4 5 6 
#
# 1 111.0572 37.1030 41.2722 0.0000 0.0000 0.0000
# 2 37.1030 76.1310 41.2371 0.0000 0.0000 0.0000
# 3 41.2722 41.2371 99.3184 0.0000 0.0000 0.0000
# 4 0.0000 0.0000 0.0000 14.1053 0.0000 0.0000
# 5 0.0000 0.0000 0.0000 0.0000 22.5697 0.0000
# 6 0.0000 0.0000 0.0000 0.0000 0.0000 -0.4883
#
#
#
# Elastic Compliance Matrix: (Units=1/GPa)
#
#
# Indices 1 2 3 4 5 6 
#
# 1 0.011474 -0.003883 -0.003156 0.000000 0.000000 0.000000
# 2 -0.003883 0.018260 -0.005968 0.000000 0.000000 0.000000
# 3 -0.003156 -0.005968 0.013858 0.000000 0.000000 0.000000
# 4 0.000000 0.000000 0.000000 0.070895 0.000000 0.000000
# 5 0.000000 0.000000 0.000000 0.000000 0.044307 0.000000
# 6 0.000000 0.000000 0.000000 0.000000 0.000000 -2.047730
#
#
# Mechanical properties :
#
#
# Convention : Reuss Voigt Hill
#
# Bulk Modulus (GPa) = 56.88656 58.41458 57.65057
# Shear Modulus (GPa) = -2.69243 18.36363 7.83560
#
# Velocity S-wave (km/s) = -1.17984 3.08129 2.01275
# Velocity P-wave (km/s) = 5.24932 6.54679 5.93363
#
# Compressibility (1/GPa) = 0.01757884
#
# Stress axis : x y z
#
# Youngs Moduli (GPa) = 87.15033 54.76387 72.15932
#
# Poissons Ratio (x) = 0.21262 0.22775
# Poissons Ratio (y) = 0.33837 0.43067
# Poissons Ratio (z) = 0.27506 0.32684
#
# Static dielectric constant tensor:
#      x y z
#    x 3.753730 0.000000 0.000000 
#    y 0.000000 3.358510 0.000000 
#    z 0.000000 0.000000 3.882100 
# 
# 
# High freq. dielectric constant tensor:
#      x y z
#    x 1.752080 0.000000 0.000000 
#    y 0.000000 1.720550 0.000000 
#    z 0.000000 0.000000 1.757860 
# 
# From -- ./inp_files/26259.got.cif
#   From: 2010.03.12/outbox.cif.g09.slc.cpg/sg51_14_cif.got.tgz:26259.got - 2010.04.16 13:43:02.
