data_PCOD8209959
_publ_section_title
;
Structure prediction by ZEFSAII (Michael W. Deem and Ramdas Pophale) SiO2 
 PCOD8209959
Probable space group: P M M A
;
_chemical_formula_sum "Si O2"
_cell_formula_units_Z 48
_cell_length_a 8.748185
_cell_length_b 30.671533
_cell_length_c 9.337214
_cell_angle_alpha 90.000000
_cell_angle_beta 90.000000
_cell_angle_gamma 90.000000
_cell_volume 2505.363547
_symmetry_space_group_name_H-M "P M M A"
_symmetry_group_IT_number 51
_symmetry_cell_setting 'orthorhombic'
loop_
_space_group_symop_operation_xyz
x,y,z
1/2-x,-y,z
1/2+x,-y,-z
-x,y,-z
-x,-y,-z
1/2+x,y,-z
1/2-x,y,z
x,-y,z
loop_
_atom_site_type_symbol
_atom_site_label
_atom_site_fract_x
_atom_site_fract_y
_atom_site_fract_z
Si Si1 0.930745 0.000000 0.343249
Si Si2 0.930990 0.405613 0.341787
Si Si3 0.068964 0.742457 0.651262
Si Si4 0.569482 0.918852 0.155315
Si Si5 0.431250 0.670180 0.155625
Si Si6 0.929347 0.841703 0.351420
Si Si7 0.425435 0.500000 0.651424
O O1 0.988735 0.957665 0.257202
O O2 0.000000 0.000000 0.500000
O O3 0.750000 0.000000 0.358538
O O4 0.750000 0.395317 0.345863
O O5 0.965380 0.453887 0.271332
O O6 0.000000 0.402707 0.500000
O O7 0.018398 0.371359 0.245700
O O8 0.250000 0.735775 0.647165
O O9 0.021158 0.792285 0.683736
O O10 0.000000 0.726935 0.500000
O O11 0.996161 0.714311 0.776687
O O12 0.750000 0.920296 0.139425
O O13 0.513672 0.873065 0.223904
O O14 0.500000 0.924583 0.000000
O O15 0.250000 0.672884 0.148016
O O16 0.500000 0.664812 0.000000
O O17 0.750000 0.845322 0.370695
O O18 0.000000 0.857974 0.500000
O O19 0.250000 0.500000 0.614649
O O20 0.500000 0.500000 0.500000
#
# Coordination Sequence:
#
# PCOD8209959 Si02
#       7
#     4   8   8   8   8   8   4
#     4  10  21  36  56  80 108 140 181 226 270 318
#     4  10  19  35  58  85 113 144 181 222 266 317
#     4  10  20  37  59  83 109 141 180 225 270 320
#     4  10  21  36  53  79 111 144 180 221 266 320
#     4  12  25  40  56  78 108 144 182 225 274 326
#     4   9  19  35  56  81 109 139 178 221 265 316
#     4   8  16  30  53  82 111 140 176 220 264 310
#
# _framework density 19.158897
#
# number of rings (size 3 to 8) (size 9 to 14) (size 15 to 20)
#    0.000    2.000    0.000    3.750    0.000    3.333 
#    0.000    2.083    0.000    0.000    0.000    0.000 
#    0.000    0.000    0.000    0.000    0.000    0.000 
#
# Total GULP energy -595085.717909 kJ/mol
# GULP energy per Si atom -12397.619123 kJ/mol
# Density = 1.911529 g / cm^3
# Si number density = 19.158897 Si / 1000 Ang^3
#
#
#
# Elastic Constant Matrix: (Units=GPa)
#
#
# Indices 1 2 3 4 5 6 
#
# 1 76.0449 41.5843 40.7168 0.0000 0.0000 0.0000
# 2 41.5843 135.9427 75.9000 0.0000 0.0000 0.0000
# 3 40.7168 75.9000 137.1076 0.0000 0.0000 0.0000
# 4 0.0000 0.0000 0.0000 -10.9208 0.0000 0.0000
# 5 0.0000 0.0000 0.0000 0.0000 36.3433 0.0000
# 6 0.0000 0.0000 0.0000 0.0000 0.0000 15.8849
#
#
#
# Elastic Compliance Matrix: (Units=1/GPa)
#
#
# Indices 1 2 3 4 5 6 
#
# 1 0.016641 -0.003374 -0.003074 0.000000 0.000000 0.000000
# 2 -0.003374 0.011331 -0.005270 0.000000 0.000000 0.000000
# 3 -0.003074 -0.005270 0.011124 0.000000 0.000000 0.000000
# 4 0.000000 0.000000 0.000000 -0.091568 0.000000 0.000000
# 5 0.000000 0.000000 0.000000 0.000000 0.027515 0.000000
# 6 0.000000 0.000000 0.000000 0.000000 0.000000 0.062953
#
#
# Mechanical properties :
#
#
# Convention : Reuss Voigt Hill
#
# Bulk Modulus (GPa) = 63.86233 73.94415 68.90324
# Shear Modulus (GPa) = 75.01513 20.98776 48.00144
#
# Velocity S-wave (km/s) = 6.26412 3.31336 5.01087
# Velocity P-wave (km/s) = 9.25874 7.30184 8.33790
#
# Compressibility (1/GPa) = 0.01565868
#
# Stress axis : x y z
#
# Youngs Moduli (GPa) = 60.09187 88.25496 89.89508
#
# Poissons Ratio (x) = 0.29778 0.27634
# Poissons Ratio (y) = 0.20276 0.47379
# Poissons Ratio (z) = 0.18473 0.46515
#
# Static dielectric constant tensor:
#      x y z
#    x 3.384930 0.000000 0.000000 
#    y 0.000000 4.114390 0.000000 
#    z 0.000000 0.000000 3.514580 
# 
# 
# High freq. dielectric constant tensor:
#      x y z
#    x 1.748980 0.000000 0.000000 
#    y 0.000000 1.768720 0.000000 
#    z 0.000000 0.000000 1.731220 
# 
# From -- ./inp_files/6271.got.cif
#   From: 2010.03.12/outbox.cif.g09.slc.cpg/sg51_4_cif.got.tgz:6271.got - 2010.04.16 13:43:02.
