data_PCOD8209285
_publ_section_title
;
Structure prediction by ZEFSAII (Michael W. Deem and Ramdas Pophale) SiO2 
 PCOD8209285
Probable space group: P M M A
;
_chemical_formula_sum "Si O2"
_cell_formula_units_Z 64
_cell_length_a 18.935591
_cell_length_b 8.858603
_cell_length_c 21.307720
_cell_angle_alpha 90.000000
_cell_angle_beta 90.000000
_cell_angle_gamma 90.000000
_cell_volume 3574.218388
_symmetry_space_group_name_H-M "P M M A"
_symmetry_group_IT_number 51
_symmetry_cell_setting 'orthorhombic'
loop_
_space_group_symop_operation_xyz
x,y,z
1/2-x,-y,z
1/2+x,-y,-z
-x,y,-z
-x,-y,-z
1/2+x,y,-z
1/2-x,y,z
x,-y,z
loop_
_atom_site_type_symbol
_atom_site_label
_atom_site_fract_x
_atom_site_fract_y
_atom_site_fract_z
Si Si1 0.875104 0.666059 0.741366
Si Si2 0.526940 0.334614 0.320071
Si Si3 0.576477 0.320361 0.190455
Si Si4 0.932136 0.822724 0.853823
Si Si5 0.579925 0.323568 0.981723
Si Si6 0.672198 0.322664 0.610687
Si Si7 0.032597 0.177349 0.435177
Si Si8 0.333092 0.174165 0.909113
O O1 0.848824 0.500000 0.763515
O O2 0.874834 0.780156 0.800031
O O3 0.827712 0.728953 0.683923
O O4 0.953084 0.650901 0.714473
O O5 0.550439 0.500000 0.344841
O O6 0.579714 0.276829 0.264971
O O7 0.520779 0.223635 0.379214
O O8 0.579841 0.500000 0.181386
O O9 0.505491 0.263300 0.156876
O O10 0.642871 0.240054 0.158091
O O11 0.899679 0.770083 0.919733
O O12 0.945802 0.000000 0.853063
O O13 0.591130 0.500000 0.969000
O O14 0.500000 0.285908 0.000000
O O15 0.631262 0.271131 0.036566
O O16 0.750000 0.284536 0.582891
O O17 0.655844 0.500000 0.607816
O O18 0.611677 0.241389 0.570937
O O19 0.000000 0.238172 0.500000
O O20 0.039150 0.000000 0.435085
O O21 0.250000 0.193661 0.914555
O O22 0.356130 0.000000 0.914784
#
# Coordination Sequence:
#
# PCOD8209285 Si02
#       8
#     8   8   8   8   8   8   8   8
#     4   8  15  29  47  70 101 130 162 206 254 306
#     4   8  16  30  50  75 101 130 167 210 250 292
#     4  10  19  33  53  77 102 130 168 212 258 310
#     4  11  20  30  50  77 104 132 168 216 263 305
#     4  11  22  36  56  78 101 136 182 224 263 318
#     4   9  18  33  53  76 102 137 180 221 261 309
#     4  10  20  32  49  78 113 145 178 216 261 312
#     4  11  24  39  55  78 106 135 170 216 273 331
#
# _framework density 17.906013000000002
#
# number of rings (size 3 to 8) (size 9 to 14) (size 15 to 20)
#    0.000    2.250    1.250    4.125    0.000    7.750 
#    0.000    0.625    0.000    3.000    0.000    0.000 
#    0.000    0.000    0.000    0.000    0.000    0.000 
#
# Total GULP energy -793344.701713 kJ/mol
# GULP energy per Si atom -12396.010964 kJ/mol
# Density = 1.786526 g / cm^3
# Si number density = 17.906013 Si / 1000 Ang^3
#
#
#
# Elastic Constant Matrix: (Units=GPa)
#
#
# Indices 1 2 3 4 5 6 
#
# 1 66.4618 31.6220 44.7320 0.0000 0.0000 0.0000
# 2 31.6220 73.2648 42.0278 0.0000 0.0000 0.0000
# 3 44.7320 42.0278 121.0037 0.0000 0.0000 0.0000
# 4 0.0000 0.0000 0.0000 27.7458 0.0000 0.0000
# 5 0.0000 0.0000 0.0000 0.0000 19.9969 0.0000
# 6 0.0000 0.0000 0.0000 0.0000 0.0000 15.5651
#
#
#
# Elastic Compliance Matrix: (Units=1/GPa)
#
#
# Indices 1 2 3 4 5 6 
#
# 1 0.021971 -0.006024 -0.006030 0.000000 0.000000 0.000000
# 2 -0.006024 0.018697 -0.004267 0.000000 0.000000 0.000000
# 3 -0.006030 -0.004267 0.011975 0.000000 0.000000 0.000000
# 4 0.000000 0.000000 0.000000 0.036042 0.000000 0.000000
# 5 0.000000 0.000000 0.000000 0.000000 0.050008 0.000000
# 6 0.000000 0.000000 0.000000 0.000000 0.000000 0.064246
#
#
# Mechanical properties :
#
#
# Convention : Reuss Voigt Hill
#
# Bulk Modulus (GPa) = 49.99628 55.27711 52.63670
# Shear Modulus (GPa) = 20.64011 22.15145 21.39578
#
# Velocity S-wave (km/s) = 3.39881 3.52105 3.46047
# Velocity P-wave (km/s) = 6.58671 6.88971 6.73991
#
# Compressibility (1/GPa) = 0.02000149
#
# Stress axis : x y z
#
# Youngs Moduli (GPa) = 45.51528 53.48496 83.50509
#
# Poissons Ratio (x) = 0.32219 0.50351
# Poissons Ratio (y) = 0.27418 0.35632
# Poissons Ratio (z) = 0.27445 0.22822
#
# Static dielectric constant tensor:
#      x y z
#    x 3.263310 0.000000 0.000000 
#    y 0.000000 3.331520 0.000000 
#    z 0.000000 0.000000 3.639350 
# 
# 
# High freq. dielectric constant tensor:
#      x y z
#    x 1.658290 0.000000 0.000000 
#    y 0.000000 1.697020 0.000000 
#    z 0.000000 0.000000 1.692410 
# 
# From -- ./inp_files/33912.got.cif
#   From: 2010.03.12/outbox.cif.g09.slc.cpg/sg51_17_cif.got.tgz:33912.got - 2010.04.16 13:43:02.
