data_PCOD8209345
_publ_section_title
;
Structure prediction by ZEFSAII (Michael W. Deem and Ramdas Pophale) SiO2 
 PCOD8209345
Probable space group: P M M A
;
_chemical_formula_sum "Si O2"
_cell_formula_units_Z 64
_cell_length_a 9.080846
_cell_length_b 20.297739
_cell_length_c 19.771931
_cell_angle_alpha 90.000000
_cell_angle_beta 90.000000
_cell_angle_gamma 90.000000
_cell_volume 3644.375016
_symmetry_space_group_name_H-M "P M M A"
_symmetry_group_IT_number 51
_symmetry_cell_setting 'orthorhombic'
loop_
_space_group_symop_operation_xyz
x,y,z
1/2-x,-y,z
1/2+x,-y,-z
-x,y,-z
-x,-y,-z
1/2+x,y,-z
1/2-x,y,z
x,-y,z
loop_
_atom_site_type_symbol
_atom_site_label
_atom_site_fract_x
_atom_site_fract_y
_atom_site_fract_z
Si Si1 0.578035 0.075647 0.431463
Si Si2 0.422986 0.687938 0.428289
Si Si3 0.916499 0.380362 0.934577
Si Si4 0.919492 0.819032 0.650782
Si Si5 0.411577 0.776643 0.062625
Si Si6 0.418639 0.574000 0.328325
Si Si7 0.078184 0.761066 0.207770
Si Si8 0.074817 0.375597 0.797894
O O1 0.500000 0.099227 0.500000
O O2 0.750000 0.087079 0.440862
O O3 0.518866 0.119481 0.370290
O O4 0.539804 0.000000 0.415099
O O5 0.500000 0.686955 0.500000
O O6 0.250000 0.686355 0.440514
O O7 0.470840 0.753204 0.387758
O O8 0.474924 0.624379 0.385636
O O9 0.750000 0.408265 0.931951
O O10 0.913874 0.301937 0.939936
O O11 0.004304 0.402020 0.867587
O O12 0.000000 0.409960 0.000000
O O13 0.750000 0.834675 0.634270
O O14 0.944601 0.811191 0.730874
O O15 0.250000 0.805527 0.052757
O O16 0.471131 0.796744 0.137425
O O17 0.500000 0.807682 0.000000
O O18 0.250000 0.591556 0.308207
O O19 0.429891 0.500000 0.357649
O O20 0.521301 0.577575 0.262423
O O21 0.250000 0.738707 0.202162
O O22 0.978881 0.697516 0.220540
O O23 0.250000 0.377150 0.804720
#
# Coordination Sequence:
#
# PCOD8209345 Si02
#       8
#     8   8   8   8   8   8   8   8
#     4  10  21  36  53  75 105 139 175 210 247 298
#     4  10  21  36  54  77 101 126 161 204 254 306
#     4   9  16  27  44  67  96 128 164 203 246 299
#     4  10  19  33  54  77 104 135 171 213 252 297
#     4   8  14  23  38  60  91 128 162 198 238 284
#     4  10  21  39  58  71  91 129 170 207 254 311
#     4   9  17  31  48  68  98 135 170 206 250 298
#     4  11  20  30  48  73 100 128 162 207 256 304
#
# _framework density 17.561309999999999
#
# number of rings (size 3 to 8) (size 9 to 14) (size 15 to 20)
#    0.000    2.375    1.250    3.000    0.000    6.750 
#    0.000    0.000    0.000    0.375    0.000    0.000 
#    0.000    0.500    0.000    1.125    0.000    2.125 
#
# Total GULP energy -793509.058222 kJ/mol
# GULP energy per Si atom -12398.579035 kJ/mol
# Density = 1.752134 g / cm^3
# Si number density = 17.561310 Si / 1000 Ang^3
#
#
#
# Elastic Constant Matrix: (Units=GPa)
#
#
# Indices 1 2 3 4 5 6 
#
# 1 87.8367 30.8100 52.2107 0.0000 0.0000 0.0000
# 2 30.8100 62.7697 45.6636 0.0000 0.0000 0.0000
# 3 52.2107 45.6636 146.7278 0.0000 0.0000 0.0000
# 4 0.0000 0.0000 0.0000 14.6486 0.0000 0.0000
# 5 0.0000 0.0000 0.0000 0.0000 34.2202 0.0000
# 6 0.0000 0.0000 0.0000 0.0000 0.0000 18.1263
#
#
#
# Elastic Compliance Matrix: (Units=1/GPa)
#
#
# Indices 1 2 3 4 5 6 
#
# 1 0.015410 -0.004621 -0.004045 0.000000 0.000000 0.000000
# 2 -0.004621 0.021979 -0.005196 0.000000 0.000000 0.000000
# 3 -0.004045 -0.005196 0.009872 0.000000 0.000000 0.000000
# 4 0.000000 0.000000 0.000000 0.068266 0.000000 0.000000
# 5 0.000000 0.000000 0.000000 0.000000 0.029223 0.000000
# 6 0.000000 0.000000 0.000000 0.000000 0.000000 0.055168
#
#
# Mechanical properties :
#
#
# Convention : Reuss Voigt Hill
#
# Bulk Modulus (GPa) = 51.18554 61.63364 56.40959
# Shear Modulus (GPa) = 21.35335 24.64234 22.99784
#
# Velocity S-wave (km/s) = 3.49080 3.75002 3.62273
# Velocity P-wave (km/s) = 6.74223 7.34320 7.04912
#
# Compressibility (1/GPa) = 0.01953677
#
# Stress axis : x y z
#
# Youngs Moduli (GPa) = 64.89180 45.49718 101.29801
#
# Poissons Ratio (x) = 0.21025 0.40979
# Poissons Ratio (y) = 0.29987 0.52634
# Poissons Ratio (z) = 0.26251 0.23640
#
# Static dielectric constant tensor:
#      x y z
#    x 3.294050 0.000000 0.000000 
#    y 0.000000 2.867750 0.000000 
#    z 0.000000 0.000000 3.494250 
# 
# 
# High freq. dielectric constant tensor:
#      x y z
#    x 1.678170 0.000000 0.000000 
#    y 0.000000 1.629390 0.000000 
#    z 0.000000 0.000000 1.691470 
# 
# From -- ./inp_files/32448.got.cif
#   From: 2010.03.12/outbox.cif.g09.slc.cpg/sg51_17_cif.got.tgz:32448.got - 2010.04.16 13:43:02.
