data_PCOD8209287
_publ_section_title
;
Structure prediction by ZEFSAII (Michael W. Deem and Ramdas Pophale) SiO2 
 PCOD8209287
Probable space group: P M M A
;
_chemical_formula_sum "Si O2"
_cell_formula_units_Z 44
_cell_length_a 9.076036
_cell_length_b 27.791033
_cell_length_c 9.651839
_cell_angle_alpha 90.000000
_cell_angle_beta 90.000000
_cell_angle_gamma 90.000000
_cell_volume 2434.506670
_symmetry_space_group_name_H-M "P M M A"
_symmetry_group_IT_number 51
_symmetry_cell_setting 'orthorhombic'
loop_
_space_group_symop_operation_xyz
x,y,z
1/2-x,-y,z
1/2+x,-y,-z
-x,y,-z
-x,-y,-z
1/2+x,y,-z
1/2-x,y,z
x,-y,z
loop_
_atom_site_type_symbol
_atom_site_label
_atom_site_fract_x
_atom_site_fract_y
_atom_site_fract_z
Si Si1 0.423125 0.174450 0.857725
Si Si2 0.582512 0.000000 0.641543
Si Si3 0.576595 0.635127 0.352838
Si Si4 0.420882 0.285081 0.859773
Si Si5 0.923818 0.896007 0.648735
Si Si6 0.577447 0.554654 0.140350
O O1 0.250000 0.163689 0.868206
O O2 0.455882 0.229961 0.822353
O O3 0.496396 0.143844 0.738106
O O4 0.500000 0.159337 0.000000
O O5 0.500000 0.000000 0.500000
O O6 0.549178 0.949258 0.719859
O O7 0.750000 0.000000 0.595433
O O8 0.500000 0.634920 0.500000
O O9 0.750000 0.635571 0.377947
O O10 0.524788 0.682276 0.267887
O O11 0.526664 0.587907 0.267736
O O12 0.250000 0.293644 0.887575
O O13 0.500000 0.301411 0.000000
O O14 0.750000 0.884460 0.636310
O O15 0.000000 0.894688 0.500000
O O16 0.750000 0.559804 0.114305
O O17 0.531871 0.500000 0.176853
O O18 0.500000 0.572280 0.000000
#
# Coordination Sequence:
#
# PCOD8209287 Si02
#       6
#     8   4   8   8   8   8
#     4  10  20  35  53  75 102 132 167 208 254 302
#     4   8  16  30  49  72  99 130 166 204 244 294
#     4  10  21  35  50  73 104 134 165 204 249 295
#     4   9  19  35  54  74  97 128 167 207 247 296
#     4  10  19  33  53  77 103 133 168 207 250 297
#     4   9  18  33  53  76 101 130 167 208 247 292
#
# _framework density 18.073477
#
# number of rings (size 3 to 8) (size 9 to 14) (size 15 to 20)
#    0.000    2.545    0.000    1.636    0.000    4.000 
#    0.000    2.273    0.000    0.000    0.000    0.000 
#    0.000    0.000    0.000    0.000    0.000    0.000 
#
# Total GULP energy -545411.370905 kJ/mol
# GULP energy per Si atom -12395.712975 kJ/mol
# Density = 1.803234 g / cm^3
# Si number density = 18.073477 Si / 1000 Ang^3
#
#
#
# Elastic Constant Matrix: (Units=GPa)
#
#
# Indices 1 2 3 4 5 6 
#
# 1 71.2928 52.5378 58.2039 0.0000 0.0000 0.0000
# 2 52.5378 123.2118 88.3999 0.0000 0.0000 0.0000
# 3 58.2039 88.3999 144.3709 0.0000 0.0000 0.0000
# 4 0.0000 0.0000 0.0000 8.6051 0.0000 0.0000
# 5 0.0000 0.0000 0.0000 0.0000 37.8151 0.0000
# 6 0.0000 0.0000 0.0000 0.0000 0.0000 24.6640
#
#
#
# Elastic Compliance Matrix: (Units=1/GPa)
#
#
# Indices 1 2 3 4 5 6 
#
# 1 0.022887 -0.005598 -0.005799 0.000000 0.000000 0.000000
# 2 -0.005598 0.015845 -0.007445 0.000000 0.000000 0.000000
# 3 -0.005799 -0.007445 0.013823 0.000000 0.000000 0.000000
# 4 0.000000 0.000000 0.000000 0.116210 0.000000 0.000000
# 5 0.000000 0.000000 0.000000 0.000000 0.026444 0.000000
# 6 0.000000 0.000000 0.000000 0.000000 0.000000 0.040545
#
#
# Mechanical properties :
#
#
# Convention : Reuss Voigt Hill
#
# Bulk Modulus (GPa) = 67.24953 81.90654 74.57803
# Shear Modulus (GPa) = 17.96015 23.53243 20.74629
#
# Velocity S-wave (km/s) = 3.15577 3.61230 3.39172
# Velocity P-wave (km/s) = 7.11113 7.92561 7.52939
#
# Compressibility (1/GPa) = 0.01486999
#
# Stress axis : x y z
#
# Youngs Moduli (GPa) = 43.69380 63.11261 72.34305
#
# Poissons Ratio (x) = 0.35333 0.41951
# Poissons Ratio (y) = 0.24462 0.53858
# Poissons Ratio (z) = 0.25337 0.46986
#
# Static dielectric constant tensor:
#      x y z
#    x 3.413330 0.000000 0.000000 
#    y 0.000000 3.830190 0.000000 
#    z 0.000000 0.000000 3.095820 
# 
# 
# High freq. dielectric constant tensor:
#      x y z
#    x 1.703810 0.000000 0.000000 
#    y 0.000000 1.718250 0.000000 
#    z 0.000000 0.000000 1.681340 
# 
# From -- ./inp_files/5701.got.cif
#   From: 2010.03.12/outbox.cif.g09.slc.cpg/sg51_3_cif.got.tgz:5701.got - 2010.04.16 13:43:02.
