data_PCOD8209867
_publ_section_title
;
Structure prediction by ZEFSAII (Michael W. Deem and Ramdas Pophale) SiO2 
 PCOD8209867
Probable space group: P M M A
;
_chemical_formula_sum "Si O2"
_cell_formula_units_Z 40
_cell_length_a 14.668132
_cell_length_b 14.875853
_cell_length_c 9.390082
_cell_angle_alpha 90.000000
_cell_angle_beta 90.000000
_cell_angle_gamma 90.000000
_cell_volume 2048.925052
_symmetry_space_group_name_H-M "P M M A"
_symmetry_group_IT_number 51
_symmetry_cell_setting 'orthorhombic'
loop_
_space_group_symop_operation_xyz
x,y,z
1/2-x,-y,z
1/2+x,-y,-z
-x,y,-z
-x,-y,-z
1/2+x,y,-z
1/2-x,y,z
x,-y,z
loop_
_atom_site_type_symbol
_atom_site_label
_atom_site_fract_x
_atom_site_fract_y
_atom_site_fract_z
Si Si1 0.894572 0.894559 0.492658
Si Si2 0.250000 0.351455 0.501149
Si Si3 0.431509 0.598957 0.393674
Si Si4 0.250000 0.801264 0.700609
Si Si5 0.250000 0.735815 0.007574
Si Si6 0.250000 0.180893 0.307522
Si Si7 0.406017 0.396306 0.081175
O O1 0.841464 0.847950 0.360956
O O2 0.841559 0.870965 0.639761
O O3 0.000000 0.861376 0.500000
O O4 0.891295 0.000000 0.465092
O O5 0.162165 0.412552 0.479477
O O6 0.250000 0.303580 0.654354
O O7 0.250000 0.278352 0.376273
O O8 0.500000 0.652968 0.500000
O O9 0.472982 0.500000 0.364114
O O10 0.419388 0.644957 0.240153
O O11 0.250000 0.801448 0.871069
O O12 0.250000 0.806560 0.137873
O O13 0.163578 0.669641 0.003367
O O14 0.369549 0.500000 0.087073
O O15 0.500000 0.391712 0.000000
#
# Coordination Sequence:
#
# PCOD8209867 Si02
#       7
#     8   4   8   4   4   4   8
#     4   9  19  41  68  88 112 148 183 222 274 339
#     4  10  19  35  53  75 106 146 181 233 287 332
#     4  10  20  34  54  77 103 142 195 248 287 326
#     4  10  24  35  56  89 119 143 186 225 283 332
#     4  12  23  39  53  85 120 158 183 236 290 337
#     4  10  20  35  58  87 115 145 188 222 278 339
#     4  10  22  39  56  76 109 158 204 241 287 340
#
# _framework density 19.522431000000001
#
# number of rings (size 3 to 8) (size 9 to 14) (size 15 to 20)
#    0.000    2.200    2.000    1.800    2.800    6.400 
#    0.000    3.000    0.000    2.400    0.000    0.000 
#    0.000    0.000    0.000    0.000    0.000    0.000 
#
# Total GULP energy -495710.221311 kJ/mol
# GULP energy per Si atom -12392.755533 kJ/mol
# Density = 1.947800 g / cm^3
# Si number density = 19.522431 Si / 1000 Ang^3
#
#
#
# Elastic Constant Matrix: (Units=GPa)
#
#
# Indices 1 2 3 4 5 6 
#
# 1 157.4821 29.8668 55.7254 0.0000 0.0000 0.0000
# 2 29.8668 59.3904 34.9354 0.0000 0.0000 0.0000
# 3 55.7254 34.9354 134.1497 0.0000 0.0000 0.0000
# 4 0.0000 0.0000 0.0000 18.6873 0.0000 0.0000
# 5 0.0000 0.0000 0.0000 0.0000 22.1130 0.0000
# 6 0.0000 0.0000 0.0000 0.0000 0.0000 34.5855
#
#
#
# Elastic Compliance Matrix: (Units=1/GPa)
#
#
# Indices 1 2 3 4 5 6 
#
# 1 0.007713 -0.002355 -0.002591 0.000000 0.000000 0.000000
# 2 -0.002355 0.020603 -0.004387 0.000000 0.000000 0.000000
# 3 -0.002591 -0.004387 0.009673 0.000000 0.000000 0.000000
# 4 0.000000 0.000000 0.000000 0.053512 0.000000 0.000000
# 5 0.000000 0.000000 0.000000 0.000000 0.045222 0.000000
# 6 0.000000 0.000000 0.000000 0.000000 0.000000 0.028914
#
#
# Mechanical properties :
#
#
# Convention : Reuss Voigt Hill
#
# Bulk Modulus (GPa) = 51.75101 65.78637 58.76869
# Shear Modulus (GPa) = 26.21309 30.44346 28.32827
#
# Velocity S-wave (km/s) = 3.66828 3.95322 3.81341
# Velocity P-wave (km/s) = 6.67142 7.38974 7.03975
#
# Compressibility (1/GPa) = 0.01932329
#
# Stress axis : x y z
#
# Youngs Moduli (GPa) = 129.64605 48.53738 103.37968
#
# Poissons Ratio (x) = 0.11430 0.26784
# Poissons Ratio (y) = 0.30531 0.45354
# Poissons Ratio (z) = 0.33589 0.21294
#
# Static dielectric constant tensor:
#      x y z
#    x 3.856700 0.000000 0.000000 
#    y 0.000000 3.397170 0.000000 
#    z 0.000000 0.000000 3.564700 
# 
# 
# High freq. dielectric constant tensor:
#      x y z
#    x 1.771680 0.000000 0.000000 
#    y 0.000000 1.742690 0.000000 
#    z 0.000000 0.000000 1.747680 
# 
# From -- ./inp_files/8045.got.cif
#   From: 2010.03.12/outbox.cif.g09.slc.cpg/sg51_5_cif.got.tgz:8045.got - 2010.04.16 13:43:02.
