data_PCOD8209783
_publ_section_title
;
Structure prediction by ZEFSAII (Michael W. Deem and Ramdas Pophale) SiO2 
 PCOD8209783
Probable space group: P M M A
;
_chemical_formula_sum "Si O2"
_cell_formula_units_Z 64
_cell_length_a 24.249603
_cell_length_b 14.356963
_cell_length_c 9.354311
_cell_angle_alpha 90.000000
_cell_angle_beta 90.000000
_cell_angle_gamma 90.000000
_cell_volume 3256.709483
_symmetry_space_group_name_H-M "P M M A"
_symmetry_group_IT_number 51
_symmetry_cell_setting 'orthorhombic'
loop_
_space_group_symop_operation_xyz
x,y,z
1/2-x,-y,z
1/2+x,-y,-z
-x,y,-z
-x,-y,-z
1/2+x,y,-z
1/2-x,y,z
x,-y,z
loop_
_atom_site_type_symbol
_atom_site_label
_atom_site_fract_x
_atom_site_fract_y
_atom_site_fract_z
Si Si1 0.906086 0.108446 0.144895
Si Si2 0.011239 0.784314 0.658592
Si Si3 0.812413 0.212956 0.639289
Si Si4 0.311487 0.604684 0.511399
Si Si5 0.405075 0.218753 0.148257
Si Si6 0.063058 0.396274 0.010909
Si Si7 0.187445 0.892731 0.642807
Si Si8 0.418295 0.395792 0.688478
O O1 0.947771 0.146590 0.262405
O O2 0.845968 0.128255 0.211939
O O3 0.917253 0.000000 0.119223
O O4 0.914162 0.159158 0.994307
O O5 0.035351 0.679137 0.645135
O O6 0.000000 0.822179 0.500000
O O7 0.954571 0.790802 0.742359
O O8 0.750000 0.179973 0.671571
O O9 0.816738 0.324596 0.621109
O O10 0.849557 0.183992 0.774075
O O11 0.834331 0.166090 0.492737
O O12 0.250000 0.616193 0.580905
O O13 0.319415 0.500000 0.452225
O O14 0.358356 0.629740 0.626224
O O15 0.401432 0.328023 0.109604
O O16 0.063553 0.500000 0.078246
O O17 0.091015 0.394575 0.857097
O O18 0.000000 0.359431 0.000000
O O19 0.250000 0.864659 0.677855
O O20 0.181472 0.000000 0.598433
O O21 0.437430 0.500000 0.639516
#
# Coordination Sequence:
#
# PCOD8209783 Si02
#       8
#     8   8   8   8   8   8   8   8
#     4  11  24  41  61  87 117 150 190 237 290 346
#     4  12  24  39  59  85 117 155 192 237 286 343
#     4  10  22  39  60  87 118 154 192 233 284 340
#     4   9  18  34  56  82 115 153 191 233 280 333
#     4  12  23  38  59  85 117 152 192 237 287 338
#     4  10  19  35  57  80 114 155 191 233 286 339
#     4   9  19  39  65  88 112 146 189 237 288 340
#     4  10  19  34  57  87 116 148 192 237 284 337
#
# _framework density 19.651738000000002
#
# number of rings (size 3 to 8) (size 9 to 14) (size 15 to 20)
#    0.000    1.625    2.500    2.625    0.000    3.000 
#    0.000    0.625    0.000    0.750    0.000    0.000 
#    0.000    0.000    0.000    0.000    0.000    0.000 
#
# Total GULP energy -793494.881077 kJ/mol
# GULP energy per Si atom -12398.357517 kJ/mol
# Density = 1.960701 g / cm^3
# Si number density = 19.651738 Si / 1000 Ang^3
#
#
#
# Elastic Constant Matrix: (Units=GPa)
#
#
# Indices 1 2 3 4 5 6 
#
# 1 99.4663 37.3260 60.5824 0.0000 0.0000 0.0000
# 2 37.3260 92.8134 48.5652 0.0000 0.0000 0.0000
# 3 60.5824 48.5652 127.7194 0.0000 0.0000 0.0000
# 4 0.0000 0.0000 0.0000 15.3757 0.0000 0.0000
# 5 0.0000 0.0000 0.0000 0.0000 15.7582 0.0000
# 6 0.0000 0.0000 0.0000 0.0000 0.0000 25.6604
#
#
#
# Elastic Compliance Matrix: (Units=1/GPa)
#
#
# Indices 1 2 3 4 5 6 
#
# 1 0.014710 -0.002827 -0.005902 0.000000 0.000000 0.000000
# 2 -0.002827 0.013994 -0.003980 0.000000 0.000000 0.000000
# 3 -0.005902 -0.003980 0.012143 0.000000 0.000000 0.000000
# 4 0.000000 0.000000 0.000000 0.065038 0.000000 0.000000
# 5 0.000000 0.000000 0.000000 0.000000 0.063459 0.000000
# 6 0.000000 0.000000 0.000000 0.000000 0.000000 0.038971
#
#
# Mechanical properties :
#
#
# Convention : Reuss Voigt Hill
#
# Bulk Modulus (GPa) = 64.82128 68.10515 66.46322
# Shear Modulus (GPa) = 20.93143 22.92721 21.92932
#
# Velocity S-wave (km/s) = 3.26716 3.41937 3.34413
# Velocity P-wave (km/s) = 6.87670 7.09371 6.98605
#
# Compressibility (1/GPa) = 0.01542703
#
# Stress axis : x y z
#
# Youngs Moduli (GPa) = 67.98313 71.45951 82.35338
#
# Poissons Ratio (x) = 0.20203 0.48607
# Poissons Ratio (y) = 0.19220 0.32778
# Poissons Ratio (z) = 0.40126 0.28442
#
# Static dielectric constant tensor:
#      x y z
#    x 3.771540 0.000000 0.000000 
#    y 0.000000 3.792930 0.000000 
#    z 0.000000 0.000000 3.429160 
# 
# 
# High freq. dielectric constant tensor:
#      x y z
#    x 1.766040 0.000000 0.000000 
#    y 0.000000 1.774560 0.000000 
#    z 0.000000 0.000000 1.750530 
# 
# From -- ./inp_files/11880.got.cif
#   From: 2010.03.12/outbox.cif.g09.slc.cpg/sg51_6_cif.got.tgz:11880.got - 2010.04.16 13:43:02.
