data_PCOD8209590
_publ_section_title
;
Structure prediction by ZEFSAII (Michael W. Deem and Ramdas Pophale) SiO2 
 PCOD8209590
Probable space group: P M M A
;
_chemical_formula_sum "Si O2"
_cell_formula_units_Z 64
_cell_length_a 23.052304
_cell_length_b 8.987803
_cell_length_c 18.009822
_cell_angle_alpha 90.000000
_cell_angle_beta 90.000000
_cell_angle_gamma 90.000000
_cell_volume 3731.447223
_symmetry_space_group_name_H-M "P M M A"
_symmetry_group_IT_number 51
_symmetry_cell_setting 'orthorhombic'
loop_
_space_group_symop_operation_xyz
x,y,z
1/2-x,-y,z
1/2+x,-y,-z
-x,y,-z
-x,-y,-z
1/2+x,y,-z
1/2-x,y,z
x,-y,z
loop_
_atom_site_type_symbol
_atom_site_label
_atom_site_fract_x
_atom_site_fract_y
_atom_site_fract_z
Si Si1 0.817353 0.171409 0.999629
Si Si2 0.371272 0.324169 0.136202
Si Si3 0.819124 0.832351 0.562463
Si Si4 0.319025 0.667362 0.582298
Si Si5 0.505079 0.674943 0.917773
Si Si6 0.317040 0.175010 0.731129
Si Si7 0.183527 0.326862 0.290489
Si Si8 0.619143 0.324755 0.133348
O O1 0.750000 0.185290 0.019292
O O2 0.852835 0.270871 0.057029
O O3 0.837475 0.000000 0.004374
O O4 0.828361 0.235667 0.917876
O O5 0.363421 0.500000 0.122225
O O6 0.436997 0.267711 0.122913
O O7 0.354741 0.281192 0.219922
O O8 0.750000 0.826060 0.560946
O O9 0.844496 0.744480 0.491542
O O10 0.841950 0.759250 0.638420
O O11 0.842267 0.000000 0.558237
O O12 0.250000 0.669060 0.579225
O O13 0.343148 0.500000 0.586515
O O14 0.340601 0.756035 0.654560
O O15 0.509914 0.500000 0.927717
O O16 0.449067 0.715532 0.868620
O O17 0.500000 0.747541 0.000000
O O18 0.250000 0.217213 0.744444
O O19 0.353945 0.239821 0.797826
O O20 0.325881 0.000000 0.727301
O O21 0.250000 0.281945 0.274297
O O22 0.178593 0.500000 0.308699
O O23 0.630095 0.500000 0.141636
#
# Coordination Sequence:
#
# PCOD8209590 Si02
#       8
#     8   8   8   8   8   8   8   8
#     4  11  23  35  47  68  99 129 157 195 245 296
#     4  10  19  34  54  72  93 125 165 205 246 291
#     4   9  16  26  42  65  96 133 164 191 232 283
#     4   9  16  27  45  69  97 129 165 199 231 278
#     4   9  17  33  54  74  93 118 159 212 255 286
#     4  10  20  33  48  70 103 134 160 197 244 291
#     4   9  17  28  44  69  98 126 159 198 236 281
#     4  11  21  34  53  72  93 125 165 204 244 291
#
# _framework density 17.151523000000001
#
# number of rings (size 3 to 8) (size 9 to 14) (size 15 to 20)
#    0.000    2.250    1.250    2.625    0.000    7.250 
#    0.000    3.125    0.000    0.000    0.000    0.875 
#    0.000    7.000    0.000    0.000    0.000    0.000 
#
# Total GULP energy -793640.256714 kJ/mol
# GULP energy per Si atom -12400.629011 kJ/mol
# Density = 1.711249 g / cm^3
# Si number density = 17.151523 Si / 1000 Ang^3
#
#
#
# Elastic Constant Matrix: (Units=GPa)
#
#
# Indices 1 2 3 4 5 6 
#
# 1 49.3057 24.1103 29.5918 0.0000 0.0000 0.0000
# 2 24.1103 74.9136 49.2763 0.0000 0.0000 0.0000
# 3 29.5918 49.2763 133.0549 0.0000 0.0000 0.0000
# 4 0.0000 0.0000 0.0000 23.8826 0.0000 0.0000
# 5 0.0000 0.0000 0.0000 0.0000 2.5873 0.0000
# 6 0.0000 0.0000 0.0000 0.0000 0.0000 12.0509
#
#
#
# Elastic Compliance Matrix: (Units=1/GPa)
#
#
# Indices 1 2 3 4 5 6 
#
# 1 0.025207 -0.005850 -0.003439 0.000000 0.000000 0.000000
# 2 -0.005850 0.019006 -0.005738 0.000000 0.000000 0.000000
# 3 -0.003439 -0.005738 0.010406 0.000000 0.000000 0.000000
# 4 0.000000 0.000000 0.000000 0.041871 0.000000 0.000000
# 5 0.000000 0.000000 0.000000 0.000000 0.386509 0.000000
# 6 0.000000 0.000000 0.000000 0.000000 0.000000 0.082981
#
#
# Mechanical properties :
#
#
# Convention : Reuss Voigt Hill
#
# Bulk Modulus (GPa) = 40.71099 51.47012 46.09055
# Shear Modulus (GPa) = 8.27511 17.99055 13.13283
#
# Velocity S-wave (km/s) = 2.19891 3.24221 2.77012
# Velocity P-wave (km/s) = 5.49859 6.64004 6.09609
#
# Compressibility (1/GPa) = 0.02456339
#
# Stress axis : x y z
#
# Youngs Moduli (GPa) = 39.67223 52.61624 96.10289
#
# Poissons Ratio (x) = 0.30781 0.33054
# Poissons Ratio (y) = 0.23209 0.55139
# Poissons Ratio (z) = 0.13645 0.30189
#
# Static dielectric constant tensor:
#      x y z
#    x 3.007230 0.000000 0.000000 
#    y 0.000000 3.218800 0.000000 
#    z 0.000000 0.000000 3.333810 
# 
# 
# High freq. dielectric constant tensor:
#      x y z
#    x 1.620380 0.000000 0.000000 
#    y 0.000000 1.662630 0.000000 
#    z 0.000000 0.000000 1.671780 
# 
# From -- ./inp_files/30920.got.cif
#   From: 2010.03.12/outbox.cif.g09.slc.cpg/sg51_16_cif.got.tgz:30920.got - 2010.04.16 13:43:02.
