data_PCOD8209558
_publ_section_title
;
Structure prediction by ZEFSAII (Michael W. Deem and Ramdas Pophale) SiO2 
 PCOD8209558
Probable space group: P M M A
;
_chemical_formula_sum "Si O2"
_cell_formula_units_Z 40
_cell_length_a 8.907124
_cell_length_b 15.987003
_cell_length_c 14.542203
_cell_angle_alpha 90.000000
_cell_angle_beta 90.000000
_cell_angle_gamma 90.000000
_cell_volume 2070.783795
_symmetry_space_group_name_H-M "P M M A"
_symmetry_group_IT_number 51
_symmetry_cell_setting 'orthorhombic'
loop_
_space_group_symop_operation_xyz
x,y,z
1/2-x,-y,z
1/2+x,-y,-z
-x,y,-z
-x,-y,-z
1/2+x,y,-z
1/2-x,y,z
x,-y,z
loop_
_atom_site_type_symbol
_atom_site_label
_atom_site_fract_x
_atom_site_fract_y
_atom_site_fract_z
Si Si1 0.071835 0.715528 0.755194
Si Si2 0.415180 0.175913 0.916238
Si Si3 0.075871 0.401744 0.096921
Si Si4 0.575059 0.000000 0.667459
Si Si5 0.916585 0.000000 0.147203
Si Si6 0.570106 0.818896 0.597827
O O1 0.250000 0.702047 0.738189
O O2 0.029709 0.795779 0.816955
O O3 0.004436 0.637351 0.812323
O O4 0.989856 0.741911 0.661050
O O5 0.250000 0.209422 0.930861
O O6 0.434490 0.077052 0.921264
O O7 0.500000 0.219541 0.000000
O O8 0.250000 0.374807 0.094876
O O9 0.057268 0.500000 0.110125
O O10 0.000000 0.373904 0.000000
O O11 0.510672 0.087214 0.625101
O O12 0.750000 0.000000 0.650745
O O13 0.542095 0.000000 0.775294
O O14 0.750000 0.000000 0.193789
O O15 0.500000 0.797982 0.500000
O O16 0.750000 0.815639 0.596411
#
# Coordination Sequence:
#
# PCOD8209558 Si02
#       6
#     8   8   8   4   4   8
#     4  11  22  37  58  84 114 149 190 236 287 340
#     4  10  21  33  49  73 104 145 186 227 274 326
#     4  10  21  38  61  90 123 157 192 231 278 336
#     4  10  21  36  56  81 107 145 193 243 293 340
#     4  10  19  34  50  69 103 145 187 231 277 328
#     4  11  23  39  59  84 113 148 193 243 295 346
#
# _framework density 19.316357
#
# number of rings (size 3 to 8) (size 9 to 14) (size 15 to 20)
#    0.000    1.600    2.000    3.000    0.000    6.000 
#    0.000    0.000    0.000    0.600    0.000    0.000 
#    0.000    0.000    0.000    0.000    0.000    0.000 
#
# Total GULP energy -495557.053578 kJ/mol
# GULP energy per Si atom -12388.926339 kJ/mol
# Density = 1.927239 g / cm^3
# Si number density = 19.316357 Si / 1000 Ang^3
#
#
#
# Elastic Constant Matrix: (Units=GPa)
#
#
# Indices 1 2 3 4 5 6 
#
# 1 85.3578 40.2210 55.1707 0.0000 0.0000 0.0000
# 2 40.2210 82.4850 32.5246 0.0000 0.0000 0.0000
# 3 55.1707 32.5246 129.6150 0.0000 0.0000 0.0000
# 4 0.0000 0.0000 0.0000 23.4347 0.0000 0.0000
# 5 0.0000 0.0000 0.0000 0.0000 37.4953 0.0000
# 6 0.0000 0.0000 0.0000 0.0000 0.0000 27.8240
#
#
#
# Elastic Compliance Matrix: (Units=1/GPa)
#
#
# Indices 1 2 3 4 5 6 
#
# 1 0.019043 -0.006758 -0.006410 0.000000 0.000000 0.000000
# 2 -0.006758 0.015853 -0.001101 0.000000 0.000000 0.000000
# 3 -0.006410 -0.001101 0.010720 0.000000 0.000000 0.000000
# 4 0.000000 0.000000 0.000000 0.042672 0.000000 0.000000
# 5 0.000000 0.000000 0.000000 0.000000 0.026670 0.000000
# 6 0.000000 0.000000 0.000000 0.000000 0.000000 0.035940
#
#
# Mechanical properties :
#
#
# Convention : Reuss Voigt Hill
#
# Bulk Modulus (GPa) = 58.55800 61.47670 60.01735
# Shear Modulus (GPa) = 27.00825 29.05358 28.03091
#
# Velocity S-wave (km/s) = 3.74332 3.88247 3.81353
# Velocity P-wave (km/s) = 7.00459 7.21065 7.10836
#
# Compressibility (1/GPa) = 0.01707709
#
# Stress axis : x y z
#
# Youngs Moduli (GPa) = 52.51340 63.07915 93.28489
#
# Poissons Ratio (x) = 0.42630 0.59793
# Poissons Ratio (y) = 0.35489 0.10275
# Poissons Ratio (z) = 0.33660 0.06948
#
# Static dielectric constant tensor:
#      x y z
#    x 3.607570 0.000000 0.000000 
#    y 0.000000 3.528830 0.000000 
#    z 0.000000 0.000000 3.320160 
# 
# 
# High freq. dielectric constant tensor:
#      x y z
#    x 1.756600 0.000000 0.000000 
#    y 0.000000 1.746810 0.000000 
#    z 0.000000 0.000000 1.743200 
# 
# From -- ./inp_files/20544.got.cif
#   From: 2010.03.12/outbox.cif.g09.slc.cpg/sg51_11_cif.got.tgz:20544.got - 2010.04.16 13:43:02.
