data_PCOD8209104
_publ_section_title
;
Structure prediction by ZEFSAII (Michael W. Deem and Ramdas Pophale) SiO2 
 PCOD8209104
Probable space group: P M M A
;
_chemical_formula_sum "Si O2"
_cell_formula_units_Z 48
_cell_length_a 8.747550
_cell_length_b 31.483897
_cell_length_c 9.134963
_cell_angle_alpha 90.000000
_cell_angle_beta 90.000000
_cell_angle_gamma 90.000000
_cell_volume 2515.832419
_symmetry_space_group_name_H-M "P M M A"
_symmetry_group_IT_number 51
_symmetry_cell_setting 'orthorhombic'
loop_
_space_group_symop_operation_xyz
x,y,z
1/2-x,-y,z
1/2+x,-y,-z
-x,y,-z
-x,-y,-z
1/2+x,y,-z
1/2-x,y,z
x,-y,z
loop_
_atom_site_type_symbol
_atom_site_label
_atom_site_fract_x
_atom_site_fract_y
_atom_site_fract_z
Si Si1 0.569277 0.869879 0.661413
Si Si2 0.571077 0.046008 0.340641
Si Si3 0.569325 0.362977 0.839231
Si Si4 0.427034 0.711029 0.655122
Si Si5 0.572051 0.794467 0.157330
Si Si6 0.570873 0.455239 0.842039
O O1 0.500000 0.864434 0.500000
O O2 0.750000 0.869765 0.649479
O O3 0.512000 0.914142 0.737541
O O4 0.515670 0.831973 0.762629
O O5 0.500000 0.042869 0.500000
O O6 0.750000 0.055961 0.352890
O O7 0.543714 0.000000 0.261213
O O8 0.750000 0.357138 0.852857
O O9 0.505178 0.329823 0.724617
O O10 0.523174 0.409807 0.772134
O O11 0.500000 0.355600 0.000000
O O12 0.500000 0.721659 0.500000
O O13 0.250000 0.701079 0.633988
O O14 0.455897 0.751217 0.756859
O O15 0.750000 0.806020 0.145354
O O16 0.500000 0.787706 0.000000
O O17 0.750000 0.454626 0.863332
O O18 0.523420 0.500000 0.758408
O O19 0.500000 0.456898 0.000000
#
# Coordination Sequence:
#
# PCOD8209104 Si02
#       6
#     8   8   8   8   8   8
#     4  11  21  34  55  82 113 147 183 225 270 317
#     4   9  16  27  46  74 108 144 182 224 267 312
#     4  10  19  32  53  80 111 144 179 221 266 315
#     4  11  24  40  59  81 107 139 176 220 268 321
#     4  11  24  41  60  82 108 139 176 218 266 321
#     4   8  14  25  43  70 103 138 175 215 259 306
#
# _framework density 19.079170999999999
#
# number of rings (size 3 to 8) (size 9 to 14) (size 15 to 20)
#    0.000    2.000    0.000    5.500    0.000    7.000 
#    0.000    0.000    0.000    1.000    0.000    0.000 
#    0.000    0.000    0.000    0.000    0.000    0.000 
#
# Total GULP energy -594681.747187 kJ/mol
# GULP energy per Si atom -12389.203066 kJ/mol
# Density = 1.903575 g / cm^3
# Si number density = 19.079171 Si / 1000 Ang^3
#
#
#
# Elastic Constant Matrix: (Units=GPa)
#
#
# Indices 1 2 3 4 5 6 
#
# 1 130.4916 79.3955 48.8563 0.0000 0.0000 0.0000
# 2 79.3955 148.2413 39.7835 0.0000 0.0000 0.0000
# 3 48.8563 39.7835 74.4725 0.0000 0.0000 0.0000
# 4 0.0000 0.0000 0.0000 30.5327 0.0000 0.0000
# 5 0.0000 0.0000 0.0000 0.0000 25.4478 0.0000
# 6 0.0000 0.0000 0.0000 0.0000 0.0000 31.3559
#
#
#
# Elastic Compliance Matrix: (Units=1/GPa)
#
#
# Indices 1 2 3 4 5 6 
#
# 1 0.013145 -0.005517 -0.005677 0.000000 0.000000 0.000000
# 2 -0.005517 0.010190 -0.001824 0.000000 0.000000 0.000000
# 3 -0.005677 -0.001824 0.018126 0.000000 0.000000 0.000000
# 4 0.000000 0.000000 0.000000 0.032752 0.000000 0.000000
# 5 0.000000 0.000000 0.000000 0.000000 0.039296 0.000000
# 6 0.000000 0.000000 0.000000 0.000000 0.000000 0.031892
#
#
# Mechanical properties :
#
#
# Convention : Reuss Voigt Hill
#
# Bulk Modulus (GPa) = 64.82514 76.58621 70.70567
# Shear Modulus (GPa) = 28.31587 29.81196 29.06392
#
# Velocity S-wave (km/s) = 3.85661 3.95719 3.90722
# Velocity P-wave (km/s) = 7.34043 7.81713 7.58253
#
# Compressibility (1/GPa) = 0.01542611
#
# Stress axis : x y z
#
# Youngs Moduli (GPa) = 76.07237 98.13389 55.16843
#
# Poissons Ratio (x) = 0.54141 0.31317
# Poissons Ratio (y) = 0.41969 0.10064
# Poissons Ratio (z) = 0.43183 0.17902
#
# Static dielectric constant tensor:
#      x y z
#    x 3.679230 0.000000 0.000000 
#    y 0.000000 4.584760 0.000000 
#    z 0.000000 0.000000 3.058420 
# 
# 
# High freq. dielectric constant tensor:
#      x y z
#    x 1.758820 0.000000 0.000000 
#    y 0.000000 1.779520 0.000000 
#    z 0.000000 0.000000 1.688390 
# 
# From -- ./inp_files/5988.got.cif
#   From: 2010.03.12/outbox.cif.g09.slc.cpg/sg51_3_cif.got.tgz:5988.got - 2010.04.16 13:43:02.
