data_PCOD8209293
_publ_section_title
;
Structure prediction by ZEFSAII (Michael W. Deem and Ramdas Pophale) SiO2 
 PCOD8209293
Probable space group: P M M A
;
_chemical_formula_sum "Si O2"
_cell_formula_units_Z 48
_cell_length_a 9.229462
_cell_length_b 7.765981
_cell_length_c 34.362110
_cell_angle_alpha 90.000000
_cell_angle_beta 90.000000
_cell_angle_gamma 90.000000
_cell_volume 2462.932636
_symmetry_space_group_name_H-M "P M M A"
_symmetry_group_IT_number 51
_symmetry_cell_setting 'orthorhombic'
loop_
_space_group_symop_operation_xyz
x,y,z
1/2-x,-y,z
1/2+x,-y,-z
-x,y,-z
-x,-y,-z
1/2+x,y,-z
1/2-x,y,z
x,-y,z
loop_
_atom_site_type_symbol
_atom_site_label
_atom_site_fract_x
_atom_site_fract_y
_atom_site_fract_z
Si Si1 0.912503 0.795798 0.825379
Si Si2 0.911933 0.300007 0.676545
Si Si3 0.576892 0.500000 0.541044
Si Si4 0.418987 0.802511 0.902173
Si Si5 0.580940 0.500000 0.040369
Si Si6 0.912783 0.796129 0.248092
Si Si7 0.421138 0.810194 0.406104
O O1 0.750000 0.719721 0.825872
O O2 0.994066 0.739493 0.864453
O O3 0.996664 0.718925 0.788115
O O4 0.908547 0.000000 0.822577
O O5 0.750000 0.228249 0.685875
O O6 0.903037 0.500000 0.667649
O O7 0.979916 0.213267 0.637880
O O8 0.016454 0.262660 0.712042
O O9 0.750000 0.500000 0.535716
O O10 0.500000 0.500000 0.500000
O O11 0.518968 0.667882 0.564141
O O12 0.250000 0.786408 0.892054
O O13 0.463489 0.673757 0.936733
O O14 0.458080 0.000000 0.913915
O O15 0.750000 0.500000 0.031635
O O16 0.500000 0.500000 0.000000
O O17 0.750000 0.722331 0.246026
O O18 0.911058 0.000000 0.245716
O O19 0.250000 0.787169 0.403602
O O20 0.466133 0.000000 0.421301
#
# Coordination Sequence:
#
# PCOD8209293 Si02
#       7
#     8   8   4   8   4   8   8
#     4   9  17  31  53  79 105 137 181 228 268 311
#     4  10  19  33  53  77 104 136 181 231 271 314
#     4  10  20  36  56  81 110 139 174 215 264 323
#     4   9  18  35  57  79 107 143 179 218 269 325
#     4  10  22  38  56  81 110 139 174 217 266 323
#     4  10  20  33  50  75 108 145 182 220 266 321
#     4   9  17  32  56  81 106 139 177 219 267 318
#
# _framework density 19.488961
#
# number of rings (size 3 to 8) (size 9 to 14) (size 15 to 20)
#    0.000    2.500    0.833    1.500    0.000    5.333 
#    1.500    0.833    0.000    1.000    0.000    0.000 
#    0.000    0.000    0.000    0.000    0.000    0.000 
#
# Total GULP energy -595135.930484 kJ/mol
# GULP energy per Si atom -12398.665218 kJ/mol
# Density = 1.944460 g / cm^3
# Si number density = 19.488961 Si / 1000 Ang^3
#
#
#
# Elastic Constant Matrix: (Units=GPa)
#
#
# Indices 1 2 3 4 5 6 
#
# 1 75.9548 42.3090 57.3822 0.0000 0.0000 0.0000
# 2 42.3090 94.5571 77.1275 0.0000 0.0000 0.0000
# 3 57.3822 77.1275 170.6441 0.0000 0.0000 0.0000
# 4 0.0000 0.0000 0.0000 30.0710 0.0000 0.0000
# 5 0.0000 0.0000 0.0000 0.0000 38.7402 0.0000
# 6 0.0000 0.0000 0.0000 0.0000 0.0000 13.3500
#
#
#
# Elastic Compliance Matrix: (Units=1/GPa)
#
#
# Indices 1 2 3 4 5 6 
#
# 1 0.019169 -0.005258 -0.004070 0.000000 0.000000 0.000000
# 2 -0.005258 0.018193 -0.006455 0.000000 0.000000 0.000000
# 3 -0.004070 -0.006455 0.010146 0.000000 0.000000 0.000000
# 4 0.000000 0.000000 0.000000 0.033255 0.000000 0.000000
# 5 0.000000 0.000000 0.000000 0.000000 0.025813 0.000000
# 6 0.000000 0.000000 0.000000 0.000000 0.000000 0.074907
#
#
# Mechanical properties :
#
#
# Convention : Reuss Voigt Hill
#
# Bulk Modulus (GPa) = 62.71974 77.19928 69.95951
# Shear Modulus (GPa) = 22.89785 27.38805 25.14295
#
# Velocity S-wave (km/s) = 3.43142 3.75281 3.59571
# Velocity P-wave (km/s) = 6.92471 7.64696 7.29478
#
# Compressibility (1/GPa) = 0.01594394
#
# Stress axis : x y z
#
# Youngs Moduli (GPa) = 52.16816 54.96548 98.55966
#
# Poissons Ratio (x) = 0.28898 0.40109
# Poissons Ratio (y) = 0.27428 0.63620
# Poissons Ratio (z) = 0.21230 0.35480
#
# Static dielectric constant tensor:
#      x y z
#    x 3.408690 0.000000 0.000000 
#    y 0.000000 3.617530 0.000000 
#    z 0.000000 0.000000 3.546930 
# 
# 
# High freq. dielectric constant tensor:
#      x y z
#    x 1.737400 0.000000 0.000000 
#    y 0.000000 1.758050 0.000000 
#    z 0.000000 0.000000 1.758820 
# 
# From -- ./inp_files/37177.got.cif
#   From: 2010.03.12/outbox.cif.g09.slc.cpg/sg51_19_cif.got.tgz:37177.got - 2010.04.16 13:43:02.
