data_PCOD8209211
_publ_section_title
;
Structure prediction by ZEFSAII (Michael W. Deem and Ramdas Pophale) SiO2 
 PCOD8209211
Probable space group: P M M A
;
_chemical_formula_sum "Si O2"
_cell_formula_units_Z 64
_cell_length_a 29.326743
_cell_length_b 8.887392
_cell_length_c 15.014574
_cell_angle_alpha 90.000000
_cell_angle_beta 90.000000
_cell_angle_gamma 90.000000
_cell_volume 3913.372459
_symmetry_space_group_name_H-M "P M M A"
_symmetry_group_IT_number 51
_symmetry_cell_setting 'orthorhombic'
loop_
_space_group_symop_operation_xyz
x,y,z
1/2-x,-y,z
1/2+x,-y,-z
-x,y,-z
-x,-y,-z
1/2+x,y,-z
1/2-x,y,z
x,-y,z
loop_
_atom_site_type_symbol
_atom_site_label
_atom_site_fract_x
_atom_site_fract_y
_atom_site_fract_z
Si Si1 0.884523 0.673255 0.215219
Si Si2 0.396475 0.674901 0.461367
Si Si3 0.801583 0.827549 0.285019
Si Si4 0.543738 0.175593 0.680196
Si Si5 0.800518 0.672310 0.470293
Si Si6 0.969234 0.176446 0.882411
Si Si7 0.440523 0.325698 0.952302
Si Si8 0.557687 0.177840 0.367814
O O1 0.890020 0.500000 0.243125
O O2 0.832317 0.724840 0.221614
O O3 0.897934 0.700100 0.112719
O O4 0.915235 0.771268 0.280867
O O5 0.407144 0.500000 0.468220
O O6 0.415906 0.737334 0.369192
O O7 0.341714 0.706159 0.461172
O O8 0.421312 0.752391 0.543913
O O9 0.750000 0.803358 0.253239
O O10 0.808066 0.780332 0.387001
O O11 0.816817 0.000000 0.276914
O O12 0.548750 0.215007 0.784330
O O13 0.494805 0.228849 0.642552
O O14 0.550295 0.000000 0.662788
O O15 0.750000 0.701861 0.513114
O O16 0.803770 0.500000 0.436819
O O17 0.015180 0.267889 0.900140
O O18 0.979271 0.000000 0.892591
O O19 0.932566 0.231627 0.956435
O O20 0.446982 0.500000 0.976413
O O21 0.561218 0.000000 0.375002
#
# Coordination Sequence:
#
# PCOD8209211 Si02
#       8
#     8   8   8   8   8   8   8   8
#     4  11  21  32  49  73 101 133 166 200 246 297
#     4  11  22  33  49  73  97 130 170 205 247 295
#     4  10  20  32  49  73  98 128 165 203 245 293
#     4  10  22  36  49  68  97 135 171 205 248 288
#     4   9  18  33  50  69  96 127 160 201 248 295
#     4  10  19  33  51  71  95 127 166 202 243 291
#     4  10  20  32  49  73  99 126 159 201 246 289
#     4  11  21  34  49  67  98 136 171 206 239 285
#
# _framework density 16.354181000000001
#
# number of rings (size 3 to 8) (size 9 to 14) (size 15 to 20)
#    0.000    1.750    2.500    3.375    0.000    6.250 
#    0.000    0.000    0.000    0.000    0.000    0.875 
#    0.000    3.000    0.000    0.000    0.000    0.000 
#
# Total GULP energy -793556.196412 kJ/mol
# GULP energy per Si atom -12399.315569 kJ/mol
# Density = 1.631696 g / cm^3
# Si number density = 16.354181 Si / 1000 Ang^3
#
#
#
# Elastic Constant Matrix: (Units=GPa)
#
#
# Indices 1 2 3 4 5 6 
#
# 1 105.9923 37.7243 57.2778 0.0000 0.0000 0.0000
# 2 37.7243 60.2193 41.0467 0.0000 0.0000 0.0000
# 3 57.2778 41.0467 99.1688 0.0000 0.0000 0.0000
# 4 0.0000 0.0000 0.0000 28.1553 0.0000 0.0000
# 5 0.0000 0.0000 0.0000 0.0000 21.7939 0.0000
# 6 0.0000 0.0000 0.0000 0.0000 0.0000 24.2102
#
#
#
# Elastic Compliance Matrix: (Units=1/GPa)
#
#
# Indices 1 2 3 4 5 6 
#
# 1 0.014627 -0.004743 -0.006485 0.000000 0.000000 0.000000
# 2 -0.004743 0.024670 -0.007472 0.000000 0.000000 0.000000
# 3 -0.006485 -0.007472 0.016922 0.000000 0.000000 0.000000
# 4 0.000000 0.000000 0.000000 0.035517 0.000000 0.000000
# 5 0.000000 0.000000 0.000000 0.000000 0.045884 0.000000
# 6 0.000000 0.000000 0.000000 0.000000 0.000000 0.041305
#
#
# Mechanical properties :
#
#
# Convention : Reuss Voigt Hill
#
# Bulk Modulus (GPa) = 53.13557 59.71978 56.42768
# Shear Modulus (GPa) = 22.46189 23.45398 22.95793
#
# Velocity S-wave (km/s) = 3.71005 3.79110 3.75079
# Velocity P-wave (km/s) = 7.13538 7.46720 7.30317
#
# Compressibility (1/GPa) = 0.01881978
#
# Stress axis : x y z
#
# Youngs Moduli (GPa) = 68.36512 40.53514 59.09376
#
# Poissons Ratio (x) = 0.19225 0.38325
# Poissons Ratio (y) = 0.32424 0.44154
# Poissons Ratio (z) = 0.44338 0.30287
#
# Static dielectric constant tensor:
#      x y z
#    x 3.235860 0.000000 0.000000 
#    y 0.000000 3.237400 0.000000 
#    z 0.000000 0.000000 3.098760 
# 
# 
# High freq. dielectric constant tensor:
#      x y z
#    x 1.616940 0.000000 0.000000 
#    y 0.000000 1.646150 0.000000 
#    z 0.000000 0.000000 1.609320 
# 
# From -- ./inp_files/26724.got.cif
#   From: 2010.03.12/outbox.cif.g09.slc.cpg/sg51_14_cif.got.tgz:26724.got - 2010.04.16 13:43:02.
