data_PCOD8209939
_publ_section_title
;
Structure prediction by ZEFSAII (Michael W. Deem and Ramdas Pophale) SiO2 
 PCOD8209939
Probable space group: P M M A
;
_chemical_formula_sum "Si O2"
_cell_formula_units_Z 48
_cell_length_a 28.257121
_cell_length_b 8.915524
_cell_length_c 10.330581
_cell_angle_alpha 90.000000
_cell_angle_beta 90.000000
_cell_angle_gamma 90.000000
_cell_volume 2602.552697
_symmetry_space_group_name_H-M "P M M A"
_symmetry_group_IT_number 51
_symmetry_cell_setting 'orthorhombic'
loop_
_space_group_symop_operation_xyz
x,y,z
1/2-x,-y,z
1/2+x,-y,-z
-x,y,-z
-x,-y,-z
1/2+x,y,-z
1/2-x,y,z
x,-y,z
loop_
_atom_site_type_symbol
_atom_site_label
_atom_site_fract_x
_atom_site_fract_y
_atom_site_fract_z
Si Si1 0.447787 0.175320 0.251246
Si Si2 0.198534 0.821642 0.395307
Si Si3 0.696504 0.174925 0.899536
Si Si4 0.102873 0.177917 0.510103
Si Si5 0.893955 0.323089 0.982901
Si Si6 0.942253 0.176300 0.226638
O O1 0.431462 0.227725 0.393632
O O2 0.418329 0.267162 0.147461
O O3 0.502629 0.212820 0.237491
O O4 0.437211 0.000000 0.229219
O O5 0.250000 0.762407 0.444613
O O6 0.190124 0.769482 0.248064
O O7 0.156167 0.759345 0.485207
O O8 0.198654 0.000000 0.396850
O O9 0.750000 0.207118 0.947114
O O10 0.660261 0.266408 0.989175
O O11 0.684496 0.000000 0.911718
O O12 0.083458 0.241491 0.645331
O O13 0.103381 0.000000 0.517709
O O14 0.894886 0.500000 0.987259
O O15 0.922308 0.261467 0.104274
O O16 0.933321 0.000000 0.209547
#
# Coordination Sequence:
#
# PCOD8209939 Si02
#       6
#     8   8   8   8   8   8
#     4  10  19  35  58  80 103 137 186 236 274 314
#     4   8  13  24  49  83 109 127 157 212 271 316
#     4   9  17  33  59  85 106 133 175 225 270 313
#     4   9  16  30  54  82 108 133 172 227 280 324
#     4  12  24  36  52  77 112 150 182 217 267 323
#     4  10  21  35  54  79 108 144 183 226 275 322
#
# _framework density 18.443431
#
# number of rings (size 3 to 8) (size 9 to 14) (size 15 to 20)
#    0.000    2.333    1.667    3.500    0.000    5.000 
#    0.000    1.667    0.000    5.000    0.000    0.000 
#    0.000    0.000    0.000    0.000    0.000    0.000 
#
# Total GULP energy -595089.236871 kJ/mol
# GULP energy per Si atom -12397.692435 kJ/mol
# Density = 1.840145 g / cm^3
# Si number density = 18.443431 Si / 1000 Ang^3
#
#
#
# Elastic Constant Matrix: (Units=GPa)
#
#
# Indices 1 2 3 4 5 6 
#
# 1 122.7894 32.6428 17.5414 0.0000 0.0000 0.0000
# 2 32.6428 40.6981 10.9646 0.0000 0.0000 0.0000
# 3 17.5414 10.9646 41.9729 0.0000 0.0000 0.0000
# 4 0.0000 0.0000 0.0000 -5.7262 0.0000 0.0000
# 5 0.0000 0.0000 0.0000 0.0000 -5.3499 0.0000
# 6 0.0000 0.0000 0.0000 0.0000 0.0000 9.5998
#
#
#
# Elastic Compliance Matrix: (Units=1/GPa)
#
#
# Indices 1 2 3 4 5 6 
#
# 1 0.010566 -0.007836 -0.002369 0.000000 0.000000 0.000000
# 2 -0.007836 0.032243 -0.005148 0.000000 0.000000 0.000000
# 3 -0.002369 -0.005148 0.026160 0.000000 0.000000 0.000000
# 4 0.000000 0.000000 0.000000 -0.174635 0.000000 0.000000
# 5 0.000000 0.000000 0.000000 0.000000 -0.186921 0.000000
# 6 0.000000 0.000000 0.000000 0.000000 0.000000 0.104169
#
#
# Mechanical properties :
#
#
# Convention : Reuss Voigt Hill
#
# Bulk Modulus (GPa) = 26.13495 36.41756 31.27625
# Shear Modulus (GPa) = -34.49264 9.32552 -12.58356
#
# Velocity S-wave (km/s) = -4.32926 2.25106 -2.61488
# Velocity P-wave (km/s) = 3.28464 5.15216 2.80677
#
# Compressibility (1/GPa) = 0.03826293
#
# Stress axis : x y z
#
# Youngs Moduli (GPa) = 94.64668 31.01416 38.22698
#
# Poissons Ratio (x) = 0.24304 0.09054
# Poissons Ratio (y) = 0.74168 0.19679
# Poissons Ratio (z) = 0.22417 0.15966
#
# Static dielectric constant tensor:
#      x y z
#    x 3.885300 0.000000 0.000000 
#    y 0.000000 2.953070 0.000000 
#    z 0.000000 0.000000 3.422850 
# 
# 
# High freq. dielectric constant tensor:
#      x y z
#    x 1.739110 0.000000 0.000000 
#    y 0.000000 1.665930 0.000000 
#    z 0.000000 0.000000 1.703240 
# 
# From -- ./inp_files/12799.got.cif
#   From: 2010.03.12/outbox.cif.g09.slc.cpg/sg51_7_cif.got.tgz:12799.got - 2010.04.16 13:43:02.
