data_PCOD8209569
_publ_section_title
;
Structure prediction by ZEFSAII (Michael W. Deem and Ramdas Pophale) SiO2 
 PCOD8209569
Probable space group: P M M A
;
_chemical_formula_sum "Si O2"
_cell_formula_units_Z 48
_cell_length_a 14.212466
_cell_length_b 17.209055
_cell_length_c 9.794337
_cell_angle_alpha 90.000000
_cell_angle_beta 90.000000
_cell_angle_gamma 90.000000
_cell_volume 2395.529395
_symmetry_space_group_name_H-M "P M M A"
_symmetry_group_IT_number 51
_symmetry_cell_setting 'orthorhombic'
loop_
_space_group_symop_operation_xyz
x,y,z
1/2-x,-y,z
1/2+x,-y,-z
-x,y,-z
-x,-y,-z
1/2+x,y,-z
1/2-x,y,z
x,-y,z
loop_
_atom_site_type_symbol
_atom_site_label
_atom_site_fract_x
_atom_site_fract_y
_atom_site_fract_z
Si Si1 0.137539 0.263798 0.708908
Si Si2 0.643889 0.335413 0.778584
Si Si3 0.642562 0.197570 0.567213
Si Si4 0.023327 0.586878 0.657194
Si Si5 0.639646 0.786166 0.001007
Si Si6 0.863027 0.912603 0.795207
O O1 0.250000 0.268015 0.705076
O O2 0.094927 0.214012 0.581076
O O3 0.098587 0.221930 0.845987
O O4 0.101526 0.352016 0.705148
O O5 0.750000 0.368842 0.786400
O O6 0.634381 0.274972 0.655417
O O7 0.571399 0.404406 0.748116
O O8 0.615717 0.292350 0.918750
O O9 0.750000 0.177079 0.536423
O O10 0.599140 0.125358 0.652911
O O11 0.062668 0.500000 0.681637
O O12 0.000000 0.600506 0.500000
O O13 0.750000 0.796916 0.009393
O O14 0.598246 0.862036 0.923591
O O15 0.750000 0.910002 0.794842
O O16 0.901894 0.000000 0.807757
#
# Coordination Sequence:
#
# PCOD8209569 Si02
#       6
#     8   8   8   8   8   8
#     4  10  19  34  52  74 106 140 176 217 256 307
#     4   9  17  34  54  74 101 134 173 215 255 310
#     4   8  14  26  47  70  96 134 173 206 248 300
#     4  11  23  35  52  80 104 129 175 223 269 317
#     4   8  16  30  51  75 102 140 179 210 254 314
#     4   8  13  24  45  76 109 137 172 217 256 298
#
# _framework density 20.037324000000002
#
# number of rings (size 3 to 8) (size 9 to 14) (size 15 to 20)
#    0.000    3.000    1.667    2.000    0.000    1.333 
#    0.000    4.167    0.000    8.000    0.000   18.667 
#    0.000    0.000    0.000    0.000    0.000    0.167 
#
# Total GULP energy -594779.035031 kJ/mol
# GULP energy per Si atom -12391.229896 kJ/mol
# Density = 1.999172 g / cm^3
# Si number density = 20.037324 Si / 1000 Ang^3
#
#
#
# Elastic Constant Matrix: (Units=GPa)
#
#
# Indices 1 2 3 4 5 6 
#
# 1 24.9337 19.8066 19.6994 0.0000 0.0000 0.0000
# 2 19.8066 129.2971 76.2945 0.0000 0.0000 0.0000
# 3 19.6994 76.2945 173.4702 0.0000 0.0000 0.0000
# 4 0.0000 0.0000 0.0000 21.7672 0.0000 0.0000
# 5 0.0000 0.0000 0.0000 0.0000 12.9905 0.0000
# 6 0.0000 0.0000 0.0000 0.0000 0.0000 14.0510
#
#
#
# Elastic Compliance Matrix: (Units=1/GPa)
#
#
# Indices 1 2 3 4 5 6 
#
# 1 0.046729 -0.005438 -0.002915 0.000000 0.000000 0.000000
# 2 -0.005438 0.011078 -0.004255 0.000000 0.000000 0.000000
# 3 -0.002915 -0.004255 0.007967 0.000000 0.000000 0.000000
# 4 0.000000 0.000000 0.000000 0.045941 0.000000 0.000000
# 5 0.000000 0.000000 0.000000 0.000000 0.076979 0.000000
# 6 0.000000 0.000000 0.000000 0.000000 0.000000 0.071169
#
#
# Mechanical properties :
#
#
# Convention : Reuss Voigt Hill
#
# Bulk Modulus (GPa) = 24.65572 62.14466 43.40019
# Shear Modulus (GPa) = 16.74492 23.88844 20.31668
#
# Velocity S-wave (km/s) = 2.89396 3.45657 3.18770
# Velocity P-wave (km/s) = 4.84750 6.85655 5.93761
#
# Compressibility (1/GPa) = 0.04055853
#
# Stress axis : x y z
#
# Youngs Moduli (GPa) = 21.39986 90.27158 125.51974
#
# Poissons Ratio (x) = 0.49093 0.36586
# Poissons Ratio (y) = 0.11638 0.53403
# Poissons Ratio (z) = 0.06238 0.38406
#
# Static dielectric constant tensor:
#      x y z
#    x 3.368870 0.000000 0.000000 
#    y 0.000000 3.604010 0.000000 
#    z 0.000000 0.000000 4.160630 
# 
# 
# High freq. dielectric constant tensor:
#      x y z
#    x 1.760550 0.000000 0.000000 
#    y 0.000000 1.752520 0.000000 
#    z 0.000000 0.000000 1.789460 
# 
# From -- ./inp_files/8217.got.cif
#   From: 2010.03.12/outbox.cif.g09.slc.cpg/sg51_5_cif.got.tgz:8217.got - 2010.04.16 13:43:02.
