data_PCOD8209397
_publ_section_title
;
Structure prediction by ZEFSAII (Michael W. Deem and Ramdas Pophale) SiO2 
 PCOD8209397
Probable space group: P M M A
;
_chemical_formula_sum "Si O2"
_cell_formula_units_Z 48
_cell_length_a 9.528588
_cell_length_b 28.578691
_cell_length_c 9.418444
_cell_angle_alpha 90.000000
_cell_angle_beta 90.000000
_cell_angle_gamma 90.000000
_cell_volume 2564.779548
_symmetry_space_group_name_H-M "P M M A"
_symmetry_group_IT_number 51
_symmetry_cell_setting 'orthorhombic'
loop_
_space_group_symop_operation_xyz
x,y,z
1/2-x,-y,z
1/2+x,-y,-z
-x,y,-z
-x,-y,-z
1/2+x,y,-z
1/2-x,y,z
x,-y,z
loop_
_atom_site_type_symbol
_atom_site_label
_atom_site_fract_x
_atom_site_fract_y
_atom_site_fract_z
Si Si1 0.582671 0.867750 0.646037
Si Si2 0.750000 0.448464 0.339450
Si Si3 0.415439 0.196283 0.857158
Si Si4 0.502501 0.614862 0.332573
Si Si5 0.250000 0.552878 0.323279
Si Si6 0.911578 0.305348 0.137384
Si Si7 0.589711 0.946899 0.868401
O O1 0.500000 0.874170 0.500000
O O2 0.750000 0.856002 0.626049
O O3 0.500407 0.827277 0.729355
O O4 0.563483 0.916306 0.729261
O O5 0.750000 0.500000 0.271688
O O6 0.621853 0.419598 0.281261
O O7 0.750000 0.452673 0.508378
O O8 0.250000 0.180720 0.867541
O O9 0.424792 0.251045 0.824857
O O10 0.500000 0.183159 0.000000
O O11 0.500000 0.623214 0.500000
O O12 0.374872 0.585398 0.271207
O O13 0.519856 0.666058 0.266255
O O14 0.250000 0.500000 0.257424
O O15 0.750000 0.319285 0.112818
O O16 0.000000 0.318568 0.000000
O O17 0.750000 0.944220 0.917887
O O18 0.544594 0.000000 0.831578
O O19 0.500000 0.926979 0.000000
#
# Coordination Sequence:
#
# PCOD8209397 Si02
#       7
#     8   4   8   8   4   8   8
#     4  11  23  38  57  85 119 154 192 237 292 343
#     4   9  16  30  53  77 105 139 177 223 268 317
#     4  10  21  39  61  83 109 145 189 235 283 342
#     4  10  19  33  54  81 108 139 179 224 271 320
#     4   9  18  30  49  81 111 137 177 223 270 321
#     4  10  22  39  58  81 109 143 181 223 274 332
#     4   9  19  36  58  84 115 153 198 243 285 335
#
# _framework density 18.715057999999999
#
# number of rings (size 3 to 8) (size 9 to 14) (size 15 to 20)
#    0.000    2.167    0.833    2.000    1.167    6.333 
#    0.000    0.000    0.000    3.000    0.000    0.000 
#    0.000    0.000    0.000    0.000    0.000    0.000 
#
# Total GULP energy -594881.446161 kJ/mol
# GULP energy per Si atom -12393.363462 kJ/mol
# Density = 1.867246 g / cm^3
# Si number density = 18.715058 Si / 1000 Ang^3
#
#
#
# Elastic Constant Matrix: (Units=GPa)
#
#
# Indices 1 2 3 4 5 6 
#
# 1 163.4766 60.5980 66.1775 0.0000 0.0000 0.0000
# 2 60.5980 92.9105 56.3020 0.0000 0.0000 0.0000
# 3 66.1775 56.3020 102.7492 0.0000 0.0000 0.0000
# 4 0.0000 0.0000 0.0000 27.2576 0.0000 0.0000
# 5 0.0000 0.0000 0.0000 0.0000 32.5608 0.0000
# 6 0.0000 0.0000 0.0000 0.0000 0.0000 35.8706
#
#
#
# Elastic Compliance Matrix: (Units=1/GPa)
#
#
# Indices 1 2 3 4 5 6 
#
# 1 0.008984 -0.003523 -0.003856 0.000000 0.000000 0.000000
# 2 -0.003523 0.017495 -0.007318 0.000000 0.000000 0.000000
# 3 -0.003856 -0.007318 0.016226 0.000000 0.000000 0.000000
# 4 0.000000 0.000000 0.000000 0.036687 0.000000 0.000000
# 5 0.000000 0.000000 0.000000 0.000000 0.030712 0.000000
# 6 0.000000 0.000000 0.000000 0.000000 0.000000 0.027878
#
#
# Mechanical properties :
#
#
# Convention : Reuss Voigt Hill
#
# Bulk Modulus (GPa) = 75.12055 80.58791 77.85423
# Shear Modulus (GPa) = 29.10176 30.87505 29.98840
#
# Velocity S-wave (km/s) = 3.94762 4.06611 4.00730
# Velocity P-wave (km/s) = 7.81054 8.07455 7.94364
#
# Compressibility (1/GPa) = 0.01331194
#
# Stress axis : x y z
#
# Youngs Moduli (GPa) = 111.31092 57.15918 61.63125
#
# Poissons Ratio (x) = 0.20136 0.23764
# Poissons Ratio (y) = 0.39213 0.45099
# Poissons Ratio (z) = 0.42920 0.41826
#
# Static dielectric constant tensor:
#      x y z
#    x 3.779660 0.000000 0.000000 
#    y 0.000000 3.560090 0.000000 
#    z 0.000000 0.000000 3.151190 
# 
# 
# High freq. dielectric constant tensor:
#      x y z
#    x 1.746690 0.000000 0.000000 
#    y 0.000000 1.738900 0.000000 
#    z 0.000000 0.000000 1.698490 
# 
# From -- ./inp_files/6179.got.cif
#   From: 2010.03.12/outbox.cif.g09.slc.cpg/sg51_4_cif.got.tgz:6179.got - 2010.04.16 13:43:02.
