data_PCOD8209433
_publ_section_title
;
Structure prediction by ZEFSAII (Michael W. Deem and Ramdas Pophale) SiO2 
 PCOD8209433
Probable space group: P M M A
;
_chemical_formula_sum "Si O2"
_cell_formula_units_Z 48
_cell_length_a 28.080846
_cell_length_b 9.245047
_cell_length_c 9.976188
_cell_angle_alpha 90.000000
_cell_angle_beta 90.000000
_cell_angle_gamma 90.000000
_cell_volume 2589.905607
_symmetry_space_group_name_H-M "P M M A"
_symmetry_group_IT_number 51
_symmetry_cell_setting 'orthorhombic'
loop_
_space_group_symop_operation_xyz
x,y,z
1/2-x,-y,z
1/2+x,-y,-z
-x,y,-z
-x,-y,-z
1/2+x,y,-z
1/2-x,y,z
x,-y,z
loop_
_atom_site_type_symbol
_atom_site_label
_atom_site_fract_x
_atom_site_fract_y
_atom_site_fract_z
Si Si1 0.198610 0.828484 0.647482
Si Si2 0.552268 0.332171 0.461121
Si Si3 0.893229 0.330913 0.730782
Si Si4 0.553092 0.168361 0.958029
Si Si5 0.803991 0.831275 0.657721
Si Si6 0.397360 0.169229 0.769183
O O1 0.250000 0.768398 0.698656
O O2 0.190265 0.777541 0.495145
O O3 0.156239 0.771136 0.742425
O O4 0.200305 0.000000 0.648959
O O5 0.500000 0.278053 0.500000
O O6 0.551796 0.500000 0.423467
O O7 0.588503 0.299083 0.581297
O O8 0.566078 0.245802 0.329158
O O9 0.889248 0.500000 0.761331
O O10 0.841195 0.258363 0.748175
O O11 0.931106 0.262632 0.832230
O O12 0.589207 0.203778 0.078693
O O13 0.554644 0.000000 0.918312
O O14 0.500000 0.214303 0.000000
O O15 0.750000 0.801289 0.707703
O O16 0.816346 0.000000 0.671974
O O17 0.400718 0.000000 0.738175
#
# Coordination Sequence:
#
# PCOD8209433 Si02
#       6
#     8   8   8   8   8   8
#     4   8  14  27  50  79 105 128 162 213 268 316
#     4  10  21  35  51  75 106 137 175 222 269 321
#     4  11  22  35  54  80 109 145 182 221 272 325
#     4  10  22  38  54  76 109 147 187 230 275 326
#     4   9  17  32  56  82 108 139 173 217 272 323
#     4  10  19  33  55  79 101 134 178 223 270 316
#
# _framework density 18.533494000000001
#
# number of rings (size 3 to 8) (size 9 to 14) (size 15 to 20)
#    0.000    2.333    1.667    2.500    0.000    2.333 
#    0.000    0.833    0.000    3.500    0.000    0.000 
#    0.000    0.000    0.000    0.000    0.000    0.000 
#
# Total GULP energy -595170.955972 kJ/mol
# GULP energy per Si atom -12399.394916 kJ/mol
# Density = 1.849131 g / cm^3
# Si number density = 18.533494 Si / 1000 Ang^3
#
#
#
# Elastic Constant Matrix: (Units=GPa)
#
#
# Indices 1 2 3 4 5 6 
#
# 1 117.8733 29.8871 9.9535 0.0000 0.0000 0.0000
# 2 29.8871 53.5221 22.0416 0.0000 0.0000 0.0000
# 3 9.9535 22.0416 29.2474 0.0000 0.0000 0.0000
# 4 0.0000 0.0000 0.0000 19.0236 0.0000 0.0000
# 5 0.0000 0.0000 0.0000 0.0000 32.1653 0.0000
# 6 0.0000 0.0000 0.0000 0.0000 0.0000 12.3417
#
#
#
# Elastic Compliance Matrix: (Units=1/GPa)
#
#
# Indices 1 2 3 4 5 6 
#
# 1 0.009910 -0.006010 0.001157 0.000000 0.000000 0.000000
# 2 -0.006010 0.030737 -0.021119 0.000000 0.000000 0.000000
# 3 0.001157 -0.021119 0.049713 0.000000 0.000000 0.000000
# 4 0.000000 0.000000 0.000000 0.052566 0.000000 0.000000
# 5 0.000000 0.000000 0.000000 0.000000 0.031089 0.000000
# 6 0.000000 0.000000 0.000000 0.000000 0.000000 0.081026
#
#
# Mechanical properties :
#
#
# Convention : Reuss Voigt Hill
#
# Bulk Modulus (GPa) = 26.03098 36.04524 31.03811
# Shear Modulus (GPa) = 15.63516 21.95683 18.79600
#
# Velocity S-wave (km/s) = 2.90766 3.44570 3.18805
# Velocity P-wave (km/s) = 5.03473 5.94318 5.50772
#
# Compressibility (1/GPa) = 0.03841576
#
# Stress axis : x y z
#
# Youngs Moduli (GPa) = 100.90936 32.53384 20.11538
#
# Poissons Ratio (x) = 0.19553 -0.02327
# Poissons Ratio (y) = 0.60648 0.42482
# Poissons Ratio (z) = -0.11674 0.68708
#
# Static dielectric constant tensor:
#      x y z
#    x 3.879890 0.000000 0.000000 
#    y 0.000000 3.137340 0.000000 
#    z 0.000000 0.000000 3.189800 
# 
# 
# High freq. dielectric constant tensor:
#      x y z
#    x 1.739380 0.000000 0.000000 
#    y 0.000000 1.695370 0.000000 
#    z 0.000000 0.000000 1.697710 
# 
# From -- ./inp_files/12794.got.cif
#   From: 2010.03.12/outbox.cif.g09.slc.cpg/sg51_7_cif.got.tgz:12794.got - 2010.04.16 13:43:02.
