data_PCOD8209747
_publ_section_title
;
Structure prediction by ZEFSAII (Michael W. Deem and Ramdas Pophale) SiO2 
 PCOD8209747
Probable space group: P M M A
;
_chemical_formula_sum "Si O2"
_cell_formula_units_Z 64
_cell_length_a 19.897570
_cell_length_b 8.572385
_cell_length_c 20.019281
_cell_angle_alpha 90.000000
_cell_angle_beta 90.000000
_cell_angle_gamma 90.000000
_cell_volume 3414.681365
_symmetry_space_group_name_H-M "P M M A"
_symmetry_group_IT_number 51
_symmetry_cell_setting 'orthorhombic'
loop_
_space_group_symop_operation_xyz
x,y,z
1/2-x,-y,z
1/2+x,-y,-z
-x,y,-z
-x,-y,-z
1/2+x,y,-z
1/2-x,y,z
x,-y,z
loop_
_atom_site_type_symbol
_atom_site_label
_atom_site_fract_x
_atom_site_fract_y
_atom_site_fract_z
Si Si1 0.045390 0.682529 0.663506
Si Si2 0.433796 0.315766 0.810711
Si Si3 0.073085 0.818465 0.526465
Si Si4 0.826632 0.682880 0.084304
Si Si5 0.673753 0.679495 0.575831
Si Si6 0.915796 0.317257 0.827961
Si Si7 0.403846 0.819212 0.309575
Si Si8 0.827213 0.818670 0.941879
O O1 0.056444 0.500000 0.650688
O O2 0.077740 0.737973 0.734057
O O3 0.080464 0.779230 0.604687
O O4 0.966219 0.716355 0.665459
O O5 0.430614 0.500000 0.813508
O O6 0.375045 0.248378 0.857890
O O7 0.507002 0.259838 0.836587
O O8 0.128518 0.721505 0.487400
O O9 0.000000 0.767598 0.500000
O O10 0.085740 0.000000 0.513912
O O11 0.750000 0.715873 0.106131
O O12 0.838526 0.500000 0.071449
O O13 0.845335 0.774744 0.017404
O O14 0.750000 0.714288 0.555069
O O15 0.662735 0.500000 0.594986
O O16 0.657163 0.783873 0.640578
O O17 0.913379 0.500000 0.812576
O O18 0.882455 0.227198 0.765508
O O19 0.874766 0.280870 0.894285
O O20 0.423497 0.000000 0.313038
O O21 0.750000 0.775010 0.926464
O O22 0.841071 0.000000 0.930246
#
# Coordination Sequence:
#
# PCOD8209747 Si02
#       8
#     8   8   8   8   8   8   8   8
#     4  10  19  34  57  82 110 144 184 228 270 320
#     4   8  17  33  53  81 110 137 175 225 273 312
#     4  11  22  36  58  86 112 146 187 228 278 332
#     4   9  17  33  57  79 102 138 181 220 263 321
#     4  11  24  40  58  82 111 146 188 231 276 329
#     4  10  20  35  55  78 107 143 182 223 267 321
#     4  11  21  35  55  80 110 143 179 221 274 329
#     4  10  21  36  52  74 106 140 177 223 272 323
#
# _framework density 18.742597
#
# number of rings (size 3 to 8) (size 9 to 14) (size 15 to 20)
#    0.000    2.000    1.250    3.750    0.000    3.250 
#    0.000    6.875    0.000    2.250    0.000    0.000 
#    0.000    0.000    0.000    0.000    0.000    0.000 
#
# Total GULP energy -793746.143744 kJ/mol
# GULP energy per Si atom -12402.283496 kJ/mol
# Density = 1.869994 g / cm^3
# Si number density = 18.742597 Si / 1000 Ang^3
#
#
#
# Elastic Constant Matrix: (Units=GPa)
#
#
# Indices 1 2 3 4 5 6 
#
# 1 93.9541 23.1442 70.2001 0.0000 0.0000 0.0000
# 2 23.1442 46.8494 23.4398 0.0000 0.0000 0.0000
# 3 70.2001 23.4398 130.8475 0.0000 0.0000 0.0000
# 4 0.0000 0.0000 0.0000 23.3649 0.0000 0.0000
# 5 0.0000 0.0000 0.0000 0.0000 31.7473 0.0000
# 6 0.0000 0.0000 0.0000 0.0000 0.0000 18.0850
#
#
#
# Elastic Compliance Matrix: (Units=1/GPa)
#
#
# Indices 1 2 3 4 5 6 
#
# 1 0.018631 -0.004617 -0.009169 0.000000 0.000000 0.000000
# 2 -0.004617 0.024590 -0.001928 0.000000 0.000000 0.000000
# 3 -0.009169 -0.001928 0.012907 0.000000 0.000000 0.000000
# 4 0.000000 0.000000 0.000000 0.042799 0.000000 0.000000
# 5 0.000000 0.000000 0.000000 0.000000 0.031499 0.000000
# 6 0.000000 0.000000 0.000000 0.000000 0.000000 0.055295
#
#
# Mechanical properties :
#
#
# Convention : Reuss Voigt Hill
#
# Bulk Modulus (GPa) = 40.48357 56.13545 48.30951
# Shear Modulus (GPa) = 22.18446 24.96387 23.57417
#
# Velocity S-wave (km/s) = 3.44414 3.65352 3.55037
# Velocity P-wave (km/s) = 6.12068 6.91472 6.52978
#
# Compressibility (1/GPa) = 0.02470138
#
# Stress axis : x y z
#
# Youngs Moduli (GPa) = 53.67264 40.66616 77.47742
#
# Poissons Ratio (x) = 0.18775 0.71037
# Poissons Ratio (y) = 0.24780 0.14939
# Poissons Ratio (z) = 0.49211 0.07841
#
# Static dielectric constant tensor:
#      x y z
#    x 3.418240 0.000000 0.000000 
#    y 0.000000 3.333350 0.000000 
#    z 0.000000 0.000000 3.623830 
# 
# 
# High freq. dielectric constant tensor:
#      x y z
#    x 1.710390 0.000000 0.000000 
#    y 0.000000 1.724990 0.000000 
#    z 0.000000 0.000000 1.736250 
# 
# From -- ./inp_files/33891.got.cif
#   From: 2010.03.12/outbox.cif.g09.slc.cpg/sg51_17_cif.got.tgz:33891.got - 2010.04.16 13:43:02.
