data_PCOD8209709
_publ_section_title
;
Structure prediction by ZEFSAII (Michael W. Deem and Ramdas Pophale) SiO2 
 PCOD8209709
Probable space group: P M M A
;
_chemical_formula_sum "Si O2"
_cell_formula_units_Z 56
_cell_length_a 15.589752
_cell_length_b 19.536072
_cell_length_c 9.270977
_cell_angle_alpha 90.000000
_cell_angle_beta 90.000000
_cell_angle_gamma 90.000000
_cell_volume 2823.592095
_symmetry_space_group_name_H-M "P M M A"
_symmetry_group_IT_number 51
_symmetry_cell_setting 'orthorhombic'
loop_
_space_group_symop_operation_xyz
x,y,z
1/2-x,-y,z
1/2+x,-y,-z
-x,y,-z
-x,-y,-z
1/2+x,y,-z
1/2-x,y,z
x,-y,z
loop_
_atom_site_type_symbol
_atom_site_label
_atom_site_fract_x
_atom_site_fract_y
_atom_site_fract_z
Si Si1 0.495738 0.423649 0.671117
Si Si2 0.936826 0.792910 0.879335
Si Si3 0.347132 0.925584 0.644005
Si Si4 0.055735 0.200021 0.625983
Si Si5 0.653859 0.326929 0.376291
Si Si6 0.151801 0.669253 0.281266
Si Si7 0.347491 0.076220 0.982989
O O1 0.500000 0.427489 0.500000
O O2 0.487911 0.500000 0.736288
O O3 0.408404 0.381786 0.700644
O O4 0.579875 0.389499 0.745692
O O5 0.871740 0.735568 0.815865
O O6 0.892478 0.861210 0.937534
O O7 0.994044 0.822795 0.752490
O O8 0.000000 0.759868 0.000000
O O9 0.250000 0.922202 0.589704
O O10 0.399816 0.867529 0.559900
O O11 0.385882 0.000000 0.607199
O O12 0.352642 0.910182 0.813233
O O13 0.126221 0.253249 0.686104
O O14 0.000000 0.236212 0.500000
O O15 0.750000 0.345614 0.327546
O O16 0.647643 0.317516 0.548293
O O17 0.250000 0.646576 0.240590
O O18 0.250000 0.076334 0.035222
O O19 0.386490 0.000000 0.018637
#
# Coordination Sequence:
#
# PCOD8209709 Si02
#       7
#     8   8   8   8   8   8   8
#     4   9  17  32  55  87 121 148 184 230 277 335
#     4  12  22  35  57  83 113 146 194 248 285 340
#     4   9  19  36  55  77 107 145 189 237 293 353
#     4  12  21  36  55  78 115 147 188 237 291 349
#     4  10  19  34  56  82 117 156 190 231 285 340
#     4  10  20  36  57  83 117 153 191 236 287 337
#     4   9  19  36  55  77 107 144 190 244 296 345
#
# _framework density 19.832892999999999
#
# number of rings (size 3 to 8) (size 9 to 14) (size 15 to 20)
#    0.000    1.857    4.286    2.143    0.000    1.714 
#    0.000    2.857    0.000    2.143    0.000    0.000 
#    0.000    0.000    0.000    0.000    0.000    0.000 
#
# Total GULP energy -693806.657137 kJ/mol
# GULP energy per Si atom -12389.404592 kJ/mol
# Density = 1.978775 g / cm^3
# Si number density = 19.832893 Si / 1000 Ang^3
#
#
#
# Elastic Constant Matrix: (Units=GPa)
#
#
# Indices 1 2 3 4 5 6 
#
# 1 149.5174 75.8177 16.6727 0.0000 0.0000 0.0000
# 2 75.8177 146.5323 2.7985 0.0000 0.0000 0.0000
# 3 16.6727 2.7985 24.5763 0.0000 0.0000 0.0000
# 4 0.0000 0.0000 0.0000 20.9398 0.0000 0.0000
# 5 0.0000 0.0000 0.0000 0.0000 23.1593 0.0000
# 6 0.0000 0.0000 0.0000 0.0000 0.0000 15.6334
#
#
#
# Elastic Compliance Matrix: (Units=1/GPa)
#
#
# Indices 1 2 3 4 5 6 
#
# 1 0.009917 -0.005014 -0.006157 0.000000 0.000000 0.000000
# 2 -0.005014 0.009374 0.002334 0.000000 0.000000 0.000000
# 3 -0.006157 0.002334 0.044601 0.000000 0.000000 0.000000
# 4 0.000000 0.000000 0.000000 0.047756 0.000000 0.000000
# 5 0.000000 0.000000 0.000000 0.000000 0.043179 0.000000
# 6 0.000000 0.000000 0.000000 0.000000 0.000000 0.063965
#
#
# Mechanical properties :
#
#
# Convention : Reuss Voigt Hill
#
# Bulk Modulus (GPa) = 21.63637 56.80042 39.21840
# Shear Modulus (GPa) = 19.85136 26.96897 23.41016
#
# Velocity S-wave (km/s) = 3.16718 3.69156 3.43938
# Velocity P-wave (km/s) = 4.93029 6.84630 5.96572
#
# Compressibility (1/GPa) = 0.04621846
#
# Stress axis : x y z
#
# Youngs Moduli (GPa) = 100.83617 106.67820 22.42115
#
# Poissons Ratio (x) = 0.53485 0.13804
# Poissons Ratio (y) = 0.50556 -0.05233
# Poissons Ratio (z) = 0.62084 -0.24897
#
# Static dielectric constant tensor:
#      x y z
#    x 3.886710 0.000000 0.000000 
#    y 0.000000 3.710020 0.000000 
#    z 0.000000 0.000000 3.685720 
# 
# 
# High freq. dielectric constant tensor:
#      x y z
#    x 1.784530 0.000000 0.000000 
#    y 0.000000 1.774820 0.000000 
#    z 0.000000 0.000000 1.727100 
# 
# From -- ./inp_files/8509.got.cif
#   From: 2010.03.12/outbox.cif.g09.slc.cpg/sg51_5_cif.got.tgz:8509.got - 2010.04.16 13:43:02.
