data_PCOD8209740
_publ_section_title
;
Structure prediction by ZEFSAII (Michael W. Deem and Ramdas Pophale) SiO2 
 PCOD8209740
Probable space group: P M M A
;
_chemical_formula_sum "Si O2"
_cell_formula_units_Z 56
_cell_length_a 22.772910
_cell_length_b 9.611131
_cell_length_c 13.387234
_cell_angle_alpha 90.000000
_cell_angle_beta 90.000000
_cell_angle_gamma 90.000000
_cell_volume 2930.109707
_symmetry_space_group_name_H-M "P M M A"
_symmetry_group_IT_number 51
_symmetry_cell_setting 'orthorhombic'
loop_
_space_group_symop_operation_xyz
x,y,z
1/2-x,-y,z
1/2+x,-y,-z
-x,y,-z
-x,-y,-z
1/2+x,y,-z
1/2-x,y,z
x,-y,z
loop_
_atom_site_type_symbol
_atom_site_label
_atom_site_fract_x
_atom_site_fract_y
_atom_site_fract_z
Si Si1 0.084784 0.664459 0.207874
Si Si2 0.556635 0.846143 0.432938
Si Si3 0.250000 0.656298 0.504289
Si Si4 0.473079 0.162458 0.786855
Si Si5 0.183968 0.659097 0.052443
Si Si6 0.626405 0.659179 0.575438
Si Si7 0.750000 0.161723 0.297940
Si Si8 0.154305 0.161213 0.863237
O O1 0.072701 0.500000 0.204094
O O2 0.138378 0.708101 0.136677
O O3 0.102070 0.714981 0.319137
O O4 0.026864 0.746247 0.170610
O O5 0.500000 0.855054 0.500000
O O6 0.538798 0.787169 0.325612
O O7 0.602797 0.743791 0.481552
O O8 0.585181 0.000000 0.421055
O O9 0.250000 0.500000 0.548351
O O10 0.303994 0.679243 0.429088
O O11 0.250000 0.757296 0.598481
O O12 0.414597 0.193290 0.849807
O O13 0.490448 0.000000 0.791258
O O14 0.250000 0.676079 0.095236
O O15 0.171504 0.500000 0.022175
O O16 0.177835 0.750756 0.954549
O O17 0.607116 0.500000 0.561456
O O18 0.808618 0.201407 0.235545
O O19 0.750000 0.000000 0.325077
O O20 0.164930 0.000000 0.888100
#
# Coordination Sequence:
#
# PCOD8209740 Si02
#       8
#     8   8   4   8   8   8   4   8
#     4  10  22  38  57  82 113 150 189 230 277 330
#     4  10  19  34  57  81 111 149 187 226 268 322
#     4  10  22  36  53  82 116 148 183 228 275 324
#     4  10  21  37  57  85 116 149 185 225 280 336
#     4  10  22  40  62  85 109 144 189 235 283 333
#     4  10  21  36  55  81 114 150 188 228 273 326
#     4  10  20  38  61  84 112 146 187 232 279 336
#     4  10  21  38  62  86 111 144 183 231 285 338
#
# _framework density 19.111912
#
# number of rings (size 3 to 8) (size 9 to 14) (size 15 to 20)
#    0.000    2.000    2.143    0.857    1.000    4.857 
#    0.000    2.857    0.000    0.000    0.000    0.000 
#    0.000    0.000    0.000    0.000    0.000    0.000 
#
# Total GULP energy -694477.974671 kJ/mol
# GULP energy per Si atom -12401.392405 kJ/mol
# Density = 1.906841 g / cm^3
# Si number density = 19.111912 Si / 1000 Ang^3
#
#
#
# Elastic Constant Matrix: (Units=GPa)
#
#
# Indices 1 2 3 4 5 6 
#
# 1 124.6531 42.1790 24.3019 0.0000 0.0000 0.0000
# 2 42.1790 53.1665 24.2132 0.0000 0.0000 0.0000
# 3 24.3019 24.2132 51.7975 0.0000 0.0000 0.0000
# 4 0.0000 0.0000 0.0000 28.3392 0.0000 0.0000
# 5 0.0000 0.0000 0.0000 0.0000 31.1077 0.0000
# 6 0.0000 0.0000 0.0000 0.0000 0.0000 27.5413
#
#
#
# Elastic Compliance Matrix: (Units=1/GPa)
#
#
# Indices 1 2 3 4 5 6 
#
# 1 0.011043 -0.008133 -0.001379 0.000000 0.000000 0.000000
# 2 -0.008133 0.029885 -0.010155 0.000000 0.000000 0.000000
# 3 -0.001379 -0.010155 0.024700 0.000000 0.000000 0.000000
# 4 0.000000 0.000000 0.000000 0.035287 0.000000 0.000000
# 5 0.000000 0.000000 0.000000 0.000000 0.032146 0.000000
# 6 0.000000 0.000000 0.000000 0.000000 0.000000 0.036309
#
#
# Mechanical properties :
#
#
# Convention : Reuss Voigt Hill
#
# Bulk Modulus (GPa) = 38.02985 45.66726 41.84856
# Shear Modulus (GPa) = 22.99178 26.65917 24.82547
#
# Velocity S-wave (km/s) = 3.47220 3.73889 3.60801
# Velocity P-wave (km/s) = 6.00139 6.52576 6.26906
#
# Compressibility (1/GPa) = 0.02629514
#
# Stress axis : x y z
#
# Youngs Moduli (GPa) = 90.55478 33.46116 40.48593
#
# Poissons Ratio (x) = 0.27213 0.05585
# Poissons Ratio (y) = 0.73645 0.41112
# Poissons Ratio (z) = 0.12491 0.33978
#
# Static dielectric constant tensor:
#      x y z
#    x 3.693220 0.000000 0.000000 
#    y 0.000000 3.494800 0.000000 
#    z 0.000000 0.000000 3.389700 
# 
# 
# High freq. dielectric constant tensor:
#      x y z
#    x 1.757430 0.000000 0.000000 
#    y 0.000000 1.735540 0.000000 
#    z 0.000000 0.000000 1.736030 
# 
# From -- ./inp_files/25871.got.cif
#   From: 2010.03.12/outbox.cif.g09.slc.cpg/sg51_13_cif.got.tgz:25871.got - 2010.04.16 13:43:02.
