data_PCOD8209696
_publ_section_title
;
Structure prediction by ZEFSAII (Michael W. Deem and Ramdas Pophale) SiO2 
 PCOD8209696
Probable space group: P M M A
;
_chemical_formula_sum "Si O2"
_cell_formula_units_Z 48
_cell_length_a 9.000938
_cell_length_b 31.051282
_cell_length_c 8.985345
_cell_angle_alpha 90.000000
_cell_angle_beta 90.000000
_cell_angle_gamma 90.000000
_cell_volume 2511.320041
_symmetry_space_group_name_H-M "P M M A"
_symmetry_group_IT_number 51
_symmetry_cell_setting 'orthorhombic'
loop_
_space_group_symop_operation_xyz
x,y,z
1/2-x,-y,z
1/2+x,-y,-z
-x,y,-z
-x,-y,-z
1/2+x,y,-z
1/2-x,y,z
x,-y,z
loop_
_atom_site_type_symbol
_atom_site_label
_atom_site_fract_x
_atom_site_fract_y
_atom_site_fract_z
Si Si1 0.576480 0.748171 0.342231
Si Si2 0.575057 0.417006 0.341449
Si Si3 0.081217 0.000000 0.347671
Si Si4 0.925239 0.500000 0.158741
Si Si5 0.425468 0.832159 0.843561
Si Si6 0.574671 0.333753 0.158480
Si Si7 0.425521 0.906391 0.338062
O O1 0.500000 0.745725 0.500000
O O2 0.750000 0.743158 0.369280
O O3 0.536156 0.793174 0.266079
O O4 0.517748 0.709515 0.238878
O O5 0.500000 0.418327 0.500000
O O6 0.750000 0.417771 0.365572
O O7 0.520839 0.458043 0.247724
O O8 0.523194 0.374171 0.256590
O O9 0.045464 0.045543 0.266751
O O10 0.000000 0.000000 0.500000
O O11 0.250000 0.000000 0.395207
O O12 0.750000 0.500000 0.135482
O O13 0.000000 0.500000 0.000000
O O14 0.250000 0.838542 0.864272
O O15 0.497328 0.874995 0.777679
O O16 0.500000 0.821370 0.000000
O O17 0.750000 0.333117 0.134809
O O18 0.500000 0.337445 0.000000
O O19 0.500000 0.901390 0.500000
O O20 0.250000 0.896227 0.352083
#
# Coordination Sequence:
#
# PCOD8209696 Si02
#       7
#     8   8   4   4   8   8   8
#     4  10  22  38  57  81 108 138 177 220 265 317
#     4  10  21  36  55  80 110 142 182 225 268 319
#     4   8  16  30  51  78 107 138 174 216 262 310
#     4  10  21  36  54  80 110 142 181 226 272 324
#     4  11  23  38  55  78 107 141 179 221 269 321
#     4  10  21  37  56  81 110 142 179 220 265 318
#     4  10  19  34  56  82 110 141 178 220 264 315
#
# _framework density 19.113454000000001
#
# number of rings (size 3 to 8) (size 9 to 14) (size 15 to 20)
#    0.000    2.000    0.000    3.250    0.000    5.333 
#    0.000    0.417    0.000    0.000    0.000    0.000 
#    0.000    0.000    0.000    0.000    0.000    0.000 
#
# Total GULP energy -595162.676539 kJ/mol
# GULP energy per Si atom -12399.222428 kJ/mol
# Density = 1.906995 g / cm^3
# Si number density = 19.113454 Si / 1000 Ang^3
#
#
#
# Elastic Constant Matrix: (Units=GPa)
#
#
# Indices 1 2 3 4 5 6 
#
# 1 58.8048 51.3920 54.0288 0.0000 0.0000 0.0000
# 2 51.3920 158.8711 68.5958 0.0000 0.0000 0.0000
# 3 54.0288 68.5958 150.9858 0.0000 0.0000 0.0000
# 4 0.0000 0.0000 0.0000 50.2218 0.0000 0.0000
# 5 0.0000 0.0000 0.0000 0.0000 41.1244 0.0000
# 6 0.0000 0.0000 0.0000 0.0000 0.0000 13.7977
#
#
#
# Elastic Compliance Matrix: (Units=1/GPa)
#
#
# Indices 1 2 3 4 5 6 
#
# 1 0.029562 -0.006214 -0.007755 0.000000 0.000000 0.000000
# 2 -0.006214 0.009137 -0.001927 0.000000 0.000000 0.000000
# 3 -0.007755 -0.001927 0.010274 0.000000 0.000000 0.000000
# 4 0.000000 0.000000 0.000000 0.019912 0.000000 0.000000
# 5 0.000000 0.000000 0.000000 0.000000 0.024316 0.000000
# 6 0.000000 0.000000 0.000000 0.000000 0.000000 0.072476
#
#
# Mechanical properties :
#
#
# Convention : Reuss Voigt Hill
#
# Bulk Modulus (GPa) = 58.21088 79.63278 68.92183
# Shear Modulus (GPa) = 24.60683 34.00513 29.30598
#
# Velocity S-wave (km/s) = 3.59194 4.22254 3.91994
# Velocity P-wave (km/s) = 6.90828 8.09486 7.52499
#
# Compressibility (1/GPa) = 0.01717892
#
# Stress axis : x y z
#
# Youngs Moduli (GPa) = 33.82777 109.44803 97.33472
#
# Poissons Ratio (x) = 0.68013 0.75484
# Poissons Ratio (y) = 0.21021 0.18759
# Poissons Ratio (z) = 0.26234 0.21094
#
# Static dielectric constant tensor:
#      x y z
#    x 3.478290 0.000000 0.000000 
#    y 0.000000 4.030780 0.000000 
#    z 0.000000 0.000000 3.347010 
# 
# 
# High freq. dielectric constant tensor:
#      x y z
#    x 1.742720 0.000000 0.000000 
#    y 0.000000 1.769430 0.000000 
#    z 0.000000 0.000000 1.738510 
# 
# From -- ./inp_files/6173.got.cif
#   From: 2010.03.12/outbox.cif.g09.slc.cpg/sg51_4_cif.got.tgz:6173.got - 2010.04.16 13:43:02.
