data_PCOD8209367
_publ_section_title
;
Structure prediction by ZEFSAII (Michael W. Deem and Ramdas Pophale) SiO2 
 PCOD8209367
Probable space group: P M M A
;
_chemical_formula_sum "Si O2"
_cell_formula_units_Z 48
_cell_length_a 8.960296
_cell_length_b 29.833753
_cell_length_c 9.892527
_cell_angle_alpha 90.000000
_cell_angle_beta 90.000000
_cell_angle_gamma 90.000000
_cell_volume 2644.462974
_symmetry_space_group_name_H-M "P M M A"
_symmetry_group_IT_number 51
_symmetry_cell_setting 'orthorhombic'
loop_
_space_group_symop_operation_xyz
x,y,z
1/2-x,-y,z
1/2+x,-y,-z
-x,y,-z
-x,-y,-z
1/2+x,y,-z
1/2-x,y,z
x,-y,z
loop_
_atom_site_type_symbol
_atom_site_label
_atom_site_fract_x
_atom_site_fract_y
_atom_site_fract_z
Si Si1 0.424351 0.072999 0.139472
Si Si2 0.425999 0.597029 0.146660
Si Si3 0.073890 0.000000 0.353093
Si Si4 0.079122 0.500000 0.140163
Si Si5 0.925579 0.175474 0.860764
Si Si6 0.922393 0.339999 0.360192
Si Si7 0.577476 0.764352 0.360839
O O1 0.250000 0.066454 0.115813
O O2 0.478245 0.043365 0.266775
O O3 0.466166 0.124140 0.174234
O O4 0.500000 0.057113 0.000000
O O5 0.250000 0.606310 0.133932
O O6 0.458553 0.547378 0.213980
O O7 0.498859 0.633971 0.240256
O O8 0.500000 0.600640 0.000000
O O9 0.000000 0.000000 0.500000
O O10 0.250000 0.000000 0.376001
O O11 0.250000 0.500000 0.101123
O O12 0.000000 0.500000 0.000000
O O13 0.750000 0.183043 0.870768
O O14 0.993407 0.207461 0.750150
O O15 0.000000 0.190035 0.000000
O O16 0.750000 0.353758 0.369874
O O17 0.942305 0.287813 0.327518
O O18 0.000000 0.353287 0.500000
O O19 0.500000 0.777095 0.500000
O O20 0.750000 0.778181 0.367552
#
# Coordination Sequence:
#
# PCOD8209367 Si02
#       7
#     8   8   4   4   8   8   8
#     4   9  19  35  55  78 104 136 173 212 255 306
#     4  10  19  33  54  79 106 136 172 213 257 305
#     4  10  21  36  52  76 108 138 173 214 256 302
#     4   8  16  30  49  74 103 134 168 208 254 304
#     4  10  20  35  55  80 108 137 173 216 260 307
#     4  10  21  37  55  76 103 136 174 214 259 310
#     4  10  21  37  56  77 103 137 174 213 260 312
#
# _framework density 18.151133000000002
#
# number of rings (size 3 to 8) (size 9 to 14) (size 15 to 20)
#    0.000    2.333    0.000    2.250    0.000    5.333 
#    0.000    2.083    0.000    0.000    0.000    0.000 
#    0.000    0.000    0.000    0.000    0.000    0.000 
#
# Total GULP energy -595052.168887 kJ/mol
# GULP energy per Si atom -12396.920185 kJ/mol
# Density = 1.810982 g / cm^3
# Si number density = 18.151133 Si / 1000 Ang^3
#
#
#
# Elastic Constant Matrix: (Units=GPa)
#
#
# Indices 1 2 3 4 5 6 
#
# 1 106.1233 55.7778 71.4051 0.0000 0.0000 0.0000
# 2 55.7778 85.4152 81.6576 0.0000 0.0000 0.0000
# 3 71.4051 81.6576 145.8459 0.0000 0.0000 0.0000
# 4 0.0000 0.0000 0.0000 683.4399 0.0000 0.0000
# 5 0.0000 0.0000 0.0000 0.0000 37.9150 0.0000
# 6 0.0000 0.0000 0.0000 0.0000 0.0000 24.2365
#
#
#
# Elastic Compliance Matrix: (Units=1/GPa)
#
#
# Indices 1 2 3 4 5 6 
#
# 1 0.015414 -0.006135 -0.004112 0.000000 0.000000 0.000000
# 2 -0.006135 0.027633 -0.012468 0.000000 0.000000 0.000000
# 3 -0.004112 -0.012468 0.015850 0.000000 0.000000 0.000000
# 4 0.000000 0.000000 0.000000 0.001463 0.000000 0.000000
# 5 0.000000 0.000000 0.000000 0.000000 0.026375 0.000000
# 6 0.000000 0.000000 0.000000 0.000000 0.000000 0.041260
#
#
# Mechanical properties :
#
#
# Convention : Reuss Voigt Hill
#
# Bulk Modulus (GPa) = 74.24764 83.89615 79.07190
# Shear Modulus (GPa) = 28.10345 157.68788 92.89567
#
# Velocity S-wave (km/s) = 3.93912 9.33078 7.16171
# Velocity P-wave (km/s) = 7.85385 12.74386 10.58510
#
# Compressibility (1/GPa) = 0.01346844
#
# Stress axis : x y z
#
# Youngs Moduli (GPa) = 64.87596 36.18848 63.09006
#
# Poissons Ratio (x) = 0.22201 0.25942
# Poissons Ratio (y) = 0.39800 0.78660
# Poissons Ratio (z) = 0.26676 0.45120
#
# Static dielectric constant tensor:
#      x y z
#    x 3.393290 0.000000 0.000000 
#    y 0.000000 3.695060 0.000000 
#    z 0.000000 0.000000 3.229440 
# 
# 
# High freq. dielectric constant tensor:
#      x y z
#    x 1.716480 0.000000 0.000000 
#    y 0.000000 1.714000 0.000000 
#    z 0.000000 0.000000 1.692620 
# 
# From -- ./inp_files/6188.got.cif
#   From: 2010.03.12/outbox.cif.g09.slc.cpg/sg51_4_cif.got.tgz:6188.got - 2010.04.16 13:43:02.
