data_PCOD8209165
_publ_section_title
;
Structure prediction by ZEFSAII (Michael W. Deem and Ramdas Pophale) SiO2 
 PCOD8209165
Probable space group: P M M A
;
_chemical_formula_sum "Si O2"
_cell_formula_units_Z 40
_cell_length_a 18.744395
_cell_length_b 8.957191
_cell_length_c 12.601590
_cell_angle_alpha 90.000000
_cell_angle_beta 90.000000
_cell_angle_gamma 90.000000
_cell_volume 2115.770746
_symmetry_space_group_name_H-M "P M M A"
_symmetry_group_IT_number 51
_symmetry_cell_setting 'orthorhombic'
loop_
_space_group_symop_operation_xyz
x,y,z
1/2-x,-y,z
1/2+x,-y,-z
-x,y,-z
-x,-y,-z
1/2+x,y,-z
1/2-x,y,z
x,-y,z
loop_
_atom_site_type_symbol
_atom_site_label
_atom_site_fract_x
_atom_site_fract_y
_atom_site_fract_z
Si Si1 0.073365 0.323465 0.553389
Si Si2 0.169433 0.177750 0.965790
Si Si3 0.408172 0.176314 0.173450
Si Si4 0.932751 0.176080 0.220852
Si Si5 0.166625 0.173333 0.384849
O O1 0.076065 0.500000 0.558634
O O2 0.081017 0.259954 0.670436
O O3 0.139805 0.264269 0.486032
O O4 0.000000 0.266464 0.500000
O O5 0.250000 0.239777 0.960239
O O6 0.127263 0.230575 0.861479
O O7 0.169054 0.000000 0.971490
O O8 0.130645 0.244762 0.070086
O O9 0.490945 0.221829 0.171872
O O10 0.371460 0.238953 0.279932
O O11 0.398417 0.000000 0.171242
O O12 0.929185 0.000000 0.242290
O O13 0.250000 0.199282 0.371470
O O14 0.147695 0.000000 0.401732
#
# Coordination Sequence:
#
# PCOD8209165 Si02
#       5
#     8   8   8   8   8
#     4  11  23  38  55  76 107 147 186 224 272 324
#     4   9  17  29  48  79 114 140 169 216 271 324
#     4   9  16  29  51  79 110 139 171 217 271 323
#     4  10  19  32  55  81 106 140 182 223 268 321
#     4  10  20  34  56  84 109 138 179 227 277 324
#
# _framework density 18.905639000000001
#
# number of rings (size 3 to 8) (size 9 to 14) (size 15 to 20)
#    0.000    2.200    2.000    1.800    0.000    6.800 
#    0.000    2.000    0.000    3.600    0.000    0.000 
#    0.000    0.000    0.000    0.000    0.000    0.000 
#
# Total GULP energy -496080.431670 kJ/mol
# GULP energy per Si atom -12402.010792 kJ/mol
# Density = 1.886261 g / cm^3
# Si number density = 18.905639 Si / 1000 Ang^3
#
#
#
# Elastic Constant Matrix: (Units=GPa)
#
#
# Indices 1 2 3 4 5 6 
#
# 1 133.0371 29.2162 81.8470 0.0000 0.0000 0.0000
# 2 29.2162 30.2678 36.1261 0.0000 0.0000 0.0000
# 3 81.8470 36.1261 171.3539 0.0000 0.0000 0.0000
# 4 0.0000 0.0000 0.0000 -0.6907 0.0000 0.0000
# 5 0.0000 0.0000 0.0000 0.0000 38.3453 0.0000
# 6 0.0000 0.0000 0.0000 0.0000 0.0000 13.2990
#
#
#
# Elastic Compliance Matrix: (Units=1/GPa)
#
#
# Indices 1 2 3 4 5 6 
#
# 1 0.011412 -0.006026 -0.004180 0.000000 0.000000 0.000000
# 2 -0.006026 0.047329 -0.007100 0.000000 0.000000 0.000000
# 3 -0.004180 -0.007100 0.009330 0.000000 0.000000 0.000000
# 4 0.000000 0.000000 0.000000 -1.447830 0.000000 0.000000
# 5 0.000000 0.000000 0.000000 0.000000 0.026079 0.000000
# 6 0.000000 0.000000 0.000000 0.000000 0.000000 0.075194
#
#
# Mechanical properties :
#
#
# Convention : Reuss Voigt Hill
#
# Bulk Modulus (GPa) = 29.88827 69.89304 49.89065
# Shear Modulus (GPa) = -4.05607 22.68869 9.31631
#
# Velocity S-wave (km/s) = -1.46632 3.46801 2.22227
# Velocity P-wave (km/s) = 3.60232 7.28600 5.74728
#
# Compressibility (1/GPa) = 0.03345794
#
# Stress axis : x y z
#
# Youngs Moduli (GPa) = 87.62742 21.12861 107.18601
#
# Poissons Ratio (x) = 0.12732 0.44809
# Poissons Ratio (y) = 0.52803 0.76103
# Poissons Ratio (z) = 0.36633 0.15001
#
# Static dielectric constant tensor:
#      x y z
#    x 3.637590 0.000000 0.000000 
#    y 0.000000 2.950910 0.000000 
#    z 0.000000 0.000000 3.634470 
# 
# 
# High freq. dielectric constant tensor:
#      x y z
#    x 1.745730 0.000000 0.000000 
#    y 0.000000 1.679850 0.000000 
#    z 0.000000 0.000000 1.750610 
# 
# From -- ./inp_files/17076.got.cif
#   From: 2010.03.12/outbox.cif.g09.slc.cpg/sg51_9_cif.got.tgz:17076.got - 2010.04.16 13:43:02.
