data_PCOD8209209
_publ_section_title
;
Structure prediction by ZEFSAII (Michael W. Deem and Ramdas Pophale) SiO2 
 PCOD8209209
Probable space group: P M M A
;
_chemical_formula_sum "Si O2"
_cell_formula_units_Z 64
_cell_length_a 9.045794
_cell_length_b 14.580914
_cell_length_c 29.780426
_cell_angle_alpha 90.000000
_cell_angle_beta 90.000000
_cell_angle_gamma 90.000000
_cell_volume 3927.917411
_symmetry_space_group_name_H-M "P M M A"
_symmetry_group_IT_number 51
_symmetry_cell_setting 'orthorhombic'
loop_
_space_group_symop_operation_xyz
x,y,z
1/2-x,-y,z
1/2+x,-y,-z
-x,y,-z
-x,-y,-z
1/2+x,y,-z
1/2-x,y,z
x,-y,z
loop_
_atom_site_type_symbol
_atom_site_label
_atom_site_fract_x
_atom_site_fract_y
_atom_site_fract_z
Si Si1 0.923684 0.774899 0.697427
Si Si2 0.585141 0.890536 0.956464
Si Si3 0.587196 0.108067 0.128635
Si Si4 0.081734 0.133830 0.456317
Si Si5 0.575746 0.602421 0.642508
Si Si6 0.925971 0.104437 0.228786
Si Si7 0.583841 0.898969 0.368993
Si Si8 0.416054 0.351026 0.455618
O O1 0.750000 0.775071 0.707398
O O2 0.980890 0.674066 0.680788
O O3 0.006576 0.814787 0.740888
O O4 0.961621 0.841069 0.656690
O O5 0.750000 0.852068 0.959295
O O6 0.514893 0.850408 0.910603
O O7 0.582929 0.000000 0.955954
O O8 0.500000 0.852798 0.000000
O O9 0.750000 0.151995 0.123681
O O10 0.522401 0.128702 0.178121
O O11 0.600115 0.000000 0.122123
O O12 0.250000 0.096653 0.453268
O O13 0.081909 0.242569 0.454843
O O14 0.000000 0.096650 0.500000
O O15 0.977515 0.092192 0.418583
O O16 0.750000 0.618124 0.637979
O O17 0.535057 0.500000 0.659094
O O18 0.509957 0.617142 0.591956
O O19 0.750000 0.108226 0.232892
O O20 0.978790 0.000000 0.241273
O O21 0.750000 0.855388 0.367721
O O22 0.592739 0.000000 0.347218
O O23 0.500000 0.388810 0.500000
O O24 0.250000 0.389813 0.459120
#
# Coordination Sequence:
#
# PCOD8209209 Si02
#       8
#     8   8   8   8   8   8   8   8
#     4  11  21  34  51  71  90 113 146 183 221 259
#     4   9  15  21  31  49  75 108 147 190 233 270
#     4   8  14  25  39  54  76 108 147 187 225 267
#     4  10  19  33  51  71  92 115 143 172 206 247
#     4   9  18  34  53  71  93 118 141 169 211 262
#     4   9  18  32  48  66  90 121 152 185 231 278
#     4  11  23  36  50  68  90 118 147 175 212 254
#     4   9  17  31  50  72  93 113 136 163 200 247
#
# _framework density 16.293621999999999
#
# number of rings (size 3 to 8) (size 9 to 14) (size 15 to 20)
#    0.000    2.500    1.250    2.625    0.000    5.750 
#    0.000    1.250    0.000    3.000    0.000    0.000 
#    0.000    0.000    0.000    0.000    0.000    0.625 
#
# Total GULP energy -792981.435306 kJ/mol
# GULP energy per Si atom -12390.334927 kJ/mol
# Density = 1.625654 g / cm^3
# Si number density = 16.293622 Si / 1000 Ang^3
#
#
#
# Elastic Constant Matrix: (Units=GPa)
#
#
# Indices 1 2 3 4 5 6 
#
# 1 63.5532 19.4221 41.9143 0.0000 0.0000 0.0000
# 2 19.4221 64.3988 40.9491 0.0000 0.0000 0.0000
# 3 41.9143 40.9491 132.4884 0.0000 0.0000 0.0000
# 4 0.0000 0.0000 0.0000 7.4095 0.0000 0.0000
# 5 0.0000 0.0000 0.0000 0.0000 29.7058 0.0000
# 6 0.0000 0.0000 0.0000 0.0000 0.0000 9.0782
#
#
#
# Elastic Compliance Matrix: (Units=1/GPa)
#
#
# Indices 1 2 3 4 5 6 
#
# 1 0.020208 -0.002526 -0.005612 0.000000 0.000000 0.000000
# 2 -0.002526 0.019642 -0.005272 0.000000 0.000000 0.000000
# 3 -0.005612 -0.005272 0.010953 0.000000 0.000000 0.000000
# 4 0.000000 0.000000 0.000000 0.134962 0.000000 0.000000
# 5 0.000000 0.000000 0.000000 0.000000 0.033663 0.000000
# 6 0.000000 0.000000 0.000000 0.000000 0.000000 0.110154
#
#
# Mechanical properties :
#
#
# Convention : Reuss Voigt Hill
#
# Bulk Modulus (GPa) = 41.69631 51.66794 46.68213
# Shear Modulus (GPa) = 13.72132 19.78238 16.75185
#
# Velocity S-wave (km/s) = 2.90509 3.48820 3.20991
# Velocity P-wave (km/s) = 6.07444 6.92840 6.51543
#
# Compressibility (1/GPa) = 0.02398294
#
# Stress axis : x y z
#
# Youngs Moduli (GPa) = 49.48480 50.91073 91.30083
#
# Poissons Ratio (x) = 0.12859 0.51242
# Poissons Ratio (y) = 0.12499 0.48133
# Poissons Ratio (z) = 0.27773 0.26840
#
# Static dielectric constant tensor:
#      x y z
#    x 3.160950 0.000000 0.000000 
#    y 0.000000 2.793590 0.000000 
#    z 0.000000 0.000000 3.230440 
# 
# 
# High freq. dielectric constant tensor:
#      x y z
#    x 1.622560 0.000000 0.000000 
#    y 0.000000 1.578660 0.000000 
#    z 0.000000 0.000000 1.622220 
# 
# From -- ./inp_files/37674.got.cif
#   From: 2010.03.12/outbox.cif.g09.slc.cpg/sg51_19_cif.got.tgz:37674.got - 2010.04.16 13:43:02.
