data_PCOD8209229
_publ_section_title
;
Structure prediction by ZEFSAII (Michael W. Deem and Ramdas Pophale) SiO2 
 PCOD8209229
Probable space group: P M M A
;
_chemical_formula_sum "Si O2"
_cell_formula_units_Z 52
_cell_length_a 9.030911
_cell_length_b 22.130182
_cell_length_c 14.833934
_cell_angle_alpha 90.000000
_cell_angle_beta 90.000000
_cell_angle_gamma 90.000000
_cell_volume 2964.646323
_symmetry_space_group_name_H-M "P M M A"
_symmetry_group_IT_number 51
_symmetry_cell_setting 'orthorhombic'
loop_
_space_group_symop_operation_xyz
x,y,z
1/2-x,-y,z
1/2+x,-y,-z
-x,y,-z
-x,-y,-z
1/2+x,y,-z
1/2-x,y,z
x,-y,z
loop_
_atom_site_type_symbol
_atom_site_label
_atom_site_fract_x
_atom_site_fract_y
_atom_site_fract_z
Si Si1 0.922181 0.152535 0.590837
Si Si2 0.578191 0.070201 0.266299
Si Si3 0.076066 0.500000 0.596809
Si Si4 0.584661 0.071217 0.914718
Si Si5 0.923813 0.569539 0.090192
Si Si6 0.923262 0.707892 0.593007
Si Si7 0.425033 0.385483 0.715462
O O1 0.750000 0.140369 0.579933
O O2 0.956485 0.222159 0.612742
O O3 0.000000 0.131877 0.500000
O O4 0.984821 0.110413 0.667268
O O5 0.750000 0.087156 0.271548
O O6 0.517647 0.087595 0.168941
O O7 0.551417 0.000000 0.288732
O O8 0.250000 0.500000 0.580402
O O9 0.026441 0.557898 0.654424
O O10 0.000000 0.500000 0.500000
O O11 0.750000 0.099206 0.904853
O O12 0.600044 0.000000 0.927137
O O13 0.500000 0.099915 0.000000
O O14 0.750000 0.575613 0.076722
O O15 0.971163 0.500000 0.103077
O O16 0.974372 0.604772 0.180522
O O17 0.000000 0.596740 0.000000
O O18 0.750000 0.694229 0.583754
O O19 0.000000 0.686795 0.500000
O O20 0.990543 0.672802 0.677947
O O21 0.250000 0.375131 0.709729
#
# Coordination Sequence:
#
# PCOD8209229 Si02
#       7
#     8   8   4   8   8   8   8
#     4  10  21  37  55  74  99 132 170 212 255 304
#     4  10  20  33  51  77 106 134 167 209 257 309
#     4  10  20  32  45  68 102 134 163 200 247 298
#     4   9  16  27  45  70 101 135 168 202 243 294
#     4   9  17  31  50  73 102 135 170 209 252 299
#     4  10  21  36  54  76 100 130 171 213 252 302
#     4  10  19  33  52  73 102 136 168 207 255 301
#
# _framework density 17.540035
#
# number of rings (size 3 to 8) (size 9 to 14) (size 15 to 20)
#    0.000    2.308    0.769    2.308    0.000    7.385 
#    0.000    0.000    0.000    0.923    0.000    2.154 
#    0.000    0.000    0.000    0.000    0.000    0.000 
#
# Total GULP energy -644817.860887 kJ/mol
# GULP energy per Si atom -12400.343479 kJ/mol
# Density = 1.750011 g / cm^3
# Si number density = 17.540035 Si / 1000 Ang^3
#
#
#
# Elastic Constant Matrix: (Units=GPa)
#
#
# Indices 1 2 3 4 5 6 
#
# 1 67.9499 33.0948 47.3486 0.0000 0.0000 0.0000
# 2 33.0948 51.6729 53.6238 0.0000 0.0000 0.0000
# 3 47.3486 53.6238 148.3893 0.0000 0.0000 0.0000
# 4 0.0000 0.0000 0.0000 5.5910 0.0000 0.0000
# 5 0.0000 0.0000 0.0000 0.0000 33.9961 0.0000
# 6 0.0000 0.0000 0.0000 0.0000 0.0000 27.7665
#
#
#
# Elastic Compliance Matrix: (Units=1/GPa)
#
#
# Indices 1 2 3 4 5 6 
#
# 1 0.022257 -0.011016 -0.003121 0.000000 0.000000 0.000000
# 2 -0.011016 0.036417 -0.009645 0.000000 0.000000 0.000000
# 3 -0.003121 -0.009645 0.011220 0.000000 0.000000 0.000000
# 4 0.000000 0.000000 0.000000 0.178859 0.000000 0.000000
# 5 0.000000 0.000000 0.000000 0.000000 0.029415 0.000000
# 6 0.000000 0.000000 0.000000 0.000000 0.000000 0.036015
#
#
# Mechanical properties :
#
#
# Convention : Reuss Voigt Hill
#
# Bulk Modulus (GPa) = 44.78241 59.57184 52.17713
# Shear Modulus (GPa) = 13.54314 22.40038 17.97176
#
# Velocity S-wave (km/s) = 2.78173 3.57753 3.20443
# Velocity P-wave (km/s) = 5.99202 7.14857 6.59570
#
# Compressibility (1/GPa) = 0.02233020
#
# Stress axis : x y z
#
# Youngs Moduli (GPa) = 44.93026 27.45957 89.12384
#
# Poissons Ratio (x) = 0.30249 0.27814
# Poissons Ratio (y) = 0.49495 0.85961
# Poissons Ratio (z) = 0.14022 0.26485
#
# Static dielectric constant tensor:
#      x y z
#    x 3.357370 0.000000 0.000000 
#    y 0.000000 3.031740 0.000000 
#    z 0.000000 0.000000 3.439630 
# 
# 
# High freq. dielectric constant tensor:
#      x y z
#    x 1.688360 0.000000 0.000000 
#    y 0.000000 1.645170 0.000000 
#    z 0.000000 0.000000 1.688320 
# 
# From -- ./inp_files/21559.got.cif
#   From: 2010.03.12/outbox.cif.g09.slc.cpg/sg51_11_cif.got.tgz:21559.got - 2010.04.16 13:43:02.
