data_PCOD8209390
_publ_section_title
;
Structure prediction by ZEFSAII (Michael W. Deem and Ramdas Pophale) SiO2 
 PCOD8209390
Probable space group: P M M A
;
_chemical_formula_sum "Si O2"
_cell_formula_units_Z 48
_cell_length_a 8.717071
_cell_length_b 30.660206
_cell_length_c 9.603450
_cell_angle_alpha 90.000000
_cell_angle_beta 90.000000
_cell_angle_gamma 90.000000
_cell_volume 2566.687121
_symmetry_space_group_name_H-M "P M M A"
_symmetry_group_IT_number 51
_symmetry_cell_setting 'orthorhombic'
loop_
_space_group_symop_operation_xyz
x,y,z
1/2-x,-y,z
1/2+x,-y,-z
-x,y,-z
-x,-y,-z
1/2+x,y,-z
1/2-x,y,z
x,-y,z
loop_
_atom_site_type_symbol
_atom_site_label
_atom_site_fract_x
_atom_site_fract_y
_atom_site_fract_z
Si Si1 0.432503 0.140885 0.654710
Si Si2 0.429083 0.384817 0.642893
Si Si3 0.432363 0.784853 0.153773
Si Si4 0.070656 0.045971 0.650336
Si Si5 0.426482 0.548504 0.149764
Si Si6 0.931605 0.715071 0.352811
O O1 0.500000 0.146986 0.500000
O O2 0.250000 0.149197 0.649877
O O3 0.512148 0.173878 0.758831
O O4 0.474960 0.092534 0.718280
O O5 0.500000 0.401860 0.500000
O O6 0.250000 0.389040 0.628509
O O7 0.486006 0.415538 0.763763
O O8 0.477613 0.335085 0.673327
O O9 0.250000 0.784037 0.145978
O O10 0.492662 0.741146 0.226797
O O11 0.500000 0.787663 0.000000
O O12 0.250000 0.046440 0.628757
O O13 0.000000 0.044521 0.500000
O O14 0.022821 0.000000 0.729762
O O15 0.250000 0.561981 0.138949
O O16 0.444688 0.500000 0.215712
O O17 0.500000 0.548759 0.000000
O O18 0.750000 0.722732 0.354557
O O19 0.000000 0.731473 0.500000
#
# Coordination Sequence:
#
# PCOD8209390 Si02
#       6
#     8   8   8   8   8   8
#     4  10  19  33  54  80 110 143 179 219 264 315
#     4  10  21  37  59  85 113 144 179 222 269 319
#     4  12  25  40  57  78 106 140 179 223 270 320
#     4   8  14  25  44  72 104 136 171 213 259 306
#     4  10  21  37  57  81 111 148 188 228 270 318
#     4  10  21  39  61  85 111 141 178 219 267 320
#
# _framework density 18.701150999999999
#
# number of rings (size 3 to 8) (size 9 to 14) (size 15 to 20)
#    0.000    2.000    0.000    4.000    0.000    4.667 
#    0.000    0.000    0.000    0.500    0.000    0.000 
#    0.000    0.000    0.000    0.000    0.000    0.000 
#
# Total GULP energy -594846.585183 kJ/mol
# GULP energy per Si atom -12392.637191 kJ/mol
# Density = 1.865859 g / cm^3
# Si number density = 18.701151 Si / 1000 Ang^3
#
#
#
# Elastic Constant Matrix: (Units=GPa)
#
#
# Indices 1 2 3 4 5 6 
#
# 1 75.9876 40.6834 35.0024 0.0000 0.0000 0.0000
# 2 40.6834 119.7681 59.2807 0.0000 0.0000 0.0000
# 3 35.0024 59.2807 96.6522 0.0000 0.0000 0.0000
# 4 0.0000 0.0000 0.0000 -41.0005 0.0000 0.0000
# 5 0.0000 0.0000 0.0000 0.0000 34.4187 0.0000
# 6 0.0000 0.0000 0.0000 0.0000 0.0000 24.5444
#
#
#
# Elastic Compliance Matrix: (Units=1/GPa)
#
#
# Indices 1 2 3 4 5 6 
#
# 1 0.016982 -0.003912 -0.003751 0.000000 0.000000 0.000000
# 2 -0.003912 0.012890 -0.006489 0.000000 0.000000 0.000000
# 3 -0.003751 -0.006489 0.015685 0.000000 0.000000 0.000000
# 4 0.000000 0.000000 0.000000 -0.024390 0.000000 0.000000
# 5 0.000000 0.000000 0.000000 0.000000 0.029054 0.000000
# 6 0.000000 0.000000 0.000000 0.000000 0.000000 0.040742
#
#
# Mechanical properties :
#
#
# Convention : Reuss Voigt Hill
#
# Bulk Modulus (GPa) = 57.96050 62.48232 60.22141
# Shear Modulus (GPa) = 39.99378 14.08861 27.04120
#
# Velocity S-wave (km/s) = 4.62949 2.74771 3.80671
# Velocity P-wave (km/s) = 7.72247 6.59924 7.18285
#
# Compressibility (1/GPa) = 0.01725313
#
# Stress axis : x y z
#
# Youngs Moduli (GPa) = 58.88491 77.57714 63.75581
#
# Poissons Ratio (x) = 0.30350 0.23912
# Poissons Ratio (y) = 0.23037 0.41374
# Poissons Ratio (z) = 0.22085 0.50343
#
# Static dielectric constant tensor:
#      x y z
#    x 3.594910 0.000000 0.000000 
#    y 0.000000 4.115180 0.000000 
#    z 0.000000 0.000000 3.227670 
# 
# 
# High freq. dielectric constant tensor:
#      x y z
#    x 1.743170 0.000000 0.000000 
#    y 0.000000 1.751940 0.000000 
#    z 0.000000 0.000000 1.695420 
# 
# From -- ./inp_files/5980.got.cif
#   From: 2010.03.12/outbox.cif.g09.slc.cpg/sg51_3_cif.got.tgz:5980.got - 2010.04.16 13:43:02.
