data_PCOD8209152
_publ_section_title
;
Structure prediction by ZEFSAII (Michael W. Deem and Ramdas Pophale) SiO2 
 PCOD8209152
Probable space group: P M M A
;
_chemical_formula_sum "Si O2"
_cell_formula_units_Z 44
_cell_length_a 9.316868
_cell_length_b 8.038697
_cell_length_c 29.950571
_cell_angle_alpha 90.000000
_cell_angle_beta 90.000000
_cell_angle_gamma 90.000000
_cell_volume 2243.162357
_symmetry_space_group_name_H-M "P M M A"
_symmetry_group_IT_number 51
_symmetry_cell_setting 'orthorhombic'
loop_
_space_group_symop_operation_xyz
x,y,z
1/2-x,-y,z
1/2+x,-y,-z
-x,y,-z
-x,-y,-z
1/2+x,y,-z
1/2-x,y,z
x,-y,z
loop_
_atom_site_type_symbol
_atom_site_label
_atom_site_fract_x
_atom_site_fract_y
_atom_site_fract_z
Si Si1 0.419579 0.500000 0.453626
Si Si2 0.410815 0.304567 0.873940
Si Si3 0.584199 0.813604 0.605275
Si Si4 0.916102 0.689630 0.313859
Si Si5 0.587960 0.301559 0.957405
Si Si6 0.419433 0.189000 0.779806
O O1 0.250000 0.500000 0.462041
O O2 0.500000 0.500000 0.500000
O O3 0.469035 0.668417 0.428093
O O4 0.250000 0.227585 0.878197
O O5 0.400480 0.500000 0.879353
O O6 0.511201 0.230799 0.912901
O O7 0.482506 0.261454 0.826014
O O8 0.750000 0.783419 0.616287
O O9 0.499824 0.805310 0.651714
O O10 0.559514 0.000000 0.584918
O O11 0.750000 0.742834 0.315401
O O12 0.938648 0.500000 0.328327
O O13 0.977923 0.714331 0.263743
O O14 0.750000 0.231812 0.959473
O O15 0.589918 0.500000 0.957042
O O16 0.500000 0.235044 0.000000
O O17 0.250000 0.212716 0.782072
O O18 0.467427 0.000000 0.774764
#
# Coordination Sequence:
#
# PCOD8209152 Si02
#       6
#     4   8   8   8   8   8
#     4  10  22  40  60  84 116 150 190 236 281 332
#     4   9  16  27  44  65  90 121 157 197 244 297
#     4  10  21  38  59  83 114 152 189 228 280 336
#     4  10  19  32  54  83 112 143 183 228 271 319
#     4   9  16  26  42  65  91 117 149 193 245 299
#     4   9  17  29  46  70 100 133 169 210 255 303
#
# _framework density 19.615167
#
# number of rings (size 3 to 8) (size 9 to 14) (size 15 to 20)
#    0.000    2.545    0.909    1.636    0.000    6.545 
#    0.000    0.909    0.000    4.364    0.000    0.000 
#    0.000    0.000    0.000    0.000    0.000    0.000 
#
# Total GULP energy -545464.865092 kJ/mol
# GULP energy per Si atom -12396.928752 kJ/mol
# Density = 1.957052 g / cm^3
# Si number density = 19.615167 Si / 1000 Ang^3
#
#
#
# Elastic Constant Matrix: (Units=GPa)
#
#
# Indices 1 2 3 4 5 6 
#
# 1 71.1302 24.4967 61.9986 0.0000 0.0000 0.0000
# 2 24.4967 75.5430 49.4060 0.0000 0.0000 0.0000
# 3 61.9986 49.4060 165.0737 0.0000 0.0000 0.0000
# 4 0.0000 0.0000 0.0000 14.1057 0.0000 0.0000
# 5 0.0000 0.0000 0.0000 0.0000 32.3538 0.0000
# 6 0.0000 0.0000 0.0000 0.0000 0.0000 14.4364
#
#
#
# Elastic Compliance Matrix: (Units=1/GPa)
#
#
# Indices 1 2 3 4 5 6 
#
# 1 0.021158 -0.002069 -0.007327 0.000000 0.000000 0.000000
# 2 -0.002069 0.016662 -0.004210 0.000000 0.000000 0.000000
# 3 -0.007327 -0.004210 0.010070 0.000000 0.000000 0.000000
# 4 0.000000 0.000000 0.000000 0.070893 0.000000 0.000000
# 5 0.000000 0.000000 0.000000 0.000000 0.030908 0.000000
# 6 0.000000 0.000000 0.000000 0.000000 0.000000 0.069269
#
#
# Mechanical properties :
#
#
# Convention : Reuss Voigt Hill
#
# Bulk Modulus (GPa) = 48.36159 64.83883 56.60021
# Shear Modulus (GPa) = 19.75782 23.90222 21.83002
#
# Velocity S-wave (km/s) = 3.17720 3.49457 3.33966
# Velocity P-wave (km/s) = 6.17804 7.02922 6.61733
#
# Compressibility (1/GPa) = 0.02067757
#
# Stress axis : x y z
#
# Youngs Moduli (GPa) = 47.26377 60.01831 99.30621
#
# Poissons Ratio (x) = 0.12417 0.72765
# Poissons Ratio (y) = 0.09778 0.41805
# Poissons Ratio (z) = 0.34632 0.25266
#
# Static dielectric constant tensor:
#      x y z
#    x 3.424970 0.000000 0.000000 
#    y 0.000000 3.454560 0.000000 
#    z 0.000000 0.000000 3.690140 
# 
# 
# High freq. dielectric constant tensor:
#      x y z
#    x 1.732330 0.000000 0.000000 
#    y 0.000000 1.752190 0.000000 
#    z 0.000000 0.000000 1.771070 
# 
# From -- ./inp_files/36782.got.cif
#   From: 2010.03.12/outbox.cif.g09.slc.cpg/sg51_19_cif.got.tgz:36782.got - 2010.04.16 13:43:02.
