data_PCOD8209876
_publ_section_title
;
Structure prediction by ZEFSAII (Michael W. Deem and Ramdas Pophale) SiO2 
 PCOD8209876
Probable space group: P M M A
;
_chemical_formula_sum "Si O2"
_cell_formula_units_Z 64
_cell_length_a 15.874649
_cell_length_b 22.137979
_cell_length_c 9.428252
_cell_angle_alpha 90.000000
_cell_angle_beta 90.000000
_cell_angle_gamma 90.000000
_cell_volume 3313.395549
_symmetry_space_group_name_H-M "P M M A"
_symmetry_group_IT_number 51
_symmetry_cell_setting 'orthorhombic'
loop_
_space_group_symop_operation_xyz
x,y,z
1/2-x,-y,z
1/2+x,-y,-z
-x,y,-z
-x,-y,-z
1/2+x,y,-z
1/2-x,y,z
x,-y,z
loop_
_atom_site_type_symbol
_atom_site_label
_atom_site_fract_x
_atom_site_fract_y
_atom_site_fract_z
Si Si1 0.153373 0.567558 0.700739
Si Si2 0.156468 0.871679 0.808885
Si Si3 0.487989 0.066981 0.166890
Si Si4 0.654396 0.744300 0.301154
Si Si5 0.904398 0.341387 0.522408
Si Si6 0.088674 0.658308 0.922384
Si Si7 0.843841 0.295451 0.804803
Si Si8 0.652839 0.840029 0.864641
O O1 0.250000 0.565566 0.745594
O O2 0.117548 0.500000 0.678346
O O3 0.146286 0.604372 0.553151
O O4 0.103801 0.597806 0.831975
O O5 0.250000 0.902394 0.793141
O O6 0.149339 0.816230 0.700090
O O7 0.079632 0.915865 0.767823
O O8 0.146485 0.845467 0.966390
O O9 0.411703 0.112331 0.209043
O O10 0.464017 0.000000 0.222267
O O11 0.500000 0.066334 0.000000
O O12 0.750000 0.721821 0.271419
O O13 0.623865 0.722677 0.455547
O O14 0.592848 0.714982 0.184498
O O15 0.893664 0.335708 0.690873
O O16 0.000000 0.357577 0.500000
O O17 0.156471 0.668672 0.046671
O O18 0.000000 0.656494 0.000000
O O19 0.750000 0.290433 0.747153
O O20 0.878820 0.227023 0.823018
O O21 0.750000 0.852373 0.816361
#
# Coordination Sequence:
#
# PCOD8209876 Si02
#       8
#     8   8   8   8   8   8   8   8
#     4  10  22  43  63  76 104 153 192 215 257 331
#     4   9  17  29  49  74 101 141 184 226 273 326
#     4   9  18  29  44  69 106 147 183 226 271 325
#     4  10  19  35  54  76 110 150 184 217 270 343
#     4  11  23  36  54  84 112 141 176 225 279 324
#     4  11  21  32  56  86 111 137 174 226 275 321
#     4  11  20  33  53  81 113 139 174 230 282 325
#     4   9  18  29  47  75 105 142 179 224 281 330
#
# _framework density 19.315532999999999
#
# number of rings (size 3 to 8) (size 9 to 14) (size 15 to 20)
#    0.000    2.000    1.250    4.500    3.500    1.000 
#    0.000    3.125    0.000    2.250    0.000    1.750 
#    0.000    4.000    0.000    0.000    0.000    0.000 
#
# Total GULP energy -793274.130315 kJ/mol
# GULP energy per Si atom -12394.908286 kJ/mol
# Density = 1.927157 g / cm^3
# Si number density = 19.315533 Si / 1000 Ang^3
#
#
#
# Elastic Constant Matrix: (Units=GPa)
#
#
# Indices 1 2 3 4 5 6 
#
# 1 87.9870 34.1511 2.2003 0.0000 0.0000 0.0000
# 2 34.1511 106.7350 27.0824 0.0000 0.0000 0.0000
# 3 2.2003 27.0824 59.5772 0.0000 0.0000 0.0000
# 4 0.0000 0.0000 0.0000 13.5753 0.0000 0.0000
# 5 0.0000 0.0000 0.0000 0.0000 24.7058 0.0000
# 6 0.0000 0.0000 0.0000 0.0000 0.0000 19.6728
#
#
#
# Elastic Compliance Matrix: (Units=1/GPa)
#
#
# Indices 1 2 3 4 5 6 
#
# 1 0.013112 -0.004603 0.001608 0.000000 0.000000 0.000000
# 2 -0.004603 0.012207 -0.005379 0.000000 0.000000 0.000000
# 3 0.001608 -0.005379 0.019171 0.000000 0.000000 0.000000
# 4 0.000000 0.000000 0.000000 0.073663 0.000000 0.000000
# 5 0.000000 0.000000 0.000000 0.000000 0.040476 0.000000
# 6 0.000000 0.000000 0.000000 0.000000 0.000000 0.050832
#
#
# Mechanical properties :
#
#
# Convention : Reuss Voigt Hill
#
# Bulk Modulus (GPa) = 36.04723 42.35188 39.19956
# Shear Modulus (GPa) = 21.23544 24.31514 22.77529
#
# Velocity S-wave (km/s) = 3.31931 3.55186 3.43755
# Velocity P-wave (km/s) = 5.77869 6.22855 6.00783
#
# Compressibility (1/GPa) = 0.02774138
#
# Stress axis : x y z
#
# Youngs Moduli (GPa) = 76.26696 81.92221 52.16310
#
# Poissons Ratio (x) = 0.37712 -0.08390
# Poissons Ratio (y) = 0.35109 0.28058
# Poissons Ratio (z) = -0.12266 0.44065
#
# Static dielectric constant tensor:
#      x y z
#    x 3.724640 0.000000 0.000000 
#    y 0.000000 3.549560 0.000000 
#    z 0.000000 0.000000 3.306740 
# 
# 
# High freq. dielectric constant tensor:
#      x y z
#    x 1.764650 0.000000 0.000000 
#    y 0.000000 1.733050 0.000000 
#    z 0.000000 0.000000 1.720580 
# 
# From -- ./inp_files/8696.got.cif
#   From: 2010.03.12/outbox.cif.g09.slc.cpg/sg51_5_cif.got.tgz:8696.got - 2010.04.16 13:43:02.
