data_PCOD8209516
_publ_section_title
;
Structure prediction by ZEFSAII (Michael W. Deem and Ramdas Pophale) SiO2 
 PCOD8209516
Probable space group: P M M A
;
_chemical_formula_sum "Si O2"
_cell_formula_units_Z 48
_cell_length_a 8.847483
_cell_length_b 14.191150
_cell_length_c 20.770795
_cell_angle_alpha 90.000000
_cell_angle_beta 90.000000
_cell_angle_gamma 90.000000
_cell_volume 2607.897072
_symmetry_space_group_name_H-M "P M M A"
_symmetry_group_IT_number 51
_symmetry_cell_setting 'orthorhombic'
loop_
_space_group_symop_operation_xyz
x,y,z
1/2-x,-y,z
1/2+x,-y,-z
-x,y,-z
-x,-y,-z
1/2+x,y,-z
1/2-x,y,z
x,-y,z
loop_
_atom_site_type_symbol
_atom_site_label
_atom_site_fract_x
_atom_site_fract_y
_atom_site_fract_z
Si Si1 0.574290 0.893149 0.613825
Si Si2 0.572110 0.714528 0.435220
Si Si3 0.572277 0.607438 0.065275
Si Si4 0.577969 0.104367 0.252820
Si Si5 0.074446 0.296718 0.805341
Si Si6 0.074625 0.610250 0.316338
O O1 0.750000 0.870230 0.604582
O O2 0.477362 0.823715 0.569567
O O3 0.533722 0.876031 0.688274
O O4 0.535107 0.000000 0.593516
O O5 0.500000 0.670689 0.500000
O O6 0.750000 0.707110 0.440393
O O7 0.517794 0.657237 0.373635
O O8 0.750000 0.614227 0.057563
O O9 0.519307 0.500000 0.077087
O O10 0.515168 0.670064 0.125105
O O11 0.500000 0.648129 0.000000
O O12 0.750000 0.111979 0.278877
O O13 0.548989 0.183758 0.198846
O O14 0.548458 0.000000 0.223231
O O15 0.250000 0.323759 0.796040
O O16 0.979304 0.349732 0.751502
O O17 0.250000 0.634045 0.325846
O O18 0.042243 0.500000 0.317585
#
# Coordination Sequence:
#
# PCOD8209516 Si02
#       6
#     8   8   8   8   8   8
#     4  10  20  35  56  82 112 143 177 222 274 326
#     4  12  25  41  60  80 107 144 183 227 276 329
#     4   9  18  32  50  75 108 144 184 226 272 326
#     4   9  17  30  51  80 110 141 178 219 267 323
#     4  10  19  33  56  83 110 144 181 224 273 322
#     4  11  24  40  58  82 110 140 179 226 275 330
#
# _framework density 18.405635
#
# number of rings (size 3 to 8) (size 9 to 14) (size 15 to 20)
#    0.000    1.833    1.667    3.000    0.000    4.333 
#    0.000    1.667    0.000    0.500    0.000    0.000 
#    0.000    0.000    0.000    0.000    0.000    0.000 
#
# Total GULP energy -595277.166401 kJ/mol
# GULP energy per Si atom -12401.607633 kJ/mol
# Density = 1.836374 g / cm^3
# Si number density = 18.405635 Si / 1000 Ang^3
#
#
#
# Elastic Constant Matrix: (Units=GPa)
#
#
# Indices 1 2 3 4 5 6 
#
# 1 94.6051 47.4816 50.5996 0.0000 0.0000 0.0000
# 2 47.4816 90.2192 55.7997 0.0000 0.0000 0.0000
# 3 50.5996 55.7997 132.3552 0.0000 0.0000 0.0000
# 4 0.0000 0.0000 0.0000 17.7737 0.0000 0.0000
# 5 0.0000 0.0000 0.0000 0.0000 31.4207 0.0000
# 6 0.0000 0.0000 0.0000 0.0000 0.0000 23.1295
#
#
#
# Elastic Compliance Matrix: (Units=1/GPa)
#
#
# Indices 1 2 3 4 5 6 
#
# 1 0.015383 -0.006031 -0.003338 0.000000 0.000000 0.000000
# 2 -0.006031 0.017358 -0.005012 0.000000 0.000000 0.000000
# 3 -0.003338 -0.005012 0.010945 0.000000 0.000000 0.000000
# 4 0.000000 0.000000 0.000000 0.056263 0.000000 0.000000
# 5 0.000000 0.000000 0.000000 0.000000 0.031826 0.000000
# 6 0.000000 0.000000 0.000000 0.000000 0.000000 0.043235
#
#
# Mechanical properties :
#
#
# Convention : Reuss Voigt Hill
#
# Bulk Modulus (GPa) = 67.01325 69.43793 68.22559
# Shear Modulus (GPa) = 23.95241 25.35136 24.65189
#
# Velocity S-wave (km/s) = 3.61135 3.71532 3.66371
# Velocity P-wave (km/s) = 7.34012 7.49754 7.41925
#
# Compressibility (1/GPa) = 0.01492242
#
# Stress axis : x y z
#
# Youngs Moduli (GPa) = 65.00837 57.60906 91.36778
#
# Poissons Ratio (x) = 0.34745 0.30500
# Poissons Ratio (y) = 0.39208 0.45797
# Poissons Ratio (z) = 0.21701 0.28876
#
# Static dielectric constant tensor:
#      x y z
#    x 3.420380 0.000000 0.000000 
#    y 0.000000 3.626550 0.000000 
#    z 0.000000 0.000000 3.328300 
# 
# 
# High freq. dielectric constant tensor:
#      x y z
#    x 1.717390 0.000000 0.000000 
#    y 0.000000 1.718020 0.000000 
#    z 0.000000 0.000000 1.697270 
# 
# From -- ./inp_files/27553.got.cif
#   From: 2010.03.12/outbox.cif.g09.slc.cpg/sg51_14_cif.got.tgz:27553.got - 2010.04.16 13:43:02.
