data_PCOD8209129
_publ_section_title
;
Structure prediction by ZEFSAII (Michael W. Deem and Ramdas Pophale) SiO2 
 PCOD8209129
Probable space group: P M M A
;
_chemical_formula_sum "Si O2"
_cell_formula_units_Z 64
_cell_length_a 17.428267
_cell_length_b 36.229847
_cell_length_c 5.111531
_cell_angle_alpha 90.000000
_cell_angle_beta 90.000000
_cell_angle_gamma 90.000000
_cell_volume 3227.540523
_symmetry_space_group_name_H-M "P M M A"
_symmetry_group_IT_number 51
_symmetry_cell_setting 'orthorhombic'
loop_
_space_group_symop_operation_xyz
x,y,z
1/2-x,-y,z
1/2+x,-y,-z
-x,y,-z
-x,-y,-z
1/2+x,y,-z
1/2-x,y,z
x,-y,z
loop_
_atom_site_type_symbol
_atom_site_label
_atom_site_fract_x
_atom_site_fract_y
_atom_site_fract_z
Si Si1 0.837691 0.799970 0.856921
Si Si2 0.449888 0.264348 0.256126
Si Si3 0.838787 0.153218 0.345498
Si Si4 0.949501 0.652361 0.742726
Si Si5 0.661654 0.957675 0.943182
Si Si6 0.589283 0.923670 0.438289
Si Si7 0.659127 0.413965 0.772215
Si Si8 0.841232 0.541377 0.271175
O O1 0.750000 0.788927 0.896911
O O2 0.878201 0.761990 0.785643
O O3 0.849533 0.828997 0.627041
O O4 0.869459 0.818713 0.122523
O O5 0.500000 0.250170 0.500000
O O6 0.419853 0.305914 0.307534
O O7 0.500000 0.263237 0.000000
O O8 0.750000 0.142811 0.289845
O O9 0.890915 0.117069 0.336362
O O10 0.875129 0.626913 0.768681
O O11 0.000000 0.638586 0.500000
O O12 0.000000 0.649674 0.000000
O O13 0.750000 0.948452 0.008932
O O14 0.636257 0.932350 0.701094
O O15 0.651054 0.000000 0.857847
O O16 0.611369 0.951089 0.202809
O O17 0.500000 0.927657 0.500000
O O18 0.750000 0.409241 0.773766
O O19 0.629658 0.437493 0.526809
O O20 0.628393 0.436038 0.023010
O O21 0.750000 0.539241 0.266761
O O22 0.875495 0.500000 0.267420
#
# Coordination Sequence:
#
# PCOD8209129 Si02
#       8
#     8   8   8   8   8   8   8   8
#     4  10  21  37  59  85 112 145 185 231 277 321
#     4  10  21  37  57  81 109 145 183 220 270 331
#     4  10  21  38  59  84 117 154 187 223 277 341
#     4  10  21  37  55  76 108 146 178 215 272 330
#     4  11  24  43  66  89 118 161 204 241 293 358
#     4  12  25  40  62  93 124 155 197 249 296 338
#     4  10  19  32  54  80 102 134 181 225 265 315
#     4   9  17  30  50  77 106 134 171 222 274 321
#
# _framework density 19.829340999999999
#
# number of rings (size 3 to 8) (size 9 to 14) (size 15 to 20)
#    0.000    1.750    0.000    4.500    0.000    7.000 
#    0.000    0.000    0.000   16.500    0.000    0.000 
#    0.000    0.000    0.000    0.000    0.000    0.000 
#
# Total GULP energy -793845.587318 kJ/mol
# GULP energy per Si atom -12403.837302 kJ/mol
# Density = 1.978421 g / cm^3
# Si number density = 19.829341 Si / 1000 Ang^3
#
#
#
# Elastic Constant Matrix: (Units=GPa)
#
#
# Indices 1 2 3 4 5 6 
#
# 1 73.6727 58.6021 35.6466 0.0000 0.0000 0.0000
# 2 58.6021 115.9178 34.3230 0.0000 0.0000 0.0000
# 3 35.6466 34.3230 139.0212 0.0000 0.0000 0.0000
# 4 0.0000 0.0000 0.0000 36.2662 0.0000 0.0000
# 5 0.0000 0.0000 0.0000 0.0000 22.4248 0.0000
# 6 0.0000 0.0000 0.0000 0.0000 0.0000 29.6819
#
#
#
# Elastic Compliance Matrix: (Units=1/GPa)
#
#
# Indices 1 2 3 4 5 6 
#
# 1 0.024126 -0.011183 -0.003425 0.000000 0.000000 0.000000
# 2 -0.011183 0.014490 -0.000710 0.000000 0.000000 0.000000
# 3 -0.003425 -0.000710 0.008247 0.000000 0.000000 0.000000
# 4 0.000000 0.000000 0.000000 0.027574 0.000000 0.000000
# 5 0.000000 0.000000 0.000000 0.000000 0.044593 0.000000
# 6 0.000000 0.000000 0.000000 0.000000 0.000000 0.033691
#
#
# Mechanical properties :
#
#
# Convention : Reuss Voigt Hill
#
# Bulk Modulus (GPa) = 61.62585 65.08390 63.35487
# Shear Modulus (GPa) = 26.48777 31.01058 28.74917
#
# Velocity S-wave (km/s) = 3.65881 3.95887 3.81179
# Velocity P-wave (km/s) = 6.99962 7.33418 7.16885
#
# Compressibility (1/GPa) = 0.01622696
#
# Stress axis : x y z
#
# Youngs Moduli (GPa) = 41.44905 69.01091 121.25954
#
# Poissons Ratio (x) = 0.77172 0.41535
# Poissons Ratio (y) = 0.46351 0.08612
# Poissons Ratio (z) = 0.14198 0.04901
#
# Static dielectric constant tensor:
#      x y z
#    x 3.356000 0.000000 0.000000 
#    y 0.000000 3.729070 0.000000 
#    z 0.000000 0.000000 3.882510 
# 
# 
# High freq. dielectric constant tensor:
#      x y z
#    x 1.749420 0.000000 0.000000 
#    y 0.000000 1.781500 0.000000 
#    z 0.000000 0.000000 1.796280 
# 
# From -- ./inp_files/2112.got.cif
#   From: 2010.03.12/outbox.cif.g09.slc.cpg/sg51_2_cif.got.tgz:2112.got - 2010.04.16 13:43:02.
