data_PCOD8209587
_publ_section_title
;
Structure prediction by ZEFSAII (Michael W. Deem and Ramdas Pophale) SiO2 
 PCOD8209587
Probable space group: P M M A
;
_chemical_formula_sum "Si O2"
_cell_formula_units_Z 48
_cell_length_a 30.498692
_cell_length_b 9.271996
_cell_length_c 9.329920
_cell_angle_alpha 90.000000
_cell_angle_beta 90.000000
_cell_angle_gamma 90.000000
_cell_volume 2638.349767
_symmetry_space_group_name_H-M "P M M A"
_symmetry_group_IT_number 51
_symmetry_cell_setting 'orthorhombic'
loop_
_space_group_symop_operation_xyz
x,y,z
1/2-x,-y,z
1/2+x,-y,-z
-x,y,-z
-x,-y,-z
1/2+x,y,-z
1/2-x,y,z
x,-y,z
loop_
_atom_site_type_symbol
_atom_site_label
_atom_site_fract_x
_atom_site_fract_y
_atom_site_fract_z
Si Si1 0.323787 0.157456 0.997926
Si Si2 0.394818 0.839771 0.756357
Si Si3 0.347929 0.666729 0.503376
Si Si4 0.877691 0.336449 0.806130
Si Si5 0.048746 0.667832 0.967048
Si Si6 0.750000 0.669893 0.462449
Si Si7 0.250000 0.330529 0.857816
O O1 0.341554 0.221369 0.145820
O O2 0.291616 0.276561 0.940783
O O3 0.302111 0.000000 0.025884
O O4 0.361925 0.140220 0.885414
O O5 0.370971 0.758442 0.626781
O O6 0.410161 0.000000 0.705235
O O7 0.435130 0.749949 0.823570
O O8 0.345865 0.500000 0.554396
O O9 0.379533 0.682758 0.365313
O O10 0.297189 0.720880 0.470042
O O11 0.862922 0.500000 0.843432
O O12 0.923213 0.302348 0.887911
O O13 0.049410 0.500000 0.927153
O O14 0.000000 0.723149 0.000000
O O15 0.750000 0.500000 0.467820
O O16 0.750000 0.732343 0.301836
O O17 0.250000 0.500000 0.856077
#
# Coordination Sequence:
#
# PCOD8209587 Si02
#       7
#     8   8   8   8   8   4   4
#     4  10  20  33  49  72 103 135 170 214 259 306
#     4  10  20  33  52  77 104 137 174 211 260 316
#     4  10  19  34  53  76 106 139 177 217 260 311
#     4   9  19  34  54  78 104 136 174 218 268 318
#     4   9  18  35  58  81 104 134 175 221 269 322
#     4   9  18  30  49  74 100 134 173 213 252 295
#     4  11  19  30  51  74  98 132 177 219 254 299
#
# _framework density 18.193190000000001
#
# number of rings (size 3 to 8) (size 9 to 14) (size 15 to 20)
#    0.000    2.333    1.667    1.250    0.000    3.000 
#    0.000    2.917    0.000    5.000    0.000    0.000 
#    0.000    0.000    0.000    0.000    0.000    0.000 
#
# Total GULP energy -594684.930632 kJ/mol
# GULP energy per Si atom -12389.269388 kJ/mol
# Density = 1.815178 g / cm^3
# Si number density = 18.193190 Si / 1000 Ang^3
#
#
#
# Elastic Constant Matrix: (Units=GPa)
#
#
# Indices 1 2 3 4 5 6 
#
# 1 91.5450 29.1749 36.8271 0.0000 0.0000 0.0000
# 2 29.1749 79.2493 39.0965 0.0000 0.0000 0.0000
# 3 36.8271 39.0965 86.1263 0.0000 0.0000 0.0000
# 4 0.0000 0.0000 0.0000 17.1028 0.0000 0.0000
# 5 0.0000 0.0000 0.0000 0.0000 26.3148 0.0000
# 6 0.0000 0.0000 0.0000 0.0000 0.0000 13.8384
#
#
#
# Elastic Compliance Matrix: (Units=1/GPa)
#
#
# Indices 1 2 3 4 5 6 
#
# 1 0.013647 -0.002764 -0.004581 0.000000 0.000000 0.000000
# 2 -0.002764 0.016820 -0.006453 0.000000 0.000000 0.000000
# 3 -0.004581 -0.006453 0.016499 0.000000 0.000000 0.000000
# 4 0.000000 0.000000 0.000000 0.058470 0.000000 0.000000
# 5 0.000000 0.000000 0.000000 0.000000 0.038001 0.000000
# 6 0.000000 0.000000 0.000000 0.000000 0.000000 0.072263
#
#
# Mechanical properties :
#
#
# Convention : Reuss Voigt Hill
#
# Bulk Modulus (GPa) = 51.62746 51.90196 51.76471
# Shear Modulus (GPa) = 20.01979 21.57266 20.79623
#
# Velocity S-wave (km/s) = 3.32083 3.44721 3.38461
# Velocity P-wave (km/s) = 6.56832 6.66593 6.61730
#
# Compressibility (1/GPa) = 0.01936954
#
# Stress axis : x y z
#
# Youngs Moduli (GPa) = 73.27468 59.45431 60.61012
#
# Poissons Ratio (x) = 0.16435 0.27763
# Poissons Ratio (y) = 0.20255 0.39113
# Poissons Ratio (z) = 0.33565 0.38367
#
# Static dielectric constant tensor:
#      x y z
#    x 3.351940 0.000000 0.000000 
#    y 0.000000 3.671060 0.000000 
#    z 0.000000 0.000000 3.280870 
# 
# 
# High freq. dielectric constant tensor:
#      x y z
#    x 1.691530 0.000000 0.000000 
#    y 0.000000 1.703780 0.000000 
#    z 0.000000 0.000000 1.693510 
# 
# From -- ./inp_files/12920.got.cif
#   From: 2010.03.12/outbox.cif.g09.slc.cpg/sg51_7_cif.got.tgz:12920.got - 2010.04.16 13:43:02.
