data_PCOD8209299
_publ_section_title
;
Structure prediction by ZEFSAII (Michael W. Deem and Ramdas Pophale) SiO2 
 PCOD8209299
Probable space group: P M M A
;
_chemical_formula_sum "Si O2"
_cell_formula_units_Z 40
_cell_length_a 8.992936
_cell_length_b 11.660511
_cell_length_c 20.171040
_cell_angle_alpha 90.000000
_cell_angle_beta 90.000000
_cell_angle_gamma 90.000000
_cell_volume 2115.180219
_symmetry_space_group_name_H-M "P M M A"
_symmetry_group_IT_number 51
_symmetry_cell_setting 'orthorhombic'
loop_
_space_group_symop_operation_xyz
x,y,z
1/2-x,-y,z
1/2+x,-y,-z
-x,y,-z
-x,-y,-z
1/2+x,y,-z
1/2-x,y,z
x,-y,z
loop_
_atom_site_type_symbol
_atom_site_label
_atom_site_fract_x
_atom_site_fract_y
_atom_site_fract_z
Si Si1 0.074941 0.132095 0.930409
Si Si2 0.918945 0.251002 0.435697
Si Si3 0.572713 0.225979 0.806327
Si Si4 0.084860 0.000000 0.603654
Si Si5 0.076467 0.000000 0.264308
Si Si6 0.077971 0.633499 0.698224
O O1 0.250000 0.154519 0.935192
O O2 0.001548 0.220872 0.878674
O O3 0.040378 0.000000 0.910359
O O4 0.000000 0.161050 0.000000
O O5 0.750000 0.292426 0.440205
O O6 0.935108 0.113428 0.440270
O O7 0.985467 0.299053 0.366421
O O8 0.000000 0.303827 0.500000
O O9 0.750000 0.232016 0.813209
O O10 0.515111 0.333651 0.763742
O O11 0.510766 0.113443 0.769031
O O12 0.959747 0.000000 0.658883
O O13 0.250000 0.000000 0.636443
O O14 0.250000 0.000000 0.253816
O O15 0.250000 0.665491 0.710497
O O16 0.055743 0.500000 0.684771
#
# Coordination Sequence:
#
# PCOD8209299 Si02
#       6
#     8   8   8   4   4   8
#     4  10  20  33  53  83 120 157 188 221 266 323
#     4  10  21  35  53  78 107 141 178 223 278 335
#     4  11  21  35  56  83 115 147 183 228 277 330
#     4  10  19  33  53  77 107 141 178 219 272 339
#     4  10  20  31  50  81 111 141 177 223 274 325
#     4  10  22  40  59  79 105 141 189 238 280 326
#
# _framework density 18.910919
#
# number of rings (size 3 to 8) (size 9 to 14) (size 15 to 20)
#    0.000    1.800    3.000    1.500    0.000    4.000 
#    0.000    0.000    0.000    0.600    0.000    0.000 
#    0.000    0.000    0.000    0.000    0.000    0.000 
#
# Total GULP energy -496010.920338 kJ/mol
# GULP energy per Si atom -12400.273008 kJ/mol
# Density = 1.886788 g / cm^3
# Si number density = 18.910919 Si / 1000 Ang^3
#
#
#
# Elastic Constant Matrix: (Units=GPa)
#
#
# Indices 1 2 3 4 5 6 
#
# 1 78.0183 29.1564 59.6259 0.0000 0.0000 0.0000
# 2 29.1564 66.9238 34.1368 0.0000 0.0000 0.0000
# 3 59.6259 34.1368 141.3064 0.0000 0.0000 0.0000
# 4 0.0000 0.0000 0.0000 15.9747 0.0000 0.0000
# 5 0.0000 0.0000 0.0000 0.0000 38.9665 0.0000
# 6 0.0000 0.0000 0.0000 0.0000 0.0000 21.0657
#
#
#
# Elastic Compliance Matrix: (Units=1/GPa)
#
#
# Indices 1 2 3 4 5 6 
#
# 1 0.020346 -0.005115 -0.007350 0.000000 0.000000 0.000000
# 2 -0.005115 0.018328 -0.002269 0.000000 0.000000 0.000000
# 3 -0.007350 -0.002269 0.010726 0.000000 0.000000 0.000000
# 4 0.000000 0.000000 0.000000 0.062599 0.000000 0.000000
# 5 0.000000 0.000000 0.000000 0.000000 0.025663 0.000000
# 6 0.000000 0.000000 0.000000 0.000000 0.000000 0.047470
#
#
# Mechanical properties :
#
#
# Convention : Reuss Voigt Hill
#
# Bulk Modulus (GPa) = 50.16910 59.12076 54.64493
# Shear Modulus (GPa) = 22.59934 26.09002 24.34468
#
# Velocity S-wave (km/s) = 3.46069 3.71836 3.59184
# Velocity P-wave (km/s) = 6.52344 7.05447 6.79415
#
# Compressibility (1/GPa) = 0.01993259
#
# Stress axis : x y z
#
# Youngs Moduli (GPa) = 49.14970 54.56004 93.22903
#
# Poissons Ratio (x) = 0.27908 0.68519
# Poissons Ratio (y) = 0.25141 0.21157
# Poissons Ratio (z) = 0.36123 0.12382
#
# Static dielectric constant tensor:
#      x y z
#    x 3.364580 0.000000 0.000000 
#    y 0.000000 3.273730 0.000000 
#    z 0.000000 0.000000 3.393910 
# 
# 
# High freq. dielectric constant tensor:
#      x y z
#    x 1.732140 0.000000 0.000000 
#    y 0.000000 1.708060 0.000000 
#    z 0.000000 0.000000 1.738150 
# 
# From -- ./inp_files/31407.got.cif
#   From: 2010.03.12/outbox.cif.g09.slc.cpg/sg51_16_cif.got.tgz:31407.got - 2010.04.16 13:43:02.
