data_PCOD8209370
_publ_section_title
;
Structure prediction by ZEFSAII (Michael W. Deem and Ramdas Pophale) SiO2 
 PCOD8209370
Probable space group: P M M A
;
_chemical_formula_sum "Si O2"
_cell_formula_units_Z 64
_cell_length_a 8.924965
_cell_length_b 27.984297
_cell_length_c 13.809077
_cell_angle_alpha 90.000000
_cell_angle_beta 90.000000
_cell_angle_gamma 90.000000
_cell_volume 3448.939485
_symmetry_space_group_name_H-M "P M M A"
_symmetry_group_IT_number 51
_symmetry_cell_setting 'orthorhombic'
loop_
_space_group_symop_operation_xyz
x,y,z
1/2-x,-y,z
1/2+x,-y,-z
-x,y,-z
-x,-y,-z
1/2+x,y,-z
1/2-x,y,z
x,-y,z
loop_
_atom_site_type_symbol
_atom_site_label
_atom_site_fract_x
_atom_site_fract_y
_atom_site_fract_z
Si Si1 0.423196 0.774688 0.726867
Si Si2 0.917940 0.943269 0.094300
Si Si3 0.074063 0.136378 0.598653
Si Si4 0.425211 0.725855 0.103367
Si Si5 0.426742 0.367057 0.223913
Si Si6 0.423447 0.444317 0.899513
Si Si7 0.573969 0.683111 0.396164
Si Si8 0.925543 0.055344 0.709416
O O1 0.250000 0.771048 0.755724
O O2 0.464340 0.826117 0.683145
O O3 0.518488 0.767211 0.824136
O O4 0.463545 0.735285 0.646205
O O5 0.750000 0.922176 0.100821
O O6 0.009940 0.927187 0.187986
O O7 0.911847 0.000000 0.086402
O O8 0.000000 0.921783 0.000000
O O9 0.250000 0.131102 0.582537
O O10 0.000000 0.154976 0.500000
O O11 0.004965 0.085045 0.625045
O O12 0.250000 0.731623 0.089948
O O13 0.468840 0.674483 0.147653
O O14 0.500000 0.732203 0.000000
O O15 0.250000 0.371867 0.237818
O O16 0.494879 0.416525 0.186458
O O17 0.501950 0.356816 0.327086
O O18 0.250000 0.429596 0.905357
O O19 0.444171 0.500000 0.877383
O O20 0.500000 0.429772 0.000000
O O21 0.500000 0.678400 0.500000
O O22 0.750000 0.673969 0.404605
O O23 0.750000 0.065242 0.708636
O O24 0.962961 0.000000 0.690676
#
# Coordination Sequence:
#
# PCOD8209370 Si02
#       8
#     8   8   8   8   8   8   8   8
#     4   9  20  37  56  79 107 138 172 211 256 308
#     4   9  16  28  49  76 104 133 164 200 243 290
#     4  11  23  39  59  81 105 135 171 212 259 310
#     4  10  20  33  53  80 111 145 178 215 259 311
#     4  10  20  33  51  77 107 142 183 224 269 318
#     4  10  20  33  50  74 105 142 183 226 272 321
#     4  10  19  33  54  79 107 137 172 217 265 314
#     4  10  21  37  56  79 107 138 173 213 256 303
#
# _framework density 18.556429000000001
#
# number of rings (size 3 to 8) (size 9 to 14) (size 15 to 20)
#    0.000    2.125    0.000    3.375    0.000    7.250 
#    0.000    0.625    0.000    3.375    0.000    0.000 
#    0.000    0.000    0.000    0.000    0.000    0.000 
#
# Total GULP energy -793875.211346 kJ/mol
# GULP energy per Si atom -12404.300177 kJ/mol
# Density = 1.851419 g / cm^3
# Si number density = 18.556429 Si / 1000 Ang^3
#
#
#
# Elastic Constant Matrix: (Units=GPa)
#
#
# Indices 1 2 3 4 5 6 
#
# 1 121.2407 48.0783 71.7460 0.0000 0.0000 0.0000
# 2 48.0783 67.8124 48.0370 0.0000 0.0000 0.0000
# 3 71.7460 48.0370 139.2350 0.0000 0.0000 0.0000
# 4 0.0000 0.0000 0.0000 23.6407 0.0000 0.0000
# 5 0.0000 0.0000 0.0000 0.0000 40.9265 0.0000
# 6 0.0000 0.0000 0.0000 0.0000 0.0000 23.6764
#
#
#
# Elastic Compliance Matrix: (Units=1/GPa)
#
#
# Indices 1 2 3 4 5 6 
#
# 1 0.013577 -0.006181 -0.004864 0.000000 0.000000 0.000000
# 2 -0.006181 0.022330 -0.004519 0.000000 0.000000 0.000000
# 3 -0.004864 -0.004519 0.011247 0.000000 0.000000 0.000000
# 4 0.000000 0.000000 0.000000 0.042300 0.000000 0.000000
# 5 0.000000 0.000000 0.000000 0.000000 0.024434 0.000000
# 6 0.000000 0.000000 0.000000 0.000000 0.000000 0.042236
#
#
# Mechanical properties :
#
#
# Convention : Reuss Voigt Hill
#
# Bulk Modulus (GPa) = 62.39330 73.77896 68.08613
# Shear Modulus (GPa) = 25.96131 28.34385 27.15258
#
# Velocity S-wave (km/s) = 3.74444 3.91249 3.82939
# Velocity P-wave (km/s) = 7.23816 7.76245 7.50489
#
# Compressibility (1/GPa) = 0.01602736
#
# Stress axis : x y z
#
# Youngs Moduli (GPa) = 73.65258 44.78304 88.90885
#
# Poissons Ratio (x) = 0.27679 0.43243
# Poissons Ratio (y) = 0.45523 0.40179
# Poissons Ratio (z) = 0.35823 0.20238
#
# Static dielectric constant tensor:
#      x y z
#    x 3.565360 0.000000 0.000000 
#    y 0.000000 3.238070 0.000000 
#    z 0.000000 0.000000 3.370110 
# 
# 
# High freq. dielectric constant tensor:
#      x y z
#    x 1.736980 0.000000 0.000000 
#    y 0.000000 1.697720 0.000000 
#    z 0.000000 0.000000 1.721320 
# 
# From -- ./inp_files/14848.got.cif
#   From: 2010.03.12/outbox.cif.g09.slc.cpg/sg51_8_cif.got.tgz:14848.got - 2010.04.16 13:43:02.
