data_PCOD8209789
_publ_section_title
;
Structure prediction by ZEFSAII (Michael W. Deem and Ramdas Pophale) SiO2 
 PCOD8209789
Probable space group: P M M A
;
_chemical_formula_sum "Si O2"
_cell_formula_units_Z 48
_cell_length_a 19.293287
_cell_length_b 8.659585
_cell_length_c 15.115296
_cell_angle_alpha 90.000000
_cell_angle_beta 90.000000
_cell_angle_gamma 90.000000
_cell_volume 2525.340598
_symmetry_space_group_name_H-M "P M M A"
_symmetry_group_IT_number 51
_symmetry_cell_setting 'orthorhombic'
loop_
_space_group_symop_operation_xyz
x,y,z
1/2-x,-y,z
1/2+x,-y,-z
-x,y,-z
-x,-y,-z
1/2+x,y,-z
1/2-x,y,z
x,-y,z
loop_
_atom_site_type_symbol
_atom_site_label
_atom_site_fract_x
_atom_site_fract_y
_atom_site_fract_z
Si Si1 0.669289 0.322033 0.075552
Si Si2 0.061517 0.316889 0.260880
Si Si3 0.673275 0.683594 0.875918
Si Si4 0.586297 0.179167 0.229959
Si Si5 0.329926 0.318948 0.610717
Si Si6 0.070039 0.317334 0.457526
O O1 0.750000 0.300351 0.098000
O O2 0.647833 0.500000 0.090183
O O3 0.624483 0.213909 0.138385
O O4 0.653348 0.267569 0.975571
O O5 0.066890 0.500000 0.260169
O O6 0.117410 0.246057 0.192312
O O7 0.079182 0.250499 0.358569
O O8 0.984890 0.272041 0.232014
O O9 0.750000 0.747030 0.851663
O O10 0.674605 0.500000 0.871069
O O11 0.635529 0.226581 0.310232
O O12 0.569225 0.000000 0.236632
O O13 0.250000 0.272780 0.604451
O O14 0.340358 0.500000 0.629380
O O15 0.364754 0.270060 0.517833
O O16 0.062548 0.500000 0.451529
O O17 0.000000 0.247261 0.500000
#
# Coordination Sequence:
#
# PCOD8209789 Si02
#       6
#     8   8   8   8   8   8
#     4   9  18  35  57  78 104 138 175 217 268 323
#     4  10  19  34  58  81 108 143 176 214 264 320
#     4   8  16  32  56  85 108 130 171 224 269 313
#     4  12  24  35  50  76 110 143 181 223 263 312
#     4  10  20  35  56  81 107 138 178 221 267 319
#     4   9  16  30  53  79 106 135 170 211 257 311
#
# _framework density 19.007335999999999
#
# number of rings (size 3 to 8) (size 9 to 14) (size 15 to 20)
#    0.000    2.333    1.667    3.000    0.000    4.000 
#    0.000    9.167    0.000    1.500    0.000    0.000 
#    0.000    0.000    0.000    0.000    0.000    0.000 
#
# Total GULP energy -595170.258734 kJ/mol
# GULP energy per Si atom -12399.380390 kJ/mol
# Density = 1.896407 g / cm^3
# Si number density = 19.007336 Si / 1000 Ang^3
#
#
#
# Elastic Constant Matrix: (Units=GPa)
#
#
# Indices 1 2 3 4 5 6 
#
# 1 116.1332 5.2288 77.3983 0.0000 0.0000 0.0000
# 2 5.2288 16.7617 14.3784 0.0000 0.0000 0.0000
# 3 77.3983 14.3784 157.1918 0.0000 0.0000 0.0000
# 4 0.0000 0.0000 0.0000 0.1661 0.0000 0.0000
# 5 0.0000 0.0000 0.0000 0.0000 41.7119 0.0000
# 6 0.0000 0.0000 0.0000 0.0000 0.0000 2.6181
#
#
#
# Elastic Compliance Matrix: (Units=1/GPa)
#
#
# Indices 1 2 3 4 5 6 
#
# 1 0.012853 0.001540 -0.006470 0.000000 0.000000 0.000000
# 2 0.001540 0.064924 -0.006697 0.000000 0.000000 0.000000
# 3 -0.006470 -0.006697 0.010160 0.000000 0.000000 0.000000
# 4 0.000000 0.000000 0.000000 6.021921 0.000000 0.000000
# 5 0.000000 0.000000 0.000000 0.000000 0.023974 0.000000
# 6 0.000000 0.000000 0.000000 0.000000 0.000000 0.381949
#
#
# Mechanical properties :
#
#
# Convention : Reuss Voigt Hill
#
# Bulk Modulus (GPa) = 15.45971 53.78863 34.62417
# Shear Modulus (GPa) = 0.76213 21.77129 11.26671
#
# Velocity S-wave (km/s) = 0.63390 3.38807 2.43730
# Velocity P-wave (km/s) = 2.94737 6.60800 5.11628
#
# Compressibility (1/GPa) = 0.06468426
#
# Stress axis : x y z
#
# Youngs Moduli (GPa) = 77.80189 15.40258 98.42799
#
# Poissons Ratio (x) = -0.02372 0.63678
# Poissons Ratio (y) = -0.11983 0.65917
# Poissons Ratio (z) = 0.50334 0.10315
#
# Static dielectric constant tensor:
#      x y z
#    x 3.622330 0.000000 0.000000 
#    y 0.000000 2.977450 0.000000 
#    z 0.000000 0.000000 3.823000 
# 
# 
# High freq. dielectric constant tensor:
#      x y z
#    x 1.744440 0.000000 0.000000 
#    y 0.000000 1.689040 0.000000 
#    z 0.000000 0.000000 1.753320 
# 
# From -- ./inp_files/24822.got.cif
#   From: 2010.03.12/outbox.cif.g09.slc.cpg/sg51_13_cif.got.tgz:24822.got - 2010.04.16 13:43:02.
