data_PCOD8209054
_publ_section_title
;
Structure prediction by ZEFSAII (Michael W. Deem and Ramdas Pophale) SiO2 
 PCOD8209054
Probable space group: P M M A
;
_chemical_formula_sum "Si O2"
_cell_formula_units_Z 40
_cell_length_a 25.039447
_cell_length_b 9.088329
_cell_length_c 9.810885
_cell_angle_alpha 90.000000
_cell_angle_beta 90.000000
_cell_angle_gamma 90.000000
_cell_volume 2232.631041
_symmetry_space_group_name_H-M "P M M A"
_symmetry_group_IT_number 51
_symmetry_cell_setting 'orthorhombic'
loop_
_space_group_symop_operation_xyz
x,y,z
1/2-x,-y,z
1/2+x,-y,-z
-x,y,-z
-x,-y,-z
1/2+x,y,-z
1/2-x,y,z
x,-y,z
loop_
_atom_site_type_symbol
_atom_site_label
_atom_site_fract_x
_atom_site_fract_y
_atom_site_fract_z
Si Si1 0.108339 0.172848 0.150215
Si Si2 0.002725 0.333969 0.161897
Si Si3 0.398288 0.170629 0.835805
Si Si4 0.687428 0.669883 0.655790
Si Si5 0.189014 0.170452 0.617948
O O1 0.054208 0.242934 0.211385
O O2 0.158909 0.242240 0.224259
O O3 0.106468 0.000000 0.177036
O O4 0.115038 0.211466 0.991237
O O5 0.007149 0.500000 0.217231
O O6 0.949045 0.260580 0.220833
O O7 0.000000 0.329263 0.000000
O O8 0.346877 0.213795 0.747104
O O9 0.413085 0.000000 0.822786
O O10 0.750000 0.693107 0.678327
O O11 0.670811 0.500000 0.661764
O O12 0.669792 0.733950 0.510031
O O13 0.250000 0.206912 0.657765
O O14 0.182235 0.000000 0.578640
#
# Coordination Sequence:
#
# PCOD8209054 Si02
#       5
#     8   8   8   8   8
#     4  10  19  32  53  78 103 132 167 207 249 295
#     4   9  17  30  49  73 103 136 166 200 247 299
#     4   9  18  32  52  78 104 130 165 208 250 295
#     4  10  21  36  52  72 101 135 169 206 249 297
#     4   9  18  34  54  74  99 132 167 204 249 299
#
# _framework density 17.916080000000001
#
# number of rings (size 3 to 8) (size 9 to 14) (size 15 to 20)
#    0.000    2.600    0.000    1.800    0.000    6.000 
#    0.000    3.000    0.000    8.400    0.000    0.000 
#    0.000    0.000    0.000    0.000    0.000    0.000 
#
# Total GULP energy -496091.326401 kJ/mol
# GULP energy per Si atom -12402.283160 kJ/mol
# Density = 1.787530 g / cm^3
# Si number density = 17.916080 Si / 1000 Ang^3
#
#
#
# Elastic Constant Matrix: (Units=GPa)
#
#
# Indices 1 2 3 4 5 6 
#
# 1 99.5181 61.5786 58.9693 0.0000 0.0000 0.0000
# 2 61.5786 110.0142 53.3502 0.0000 0.0000 0.0000
# 3 58.9693 53.3502 77.6331 0.0000 0.0000 0.0000
# 4 0.0000 0.0000 0.0000 22.6544 0.0000 0.0000
# 5 0.0000 0.0000 0.0000 0.0000 11.5251 0.0000
# 6 0.0000 0.0000 0.0000 0.0000 0.0000 34.2695
#
#
#
# Elastic Compliance Matrix: (Units=1/GPa)
#
#
# Indices 1 2 3 4 5 6 
#
# 1 0.020541 -0.005896 -0.011551 0.000000 0.000000 0.000000
# 2 -0.005896 0.015325 -0.006053 0.000000 0.000000 0.000000
# 3 -0.011551 -0.006053 0.025815 0.000000 0.000000 0.000000
# 4 0.000000 0.000000 0.000000 0.044142 0.000000 0.000000
# 5 0.000000 0.000000 0.000000 0.000000 0.086767 0.000000
# 6 0.000000 0.000000 0.000000 0.000000 0.000000 0.029181
#
#
# Mechanical properties :
#
#
# Convention : Reuss Voigt Hill
#
# Bulk Modulus (GPa) = 68.11530 70.55131 69.33330
# Shear Modulus (GPa) = 18.27047 21.24093 19.75570
#
# Velocity S-wave (km/s) = 3.19686 3.44696 3.32426
# Velocity P-wave (km/s) = 7.19223 7.43682 7.31555
#
# Compressibility (1/GPa) = 0.01468099
#
# Stress axis : x y z
#
# Youngs Moduli (GPa) = 48.68233 65.25123 38.73707
#
# Poissons Ratio (x) = 0.38472 0.44746
# Poissons Ratio (y) = 0.28703 0.23448
# Poissons Ratio (z) = 0.56234 0.39498
#
# Static dielectric constant tensor:
#      x y z
#    x 3.396590 0.000000 0.000000 
#    y 0.000000 3.436850 0.000000 
#    z 0.000000 0.000000 3.102050 
# 
# 
# High freq. dielectric constant tensor:
#      x y z
#    x 1.699670 0.000000 0.000000 
#    y 0.000000 1.702620 0.000000 
#    z 0.000000 0.000000 1.667790 
# 
# From -- ./inp_files/11429.got.cif
#   From: 2010.03.12/outbox.cif.g09.slc.cpg/sg51_6_cif.got.tgz:11429.got - 2010.04.16 13:43:02.
