data_PCOD8209177
_publ_section_title
;
Structure prediction by ZEFSAII (Michael W. Deem and Ramdas Pophale) SiO2 
 PCOD8209177
Probable space group: P M M A
;
_chemical_formula_sum "Si O2"
_cell_formula_units_Z 64
_cell_length_a 18.623272
_cell_length_b 13.999386
_cell_length_c 11.776113
_cell_angle_alpha 90.000000
_cell_angle_beta 90.000000
_cell_angle_gamma 90.000000
_cell_volume 3070.201921
_symmetry_space_group_name_H-M "P M M A"
_symmetry_group_IT_number 51
_symmetry_cell_setting 'orthorhombic'
loop_
_space_group_symop_operation_xyz
x,y,z
1/2-x,-y,z
1/2+x,-y,-z
-x,y,-z
-x,-y,-z
1/2+x,y,-z
1/2-x,y,z
x,-y,z
loop_
_atom_site_type_symbol
_atom_site_label
_atom_site_fract_x
_atom_site_fract_y
_atom_site_fract_z
Si Si1 0.831098 0.755980 0.858887
Si Si2 0.933831 0.607744 0.562846
Si Si3 0.327168 0.154475 0.378261
Si Si4 0.064181 0.242998 0.782712
Si Si5 0.084938 0.889403 0.981692
Si Si6 0.830703 0.294266 0.415739
Si Si7 0.480987 0.104127 0.375589
Si Si8 0.054504 0.614303 0.182894
O O1 0.750000 0.741301 0.907596
O O2 0.826475 0.769016 0.723537
O O3 0.880349 0.662370 0.889010
O O4 0.868764 0.850003 0.912739
O O5 0.956916 0.500000 0.577558
O O6 0.862463 0.617354 0.487729
O O7 0.925195 0.646049 0.689266
O O8 0.000000 0.662620 0.500000
O O9 0.250000 0.099173 0.376837
O O10 0.335596 0.204029 0.501126
O O11 0.395371 0.086517 0.364713
O O12 0.104692 0.177525 0.874817
O O13 0.125209 0.280233 0.699062
O O14 0.006020 0.177595 0.719006
O O15 0.022033 0.332958 0.841601
O O16 0.106388 0.000000 0.960838
O O17 0.000000 0.879958 0.000000
O O18 0.750000 0.319270 0.380255
O O19 0.500000 0.144295 0.500000
O O20 0.517217 0.000000 0.356063
O O21 0.049331 0.500000 0.159133
#
# Coordination Sequence:
#
# PCOD8209177 Si02
#       8
#     8   8   8   8   8   8   8   8
#     4  11  23  41  65  94 129 165 208 269 329 370
#     4  10  19  32  56  91 126 164 212 262 308 365
#     4  10  20  36  57  85 123 163 202 252 316 379
#     4  12  22  40  65  90 130 168 208 264 314 378
#     4  11  24  44  70  96 120 160 218 270 320 387
#     4  11  22  35  56  87 129 174 206 249 314 380
#     4  11  21  34  58  88 117 161 210 255 310 373
#     4  11  22  37  64  97 126 164 214 266 320 379
#
# _framework density 20.845534000000001
#
# number of rings (size 3 to 8) (size 9 to 14) (size 15 to 20)
#    0.000    1.125    6.250    0.375    0.000    3.000 
#    0.000    3.750    0.000    1.125    0.000    1.750 
#    0.000    0.000    0.000    0.000    0.000    0.000 
#
# Total GULP energy -793016.403680 kJ/mol
# GULP energy per Si atom -12390.881308 kJ/mol
# Density = 2.079809 g / cm^3
# Si number density = 20.845534 Si / 1000 Ang^3
#
#
#
# Elastic Constant Matrix: (Units=GPa)
#
#
# Indices 1 2 3 4 5 6 
#
# 1 133.4712 32.2121 14.2793 0.0000 0.0000 0.0000
# 2 32.2121 103.2446 20.2953 0.0000 0.0000 0.0000
# 3 14.2793 20.2953 40.7535 0.0000 0.0000 0.0000
# 4 0.0000 0.0000 0.0000 22.6364 0.0000 0.0000
# 5 0.0000 0.0000 0.0000 0.0000 22.5262 0.0000
# 6 0.0000 0.0000 0.0000 0.0000 0.0000 17.3552
#
#
#
# Elastic Compliance Matrix: (Units=1/GPa)
#
#
# Indices 1 2 3 4 5 6 
#
# 1 0.008217 -0.002214 -0.001776 0.000000 0.000000 0.000000
# 2 -0.002214 0.011334 -0.004868 0.000000 0.000000 0.000000
# 3 -0.001776 -0.004868 0.027585 0.000000 0.000000 0.000000
# 4 0.000000 0.000000 0.000000 0.044177 0.000000 0.000000
# 5 0.000000 0.000000 0.000000 0.000000 0.044393 0.000000
# 6 0.000000 0.000000 0.000000 0.000000 0.000000 0.057620
#
#
# Mechanical properties :
#
#
# Convention : Reuss Voigt Hill
#
# Bulk Modulus (GPa) = 33.99386 45.67141 39.83264
# Shear Modulus (GPa) = 22.64006 26.54906 24.59456
#
# Velocity S-wave (km/s) = 3.29916 3.57264 3.43862
# Velocity P-wave (km/s) = 5.55477 6.24302 5.90893
#
# Compressibility (1/GPa) = 0.02941707
#
# Stress axis : x y z
#
# Youngs Moduli (GPa) = 121.70322 88.23307 36.25219
#
# Poissons Ratio (x) = 0.19539 0.06439
# Poissons Ratio (y) = 0.26950 0.17649
# Poissons Ratio (z) = 0.21617 0.42954
#
# Static dielectric constant tensor:
#      x y z
#    x 3.960520 0.000000 0.000000 
#    y 0.000000 3.586700 0.000000 
#    z 0.000000 0.000000 3.789250 
# 
# 
# High freq. dielectric constant tensor:
#      x y z
#    x 1.813770 0.000000 0.000000 
#    y 0.000000 1.805450 0.000000 
#    z 0.000000 0.000000 1.802140 
# 
# From -- ./inp_files/17570.got.cif
#   From: 2010.03.12/outbox.cif.g09.slc.cpg/sg51_9_cif.got.tgz:17570.got - 2010.04.16 13:43:02.
