data_PCOD8209991
_publ_section_title
;
Structure prediction by ZEFSAII (Michael W. Deem and Ramdas Pophale) SiO2 
 PCOD8209991
Probable space group: P M M A
;
_chemical_formula_sum "Si O2"
_cell_formula_units_Z 64
_cell_length_a 30.692939
_cell_length_b 8.960693
_cell_length_c 11.932071
_cell_angle_alpha 90.000000
_cell_angle_beta 90.000000
_cell_angle_gamma 90.000000
_cell_volume 3281.677531
_symmetry_space_group_name_H-M "P M M A"
_symmetry_group_IT_number 51
_symmetry_cell_setting 'orthorhombic'
loop_
_space_group_symop_operation_xyz
x,y,z
1/2-x,-y,z
1/2+x,-y,-z
-x,y,-z
-x,-y,-z
1/2+x,y,-z
1/2-x,y,z
x,-y,z
loop_
_atom_site_type_symbol
_atom_site_label
_atom_site_fract_x
_atom_site_fract_y
_atom_site_fract_z
Si Si1 0.449754 0.675232 0.987548
Si Si2 0.677675 0.170631 0.247230
Si Si3 0.701423 0.822785 0.003603
Si Si4 0.376096 0.675493 0.381228
Si Si5 0.076479 0.170773 0.763030
Si Si6 0.047402 0.330378 0.549647
Si Si7 0.701778 0.670134 0.466617
Si Si8 0.620641 0.177497 0.858003
O O1 0.442647 0.500000 0.003688
O O2 0.422010 0.759821 0.081283
O O3 0.500000 0.720532 0.000000
O O4 0.434432 0.722823 0.865447
O O5 0.691615 0.241243 0.127804
O O6 0.626685 0.189674 0.266874
O O7 0.702399 0.250786 0.347135
O O8 0.692421 0.000000 0.250225
O O9 0.750000 0.771810 0.965218
O O10 0.697996 0.000000 0.007628
O O11 0.664786 0.761933 0.918130
O O12 0.373455 0.500000 0.353447
O O13 0.417918 0.715600 0.455544
O O14 0.333197 0.735566 0.446020
O O15 0.379484 0.767907 0.268363
O O16 0.049391 0.221438 0.655353
O O17 0.064981 0.000000 0.793566
O O18 0.056149 0.500000 0.589310
O O19 0.000000 0.311267 0.500000
O O20 0.750000 0.686368 0.519801
O O21 0.688986 0.500000 0.443309
O O22 0.618478 0.000000 0.862270
#
# Coordination Sequence:
#
# PCOD8209991 Si02
#       8
#     8   8   8   8   8   8   8   8
#     4  11  25  43  64  88 118 159 201 238 290 360
#     4  10  19  35  59  87 120 153 188 235 294 353
#     4   9  18  35  58  84 117 155 191 232 289 352
#     4  10  22  40  58  81 117 159 197 240 294 349
#     4  11  22  38  63  94 123 150 191 245 298 346
#     4  10  22  40  62  86 116 157 200 237 286 355
#     4  10  21  37  58  85 117 154 198 245 291 342
#     4  11  23  40  61  88 120 154 197 250 299 343
#
# _framework density 19.502220999999999
#
# number of rings (size 3 to 8) (size 9 to 14) (size 15 to 20)
#    0.000    1.750    2.500    1.500    1.750    4.000 
#    0.000    0.000    0.000    1.875    0.000    0.000 
#    0.000    0.000    0.000    0.000    0.000    0.000 
#
# Total GULP energy -793748.959912 kJ/mol
# GULP energy per Si atom -12402.327499 kJ/mol
# Density = 1.945783 g / cm^3
# Si number density = 19.502221 Si / 1000 Ang^3
#
#
#
# Elastic Constant Matrix: (Units=GPa)
#
#
# Indices 1 2 3 4 5 6 
#
# 1 118.7237 36.6882 52.4120 0.0000 0.0000 0.0000
# 2 36.6882 51.3674 35.2992 0.0000 0.0000 0.0000
# 3 52.4120 35.2992 124.8717 0.0000 0.0000 0.0000
# 4 0.0000 0.0000 0.0000 36.9865 0.0000 0.0000
# 5 0.0000 0.0000 0.0000 0.0000 10.4662 0.0000
# 6 0.0000 0.0000 0.0000 0.0000 0.0000 -139.6375
#
#
#
# Elastic Compliance Matrix: (Units=1/GPa)
#
#
# Indices 1 2 3 4 5 6 
#
# 1 0.011742 -0.006205 -0.003174 0.000000 0.000000 0.000000
# 2 -0.006205 0.027440 -0.005152 0.000000 0.000000 0.000000
# 3 -0.003174 -0.005152 0.010797 0.000000 0.000000 0.000000
# 4 0.000000 0.000000 0.000000 0.027037 0.000000 0.000000
# 5 0.000000 0.000000 0.000000 0.000000 0.095545 0.000000
# 6 0.000000 0.000000 0.000000 0.000000 0.000000 -0.007161
#
#
# Mechanical properties :
#
#
# Convention : Reuss Voigt Hill
#
# Bulk Modulus (GPa) = 47.81150 60.41796 54.11473
# Shear Modulus (GPa) = 24.82190 -7.06606 8.87792
#
# Velocity S-wave (km/s) = 3.57146 -1.90554 2.13592
# Velocity P-wave (km/s) = 6.44797 5.11917 5.82160
#
# Compressibility (1/GPa) = 0.02091547
#
# Stress axis : x y z
#
# Youngs Moduli (GPa) = 85.16648 36.44294 92.61777
#
# Poissons Ratio (x) = 0.22613 0.29399
# Poissons Ratio (y) = 0.52846 0.47721
# Poissons Ratio (z) = 0.27034 0.18777
#
# Static dielectric constant tensor:
#      x y z
#    x 3.654460 0.000000 0.000000 
#    y 0.000000 3.429360 0.000000 
#    z 0.000000 0.000000 3.537620 
# 
# 
# High freq. dielectric constant tensor:
#      x y z
#    x 1.776700 0.000000 0.000000 
#    y 0.000000 1.743050 0.000000 
#    z 0.000000 0.000000 1.761860 
# 
# From -- ./inp_files/19645.got.cif
#   From: 2010.03.12/outbox.cif.g09.slc.cpg/sg51_10_cif.got.tgz:19645.got - 2010.04.16 13:43:02.
