data_PCOD8209251
_publ_section_title
;
Structure prediction by ZEFSAII (Michael W. Deem and Ramdas Pophale) SiO2 
 PCOD8209251
Probable space group: P M M A
;
_chemical_formula_sum "Si O2"
_cell_formula_units_Z 56
_cell_length_a 14.094394
_cell_length_b 9.682132
_cell_length_c 23.121509
_cell_angle_alpha 90.000000
_cell_angle_beta 90.000000
_cell_angle_gamma 90.000000
_cell_volume 3155.248591
_symmetry_space_group_name_H-M "P M M A"
_symmetry_group_IT_number 51
_symmetry_cell_setting 'orthorhombic'
loop_
_space_group_symop_operation_xyz
x,y,z
1/2-x,-y,z
1/2+x,-y,-z
-x,y,-z
-x,-y,-z
1/2+x,y,-z
1/2-x,y,z
x,-y,z
loop_
_atom_site_type_symbol
_atom_site_label
_atom_site_fract_x
_atom_site_fract_y
_atom_site_fract_z
Si Si1 0.141188 0.840826 0.646709
Si Si2 0.045089 0.335738 0.085840
Si Si3 0.891483 0.153892 0.483528
Si Si4 0.519558 0.336140 0.689520
Si Si5 0.353175 0.346789 0.415448
Si Si6 0.857570 0.335719 0.798587
Si Si7 0.855671 0.335780 0.030122
O O1 0.250000 0.822345 0.665176
O O2 0.126222 0.789380 0.580867
O O3 0.079864 0.745458 0.689898
O O4 0.108583 0.000000 0.652480
O O5 0.046182 0.500000 0.087565
O O6 0.088347 0.275343 0.145083
O O7 0.935356 0.285778 0.076611
O O8 0.111237 0.283957 0.033175
O O9 0.840364 0.253013 0.528409
O O10 0.000000 0.153495 0.500000
O O11 0.848067 0.000000 0.488448
O O12 0.501228 0.500000 0.691717
O O13 0.573113 0.288790 0.631193
O O14 0.583055 0.286176 0.743161
O O15 0.250000 0.353456 0.384977
O O16 0.385173 0.500000 0.435201
O O17 0.750000 0.277158 0.795856
O O18 0.853908 0.500000 0.801039
O O19 0.750000 0.276123 0.044399
O O20 0.851304 0.500000 0.030135
#
# Coordination Sequence:
#
# PCOD8209251 Si02
#       7
#     8   8   8   8   8   8   8
#     4  10  21  37  54  70  91 121 154 188 231 282
#     4   8  13  20  32  52  77 111 156 195 231 276
#     4  10  19  33  53  73  92 115 147 188 232 279
#     4  10  20  33  49  69  94 121 155 195 230 268
#     4  10  20  32  47  69  96 123 149 182 229 280
#     4   9  16  27  43  61  84 118 157 194 232 276
#     4   8  12  18  29  48  77 111 148 193 237 274
#
# _framework density 17.748206
#
# number of rings (size 3 to 8) (size 9 to 14) (size 15 to 20)
#    0.000    2.714    1.429    2.143    0.000    5.429 
#    0.000    0.714    0.000    3.857    0.000    0.000 
#    0.000    0.000    0.000    2.571    0.000   12.571 
#
# Total GULP energy -694034.138019 kJ/mol
# GULP energy per Si atom -12393.466750 kJ/mol
# Density = 1.770781 g / cm^3
# Si number density = 17.748206 Si / 1000 Ang^3
#
#
#
# Elastic Constant Matrix: (Units=GPa)
#
#
# Indices 1 2 3 4 5 6 
#
# 1 148.3762 28.4724 63.0178 0.0000 0.0000 0.0000
# 2 28.4724 30.1998 29.6082 0.0000 0.0000 0.0000
# 3 63.0178 29.6082 105.9095 0.0000 0.0000 0.0000
# 4 0.0000 0.0000 0.0000 5.0588 0.0000 0.0000
# 5 0.0000 0.0000 0.0000 0.0000 27.9453 0.0000
# 6 0.0000 0.0000 0.0000 0.0000 0.0000 -11.5177
#
#
#
# Elastic Compliance Matrix: (Units=1/GPa)
#
#
# Indices 1 2 3 4 5 6 
#
# 1 0.009478 -0.004693 -0.004328 0.000000 0.000000 0.000000
# 2 -0.004693 0.047939 -0.010609 0.000000 0.000000 0.000000
# 3 -0.004328 -0.010609 0.014983 0.000000 0.000000 0.000000
# 4 0.000000 0.000000 0.000000 0.197677 0.000000 0.000000
# 5 0.000000 0.000000 0.000000 0.000000 0.035784 0.000000
# 6 0.000000 0.000000 0.000000 0.000000 0.000000 -0.086823
#
#
# Mechanical properties :
#
#
# Convention : Reuss Voigt Hill
#
# Bulk Modulus (GPa) = 30.17515 58.52025 44.34770
# Shear Modulus (GPa) = 18.56351 15.18976 16.87664
#
# Velocity S-wave (km/s) = 3.23760 2.92866 3.08700
# Velocity P-wave (km/s) = 5.56910 6.66934 6.14390
#
# Compressibility (1/GPa) = 0.03313986
#
# Stress axis : x y z
#
# Youngs Moduli (GPa) = 105.50466 20.85980 66.74222
#
# Poissons Ratio (x) = 0.09790 0.28884
# Poissons Ratio (y) = 0.49516 0.70809
# Poissons Ratio (z) = 0.45659 0.22131
#
# Static dielectric constant tensor:
#      x y z
#    x 3.566100 0.000000 0.000000 
#    y 0.000000 2.828070 0.000000 
#    z 0.000000 0.000000 3.266960 
# 
# 
# High freq. dielectric constant tensor:
#      x y z
#    x 1.705130 0.000000 0.000000 
#    y 0.000000 1.626510 0.000000 
#    z 0.000000 0.000000 1.669910 
# 
# From -- ./inp_files/33448.got.cif
#   From: 2010.03.12/outbox.cif.g09.slc.cpg/sg51_17_cif.got.tgz:33448.got - 2010.04.16 13:43:02.
