data_PCOD8209928
_publ_section_title
;
Structure prediction by ZEFSAII (Michael W. Deem and Ramdas Pophale) SiO2 
 PCOD8209928
Probable space group: P M M A
;
_chemical_formula_sum "Si O2"
_cell_formula_units_Z 48
_cell_length_a 28.615715
_cell_length_b 8.771634
_cell_length_c 9.980506
_cell_angle_alpha 90.000000
_cell_angle_beta 90.000000
_cell_angle_gamma 90.000000
_cell_volume 2505.172664
_symmetry_space_group_name_H-M "P M M A"
_symmetry_group_IT_number 51
_symmetry_cell_setting 'orthorhombic'
loop_
_space_group_symop_operation_xyz
x,y,z
1/2-x,-y,z
1/2+x,-y,-z
-x,y,-z
-x,-y,-z
1/2+x,y,-z
1/2-x,y,z
x,-y,z
loop_
_atom_site_type_symbol
_atom_site_label
_atom_site_fract_x
_atom_site_fract_y
_atom_site_fract_z
Si Si1 0.460795 0.172099 0.388450
Si Si2 0.304856 0.827049 0.297885
Si Si3 0.128781 0.323081 0.502059
Si Si4 0.698008 0.818665 0.002676
Si Si5 0.122035 0.818702 0.788106
Si Si6 0.480482 0.818418 0.860351
O O1 0.500000 0.172188 0.500000
O O2 0.419245 0.282371 0.428754
O O3 0.483546 0.237192 0.252854
O O4 0.441475 0.000000 0.368719
O O5 0.250000 0.819390 0.323097
O O6 0.328854 0.716740 0.404054
O O7 0.323040 0.000000 0.317829
O O8 0.316791 0.769201 0.147499
O O9 0.129515 0.500000 0.536201
O O10 0.135011 0.231865 0.639397
O O11 0.750000 0.755589 0.037262
O O12 0.660703 0.752870 0.108782
O O13 0.699311 0.000000 0.008084
O O14 0.071339 0.753480 0.831189
O O15 0.121669 0.000000 0.791652
O O16 0.478106 0.000000 0.861134
O O17 0.500000 0.753594 0.000000
#
# Coordination Sequence:
#
# PCOD8209928 Si02
#       6
#     8   8   8   8   8   8
#     4  10  19  36  59  80 107 144 188 232 275 325
#     4   9  19  38  63  88 111 140 184 234 281 331
#     4  12  25  37  53  81 118 156 190 225 273 331
#     4   8  16  32  58  89 112 133 173 233 289 332
#     4  10  19  35  57  82 112 145 186 232 278 330
#     4   9  18  31  53  85 109 134 178 235 288 327
#
# _framework density 19.160357999999999
#
# number of rings (size 3 to 8) (size 9 to 14) (size 15 to 20)
#    0.000    2.333    1.667    2.500    2.333    1.333 
#    0.000    2.500    0.000    2.000    0.000    0.000 
#    0.000    0.000    0.000    0.000    0.000    0.000 
#
# Total GULP energy -595191.074655 kJ/mol
# GULP energy per Si atom -12399.814055 kJ/mol
# Density = 1.911675 g / cm^3
# Si number density = 19.160358 Si / 1000 Ang^3
#
#
#
# Elastic Constant Matrix: (Units=GPa)
#
#
# Indices 1 2 3 4 5 6 
#
# 1 97.5642 16.5250 68.0699 0.0000 0.0000 0.0000
# 2 16.5250 25.6461 9.7731 0.0000 0.0000 0.0000
# 3 68.0699 9.7731 153.9974 0.0000 0.0000 0.0000
# 4 0.0000 0.0000 0.0000 3.4069 0.0000 0.0000
# 5 0.0000 0.0000 0.0000 0.0000 37.7325 0.0000
# 6 0.0000 0.0000 0.0000 0.0000 0.0000 11.7820
#
#
#
# Elastic Compliance Matrix: (Units=1/GPa)
#
#
# Indices 1 2 3 4 5 6 
#
# 1 0.016254 -0.007927 -0.006681 0.000000 0.000000 0.000000
# 2 -0.007927 0.043825 0.000723 0.000000 0.000000 0.000000
# 3 -0.006681 0.000723 0.009401 0.000000 0.000000 0.000000
# 4 0.000000 0.000000 0.000000 0.293520 0.000000 0.000000
# 5 0.000000 0.000000 0.000000 0.000000 0.026502 0.000000
# 6 0.000000 0.000000 0.000000 0.000000 0.000000 0.084875
#
#
# Mechanical properties :
#
#
# Convention : Reuss Voigt Hill
#
# Bulk Modulus (GPa) = 23.97620 51.77150 37.87385
# Shear Modulus (GPa) = 9.68895 22.77360 16.23127
#
# Velocity S-wave (km/s) = 2.25117 3.45132 2.91370
# Velocity P-wave (km/s) = 4.39290 6.55446 5.57936
#
# Compressibility (1/GPa) = 0.04170804
#
# Stress axis : x y z
#
# Youngs Moduli (GPa) = 61.52352 22.81818 106.37047
#
# Poissons Ratio (x) = 0.18088 0.71071
# Poissons Ratio (y) = 0.48770 -0.07687
# Poissons Ratio (z) = 0.41107 -0.01649
#
# Static dielectric constant tensor:
#      x y z
#    x 3.618510 0.000000 0.000000 
#    y 0.000000 3.001160 0.000000 
#    z 0.000000 0.000000 3.674320 
# 
# 
# High freq. dielectric constant tensor:
#      x y z
#    x 1.754270 0.000000 0.000000 
#    y 0.000000 1.691520 0.000000 
#    z 0.000000 0.000000 1.759070 
# 
# From -- ./inp_files/12820.got.cif
#   From: 2010.03.12/outbox.cif.g09.slc.cpg/sg51_7_cif.got.tgz:12820.got - 2010.04.16 13:43:02.
