data_PCOD8209922
_publ_section_title
;
Structure prediction by ZEFSAII (Michael W. Deem and Ramdas Pophale) SiO2 
 PCOD8209922
Probable space group: P M M A
;
_chemical_formula_sum "Si O2"
_cell_formula_units_Z 48
_cell_length_a 21.526313
_cell_length_b 9.415974
_cell_length_c 12.223361
_cell_angle_alpha 90.000000
_cell_angle_beta 90.000000
_cell_angle_gamma 90.000000
_cell_volume 2477.567752
_symmetry_space_group_name_H-M "P M M A"
_symmetry_group_IT_number 51
_symmetry_cell_setting 'orthorhombic'
loop_
_space_group_symop_operation_xyz
x,y,z
1/2-x,-y,z
1/2+x,-y,-z
-x,y,-z
-x,-y,-z
1/2+x,y,-z
1/2-x,y,z
x,-y,z
loop_
_atom_site_type_symbol
_atom_site_label
_atom_site_fract_x
_atom_site_fract_y
_atom_site_fract_z
Si Si1 0.429964 0.334694 0.487699
Si Si2 0.319092 0.334043 0.641142
Si Si3 0.990035 0.840378 0.123827
Si Si4 0.179556 0.160116 0.092421
Si Si5 0.088794 0.334771 0.239089
Si Si6 0.653542 0.839561 0.149974
O O1 0.500000 0.266879 0.500000
O O2 0.436461 0.500000 0.513972
O O3 0.376245 0.270742 0.567916
O O4 0.403313 0.307213 0.367394
O O5 0.250000 0.309627 0.587568
O O6 0.330400 0.500000 0.660104
O O7 0.317073 0.259051 0.758384
O O8 0.023746 0.731803 0.203682
O O9 0.919821 0.834820 0.160319
O O10 0.017032 0.000000 0.136092
O O11 0.000000 0.787917 0.000000
O O12 0.250000 0.160445 0.131412
O O13 0.144473 0.260968 0.175689
O O14 0.151610 0.000000 0.096515
O O15 0.173690 0.218663 0.968945
O O16 0.088695 0.500000 0.210316
O O17 0.678610 0.000000 0.165388
#
# Coordination Sequence:
#
# PCOD8209922 Si02
#       6
#     8   8   8   8   8   8
#     4   9  19  37  58  80 111 150 189 232 286 345
#     4  10  21  37  58  83 112 149 192 239 292 346
#     4  10  19  35  57  80 112 150 184 221 274 341
#     4  10  21  38  57  77 110 155 191 223 275 340
#     4  11  22  35  57  87 114 142 183 235 282 331
#     4  10  20  36  59  83 110 147 188 231 277 333
#
# _framework density 19.373840000000001
#
# number of rings (size 3 to 8) (size 9 to 14) (size 15 to 20)
#    0.000    2.000    1.667    2.000    0.000    5.000 
#    0.000    3.333    0.000    4.500    0.000    0.000 
#    0.000    0.000    0.000    0.000    0.000    0.000 
#
# Total GULP energy -595069.862030 kJ/mol
# GULP energy per Si atom -12397.288792 kJ/mol
# Density = 1.932974 g / cm^3
# Si number density = 19.373840 Si / 1000 Ang^3
#
#
#
# Elastic Constant Matrix: (Units=GPa)
#
#
# Indices 1 2 3 4 5 6 
#
# 1 129.7070 35.0016 49.7828 0.0000 0.0000 0.0000
# 2 35.0016 64.9697 43.4744 0.0000 0.0000 0.0000
# 3 49.7828 43.4744 92.1307 0.0000 0.0000 0.0000
# 4 0.0000 0.0000 0.0000 2.4930 0.0000 0.0000
# 5 0.0000 0.0000 0.0000 0.0000 21.9272 0.0000
# 6 0.0000 0.0000 0.0000 0.0000 0.0000 18.7177
#
#
#
# Elastic Compliance Matrix: (Units=1/GPa)
#
#
# Indices 1 2 3 4 5 6 
#
# 1 0.010017 -0.002594 -0.004189 0.000000 0.000000 0.000000
# 2 -0.002594 0.023166 -0.009530 0.000000 0.000000 0.000000
# 3 -0.004189 -0.009530 0.017615 0.000000 0.000000 0.000000
# 4 0.000000 0.000000 0.000000 0.401126 0.000000 0.000000
# 5 0.000000 0.000000 0.000000 0.000000 0.045605 0.000000
# 6 0.000000 0.000000 0.000000 0.000000 0.000000 0.053425
#
#
# Mechanical properties :
#
#
# Convention : Reuss Voigt Hill
#
# Bulk Modulus (GPa) = 55.02756 60.36944 57.69850
# Shear Modulus (GPa) = 8.47978 19.19748 13.83863
#
# Velocity S-wave (km/s) = 2.09438 3.15127 2.67553
# Velocity P-wave (km/s) = 5.85775 6.66848 6.27622
#
# Compressibility (1/GPa) = 0.01817271
#
# Stress axis : x y z
#
# Youngs Moduli (GPa) = 99.82662 43.16643 56.77076
#
# Poissons Ratio (x) = 0.11196 0.23781
# Poissons Ratio (y) = 0.25892 0.54103
# Poissons Ratio (z) = 0.41817 0.41138
#
# Static dielectric constant tensor:
#      x y z
#    x 3.742760 0.000000 0.000000 
#    y 0.000000 3.368340 0.000000 
#    z 0.000000 0.000000 3.477900 
# 
# 
# High freq. dielectric constant tensor:
#      x y z
#    x 1.775140 0.000000 0.000000 
#    y 0.000000 1.727950 0.000000 
#    z 0.000000 0.000000 1.748940 
# 
# From -- ./inp_files/18605.got.cif
#   From: 2010.03.12/outbox.cif.g09.slc.cpg/sg51_10_cif.got.tgz:18605.got - 2010.04.16 13:43:02.
