data_PCOD8209534
_publ_section_title
;
Structure prediction by ZEFSAII (Michael W. Deem and Ramdas Pophale) SiO2 
 PCOD8209534
Probable space group: P M M A
;
_chemical_formula_sum "Si O2"
_cell_formula_units_Z 64
_cell_length_a 18.692729
_cell_length_b 9.078589
_cell_length_c 19.516013
_cell_angle_alpha 90.000000
_cell_angle_beta 90.000000
_cell_angle_gamma 90.000000
_cell_volume 3311.937739
_symmetry_space_group_name_H-M "P M M A"
_symmetry_group_IT_number 51
_symmetry_cell_setting 'orthorhombic'
loop_
_space_group_symop_operation_xyz
x,y,z
1/2-x,-y,z
1/2+x,-y,-z
-x,y,-z
-x,-y,-z
1/2+x,y,-z
1/2-x,y,z
x,-y,z
loop_
_atom_site_type_symbol
_atom_site_label
_atom_site_fract_x
_atom_site_fract_y
_atom_site_fract_z
Si Si1 0.166940 0.672081 0.482593
Si Si2 0.945221 0.327910 0.130844
Si Si3 0.443126 0.671490 0.709884
Si Si4 0.833931 0.668943 0.789974
Si Si5 0.084711 0.826680 0.090813
Si Si6 0.332469 0.827498 0.953531
Si Si7 0.832635 0.172007 0.379419
Si Si8 0.406589 0.674052 0.346916
O O1 0.250000 0.703491 0.467855
O O2 0.152199 0.500000 0.493576
O O3 0.140096 0.754450 0.550405
O O4 0.122035 0.738557 0.418800
O O5 0.946310 0.500000 0.114897
O O6 0.957400 0.294762 0.210742
O O7 0.869187 0.261058 0.108326
O O8 0.007653 0.250535 0.087233
O O9 0.427274 0.500000 0.698143
O O10 0.375339 0.763458 0.684805
O O11 0.512307 0.724750 0.667078
O O12 0.750000 0.682407 0.799251
O O13 0.860160 0.500000 0.800773
O O14 0.871445 0.773354 0.844009
O O15 0.855506 0.726812 0.714775
O O16 0.072296 0.000000 0.095706
O O17 0.129564 0.782397 0.024120
O O18 0.250000 0.779263 0.957732
O O19 0.340014 0.000000 0.938754
O O20 0.750000 0.210054 0.366566
O O21 0.846523 0.000000 0.384872
O O22 0.401670 0.500000 0.351437
#
# Coordination Sequence:
#
# PCOD8209534 Si02
#       8
#     8   8   8   8   8   8   8   8
#     4   9  17  32  57  84 109 145 191 231 273 332
#     4  11  23  40  62  88 117 149 191 242 294 342
#     4  10  21  38  59  82 113 147 184 232 282 339
#     4  10  19  33  56  85 118 154 192 236 283 330
#     4  11  22  38  60  85 117 157 195 232 280 343
#     4  10  23  42  61  84 117 155 194 236 285 344
#     4  10  22  39  57  79 110 146 186 235 287 337
#     4   9  17  33  55  82 115 148 186 230 280 334
#
# _framework density 19.324034000000001
#
# number of rings (size 3 to 8) (size 9 to 14) (size 15 to 20)
#    0.000    2.000    1.250    2.250    0.000    7.750 
#    0.000    6.250    0.000    1.500    0.000    0.000 
#    0.000    0.000    0.000    0.000    0.000    0.000 
#
# Total GULP energy -793848.654794 kJ/mol
# GULP energy per Si atom -12403.885231 kJ/mol
# Density = 1.928005 g / cm^3
# Si number density = 19.324034 Si / 1000 Ang^3
#
#
#
# Elastic Constant Matrix: (Units=GPa)
#
#
# Indices 1 2 3 4 5 6 
#
# 1 113.0302 48.5628 48.2313 0.0000 0.0000 0.0000
# 2 48.5628 62.1226 38.9528 0.0000 0.0000 0.0000
# 3 48.2313 38.9528 63.6869 0.0000 0.0000 0.0000
# 4 0.0000 0.0000 0.0000 13.3312 0.0000 0.0000
# 5 0.0000 0.0000 0.0000 0.0000 39.9501 0.0000
# 6 0.0000 0.0000 0.0000 0.0000 0.0000 30.4016
#
#
#
# Elastic Compliance Matrix: (Units=1/GPa)
#
#
# Indices 1 2 3 4 5 6 
#
# 1 0.014922 -0.007428 -0.006758 0.000000 0.000000 0.000000
# 2 -0.007428 0.029808 -0.012607 0.000000 0.000000 0.000000
# 3 -0.006758 -0.012607 0.028530 0.000000 0.000000 0.000000
# 4 0.000000 0.000000 0.000000 0.075012 0.000000 0.000000
# 5 0.000000 0.000000 0.000000 0.000000 0.025031 0.000000
# 6 0.000000 0.000000 0.000000 0.000000 0.000000 0.032893
#
#
# Mechanical properties :
#
#
# Convention : Reuss Voigt Hill
#
# Bulk Modulus (GPa) = 50.82191 56.70374 53.76283
# Shear Modulus (GPa) = 18.77302 23.60942 21.19122
#
# Velocity S-wave (km/s) = 3.12025 3.49917 3.31513
# Velocity P-wave (km/s) = 6.27202 6.76261 6.52193
#
# Compressibility (1/GPa) = 0.01967655
#
# Stress axis : x y z
#
# Youngs Moduli (GPa) = 67.01487 33.54779 35.05053
#
# Poissons Ratio (x) = 0.24918 0.23687
# Poissons Ratio (y) = 0.49776 0.44187
# Poissons Ratio (z) = 0.45288 0.42292
#
# Static dielectric constant tensor:
#      x y z
#    x 3.625500 0.000000 0.000000 
#    y 0.000000 3.350560 0.000000 
#    z 0.000000 0.000000 3.630440 
# 
# 
# High freq. dielectric constant tensor:
#      x y z
#    x 1.759820 0.000000 0.000000 
#    y 0.000000 1.733930 0.000000 
#    z 0.000000 0.000000 1.759230 
# 
# From -- ./inp_files/33852.got.cif
#   From: 2010.03.12/outbox.cif.g09.slc.cpg/sg51_17_cif.got.tgz:33852.got - 2010.04.16 13:43:02.
