data_PCOD8209634
_publ_section_title
;
Structure prediction by ZEFSAII (Michael W. Deem and Ramdas Pophale) SiO2 
 PCOD8209634
Probable space group: P M M A
;
_chemical_formula_sum "Si O2"
_cell_formula_units_Z 64
_cell_length_a 23.810520
_cell_length_b 8.917298
_cell_length_c 14.959086
_cell_angle_alpha 90.000000
_cell_angle_beta 90.000000
_cell_angle_gamma 90.000000
_cell_volume 3176.195450
_symmetry_space_group_name_H-M "P M M A"
_symmetry_group_IT_number 51
_symmetry_cell_setting 'orthorhombic'
loop_
_space_group_symop_operation_xyz
x,y,z
1/2-x,-y,z
1/2+x,-y,-z
-x,y,-z
-x,-y,-z
1/2+x,y,-z
1/2-x,y,z
x,-y,z
loop_
_atom_site_type_symbol
_atom_site_label
_atom_site_fract_x
_atom_site_fract_y
_atom_site_fract_z
Si Si1 0.999710 0.678668 0.216680
Si Si2 0.689423 0.831999 0.293517
Si Si3 0.117655 0.176887 0.191813
Si Si4 0.033147 0.678152 0.585483
Si Si5 0.186278 0.177548 0.019000
Si Si6 0.391921 0.820988 0.857866
Si Si7 0.685312 0.326112 0.655321
Si Si8 0.343397 0.676546 0.541247
O O1 0.998596 0.500000 0.212076
O O2 0.990334 0.736540 0.319029
O O3 0.952528 0.743148 0.149219
O O4 0.058651 0.739227 0.180484
O O5 0.750000 0.830210 0.243840
O O6 0.642820 0.764275 0.228097
O O7 0.697925 0.737423 0.383479
O O8 0.672155 0.000000 0.319843
O O9 0.159618 0.227532 0.113072
O O10 0.146411 0.224246 0.283701
O O11 0.106619 0.000000 0.190622
O O12 0.029801 0.500000 0.585035
O O13 0.095808 0.736656 0.570568
O O14 0.000000 0.743851 0.500000
O O15 0.250000 0.243933 0.010132
O O16 0.190194 0.000000 0.011938
O O17 0.143609 0.237399 0.942984
O O18 0.399196 0.000000 0.861052
O O19 0.750000 0.304944 0.682019
O O20 0.666973 0.500000 0.664286
O O21 0.675111 0.264598 0.555508
O O22 0.340023 0.500000 0.539895
#
# Coordination Sequence:
#
# PCOD8209634 Si02
#       8
#     8   8   8   8   8   8   8   8
#     4  11  22  38  59  85 120 156 193 239 292 350
#     4  10  20  33  52  81 116 149 181 227 286 337
#     4  11  23  39  61  87 115 151 198 250 296 342
#     4   9  17  31  53  77 104 145 194 236 273 324
#     4   9  19  38  64  90 114 149 197 241 287 348
#     4  10  20  37  61  86 116 150 191 238 284 341
#     4  10  21  37  58  85 117 154 195 240 294 352
#     4  10  19  34  55  80 110 150 197 234 275 341
#
# _framework density 20.149892999999999
#
# number of rings (size 3 to 8) (size 9 to 14) (size 15 to 20)
#    0.000    2.000    1.250    2.625    0.000    6.000 
#    0.000    3.750    0.000    4.500    0.000    0.000 
#    0.000    0.000    0.000    0.000    0.000    0.000 
#
# Total GULP energy -793464.205882 kJ/mol
# GULP energy per Si atom -12397.878217 kJ/mol
# Density = 2.010403 g / cm^3
# Si number density = 20.149893 Si / 1000 Ang^3
#
#
#
# Elastic Constant Matrix: (Units=GPa)
#
#
# Indices 1 2 3 4 5 6 
#
# 1 136.8589 34.1163 52.7225 0.0000 0.0000 0.0000
# 2 34.1163 39.3272 28.2447 0.0000 0.0000 0.0000
# 3 52.7225 28.2447 104.7710 0.0000 0.0000 0.0000
# 4 0.0000 0.0000 0.0000 21.7370 0.0000 0.0000
# 5 0.0000 0.0000 0.0000 0.0000 39.2638 0.0000
# 6 0.0000 0.0000 0.0000 0.0000 0.0000 20.6922
#
#
#
# Elastic Compliance Matrix: (Units=1/GPa)
#
#
# Indices 1 2 3 4 5 6 
#
# 1 0.010221 -0.006415 -0.003414 0.000000 0.000000 0.000000
# 2 -0.006415 0.035559 -0.006358 0.000000 0.000000 0.000000
# 3 -0.003414 -0.006358 0.012977 0.000000 0.000000 0.000000
# 4 0.000000 0.000000 0.000000 0.046005 0.000000 0.000000
# 5 0.000000 0.000000 0.000000 0.000000 0.025469 0.000000
# 6 0.000000 0.000000 0.000000 0.000000 0.000000 0.048327
#
#
# Mechanical properties :
#
#
# Convention : Reuss Voigt Hill
#
# Bulk Modulus (GPa) = 37.90362 56.79159 47.34760
# Shear Modulus (GPa) = 22.75563 27.39683 25.07623
#
# Velocity S-wave (km/s) = 3.36418 3.69135 3.53155
# Velocity P-wave (km/s) = 5.82597 6.81277 6.33860
#
# Compressibility (1/GPa) = 0.02638271
#
# Stress axis : x y z
#
# Youngs Moduli (GPa) = 97.83670 28.12229 77.06114
#
# Poissons Ratio (x) = 0.18040 0.26309
# Poissons Ratio (y) = 0.62761 0.48996
# Poissons Ratio (z) = 0.33402 0.17881
#
# Static dielectric constant tensor:
#      x y z
#    x 3.865880 0.000000 0.000000 
#    y 0.000000 3.258430 0.000000 
#    z 0.000000 0.000000 3.781450 
# 
# 
# High freq. dielectric constant tensor:
#      x y z
#    x 1.805070 0.000000 0.000000 
#    y 0.000000 1.749590 0.000000 
#    z 0.000000 0.000000 1.790380 
# 
# From -- ./inp_files/26244.got.cif
#   From: 2010.03.12/outbox.cif.g09.slc.cpg/sg51_14_cif.got.tgz:26244.got - 2010.04.16 13:43:02.
