data_PCOD8209699
_publ_section_title
;
Structure prediction by ZEFSAII (Michael W. Deem and Ramdas Pophale) SiO2 
 PCOD8209699
Probable space group: P M M A
;
_chemical_formula_sum "Si O2"
_cell_formula_units_Z 44
_cell_length_a 9.950455
_cell_length_b 27.251458
_cell_length_c 8.739901
_cell_angle_alpha 90.000000
_cell_angle_beta 90.000000
_cell_angle_gamma 90.000000
_cell_volume 2369.950068
_symmetry_space_group_name_H-M "P M M A"
_symmetry_group_IT_number 51
_symmetry_cell_setting 'orthorhombic'
loop_
_space_group_symop_operation_xyz
x,y,z
1/2-x,-y,z
1/2+x,-y,-z
-x,y,-z
-x,-y,-z
1/2+x,y,-z
1/2-x,y,z
x,-y,z
loop_
_atom_site_type_symbol
_atom_site_label
_atom_site_fract_x
_atom_site_fract_y
_atom_site_fract_z
Si Si1 0.899727 0.000000 0.363197
Si Si2 0.750000 0.444257 0.808484
Si Si3 0.597465 0.805330 0.139940
Si Si4 0.093652 0.287880 0.645160
Si Si5 0.250000 0.446064 0.828429
Si Si6 0.594479 0.106545 0.352027
Si Si7 0.503627 0.382873 0.181319
O O1 0.921457 0.948176 0.274576
O O2 0.000000 0.000000 0.500000
O O3 0.750000 0.000000 0.432803
O O4 0.750000 0.500000 0.739225
O O5 0.624823 0.411706 0.754261
O O6 0.750000 0.449342 0.989690
O O7 0.750000 0.810590 0.078932
O O8 0.587120 0.761098 0.257419
O O9 0.549384 0.854880 0.224046
O O10 0.500000 0.794587 0.000000
O O11 0.250000 0.299930 0.603280
O O12 0.023202 0.330750 0.740871
O O13 0.000000 0.278961 0.500000
O O14 0.250000 0.500000 0.756115
O O15 0.377628 0.417909 0.766394
O O16 0.500000 0.112407 0.500000
O O17 0.750000 0.116282 0.400498
O O18 0.500000 0.374149 0.000000
#
# Coordination Sequence:
#
# PCOD8209699 Si02
#       7
#     4   4   8   8   4   8   8
#     4   8  14  26  47  76 108 146 184 224 267 312
#     4   9  18  30  53  87 113 137 175 216 259 312
#     4  10  22  39  57  80 109 141 180 225 274 326
#     4  11  24  40  57  79 106 139 179 221 270 324
#     4   9  16  30  53  81 111 141 173 216 261 304
#     4   9  17  31  53  80 112 146 186 228 270 319
#     4  10  19  34  56  82 111 140 176 219 262 309
#
# _framework density 18.565791000000001
#
# number of rings (size 3 to 8) (size 9 to 14) (size 15 to 20)
#    0.000    2.364    0.909    1.636    1.273    3.636 
#    0.000    0.455    0.000    3.273    0.000    0.000 
#    0.000    0.000    0.000    0.000    0.000    0.000 
#
# Total GULP energy -545251.599211 kJ/mol
# GULP energy per Si atom -12392.081800 kJ/mol
# Density = 1.852353 g / cm^3
# Si number density = 18.565791 Si / 1000 Ang^3
#
#
#
# Elastic Constant Matrix: (Units=GPa)
#
#
# Indices 1 2 3 4 5 6 
#
# 1 126.5748 52.8283 42.0023 0.0000 0.0000 0.0000
# 2 52.8283 142.6308 31.8927 0.0000 0.0000 0.0000
# 3 42.0023 31.8927 58.6301 0.0000 0.0000 0.0000
# 4 0.0000 0.0000 0.0000 36.6804 0.0000 0.0000
# 5 0.0000 0.0000 0.0000 0.0000 29.1538 0.0000
# 6 0.0000 0.0000 0.0000 0.0000 0.0000 26.7133
#
#
#
# Elastic Compliance Matrix: (Units=1/GPa)
#
#
# Indices 1 2 3 4 5 6 
#
# 1 0.011197 -0.002679 -0.006564 0.000000 0.000000 0.000000
# 2 -0.002679 0.008623 -0.002771 0.000000 0.000000 0.000000
# 3 -0.006564 -0.002771 0.023266 0.000000 0.000000 0.000000
# 4 0.000000 0.000000 0.000000 0.027263 0.000000 0.000000
# 5 0.000000 0.000000 0.000000 0.000000 0.034301 0.000000
# 6 0.000000 0.000000 0.000000 0.000000 0.000000 0.037434
#
#
# Mechanical properties :
#
#
# Convention : Reuss Voigt Hill
#
# Bulk Modulus (GPa) = 52.47432 64.58690 58.53061
# Shear Modulus (GPa) = 28.99137 31.91701 30.45419
#
# Velocity S-wave (km/s) = 3.95593 4.15074 4.05450
# Velocity P-wave (km/s) = 7.01364 7.60494 7.31527
#
# Compressibility (1/GPa) = 0.01905694
#
# Stress axis : x y z
#
# Youngs Moduli (GPa) = 89.31016 115.96651 42.98147
#
# Poissons Ratio (x) = 0.31073 0.28213
# Poissons Ratio (y) = 0.23930 0.11911
# Poissons Ratio (z) = 0.58622 0.32136
#
# Static dielectric constant tensor:
#      x y z
#    x 3.668180 0.000000 0.000000 
#    y 0.000000 3.932110 0.000000 
#    z 0.000000 0.000000 2.961080 
# 
# 
# High freq. dielectric constant tensor:
#      x y z
#    x 1.735530 0.000000 0.000000 
#    y 0.000000 1.748870 0.000000 
#    z 0.000000 0.000000 1.671220 
# 
# From -- ./inp_files/5920.got.cif
#   From: 2010.03.12/outbox.cif.g09.slc.cpg/sg51_3_cif.got.tgz:5920.got - 2010.04.16 13:43:02.
