data_PCOD8209384
_publ_section_title
;
Structure prediction by ZEFSAII (Michael W. Deem and Ramdas Pophale) SiO2 
 PCOD8209384
Probable space group: P M M A
;
_chemical_formula_sum "Si O2"
_cell_formula_units_Z 64
_cell_length_a 8.666199
_cell_length_b 23.168541
_cell_length_c 17.822229
_cell_angle_alpha 90.000000
_cell_angle_beta 90.000000
_cell_angle_gamma 90.000000
_cell_volume 3578.403935
_symmetry_space_group_name_H-M "P M M A"
_symmetry_group_IT_number 51
_symmetry_cell_setting 'orthorhombic'
loop_
_space_group_symop_operation_xyz
x,y,z
1/2-x,-y,z
1/2+x,-y,-z
-x,y,-z
-x,-y,-z
1/2+x,y,-z
1/2-x,y,z
x,-y,z
loop_
_atom_site_type_symbol
_atom_site_label
_atom_site_fract_x
_atom_site_fract_y
_atom_site_fract_z
Si Si1 0.565092 0.933912 0.200800
Si Si2 0.569526 0.433930 0.229752
Si Si3 0.569266 0.326627 0.706518
Si Si4 0.921853 0.568125 0.925772
Si Si5 0.934346 0.247870 0.418169
Si Si6 0.079064 0.242222 0.815945
Si Si7 0.081789 0.151411 0.683384
Si Si8 0.067219 0.151992 0.081893
O O1 0.750000 0.926734 0.196338
O O2 0.501804 0.905327 0.279800
O O3 0.489434 0.902355 0.130478
O O4 0.512647 0.000000 0.199953
O O5 0.750000 0.424293 0.241074
O O6 0.521419 0.500000 0.245950
O O7 0.477003 0.393920 0.288249
O O8 0.525602 0.415773 0.145384
O O9 0.750000 0.319077 0.695845
O O10 0.486172 0.300692 0.633647
O O11 0.515901 0.296402 0.783950
O O12 0.750000 0.594106 0.915387
O O13 0.910564 0.500000 0.935730
O O14 0.000000 0.595459 0.000000
O O15 0.750000 0.246001 0.419049
O O16 0.001678 0.186529 0.384413
O O17 0.000000 0.257790 0.500000
O O18 0.250000 0.262637 0.841578
O O19 0.097302 0.195763 0.751182
O O20 0.990767 0.213265 0.885664
O O21 0.250000 0.132795 0.653717
O O22 0.250000 0.152368 0.079502
O O23 0.000000 0.142874 0.000000
#
# Coordination Sequence:
#
# PCOD8209384 Si02
#       8
#     8   8   8   8   8   8   8   8
#     4   9  17  31  51  73  98 134 180 223 263 308
#     4  10  20  34  52  74 102 139 179 215 254 302
#     4  11  21  34  54  80 107 134 166 205 253 307
#     4   9  16  27  44  66  92 123 161 205 249 290
#     4  10  19  33  54  80 108 135 167 209 257 306
#     4   9  17  33  53  72  96 127 165 208 256 306
#     4   7  13  27  48  72  97 126 160 202 248 294
#     4  11  21  33  49  70  99 135 175 220 270 316
#
# _framework density 17.885068
#
# number of rings (size 3 to 8) (size 9 to 14) (size 15 to 20)
#    0.000    2.500    0.000    5.250    0.000    2.750 
#    0.000    1.250    0.000    0.750    0.000    0.000 
#    0.000    0.000    0.000    0.000    0.000    0.375 
#
# Total GULP energy -793111.164596 kJ/mol
# GULP energy per Si atom -12392.361947 kJ/mol
# Density = 1.784436 g / cm^3
# Si number density = 17.885068 Si / 1000 Ang^3
#
#
#
# Elastic Constant Matrix: (Units=GPa)
#
#
# Indices 1 2 3 4 5 6 
#
# 1 95.2567 34.6093 34.8471 0.0000 0.0000 0.0000
# 2 34.6093 92.3625 61.5020 0.0000 0.0000 0.0000
# 3 34.8471 61.5020 108.5631 0.0000 0.0000 0.0000
# 4 0.0000 0.0000 0.0000 16.2609 0.0000 0.0000
# 5 0.0000 0.0000 0.0000 0.0000 25.2102 0.0000
# 6 0.0000 0.0000 0.0000 0.0000 0.0000 22.2901
#
#
#
# Elastic Compliance Matrix: (Units=1/GPa)
#
#
# Indices 1 2 3 4 5 6 
#
# 1 0.012464 -0.003222 -0.002176 0.000000 0.000000 0.000000
# 2 -0.003222 0.018218 -0.009286 0.000000 0.000000 0.000000
# 3 -0.002176 -0.009286 0.015170 0.000000 0.000000 0.000000
# 4 0.000000 0.000000 0.000000 0.061497 0.000000 0.000000
# 5 0.000000 0.000000 0.000000 0.000000 0.039667 0.000000
# 6 0.000000 0.000000 0.000000 0.000000 0.000000 0.044863
#
#
# Mechanical properties :
#
#
# Convention : Reuss Voigt Hill
#
# Bulk Modulus (GPa) = 60.66191 62.01103 61.33647
# Shear Modulus (GPa) = 22.05149 23.76716 22.90932
#
# Velocity S-wave (km/s) = 3.51516 3.64934 3.58288
# Velocity P-wave (km/s) = 7.10397 7.24597 7.17532
#
# Compressibility (1/GPa) = 0.01648481
#
# Stress axis : x y z
#
# Youngs Moduli (GPa) = 80.22816 54.89163 65.91784
#
# Poissons Ratio (x) = 0.17685 0.14342
# Poissons Ratio (y) = 0.25848 0.61214
# Poissons Ratio (z) = 0.17455 0.50974
#
# Static dielectric constant tensor:
#      x y z
#    x 3.313880 0.000000 0.000000 
#    y 0.000000 3.418450 0.000000 
#    z 0.000000 0.000000 3.260600 
# 
# 
# High freq. dielectric constant tensor:
#      x y z
#    x 1.692130 0.000000 0.000000 
#    y 0.000000 1.678980 0.000000 
#    z 0.000000 0.000000 1.670900 
# 
# From -- ./inp_files/22234.got.cif
#   From: 2010.03.12/outbox.cif.g09.slc.cpg/sg51_12_cif.got.tgz:22234.got - 2010.04.16 13:43:02.
