data_PCOD8209432
_publ_section_title
;
Structure prediction by ZEFSAII (Michael W. Deem and Ramdas Pophale) SiO2 
 PCOD8209432
Probable space group: P M M A
;
_chemical_formula_sum "Si O2"
_cell_formula_units_Z 64
_cell_length_a 22.822975
_cell_length_b 9.198021
_cell_length_c 17.190745
_cell_angle_alpha 90.000000
_cell_angle_beta 90.000000
_cell_angle_gamma 90.000000
_cell_volume 3608.787830
_symmetry_space_group_name_H-M "P M M A"
_symmetry_group_IT_number 51
_symmetry_cell_setting 'orthorhombic'
loop_
_space_group_symop_operation_xyz
x,y,z
1/2-x,-y,z
1/2+x,-y,-z
-x,y,-z
-x,-y,-z
1/2+x,y,-z
1/2-x,y,z
x,-y,z
loop_
_atom_site_type_symbol
_atom_site_label
_atom_site_fract_x
_atom_site_fract_y
_atom_site_fract_z
Si Si1 0.099743 0.838091 0.318186
Si Si2 0.102608 0.332169 0.080504
Si Si3 0.816825 0.170041 0.221127
Si Si4 0.511320 0.668908 0.588074
Si Si5 0.684196 0.666360 0.774268
Si Si6 0.486569 0.835387 0.173098
Si Si7 0.424408 0.328129 0.725074
Si Si8 0.316402 0.331921 0.938513
O O1 0.160553 0.760744 0.297499
O O2 0.059020 0.834951 0.242984
O O3 0.069327 0.754230 0.388373
O O4 0.113198 0.000000 0.346509
O O5 0.083389 0.500000 0.077357
O O6 0.149105 0.303415 0.147701
O O7 0.044111 0.237413 0.097225
O O8 0.135166 0.283999 0.001664
O O9 0.750000 0.198483 0.248207
O O10 0.859996 0.256051 0.279590
O O11 0.826933 0.229651 0.134745
O O12 0.831987 0.000000 0.222411
O O13 0.500000 0.715835 0.500000
O O14 0.525556 0.500000 0.595743
O O15 0.456748 0.709696 0.643941
O O16 0.750000 0.714193 0.791473
O O17 0.679101 0.500000 0.748476
O O18 0.542266 0.740835 0.200377
O O19 0.506020 0.000000 0.152551
O O20 0.419709 0.500000 0.738201
O O21 0.250000 0.310997 0.971078
O O22 0.325680 0.500000 0.914508
#
# Coordination Sequence:
#
# PCOD8209432 Si02
#       8
#     8   8   8   8   8   8   8   8
#     4   9  17  28  43  66  96 127 157 190 228 272
#     4   9  16  27  44  67  95 126 164 209 251 289
#     4  10  21  36  53  73  98 128 161 199 243 289
#     4   9  18  33  54  79 102 122 148 185 230 280
#     4   9  16  26  42  64  91 127 167 201 235 276
#     4   9  17  29  45  67  97 130 161 195 238 287
#     4  10  19  33  55  78  99 125 157 195 237 284
#     4   9  17  30  48  69  94 126 166 212 256 295
#
# _framework density 17.734486
#
# number of rings (size 3 to 8) (size 9 to 14) (size 15 to 20)
#    0.000    2.750    0.000    1.875    0.000    6.750 
#    0.000    0.625    0.000    6.750    0.000    1.750 
#    0.000    0.000    0.000    0.000    0.000    0.000 
#
# Total GULP energy -793475.141721 kJ/mol
# GULP energy per Si atom -12398.049089 kJ/mol
# Density = 1.769412 g / cm^3
# Si number density = 17.734486 Si / 1000 Ang^3
#
#
#
# Elastic Constant Matrix: (Units=GPa)
#
#
# Indices 1 2 3 4 5 6 
#
# 1 80.4371 44.6048 28.5489 0.0000 0.0000 0.0000
# 2 44.6048 86.5555 32.7192 0.0000 0.0000 0.0000
# 3 28.5489 32.7192 61.0863 0.0000 0.0000 0.0000
# 4 0.0000 0.0000 0.0000 18.0443 0.0000 0.0000
# 5 0.0000 0.0000 0.0000 0.0000 18.6923 0.0000
# 6 0.0000 0.0000 0.0000 0.0000 0.0000 27.5781
#
#
#
# Elastic Compliance Matrix: (Units=1/GPa)
#
#
# Indices 1 2 3 4 5 6 
#
# 1 0.018299 -0.007771 -0.004390 0.000000 0.000000 0.000000
# 2 -0.007771 0.017786 -0.005895 0.000000 0.000000 0.000000
# 3 -0.004390 -0.005895 0.021580 0.000000 0.000000 0.000000
# 4 0.000000 0.000000 0.000000 0.055419 0.000000 0.000000
# 5 0.000000 0.000000 0.000000 0.000000 0.053498 0.000000
# 6 0.000000 0.000000 0.000000 0.000000 0.000000 0.036261
#
#
# Mechanical properties :
#
#
# Convention : Reuss Voigt Hill
#
# Bulk Modulus (GPa) = 46.39641 48.86941 47.63291
# Shear Modulus (GPa) = 20.31373 21.01000 20.66187
#
# Velocity S-wave (km/s) = 3.38810 3.44568 3.41701
# Velocity P-wave (km/s) = 6.44392 6.59138 6.51807
#
# Compressibility (1/GPa) = 0.02155339
#
# Stress axis : x y z
#
# Youngs Moduli (GPa) = 54.64690 56.22348 46.34025
#
# Poissons Ratio (x) = 0.43690 0.20344
# Poissons Ratio (y) = 0.42464 0.27318
# Poissons Ratio (z) = 0.23991 0.33144
#
# Static dielectric constant tensor:
#      x y z
#    x 3.456680 0.000000 0.000000 
#    y 0.000000 3.391550 0.000000 
#    z 0.000000 0.000000 3.048560 
# 
# 
# High freq. dielectric constant tensor:
#      x y z
#    x 1.683800 0.000000 0.000000 
#    y 0.000000 1.691720 0.000000 
#    z 0.000000 0.000000 1.651600 
# 
# From -- ./inp_files/30551.got.cif
#   From: 2010.03.12/outbox.cif.g09.slc.cpg/sg51_16_cif.got.tgz:30551.got - 2010.04.16 13:43:02.
