data_PCOD8209013
_publ_section_title
;
Structure prediction by ZEFSAII (Michael W. Deem and Ramdas Pophale) SiO2 
 PCOD8209013
Probable space group: P M M A
;
_chemical_formula_sum "Si O2"
_cell_formula_units_Z 56
_cell_length_a 21.584596
_cell_length_b 14.545382
_cell_length_c 9.850450
_cell_angle_alpha 90.000000
_cell_angle_beta 90.000000
_cell_angle_gamma 90.000000
_cell_volume 3092.609793
_symmetry_space_group_name_H-M "P M M A"
_symmetry_group_IT_number 51
_symmetry_cell_setting 'orthorhombic'
loop_
_space_group_symop_operation_xyz
x,y,z
1/2-x,-y,z
1/2+x,-y,-z
-x,y,-z
-x,-y,-z
1/2+x,y,-z
1/2-x,y,z
x,-y,z
loop_
_atom_site_type_symbol
_atom_site_label
_atom_site_fract_x
_atom_site_fract_y
_atom_site_fract_z
Si Si1 0.915878 0.897933 0.618523
Si Si2 0.678564 0.395942 0.051805
Si Si3 0.496270 0.392355 0.652780
Si Si4 0.320956 0.748143 0.433647
Si Si5 0.549842 0.102240 0.305057
Si Si6 0.881328 0.278239 0.274673
Si Si7 0.129186 0.606353 0.238114
O O1 0.859652 0.827901 0.642790
O O2 0.932905 0.898361 0.461701
O O3 0.977035 0.869848 0.705813
O O4 0.894287 0.000000 0.662780
O O5 0.750000 0.390848 0.011741
O O6 0.661748 0.500000 0.101073
O O7 0.665971 0.319476 0.165795
O O8 0.639941 0.369185 0.918545
O O9 0.500000 0.353214 0.500000
O O10 0.483138 0.500000 0.652133
O O11 0.439993 0.344863 0.728167
O O12 0.558794 0.365958 0.729948
O O13 0.250000 0.780061 0.449381
O O14 0.347868 0.723363 0.580617
O O15 0.324289 0.659267 0.337843
O O16 0.594161 0.176575 0.230981
O O17 0.561011 0.000000 0.242860
O O18 0.141900 0.500000 0.267498
#
# Coordination Sequence:
#
# PCOD8209013 Si02
#       7
#     8   8   8   8   8   8   8
#     4   8  15  29  48  73 104 133 164 211 268 315
#     4  10  22  39  54  72 105 147 184 216 258 318
#     4  10  19  32  52  79 108 133 169 223 276 315
#     4  11  21  31  49  77 103 136 181 218 258 314
#     4   8  15  28  50  76 101 132 169 212 266 325
#     4  11  20  32  54  79 109 136 173 225 274 314
#     4  10  21  37  55  74 102 141 179 217 263 316
#
# _framework density 18.107685
#
# number of rings (size 3 to 8) (size 9 to 14) (size 15 to 20)
#    0.000    2.286    1.429    3.000    2.000    2.286 
#    0.000    2.143    0.000    2.143    0.000    3.000 
#    0.000    0.000    0.000    0.000    0.000    0.000 
#
# Total GULP energy -694281.953436 kJ/mol
# GULP energy per Si atom -12397.892026 kJ/mol
# Density = 1.806647 g / cm^3
# Si number density = 18.107685 Si / 1000 Ang^3
#
#
#
# Elastic Constant Matrix: (Units=GPa)
#
#
# Indices 1 2 3 4 5 6 
#
# 1 84.2897 45.5358 20.2373 0.0000 0.0000 0.0000
# 2 45.5358 90.5160 36.0142 0.0000 0.0000 0.0000
# 3 20.2373 36.0142 55.9309 0.0000 0.0000 0.0000
# 4 0.0000 0.0000 0.0000 9.8698 0.0000 0.0000
# 5 0.0000 0.0000 0.0000 0.0000 26.0578 0.0000
# 6 0.0000 0.0000 0.0000 0.0000 0.0000 25.8931
#
#
#
# Elastic Compliance Matrix: (Units=1/GPa)
#
#
# Indices 1 2 3 4 5 6 
#
# 1 0.016320 -0.007879 -0.000832 0.000000 0.000000 0.000000
# 2 -0.007879 0.018657 -0.009162 0.000000 0.000000 0.000000
# 3 -0.000832 -0.009162 0.024080 0.000000 0.000000 0.000000
# 4 0.000000 0.000000 0.000000 0.101319 0.000000 0.000000
# 5 0.000000 0.000000 0.000000 0.000000 0.038376 0.000000
# 6 0.000000 0.000000 0.000000 0.000000 0.000000 0.038620
#
#
# Mechanical properties :
#
#
# Convention : Reuss Voigt Hill
#
# Bulk Modulus (GPa) = 42.89917 48.25680 45.57799
# Shear Modulus (GPa) = 17.80061 20.96076 19.38069
#
# Velocity S-wave (km/s) = 3.13875 3.40599 3.27510
# Velocity P-wave (km/s) = 6.07275 6.49426 6.28704
#
# Compressibility (1/GPa) = 0.02331047
#
# Stress axis : x y z
#
# Youngs Moduli (GPa) = 61.27405 53.59878 41.52853
#
# Poissons Ratio (x) = 0.42232 0.03453
# Poissons Ratio (y) = 0.48280 0.38050
# Poissons Ratio (z) = 0.05095 0.49110
#
# Static dielectric constant tensor:
#      x y z
#    x 3.435530 0.000000 0.000000 
#    y 0.000000 3.694090 0.000000 
#    z 0.000000 0.000000 2.978030 
# 
# 
# High freq. dielectric constant tensor:
#      x y z
#    x 1.703200 0.000000 0.000000 
#    y 0.000000 1.707880 0.000000 
#    z 0.000000 0.000000 1.660140 
# 
# From -- ./inp_files/10971.got.cif
#   From: 2010.03.12/outbox.cif.g09.slc.cpg/sg51_6_cif.got.tgz:10971.got - 2010.04.16 13:43:02.
