data_PCOD8209459
_publ_section_title
;
Structure prediction by ZEFSAII (Michael W. Deem and Ramdas Pophale) SiO2 
 PCOD8209459
Probable space group: P M M A
;
_chemical_formula_sum "Si O2"
_cell_formula_units_Z 48
_cell_length_a 31.206493
_cell_length_b 8.751921
_cell_length_c 8.945163
_cell_angle_alpha 90.000000
_cell_angle_beta 90.000000
_cell_angle_gamma 90.000000
_cell_volume 2443.073949
_symmetry_space_group_name_H-M "P M M A"
_symmetry_group_IT_number 51
_symmetry_cell_setting 'orthorhombic'
loop_
_space_group_symop_operation_xyz
x,y,z
1/2-x,-y,z
1/2+x,-y,-z
-x,y,-z
-x,-y,-z
1/2+x,y,-z
1/2-x,y,z
x,-y,z
loop_
_atom_site_type_symbol
_atom_site_label
_atom_site_fract_x
_atom_site_fract_y
_atom_site_fract_z
Si Si1 0.915394 0.318540 0.166609
Si Si2 0.332675 0.321370 0.650974
Si Si3 0.250000 0.820354 0.163947
Si Si4 0.414820 0.681627 0.170337
Si Si5 0.750000 0.675409 0.153810
Si Si6 0.666242 0.819804 0.668943
Si Si7 0.000387 0.682079 0.668819
O O1 0.917390 0.500000 0.160536
O O2 0.874076 0.264089 0.258293
O O3 0.957799 0.253025 0.246736
O O4 0.912587 0.253733 0.998310
O O5 0.336035 0.500000 0.609512
O O6 0.291535 0.285426 0.750256
O O7 0.328792 0.221961 0.503360
O O8 0.292401 0.753709 0.243593
O O9 0.250000 0.000000 0.183555
O O10 0.250000 0.779706 0.990974
O O11 0.413467 0.500000 0.171801
O O12 0.375494 0.741437 0.265371
O O13 0.458475 0.742206 0.245439
O O14 0.750000 0.500000 0.101889
O O15 0.661971 0.000000 0.687679
O O16 0.001448 0.500000 0.667668
O O17 0.000000 0.745827 0.500000
#
# Coordination Sequence:
#
# PCOD8209459 Si02
#       7
#     8   8   4   8   4   8   8
#     4   9  17  30  51  80 109 138 176 218 262 319
#     4  10  20  35  55  80 109 139 174 218 267 314
#     4  10  23  40  56  76 106 144 179 212 256 316
#     4  10  19  33  55  80 107 139 175 221 272 315
#     4  10  21  36  58  88 114 136 171 222 270 312
#     4  11  23  38  55  77 106 141 182 221 260 313
#     4   9  16  27  48  79 110 139 174 216 262 316
#
# _framework density 19.647378
#
# number of rings (size 3 to 8) (size 9 to 14) (size 15 to 20)
#    0.000    2.167    0.000    3.500    0.000    8.000 
#    0.000    0.833    0.000    6.500    0.000    0.000 
#    0.000    0.000    0.000    0.000    0.000    0.000 
#
# Total GULP energy -595334.352330 kJ/mol
# GULP energy per Si atom -12402.799007 kJ/mol
# Density = 1.960266 g / cm^3
# Si number density = 19.647378 Si / 1000 Ang^3
#
#
#
# Elastic Constant Matrix: (Units=GPa)
#
#
# Indices 1 2 3 4 5 6 
#
# 1 185.1315 13.4296 63.8983 0.0000 0.0000 0.0000
# 2 13.4296 7.5629 6.9039 0.0000 0.0000 0.0000
# 3 63.8983 6.9039 132.1547 0.0000 0.0000 0.0000
# 4 0.0000 0.0000 0.0000 21.7415 0.0000 0.0000
# 5 0.0000 0.0000 0.0000 0.0000 35.7632 0.0000
# 6 0.0000 0.0000 0.0000 0.0000 0.0000 13.3322
#
#
#
# Elastic Compliance Matrix: (Units=1/GPa)
#
#
# Indices 1 2 3 4 5 6 
#
# 1 0.007138 -0.010001 -0.002929 0.000000 0.000000 0.000000
# 2 -0.010001 0.152859 -0.003150 0.000000 0.000000 0.000000
# 3 -0.002929 -0.003150 0.009148 0.000000 0.000000 0.000000
# 4 0.000000 0.000000 0.000000 0.045995 0.000000 0.000000
# 5 0.000000 0.000000 0.000000 0.000000 0.027962 0.000000
# 6 0.000000 0.000000 0.000000 0.000000 0.000000 0.075007
#
#
# Mechanical properties :
#
#
# Convention : Reuss Voigt Hill
#
# Bulk Modulus (GPa) = 7.30009 54.81250 31.05629
# Shear Modulus (GPa) = 12.62853 30.20854 21.41854
#
# Velocity S-wave (km/s) = 2.53802 3.92540 3.30532
# Velocity P-wave (km/s) = 3.50890 6.96446 5.51435
#
# Compressibility (1/GPa) = 0.13698465
#
# Stress axis : x y z
#
# Youngs Moduli (GPa) = 140.09632 6.54198 109.31899
#
# Poissons Ratio (x) = 0.06543 0.32017
# Poissons Ratio (y) = 1.40115 0.34432
# Poissons Ratio (z) = 0.41031 0.02061
#
# Static dielectric constant tensor:
#      x y z
#    x 3.907090 0.000000 0.000000 
#    y 0.000000 3.076220 0.000000 
#    z 0.000000 0.000000 3.754110 
# 
# 
# High freq. dielectric constant tensor:
#      x y z
#    x 1.789070 0.000000 0.000000 
#    y 0.000000 1.715000 0.000000 
#    z 0.000000 0.000000 1.783910 
# 
# From -- ./inp_files/12908.got.cif
#   From: 2010.03.12/outbox.cif.g09.slc.cpg/sg51_7_cif.got.tgz:12908.got - 2010.04.16 13:43:02.
