data_PCOD8209967
_publ_section_title
;
Structure prediction by ZEFSAII (Michael W. Deem and Ramdas Pophale) SiO2 
 PCOD8209967
Probable space group: P M M A
;
_chemical_formula_sum "Si O2"
_cell_formula_units_Z 44
_cell_length_a 8.915688
_cell_length_b 13.667403
_cell_length_c 19.280805
_cell_angle_alpha 90.000000
_cell_angle_beta 90.000000
_cell_angle_gamma 90.000000
_cell_volume 2349.449014
_symmetry_space_group_name_H-M "P M M A"
_symmetry_group_IT_number 51
_symmetry_cell_setting 'orthorhombic'
loop_
_space_group_symop_operation_xyz
x,y,z
1/2-x,-y,z
1/2+x,-y,-z
-x,y,-z
-x,-y,-z
1/2+x,y,-z
1/2-x,y,z
x,-y,z
loop_
_atom_site_type_symbol
_atom_site_label
_atom_site_fract_x
_atom_site_fract_y
_atom_site_fract_z
Si Si1 0.920018 0.612837 0.310048
Si Si2 0.425928 0.723119 0.426875
Si Si3 0.428273 0.893667 0.811457
Si Si4 0.072462 0.684354 0.837221
Si Si5 0.570329 0.500000 0.075089
Si Si6 0.079430 0.110391 0.653598
O O1 0.750000 0.644731 0.327827
O O2 0.928955 0.500000 0.292421
O O3 0.979557 0.667717 0.241678
O O4 0.026153 0.637940 0.374100
O O5 0.500000 0.700198 0.500000
O O6 0.250000 0.722466 0.437110
O O7 0.476713 0.827409 0.397398
O O8 0.250000 0.897613 0.811767
O O9 0.481256 0.796890 0.855552
O O10 0.481932 0.881612 0.732121
O O11 0.488408 0.000000 0.840608
O O12 0.250000 0.676324 0.841578
O O13 0.008194 0.599011 0.887167
O O14 0.750000 0.500000 0.071421
O O15 0.500000 0.500000 0.000000
O O16 0.250000 0.149465 0.649958
O O17 0.070245 0.000000 0.626700
#
# Coordination Sequence:
#
# PCOD8209967 Si02
#       6
#     8   8   8   8   4   8
#     4  10  19  35  59  81 100 128 172 226 276 326
#     4  12  25  38  52  71 102 142 181 225 274 331
#     4   8  13  23  47  81 107 128 165 220 267 310
#     4   9  15  28  54  81 106 137 177 214 259 317
#     4  10  20  34  54  84 115 148 177 212 255 306
#     4   9  17  32  55  79 103 132 172 224 277 326
#
# _framework density 18.727795
#
# number of rings (size 3 to 8) (size 9 to 14) (size 15 to 20)
#    0.000    2.364    2.727    2.727    0.000    1.455 
#    0.000    0.909    0.000    0.545    0.000    0.000 
#    0.000    0.000    0.000    0.000    0.000    0.000 
#
# Total GULP energy -545154.715057 kJ/mol
# GULP energy per Si atom -12389.879888 kJ/mol
# Density = 1.868517 g / cm^3
# Si number density = 18.727795 Si / 1000 Ang^3
#
#
#
# Elastic Constant Matrix: (Units=GPa)
#
#
# Indices 1 2 3 4 5 6 
#
# 1 59.8831 20.9339 18.7998 0.0000 0.0000 0.0000
# 2 20.9339 162.1091 59.7057 0.0000 0.0000 0.0000
# 3 18.7998 59.7057 68.3872 0.0000 0.0000 0.0000
# 4 0.0000 0.0000 0.0000 20.9177 0.0000 0.0000
# 5 0.0000 0.0000 0.0000 0.0000 22.3221 0.0000
# 6 0.0000 0.0000 0.0000 0.0000 0.0000 18.5733
#
#
#
# Elastic Compliance Matrix: (Units=1/GPa)
#
#
# Indices 1 2 3 4 5 6 
#
# 1 0.018339 -0.000754 -0.004383 0.000000 0.000000 0.000000
# 2 -0.000754 0.009123 -0.007758 0.000000 0.000000 0.000000
# 3 -0.004383 -0.007758 0.022601 0.000000 0.000000 0.000000
# 4 0.000000 0.000000 0.000000 0.047806 0.000000 0.000000
# 5 0.000000 0.000000 0.000000 0.000000 0.044799 0.000000
# 6 0.000000 0.000000 0.000000 0.000000 0.000000 0.053841
#
#
# Mechanical properties :
#
#
# Convention : Reuss Voigt Hill
#
# Bulk Modulus (GPa) = 41.19835 54.36203 47.78019
# Shear Modulus (GPa) = 21.70239 25.09196 23.39717
#
# Velocity S-wave (km/s) = 3.40786 3.66433 3.53842
# Velocity P-wave (km/s) = 6.12625 6.85519 6.50094
#
# Compressibility (1/GPa) = 0.02427282
#
# Stress axis : x y z
#
# Youngs Moduli (GPa) = 54.52920 109.60930 44.24649
#
# Poissons Ratio (x) = 0.08262 0.19394
# Poissons Ratio (y) = 0.04110 0.34326
# Poissons Ratio (z) = 0.23902 0.85034
#
# Static dielectric constant tensor:
#      x y z
#    x 2.959960 0.000000 0.000000 
#    y 0.000000 4.020650 0.000000 
#    z 0.000000 0.000000 3.179170 
# 
# 
# High freq. dielectric constant tensor:
#      x y z
#    x 1.675600 0.000000 0.000000 
#    y 0.000000 1.757640 0.000000 
#    z 0.000000 0.000000 1.692580 
# 
# From -- ./inp_files/27406.got.cif
#   From: 2010.03.12/outbox.cif.g09.slc.cpg/sg51_14_cif.got.tgz:27406.got - 2010.04.16 13:43:02.
