data_PCOD8209462
_publ_section_title
;
Structure prediction by ZEFSAII (Michael W. Deem and Ramdas Pophale) SiO2 
 PCOD8209462
Probable space group: P M M A
;
_chemical_formula_sum "Si O2"
_cell_formula_units_Z 56
_cell_length_a 14.607915
_cell_length_b 15.479742
_cell_length_c 11.879088
_cell_angle_alpha 90.000000
_cell_angle_beta 90.000000
_cell_angle_gamma 90.000000
_cell_volume 2686.179626
_symmetry_space_group_name_H-M "P M M A"
_symmetry_group_IT_number 51
_symmetry_cell_setting 'orthorhombic'
loop_
_space_group_symop_operation_xyz
x,y,z
1/2-x,-y,z
1/2+x,-y,-z
-x,y,-z
-x,-y,-z
1/2+x,y,-z
1/2-x,y,z
x,-y,z
loop_
_atom_site_type_symbol
_atom_site_label
_atom_site_fract_x
_atom_site_fract_y
_atom_site_fract_z
Si Si1 0.855102 0.818479 0.803275
Si Si2 0.854586 0.238388 0.047321
Si Si3 0.858836 0.405294 0.173228
Si Si4 0.648667 0.746704 0.571915
Si Si5 0.038545 0.097328 0.817289
Si Si6 0.094436 0.903987 0.565290
Si Si7 0.358999 0.404235 0.574478
O O1 0.750000 0.852862 0.784987
O O2 0.893494 0.766321 0.694506
O O3 0.927571 0.896121 0.818036
O O4 0.859291 0.757091 0.912196
O O5 0.750000 0.223163 0.087755
O O6 0.895051 0.329128 0.092399
O O7 0.916731 0.160501 0.091765
O O8 0.750000 0.405386 0.172941
O O9 0.893583 0.500000 0.131581
O O10 0.895893 0.388171 0.299352
O O11 0.750000 0.713725 0.596656
O O12 0.656333 0.831250 0.492262
O O13 0.596334 0.668082 0.508336
O O14 0.080051 0.119427 0.695462
O O15 0.063503 0.000000 0.852506
O O16 0.000000 0.901763 0.500000
O O17 0.138644 0.000000 0.553530
O O18 0.250000 0.394793 0.576838
O O19 0.387396 0.500000 0.532187
#
# Coordination Sequence:
#
# PCOD8209462 Si02
#       7
#     8   8   8   8   8   8   8
#     4  10  22  38  55  78 110 150 194 232 270 328
#     4  10  21  37  57  84 115 146 187 235 276 324
#     4   8  14  28  53  83 112 143 181 226 276 326
#     4  10  19  33  55  80 108 145 180 218 275 330
#     4  11  23  39  60  82 109 147 187 231 285 332
#     4  10  20  35  53  77 106 134 172 222 274 327
#     4   8  14  26  48  79 109 136 173 220 270 328
#
# _framework density 20.847453000000002
#
# number of rings (size 3 to 8) (size 9 to 14) (size 15 to 20)
#    0.000    2.429    1.429    2.143    0.000    3.714 
#    0.000    5.000    0.000    7.286    0.000    0.000 
#    0.000    0.000    0.000    0.000    0.000    0.000 
#
# Total GULP energy -693929.851917 kJ/mol
# GULP energy per Si atom -12391.604499 kJ/mol
# Density = 2.080000 g / cm^3
# Si number density = 20.847453 Si / 1000 Ang^3
#
#
#
# Elastic Constant Matrix: (Units=GPa)
#
#
# Indices 1 2 3 4 5 6 
#
# 1 48.8627 25.1547 17.5906 0.0000 0.0000 0.0000
# 2 25.1547 156.7218 76.3652 0.0000 0.0000 0.0000
# 3 17.5906 76.3652 122.8161 0.0000 0.0000 0.0000
# 4 0.0000 0.0000 0.0000 15.4892 0.0000 0.0000
# 5 0.0000 0.0000 0.0000 0.0000 21.1051 0.0000
# 6 0.0000 0.0000 0.0000 0.0000 0.0000 -21.9915
#
#
#
# Elastic Compliance Matrix: (Units=1/GPa)
#
#
# Indices 1 2 3 4 5 6 
#
# 1 0.022475 -0.002925 -0.001400 0.000000 0.000000 0.000000
# 2 -0.002925 0.009535 -0.005510 0.000000 0.000000 0.000000
# 3 -0.001400 -0.005510 0.011769 0.000000 0.000000 0.000000
# 4 0.000000 0.000000 0.000000 0.064561 0.000000 0.000000
# 5 0.000000 0.000000 0.000000 0.000000 0.047382 0.000000
# 6 0.000000 0.000000 0.000000 0.000000 0.000000 -0.045472
#
#
# Mechanical properties :
#
#
# Convention : Reuss Voigt Hill
#
# Bulk Modulus (GPa) = 41.47860 62.95794 52.21827
# Shear Modulus (GPa) = 36.24325 16.87322 26.55823
#
# Velocity S-wave (km/s) = 4.17405 2.84802 3.57309
# Velocity P-wave (km/s) = 6.57037 6.40936 6.49036
#
# Compressibility (1/GPa) = 0.02410882
#
# Stress axis : x y z
#
# Youngs Moduli (GPa) = 44.49289 104.87757 84.97136
#
# Poissons Ratio (x) = 0.30678 0.11899
# Poissons Ratio (y) = 0.13015 0.46817
# Poissons Ratio (z) = 0.06230 0.57785
#
# Static dielectric constant tensor:
#      x y z
#    x 3.454920 0.000000 0.000000 
#    y 0.000000 4.045080 0.000000 
#    z 0.000000 0.000000 4.023180 
# 
# 
# High freq. dielectric constant tensor:
#      x y z
#    x 1.787030 0.000000 0.000000 
#    y 0.000000 1.809480 0.000000 
#    z 0.000000 0.000000 1.820660 
# 
# From -- ./inp_files/16676.got.cif
#   From: 2010.03.12/outbox.cif.g09.slc.cpg/sg51_9_cif.got.tgz:16676.got - 2010.04.16 13:43:02.
