data_PCOD8209050
_publ_section_title
;
Structure prediction by ZEFSAII (Michael W. Deem and Ramdas Pophale) SiO2 
 PCOD8209050
Probable space group: P M M A
;
_chemical_formula_sum "Si O2"
_cell_formula_units_Z 64
_cell_length_a 23.047541
_cell_length_b 9.422307
_cell_length_c 17.066529
_cell_angle_alpha 90.000000
_cell_angle_beta 90.000000
_cell_angle_gamma 90.000000
_cell_volume 3706.184622
_symmetry_space_group_name_H-M "P M M A"
_symmetry_group_IT_number 51
_symmetry_cell_setting 'orthorhombic'
loop_
_space_group_symop_operation_xyz
x,y,z
1/2-x,-y,z
1/2+x,-y,-z
-x,y,-z
-x,-y,-z
1/2+x,y,-z
1/2-x,y,z
x,-y,z
loop_
_atom_site_type_symbol
_atom_site_label
_atom_site_fract_x
_atom_site_fract_y
_atom_site_fract_z
Si Si1 0.902877 0.839058 0.199061
Si Si2 0.522907 0.660753 0.313181
Si Si3 0.185097 0.833705 0.452426
Si Si4 0.919734 0.336009 0.789965
Si Si5 0.814556 0.662889 0.273890
Si Si6 0.316244 0.836148 0.271586
Si Si7 0.612772 0.659513 0.430215
Si Si8 0.502636 0.163412 0.911046
O O1 0.947063 0.781708 0.263394
O O2 0.843787 0.748403 0.202007
O O3 0.935623 0.824877 0.116459
O O4 0.887113 0.000000 0.219534
O O5 0.543278 0.500000 0.288492
O O6 0.454407 0.675871 0.293927
O O7 0.544671 0.683236 0.403789
O O8 0.250000 0.782763 0.478338
O O9 0.175802 0.794693 0.362100
O O10 0.133401 0.761501 0.500855
O O11 0.179807 0.000000 0.466031
O O12 0.909915 0.500000 0.812285
O O13 0.857809 0.260963 0.780955
O O14 0.955065 0.262944 0.860470
O O15 0.750000 0.721207 0.286120
O O16 0.814535 0.500000 0.249354
O O17 0.848804 0.690446 0.353816
O O18 0.250000 0.808341 0.245337
O O19 0.332919 0.000000 0.258349
O O20 0.622168 0.500000 0.460900
O O21 0.524315 0.000000 0.904232
O O22 0.500000 0.217021 0.000000
#
# Coordination Sequence:
#
# PCOD8209050 Si02
#       8
#     8   8   8   8   8   8   8   8
#     4   9  16  26  43  67  91 116 151 192 223 255
#     4   8  16  30  44  62  93 128 155 184 232 288
#     4   9  18  31  45  63  89 121 159 205 252 290
#     4  10  19  32  53  78 100 123 156 199 239 278
#     4   9  17  28  41  59  88 127 162 189 227 279
#     4   9  19  36  54  70  93 127 162 197 243 295
#     4   9  16  27  43  62  87 121 160 198 235 280
#     4   9  18  33  53  76 101 127 152 180 223 281
#
# _framework density 17.268432000000001
#
# number of rings (size 3 to 8) (size 9 to 14) (size 15 to 20)
#    0.000    3.000    0.000    2.625    0.000    5.000 
#    0.000    1.875    0.000    4.500    0.000    1.750 
#    0.000    0.000    0.000    0.000    0.000    0.000 
#
# Total GULP energy -792958.951105 kJ/mol
# GULP energy per Si atom -12389.983611 kJ/mol
# Density = 1.722913 g / cm^3
# Si number density = 17.268432 Si / 1000 Ang^3
#
#
#
# Elastic Constant Matrix: (Units=GPa)
#
#
# Indices 1 2 3 4 5 6 
#
# 1 80.9939 42.2072 32.3043 0.0000 0.0000 0.0000
# 2 42.2072 79.1408 40.2792 0.0000 0.0000 0.0000
# 3 32.3043 40.2792 61.4547 0.0000 0.0000 0.0000
# 4 0.0000 0.0000 0.0000 17.8470 0.0000 0.0000
# 5 0.0000 0.0000 0.0000 0.0000 20.6637 0.0000
# 6 0.0000 0.0000 0.0000 0.0000 0.0000 28.3591
#
#
#
# Elastic Compliance Matrix: (Units=1/GPa)
#
#
# Indices 1 2 3 4 5 6 
#
# 1 0.017978 -0.007170 -0.004751 0.000000 0.000000 0.000000
# 2 -0.007170 0.021820 -0.010533 0.000000 0.000000 0.000000
# 3 -0.004751 -0.010533 0.025673 0.000000 0.000000 0.000000
# 4 0.000000 0.000000 0.000000 0.056032 0.000000 0.000000
# 5 0.000000 0.000000 0.000000 0.000000 0.048394 0.000000
# 6 0.000000 0.000000 0.000000 0.000000 0.000000 0.035262
#
#
# Mechanical properties :
#
#
# Convention : Reuss Voigt Hill
#
# Bulk Modulus (GPa) = 48.62852 50.13009 49.37931
# Shear Modulus (GPa) = 19.46127 20.49387 19.97757
#
# Velocity S-wave (km/s) = 3.36070 3.44871 3.40499
# Velocity P-wave (km/s) = 6.57880 6.70455 6.64197
#
# Compressibility (1/GPa) = 0.02056406
#
# Stress axis : x y z
#
# Youngs Moduli (GPa) = 55.62403 45.82906 38.95154
#
# Poissons Ratio (x) = 0.32859 0.18505
# Poissons Ratio (y) = 0.39882 0.41026
# Poissons Ratio (z) = 0.26426 0.48270
#
# Static dielectric constant tensor:
#      x y z
#    x 3.378720 0.000000 0.000000 
#    y 0.000000 3.230860 0.000000 
#    z 0.000000 0.000000 2.946560 
# 
# 
# High freq. dielectric constant tensor:
#      x y z
#    x 1.662690 0.000000 0.000000 
#    y 0.000000 1.671150 0.000000 
#    z 0.000000 0.000000 1.629300 
# 
# From -- ./inp_files/30815.got.cif
#   From: 2010.03.12/outbox.cif.g09.slc.cpg/sg51_16_cif.got.tgz:30815.got - 2010.04.16 13:43:02.
