data_PCOD8209113
_publ_section_title
;
Structure prediction by ZEFSAII (Michael W. Deem and Ramdas Pophale) SiO2 
 PCOD8209113
Probable space group: P M M A
;
_chemical_formula_sum "Si O2"
_cell_formula_units_Z 64
_cell_length_a 8.822530
_cell_length_b 24.238965
_cell_length_c 15.257990
_cell_angle_alpha 90.000000
_cell_angle_beta 90.000000
_cell_angle_gamma 90.000000
_cell_volume 3262.905841
_symmetry_space_group_name_H-M "P M M A"
_symmetry_group_IT_number 51
_symmetry_cell_setting 'orthorhombic'
loop_
_space_group_symop_operation_xyz
x,y,z
1/2-x,-y,z
1/2+x,-y,-z
-x,y,-z
-x,-y,-z
1/2+x,y,-z
1/2-x,y,z
x,-y,z
loop_
_atom_site_type_symbol
_atom_site_label
_atom_site_fract_x
_atom_site_fract_y
_atom_site_fract_z
Si Si1 0.572509 0.141953 0.088847
Si Si2 0.424973 0.666000 0.589509
Si Si3 0.072735 0.237200 0.180461
Si Si4 0.924165 0.937010 0.774209
Si Si5 0.927798 0.103887 0.584078
Si Si6 0.424803 0.435053 0.909858
Si Si7 0.429297 0.641584 0.229996
Si Si8 0.074884 0.210921 0.643082
O O1 0.750000 0.143159 0.077471
O O2 0.513781 0.204564 0.103811
O O3 0.529932 0.102178 0.168802
O O4 0.500000 0.118246 0.000000
O O5 0.500000 0.643788 0.500000
O O6 0.250000 0.649092 0.589860
O O7 0.503058 0.637014 0.672663
O O8 0.447981 0.731630 0.593080
O O9 0.250000 0.231121 0.164107
O O10 0.021487 0.301072 0.183451
O O11 0.029588 0.208161 0.271199
O O12 0.750000 0.920587 0.791865
O O13 0.963702 0.930167 0.671772
O O14 0.955603 0.000000 0.800899
O O15 0.750000 0.113002 0.571136
O O16 0.000000 0.071914 0.500000
O O17 0.014787 0.162365 0.582404
O O18 0.250000 0.417474 0.911242
O O19 0.446070 0.500000 0.899217
O O20 0.507274 0.408017 0.827506
O O21 0.500000 0.414171 0.000000
O O22 0.250000 0.637325 0.237718
O O23 0.250000 0.202471 0.670044
#
# Coordination Sequence:
#
# PCOD8209113 Si02
#       8
#     8   8   8   8   8   8   8   8
#     4  12  25  41  64  89 115 148 188 233 287 347
#     4  10  20  33  51  79 117 158 200 242 287 341
#     4  10  20  36  57  84 119 154 189 231 284 341
#     4  10  23  44  65  84 111 147 187 236 290 343
#     4  11  22  35  56  83 114 149 187 232 281 339
#     4  10  21  38  61  88 119 156 199 247 296 346
#     4  10  21  36  58  87 120 159 199 242 292 345
#     4  10  19  32  53  81 113 150 190 232 281 336
#
# _framework density 19.614419999999999
#
# number of rings (size 3 to 8) (size 9 to 14) (size 15 to 20)
#    0.000    1.625    1.250    3.750    0.000    6.500 
#    0.000    0.000    0.000    0.375    0.000    0.000 
#    0.000    0.000    0.000    0.000    0.000    0.000 
#
# Total GULP energy -793805.704372 kJ/mol
# GULP energy per Si atom -12403.214131 kJ/mol
# Density = 1.956978 g / cm^3
# Si number density = 19.614420 Si / 1000 Ang^3
#
#
#
# Elastic Constant Matrix: (Units=GPa)
#
#
# Indices 1 2 3 4 5 6 
#
# 1 119.6529 33.6186 62.4679 0.0000 0.0000 0.0000
# 2 33.6186 46.9117 39.3906 0.0000 0.0000 0.0000
# 3 62.4679 39.3906 118.7549 0.0000 0.0000 0.0000
# 4 0.0000 0.0000 0.0000 15.5128 0.0000 0.0000
# 5 0.0000 0.0000 0.0000 0.0000 39.9767 0.0000
# 6 0.0000 0.0000 0.0000 0.0000 0.0000 18.3265
#
#
#
# Elastic Compliance Matrix: (Units=1/GPa)
#
#
# Indices 1 2 3 4 5 6 
#
# 1 0.012213 -0.004654 -0.004881 0.000000 0.000000 0.000000
# 2 -0.004654 0.031319 -0.007940 0.000000 0.000000 0.000000
# 3 -0.004881 -0.007940 0.013622 0.000000 0.000000 0.000000
# 4 0.000000 0.000000 0.000000 0.064463 0.000000 0.000000
# 5 0.000000 0.000000 0.000000 0.000000 0.025015 0.000000
# 6 0.000000 0.000000 0.000000 0.000000 0.000000 0.054566
#
#
# Mechanical properties :
#
#
# Convention : Reuss Voigt Hill
#
# Bulk Modulus (GPa) = 45.03694 61.80820 53.42257
# Shear Modulus (GPa) = 20.52973 24.75270 22.64122
#
# Velocity S-wave (km/s) = 3.23873 3.55627 3.40121
# Velocity P-wave (km/s) = 6.08250 6.96008 6.53604
#
# Compressibility (1/GPa) = 0.02220400
#
# Stress axis : x y z
#
# Youngs Moduli (GPa) = 81.87801 31.92918 73.41170
#
# Poissons Ratio (x) = 0.14861 0.35830
# Poissons Ratio (y) = 0.38108 0.58291
# Poissons Ratio (z) = 0.39962 0.25353
#
# Static dielectric constant tensor:
#      x y z
#    x 3.632800 0.000000 0.000000 
#    y 0.000000 3.387580 0.000000 
#    z 0.000000 0.000000 3.615620 
# 
# 
# High freq. dielectric constant tensor:
#      x y z
#    x 1.776340 0.000000 0.000000 
#    y 0.000000 1.739360 0.000000 
#    z 0.000000 0.000000 1.771420 
# 
# From -- ./inp_files/22387.got.cif
#   From: 2010.03.12/outbox.cif.g09.slc.cpg/sg51_12_cif.got.tgz:22387.got - 2010.04.16 13:43:02.
