data_PCOD8209536
_publ_section_title
;
Structure prediction by ZEFSAII (Michael W. Deem and Ramdas Pophale) SiO2 
 PCOD8209536
Probable space group: P M M A
;
_chemical_formula_sum "Si O2"
_cell_formula_units_Z 56
_cell_length_a 8.688762
_cell_length_b 14.971387
_cell_length_c 20.439056
_cell_angle_alpha 90.000000
_cell_angle_beta 90.000000
_cell_angle_gamma 90.000000
_cell_volume 2658.770011
_symmetry_space_group_name_H-M "P M M A"
_symmetry_group_IT_number 51
_symmetry_cell_setting 'orthorhombic'
loop_
_space_group_symop_operation_xyz
x,y,z
1/2-x,-y,z
1/2+x,-y,-z
-x,y,-z
-x,-y,-z
1/2+x,y,-z
1/2-x,y,z
x,-y,z
loop_
_atom_site_type_symbol
_atom_site_label
_atom_site_fract_x
_atom_site_fract_y
_atom_site_fract_z
Si Si1 0.069675 0.214838 0.565739
Si Si2 0.578431 0.400932 0.275321
Si Si3 0.932789 0.101648 0.309052
Si Si4 0.430283 0.661312 0.150653
Si Si5 0.571995 0.400463 0.589992
Si Si6 0.932342 0.500000 0.071283
Si Si7 0.568034 0.839678 0.164131
Si Si8 0.928704 0.000000 0.071416
O O1 0.250000 0.202830 0.562950
O O2 0.005575 0.166010 0.631689
O O3 0.000000 0.169389 0.500000
O O4 0.029699 0.320641 0.560939
O O5 0.750000 0.367443 0.297005
O O6 0.591470 0.500000 0.244958
O O7 0.508473 0.336816 0.221789
O O8 0.457812 0.400768 0.333302
O O9 0.750000 0.100460 0.309842
O O10 0.988512 0.138401 0.238449
O O11 0.994181 0.000000 0.319463
O O12 0.250000 0.641491 0.153476
O O13 0.509554 0.589191 0.105290
O O14 0.471664 0.760755 0.128894
O O15 0.750000 0.380624 0.575940
O O16 0.525709 0.500000 0.562549
O O17 0.750000 0.500000 0.069678
O O18 0.000000 0.500000 0.000000
O O19 0.750000 0.819623 0.163871
O O20 0.520506 0.917361 0.115333
O O21 0.750000 0.000000 0.059301
O O22 0.000000 0.000000 0.000000
#
# Coordination Sequence:
#
# PCOD8209536 Si02
#       8
#     8   8   8   8   8   4   8   4
#     4  11  23  38  59  87 122 163 207 260 320 386
#     4  10  19  33  56  85 118 157 202 250 303 363
#     4   9  18  37  66  94 119 154 208 265 319 376
#     4  12  24  38  60  91 127 166 209 260 313 368
#     4  10  21  37  58  85 120 160 204 259 317 371
#     4  12  26  46  66  88 122 168 217 264 315 376
#     4  10  20  39  67  96 124 163 215 267 320 376
#     4  10  22  40  66  96 129 166 204 256 317 382
#
# _framework density 21.062370999999999
#
# number of rings (size 3 to 8) (size 9 to 14) (size 15 to 20)
#    0.000    1.571    1.429    4.071    0.000    4.286 
#    0.000    2.143    0.000    3.000    0.000    0.000 
#    0.000    0.000    0.000    0.000    0.000    0.000 
#
# Total GULP energy -694058.050096 kJ/mol
# GULP energy per Si atom -12393.893752 kJ/mol
# Density = 2.101443 g / cm^3
# Si number density = 21.062371 Si / 1000 Ang^3
#
#
#
# Elastic Constant Matrix: (Units=GPa)
#
#
# Indices 1 2 3 4 5 6 
#
# 1 78.3976 34.9432 37.8543 0.0000 0.0000 0.0000
# 2 34.9432 139.1879 63.1916 0.0000 0.0000 0.0000
# 3 37.8543 63.1916 153.6727 0.0000 0.0000 0.0000
# 4 0.0000 0.0000 0.0000 8.3902 0.0000 0.0000
# 5 0.0000 0.0000 0.0000 0.0000 33.7773 0.0000
# 6 0.0000 0.0000 0.0000 0.0000 0.0000 16.6054
#
#
#
# Elastic Compliance Matrix: (Units=1/GPa)
#
#
# Indices 1 2 3 4 5 6 
#
# 1 0.015208 -0.002603 -0.002676 0.000000 0.000000 0.000000
# 2 -0.002603 0.009279 -0.003174 0.000000 0.000000 0.000000
# 3 -0.002676 -0.003174 0.008472 0.000000 0.000000 0.000000
# 4 0.000000 0.000000 0.000000 0.119187 0.000000 0.000000
# 5 0.000000 0.000000 0.000000 0.000000 0.029606 0.000000
# 6 0.000000 0.000000 0.000000 0.000000 0.000000 0.060221
#
#
# Mechanical properties :
#
#
# Convention : Reuss Voigt Hill
#
# Bulk Modulus (GPa) = 62.29685 71.47069 66.88377
# Shear Modulus (GPa) = 18.92288 27.43918 23.18103
#
# Velocity S-wave (km/s) = 3.00062 3.61329 3.32111
# Velocity P-wave (km/s) = 6.45341 7.17038 6.82132
#
# Compressibility (1/GPa) = 0.01605218
#
# Stress axis : x y z
#
# Youngs Moduli (GPa) = 65.75613 107.76703 118.03843
#
# Poissons Ratio (x) = 0.28053 0.31583
# Poissons Ratio (y) = 0.17117 0.37471
# Poissons Ratio (z) = 0.17594 0.34211
#
# Static dielectric constant tensor:
#      x y z
#    x 3.616800 0.000000 0.000000 
#    y 0.000000 4.053240 0.000000 
#    z 0.000000 0.000000 3.908850 
# 
# 
# High freq. dielectric constant tensor:
#      x y z
#    x 1.805950 0.000000 0.000000 
#    y 0.000000 1.835340 0.000000 
#    z 0.000000 0.000000 1.829140 
# 
# From -- ./inp_files/32080.got.cif
#   From: 2010.03.12/outbox.cif.g09.slc.cpg/sg51_17_cif.got.tgz:32080.got - 2010.04.16 13:43:02.
