data_PCOD8209537
_publ_section_title
;
Structure prediction by ZEFSAII (Michael W. Deem and Ramdas Pophale) SiO2 
 PCOD8209537
Probable space group: P M M A
;
_chemical_formula_sum "Si O2"
_cell_formula_units_Z 48
_cell_length_a 8.549288
_cell_length_b 20.464942
_cell_length_c 14.053297
_cell_angle_alpha 90.000000
_cell_angle_beta 90.000000
_cell_angle_gamma 90.000000
_cell_volume 2458.774442
_symmetry_space_group_name_H-M "P M M A"
_symmetry_group_IT_number 51
_symmetry_cell_setting 'orthorhombic'
loop_
_space_group_symop_operation_xyz
x,y,z
1/2-x,-y,z
1/2+x,-y,-z
-x,y,-z
-x,-y,-z
1/2+x,y,-z
1/2-x,y,z
x,-y,z
loop_
_atom_site_type_symbol
_atom_site_label
_atom_site_fract_x
_atom_site_fract_y
_atom_site_fract_z
Si Si1 0.566707 0.256748 0.104772
Si Si2 0.067011 0.622236 0.213336
Si Si3 0.567356 0.500000 0.104499
Si Si4 0.065308 0.329388 0.601045
Si Si5 0.066048 0.000000 0.105739
Si Si6 0.931936 0.187593 0.597866
Si Si7 0.068003 0.133189 0.201552
O O1 0.750000 0.272392 0.105085
O O2 0.476323 0.308500 0.168624
O O3 0.536861 0.185291 0.146607
O O4 0.500000 0.261373 0.000000
O O5 0.250000 0.610354 0.207289
O O6 0.982854 0.564448 0.159050
O O7 0.011581 0.622426 0.322317
O O8 0.750000 0.500000 0.094296
O O9 0.500000 0.500000 0.000000
O O10 0.250000 0.336608 0.605026
O O11 0.000000 0.352453 0.500000
O O12 0.019919 0.254592 0.622414
O O13 0.009591 0.062928 0.165106
O O14 0.250000 0.000000 0.096609
O O15 0.000000 0.000000 0.000000
O O16 0.750000 0.203963 0.583334
O O17 0.959131 0.137266 0.684513
O O18 0.000000 0.156780 0.500000
O O19 0.250000 0.145718 0.177113
#
# Coordination Sequence:
#
# PCOD8209537 Si02
#       7
#     8   8   4   8   4   8   8
#     4  12  24  38  59  87 118 153 198 253 306 360
#     4  12  24  42  64  91 124 161 204 251 303 359
#     4  12  26  46  67  92 125 166 208 250 304 364
#     4  11  21  36  60  92 125 161 201 248 304 360
#     4  10  22  40  59  82 114 158 203 248 307 369
#     4  10  19  33  56  85 119 156 196 246 302 359
#     4  10  21  38  59  84 117 156 200 249 304 363
#
# _framework density 19.521920000000001
#
# number of rings (size 3 to 8) (size 9 to 14) (size 15 to 20)
#    0.000    1.000    1.667    7.750    0.000    2.667 
#    0.000    0.833    0.000    0.000    0.000    0.000 
#    0.000    0.000    0.000    0.000    0.000    0.000 
#
# Total GULP energy -595426.306343 kJ/mol
# GULP energy per Si atom -12404.714715 kJ/mol
# Density = 1.947749 g / cm^3
# Si number density = 19.521920 Si / 1000 Ang^3
#
#
#
# Elastic Constant Matrix: (Units=GPa)
#
#
# Indices 1 2 3 4 5 6 
#
# 1 122.4293 32.0121 45.9039 0.0000 0.0000 0.0000
# 2 32.0121 100.8549 55.4393 0.0000 0.0000 0.0000
# 3 45.9039 55.4393 155.8687 0.0000 0.0000 0.0000
# 4 0.0000 0.0000 0.0000 40.7393 0.0000 0.0000
# 5 0.0000 0.0000 0.0000 0.0000 37.4489 0.0000
# 6 0.0000 0.0000 0.0000 0.0000 0.0000 32.8164
#
#
#
# Elastic Compliance Matrix: (Units=1/GPa)
#
#
# Indices 1 2 3 4 5 6 
#
# 1 0.009445 -0.001826 -0.002132 0.000000 0.000000 0.000000
# 2 -0.001826 0.012678 -0.003972 0.000000 0.000000 0.000000
# 3 -0.002132 -0.003972 0.008456 0.000000 0.000000 0.000000
# 4 0.000000 0.000000 0.000000 0.024546 0.000000 0.000000
# 5 0.000000 0.000000 0.000000 0.000000 0.026703 0.000000
# 6 0.000000 0.000000 0.000000 0.000000 0.000000 0.030473
#
#
# Mechanical properties :
#
#
# Convention : Reuss Voigt Hill
#
# Bulk Modulus (GPa) = 67.93540 71.76259 69.84899
# Shear Modulus (GPa) = 37.57521 38.58744 38.08133
#
# Velocity S-wave (km/s) = 4.39198 4.45074 4.42146
# Velocity P-wave (km/s) = 7.78424 7.95311 7.86913
#
# Compressibility (1/GPa) = 0.01471987
#
# Stress axis : x y z
#
# Youngs Moduli (GPa) = 105.87821 78.87734 118.25682
#
# Poissons Ratio (x) = 0.14402 0.25214
# Poissons Ratio (y) = 0.19332 0.46966
# Poissons Ratio (z) = 0.22574 0.31327
#
# Static dielectric constant tensor:
#      x y z
#    x 3.680390 0.000000 0.000000 
#    y 0.000000 3.286580 0.000000 
#    z 0.000000 0.000000 3.955930 
# 
# 
# High freq. dielectric constant tensor:
#      x y z
#    x 1.774560 0.000000 0.000000 
#    y 0.000000 1.740490 0.000000 
#    z 0.000000 0.000000 1.782730 
# 
# From -- ./inp_files/21242.got.cif
#   From: 2010.03.12/outbox.cif.g09.slc.cpg/sg51_11_cif.got.tgz:21242.got - 2010.04.16 13:43:02.
