data_PCOD8209145
_publ_section_title
;
Structure prediction by ZEFSAII (Michael W. Deem and Ramdas Pophale) SiO2 
 PCOD8209145
Probable space group: P M M A
;
_chemical_formula_sum "Si O2"
_cell_formula_units_Z 64
_cell_length_a 19.275654
_cell_length_b 9.537232
_cell_length_c 18.622716
_cell_angle_alpha 90.000000
_cell_angle_beta 90.000000
_cell_angle_gamma 90.000000
_cell_volume 3423.532772
_symmetry_space_group_name_H-M "P M M A"
_symmetry_group_IT_number 51
_symmetry_cell_setting 'orthorhombic'
loop_
_space_group_symop_operation_xyz
x,y,z
1/2-x,-y,z
1/2+x,-y,-z
-x,y,-z
-x,-y,-z
1/2+x,y,-z
1/2-x,y,z
x,-y,z
loop_
_atom_site_type_symbol
_atom_site_label
_atom_site_fract_x
_atom_site_fract_y
_atom_site_fract_z
Si Si1 0.826942 0.840401 0.459842
Si Si2 0.674041 0.342455 0.188713
Si Si3 0.876404 0.346553 0.336122
Si Si4 0.946780 0.160599 0.562735
Si Si5 0.328825 0.834640 0.040933
Si Si6 0.416665 0.836133 0.907126
Si Si7 0.438098 0.163810 0.156458
Si Si8 0.530210 0.661636 0.703541
O O1 0.750000 0.774855 0.469465
O O2 0.870358 0.766214 0.397912
O O3 0.868270 0.827128 0.533961
O O4 0.821271 0.000000 0.435270
O O5 0.750000 0.312486 0.155737
O O6 0.649395 0.500000 0.168801
O O7 0.681357 0.326653 0.274939
O O8 0.619627 0.230386 0.161432
O O9 0.870916 0.500000 0.372475
O O10 0.947758 0.331045 0.292529
O O11 0.947414 0.263102 0.630138
O O12 0.000000 0.209001 0.500000
O O13 0.964207 0.000000 0.585340
O O14 0.250000 0.771425 0.038952
O O15 0.366121 0.798750 0.116304
O O16 0.324100 0.000000 0.031327
O O17 0.378911 0.772872 0.978045
O O18 0.498854 0.803459 0.899743
O O19 0.403567 0.000000 0.904651
O O20 0.439347 0.258077 0.227566
O O21 0.440944 0.000000 0.178774
O O22 0.556551 0.500000 0.703557
#
# Coordination Sequence:
#
# PCOD8209145 Si02
#       8
#     8   8   8   8   8   8   8   8
#     4  10  21  36  55  81 110 139 175 221 270 319
#     4  10  20  33  48  71 109 151 183 212 258 321
#     4  10  20  34  52  74 107 146 181 217 262 319
#     4  10  20  36  58  81 108 141 177 219 267 317
#     4   9  18  34  56  82 110 141 181 228 276 325
#     4  10  19  32  54  82 110 138 176 225 272 320
#     4  10  20  35  57  82 109 143 182 225 274 324
#     4  11  22  36  57  83 109 141 184 227 267 317
#
# _framework density 18.694139
#
# number of rings (size 3 to 8) (size 9 to 14) (size 15 to 20)
#    0.000    2.000    2.500    1.500    0.000    4.750 
#    0.000    1.250    0.000    6.375    0.000    0.000 
#    0.000    0.000    0.000    0.000    0.000    0.000 
#
# Total GULP energy -793275.587286 kJ/mol
# GULP energy per Si atom -12394.931051 kJ/mol
# Density = 1.865159 g / cm^3
# Si number density = 18.694139 Si / 1000 Ang^3
#
#
#
# Elastic Constant Matrix: (Units=GPa)
#
#
# Indices 1 2 3 4 5 6 
#
# 1 86.6159 32.9087 45.9980 0.0000 0.0000 0.0000
# 2 32.9087 62.2179 54.8249 0.0000 0.0000 0.0000
# 3 45.9980 54.8249 111.8771 0.0000 0.0000 0.0000
# 4 0.0000 0.0000 0.0000 1.9460 0.0000 0.0000
# 5 0.0000 0.0000 0.0000 0.0000 22.7787 0.0000
# 6 0.0000 0.0000 0.0000 0.0000 0.0000 16.7895
#
#
#
# Elastic Compliance Matrix: (Units=1/GPa)
#
#
# Indices 1 2 3 4 5 6 
#
# 1 0.015465 -0.004535 -0.004136 0.000000 0.000000 0.000000
# 2 -0.004535 0.029618 -0.012649 0.000000 0.000000 0.000000
# 3 -0.004136 -0.012649 0.016838 0.000000 0.000000 0.000000
# 4 0.000000 0.000000 0.000000 0.513883 0.000000 0.000000
# 5 0.000000 0.000000 0.000000 0.000000 0.043901 0.000000
# 6 0.000000 0.000000 0.000000 0.000000 0.000000 0.059561
#
#
# Mechanical properties :
#
#
# Convention : Reuss Voigt Hill
#
# Bulk Modulus (GPa) = 51.86977 58.68602 55.27789
# Shear Modulus (GPa) = 6.86500 16.76811 11.81656
#
# Velocity S-wave (km/s) = 1.91840 2.99820 2.51689
# Velocity P-wave (km/s) = 5.71960 6.59139 6.17091
#
# Compressibility (1/GPa) = 0.01927905
#
# Stress axis : x y z
#
# Youngs Moduli (GPa) = 64.66341 33.76356 59.39123
#
# Poissons Ratio (x) = 0.15313 0.24562
# Poissons Ratio (y) = 0.29328 0.75126
# Poissons Ratio (z) = 0.26743 0.42709
#
# Static dielectric constant tensor:
#      x y z
#    x 3.669120 0.000000 0.000000 
#    y 0.000000 3.292030 0.000000 
#    z 0.000000 0.000000 3.256520 
# 
# 
# High freq. dielectric constant tensor:
#      x y z
#    x 1.726850 0.000000 0.000000 
#    y 0.000000 1.707810 0.000000 
#    z 0.000000 0.000000 1.716610 
# 
# From -- ./inp_files/30671.got.cif
#   From: 2010.03.12/outbox.cif.g09.slc.cpg/sg51_16_cif.got.tgz:30671.got - 2010.04.16 13:43:02.
