data_PCOD8209471
_publ_section_title
;
Structure prediction by ZEFSAII (Michael W. Deem and Ramdas Pophale) SiO2 
 PCOD8209471
Probable space group: P M M A
;
_chemical_formula_sum "Si O2"
_cell_formula_units_Z 48
_cell_length_a 9.388389
_cell_length_b 9.124567
_cell_length_c 28.674782
_cell_angle_alpha 90.000000
_cell_angle_beta 90.000000
_cell_angle_gamma 90.000000
_cell_volume 2456.424754
_symmetry_space_group_name_H-M "P M M A"
_symmetry_group_IT_number 51
_symmetry_cell_setting 'orthorhombic'
loop_
_space_group_symop_operation_xyz
x,y,z
1/2-x,-y,z
1/2+x,-y,-z
-x,y,-z
-x,-y,-z
1/2+x,y,-z
1/2-x,y,z
x,-y,z
loop_
_atom_site_type_symbol
_atom_site_label
_atom_site_fract_x
_atom_site_fract_y
_atom_site_fract_z
Si Si1 0.914215 0.828058 0.719575
Si Si2 0.750000 0.171839 0.032253
Si Si3 0.092012 0.331413 0.795514
Si Si4 0.250000 0.827032 0.070582
Si Si5 0.084592 0.671972 0.453532
Si Si6 0.960346 0.172376 0.110719
Si Si7 0.914576 0.173092 0.371834
O O1 0.750000 0.782725 0.710559
O O2 0.972789 0.748634 0.765145
O O3 0.011204 0.778525 0.676204
O O4 0.927019 0.000000 0.728465
O O5 0.886462 0.218307 0.062293
O O6 0.750000 0.000000 0.024007
O O7 0.750000 0.247425 0.981039
O O8 0.250000 0.315155 0.772945
O O9 0.047677 0.500000 0.799792
O O10 0.101890 0.261419 0.846427
O O11 0.379242 0.777899 0.102813
O O12 0.250000 0.000000 0.063072
O O13 0.250000 0.721981 0.457450
O O14 0.074929 0.500000 0.443982
O O15 0.000000 0.715927 0.500000
O O16 0.005769 0.753802 0.412172
O O17 0.939665 0.000000 0.121036
O O18 0.750000 0.227018 0.372482
O O19 0.922512 0.000000 0.378664
#
# Coordination Sequence:
#
# PCOD8209471 Si02
#       7
#     8   4   8   4   8   8   8
#     4  10  22  40  63  88 113 143 184 235 289 344
#     4   9  16  30  53  81 109 141 179 225 274 321
#     4  11  24  40  57  79 111 149 189 231 276 333
#     4   9  18  30  51  83 113 137 175 227 276 325
#     4  10  21  37  58  85 119 161 206 248 290 338
#     4  10  19  33  55  81 109 142 181 227 276 327
#     4  10  21  38  61  89 119 152 191 237 290 346
#
# _framework density 19.540593999999999
#
# number of rings (size 3 to 8) (size 9 to 14) (size 15 to 20)
#    0.000    2.000    0.833    2.500    1.167    7.000 
#    0.000    0.000    0.000    3.000    0.000    0.000 
#    0.000    0.000    0.000    0.000    0.000    0.000 
#
# Total GULP energy -595112.699459 kJ/mol
# GULP energy per Si atom -12398.181239 kJ/mol
# Density = 1.949612 g / cm^3
# Si number density = 19.540594 Si / 1000 Ang^3
#
#
#
# Elastic Constant Matrix: (Units=GPa)
#
#
# Indices 1 2 3 4 5 6 
#
# 1 159.8713 33.1807 49.6059 0.0000 0.0000 0.0000
# 2 33.1807 36.9291 34.4843 0.0000 0.0000 0.0000
# 3 49.6059 34.4843 105.2154 0.0000 0.0000 0.0000
# 4 0.0000 0.0000 0.0000 -60.0878 0.0000 0.0000
# 5 0.0000 0.0000 0.0000 0.0000 52.2938 0.0000
# 6 0.0000 0.0000 0.0000 0.0000 0.0000 23.9579
#
#
#
# Elastic Compliance Matrix: (Units=1/GPa)
#
#
# Indices 1 2 3 4 5 6 
#
# 1 0.007980 -0.005270 -0.002035 0.000000 0.000000 0.000000
# 2 -0.005270 0.042501 -0.011445 0.000000 0.000000 0.000000
# 3 -0.002035 -0.011445 0.014215 0.000000 0.000000 0.000000
# 4 0.000000 0.000000 0.000000 -0.016642 0.000000 0.000000
# 5 0.000000 0.000000 0.000000 0.000000 0.019123 0.000000
# 6 0.000000 0.000000 0.000000 0.000000 0.000000 0.041740
#
#
# Mechanical properties :
#
#
# Convention : Reuss Voigt Hill
#
# Bulk Modulus (GPa) = 36.77003 59.61752 48.19377
# Shear Modulus (GPa) = 32.15791 15.54913 23.85352
#
# Velocity S-wave (km/s) = 4.06112 2.82394 3.49767
# Velocity P-wave (km/s) = 6.39127 6.41940 6.40535
#
# Compressibility (1/GPa) = 0.02719606
#
# Stress axis : x y z
#
# Youngs Moduli (GPa) = 125.30922 23.52872 70.34774
#
# Poissons Ratio (x) = 0.12399 0.14318
# Poissons Ratio (y) = 0.66034 0.80515
# Poissons Ratio (z) = 0.25504 0.26929
#
# Static dielectric constant tensor:
#      x y z
#    x 3.879470 0.000000 0.000000 
#    y 0.000000 3.257870 0.000000 
#    z 0.000000 0.000000 3.593570 
# 
# 
# High freq. dielectric constant tensor:
#      x y z
#    x 1.783710 0.000000 0.000000 
#    y 0.000000 1.728110 0.000000 
#    z 0.000000 0.000000 1.769080 
# 
# From -- ./inp_files/37127.got.cif
#   From: 2010.03.12/outbox.cif.g09.slc.cpg/sg51_19_cif.got.tgz:37127.got - 2010.04.16 13:43:02.
