data_PCOD8209994
_publ_section_title
;
Structure prediction by ZEFSAII (Michael W. Deem and Ramdas Pophale) SiO2 
 PCOD8209994
Probable space group: P M M A
;
_chemical_formula_sum "Si O2"
_cell_formula_units_Z 64
_cell_length_a 8.975394
_cell_length_b 24.354429
_cell_length_c 14.939928
_cell_angle_alpha 90.000000
_cell_angle_beta 90.000000
_cell_angle_gamma 90.000000
_cell_volume 3265.727765
_symmetry_space_group_name_H-M "P M M A"
_symmetry_group_IT_number 51
_symmetry_cell_setting 'orthorhombic'
loop_
_space_group_symop_operation_xyz
x,y,z
1/2-x,-y,z
1/2+x,-y,-z
-x,y,-z
-x,-y,-z
1/2+x,y,-z
1/2-x,y,z
x,-y,z
loop_
_atom_site_type_symbol
_atom_site_label
_atom_site_fract_x
_atom_site_fract_y
_atom_site_fract_z
Si Si1 0.077903 0.062497 0.725350
Si Si2 0.426727 0.751843 0.272712
Si Si3 0.076347 0.438483 0.585420
Si Si4 0.581972 0.919011 0.912199
Si Si5 0.085272 0.789629 0.084615
Si Si6 0.075544 0.362589 0.746219
Si Si7 0.571970 0.150930 0.597999
Si Si8 0.926028 0.562099 0.093086
O O1 0.250000 0.081813 0.729598
O O2 0.008853 0.065027 0.824185
O O3 0.987328 0.100025 0.656101
O O4 0.066930 0.000000 0.690419
O O5 0.250000 0.750393 0.269584
O O6 0.492385 0.773904 0.178332
O O7 0.489949 0.691468 0.284629
O O8 0.476696 0.792469 0.352727
O O9 0.250000 0.437700 0.568585
O O10 0.014934 0.500000 0.597567
O O11 0.031204 0.406808 0.673266
O O12 0.000000 0.409950 0.500000
O O13 0.750000 0.942946 0.905901
O O14 0.590021 0.854371 0.922333
O O15 0.500000 0.943824 0.000000
O O16 0.250000 0.764351 0.081070
O O17 0.000000 0.763676 0.000000
O O18 0.250000 0.349266 0.749178
O O19 0.020163 0.390746 0.838129
O O20 0.500000 0.150231 0.500000
O O21 0.750000 0.145862 0.590203
O O22 0.750000 0.564367 0.082831
O O23 0.973007 0.500000 0.123174
O O24 0.000000 0.577912 0.000000
#
# Coordination Sequence:
#
# PCOD8209994 Si02
#       8
#     8   8   8   8   8   8   8   8
#     4  11  24  41  63  93 125 157 196 242 293 351
#     4  10  22  40  58  81 116 151 187 234 287 340
#     4   9  18  34  55  78 106 139 177 224 276 332
#     4  10  19  35  59  88 122 160 199 238 284 338
#     4   9  18  34  55  81 110 145 186 227 273 326
#     4  10  21  35  54  81 111 146 189 231 280 340
#     4  11  24  45  68  89 115 151 195 243 297 356
#     4   9  18  34  55  79 111 152 196 241 287 337
#
# _framework density 19.597470000000001
#
# number of rings (size 3 to 8) (size 9 to 14) (size 15 to 20)
#    0.000    2.125    1.250    1.500    0.000    7.000 
#    0.000    5.000    0.000    3.750    0.000    0.000 
#    0.000    0.000    0.000    0.000    0.000    0.000 
#
# Total GULP energy -793390.595034 kJ/mol
# GULP energy per Si atom -12396.728047 kJ/mol
# Density = 1.955287 g / cm^3
# Si number density = 19.597470 Si / 1000 Ang^3
#
#
#
# Elastic Constant Matrix: (Units=GPa)
#
#
# Indices 1 2 3 4 5 6 
#
# 1 68.6583 39.3705 55.9255 0.0000 0.0000 0.0000
# 2 39.3705 90.3259 58.6426 0.0000 0.0000 0.0000
# 3 55.9255 58.6426 160.1165 0.0000 0.0000 0.0000
# 4 0.0000 0.0000 0.0000 -5.8204 0.0000 0.0000
# 5 0.0000 0.0000 0.0000 0.0000 36.4740 0.0000
# 6 0.0000 0.0000 0.0000 0.0000 0.0000 -17.2392
#
#
#
# Elastic Compliance Matrix: (Units=1/GPa)
#
#
# Indices 1 2 3 4 5 6 
#
# 1 0.022757 -0.006243 -0.005662 0.000000 0.000000 0.000000
# 2 -0.006243 0.016237 -0.003766 0.000000 0.000000 0.000000
# 3 -0.005662 -0.003766 0.009602 0.000000 0.000000 0.000000
# 4 0.000000 0.000000 0.000000 -0.171810 0.000000 0.000000
# 5 0.000000 0.000000 0.000000 0.000000 0.027417 0.000000
# 6 0.000000 0.000000 0.000000 0.000000 0.000000 -0.058007
#
#
# Mechanical properties :
#
#
# Convention : Reuss Voigt Hill
#
# Bulk Modulus (GPa) = 57.95797 69.66419 63.81108
# Shear Modulus (GPa) = -42.84126 13.69367 -14.57379
#
# Velocity S-wave (km/s) = -4.68061 2.64625 -2.72997
# Velocity P-wave (km/s) = 0.65396 6.70534 4.76389
#
# Compressibility (1/GPa) = 0.01725388
#
# Stress axis : x y z
#
# Youngs Moduli (GPa) = 43.94290 61.58592 104.13957
#
# Poissons Ratio (x) = 0.38449 0.58963
# Poissons Ratio (y) = 0.27434 0.39223
# Poissons Ratio (z) = 0.24880 0.23196
#
# Static dielectric constant tensor:
#      x y z
#    x 3.607030 0.000000 0.000000 
#    y 0.000000 3.645350 0.000000 
#    z 0.000000 0.000000 3.791910 
# 
# 
# High freq. dielectric constant tensor:
#      x y z
#    x 1.759250 0.000000 0.000000 
#    y 0.000000 1.760800 0.000000 
#    z 0.000000 0.000000 1.772150 
# 
# From -- ./inp_files/22284.got.cif
#   From: 2010.03.12/outbox.cif.g09.slc.cpg/sg51_12_cif.got.tgz:22284.got - 2010.04.16 13:43:02.
