data_PCOD8209988
_publ_section_title
;
Structure prediction by ZEFSAII (Michael W. Deem and Ramdas Pophale) SiO2 
 PCOD8209988
Probable space group: P M M A
;
_chemical_formula_sum "Si O2"
_cell_formula_units_Z 64
_cell_length_a 30.594375
_cell_length_b 9.200828
_cell_length_c 11.759629
_cell_angle_alpha 90.000000
_cell_angle_beta 90.000000
_cell_angle_gamma 90.000000
_cell_volume 3310.260092
_symmetry_space_group_name_H-M "P M M A"
_symmetry_group_IT_number 51
_symmetry_cell_setting 'orthorhombic'
loop_
_space_group_symop_operation_xyz
x,y,z
1/2-x,-y,z
1/2+x,-y,-z
-x,y,-z
-x,-y,-z
1/2+x,y,-z
1/2-x,y,z
x,-y,z
loop_
_atom_site_type_symbol
_atom_site_label
_atom_site_fract_x
_atom_site_fract_y
_atom_site_fract_z
Si Si1 0.671091 0.169005 0.501875
Si Si2 0.701442 0.333153 0.716383
Si Si3 0.954692 0.671575 0.270788
Si Si4 0.372074 0.669847 0.879073
Si Si5 0.040382 0.167580 0.259014
Si Si6 0.300264 0.829930 0.744343
Si Si7 0.619094 0.670329 0.860263
Si Si8 0.070514 0.835091 0.509142
O O1 0.698152 0.246175 0.599679
O O2 0.686685 0.229787 0.380079
O O3 0.620291 0.203513 0.519807
O O4 0.681814 0.000000 0.511039
O O5 0.750000 0.308070 0.767741
O O6 0.693482 0.500000 0.685104
O O7 0.666052 0.282514 0.809444
O O8 0.962310 0.500000 0.268455
O O9 0.913286 0.719292 0.196019
O O10 0.947641 0.722878 0.399471
O O11 0.997075 0.749229 0.216971
O O12 0.363108 0.500000 0.866377
O O13 0.328730 0.751421 0.839542
O O14 0.381721 0.713514 0.008186
O O15 0.082345 0.238875 0.202805
O O16 0.042404 0.182069 0.395307
O O17 0.038021 0.000000 0.221703
O O18 0.250000 0.794092 0.769525
O O19 0.310284 0.000000 0.751119
O O20 0.609797 0.500000 0.842625
O O21 0.066851 0.000000 0.556988
#
# Coordination Sequence:
#
# PCOD8209988 Si02
#       8
#     8   8   8   8   8   8   8   8
#     4  10  19  35  59  85 117 153 186 228 284 341
#     4  10  21  36  57  86 116 147 186 232 281 335
#     4  11  23  38  59  87 117 150 191 235 286 343
#     4  10  23  41  60  83 112 152 196 239 284 335
#     4  11  23  39  60  87 117 149 189 234 287 345
#     4  10  21  37  59  87 117 150 188 231 282 339
#     4  10  22  41  61  81 112 152 194 239 285 333
#     4  10  20  36  59  86 116 150 186 230 284 343
#
# _framework density 19.333828
#
# number of rings (size 3 to 8) (size 9 to 14) (size 15 to 20)
#    0.000    1.750    2.500    1.500    0.000    6.500 
#    0.000    3.750    0.000    0.000    0.000    0.000 
#    0.000    0.000    0.000    0.000    0.000    0.000 
#
# Total GULP energy -793898.226001 kJ/mol
# GULP energy per Si atom -12404.659781 kJ/mol
# Density = 1.928982 g / cm^3
# Si number density = 19.333828 Si / 1000 Ang^3
#
#
#
# Elastic Constant Matrix: (Units=GPa)
#
#
# Indices 1 2 3 4 5 6 
#
# 1 119.2386 53.3747 40.7877 0.0000 0.0000 0.0000
# 2 53.3747 68.0076 40.5157 0.0000 0.0000 0.0000
# 3 40.7877 40.5157 88.1122 0.0000 0.0000 0.0000
# 4 0.0000 0.0000 0.0000 24.0067 0.0000 0.0000
# 5 0.0000 0.0000 0.0000 0.0000 11.3675 0.0000
# 6 0.0000 0.0000 0.0000 0.0000 0.0000 31.1458
#
#
#
# Elastic Compliance Matrix: (Units=1/GPa)
#
#
# Indices 1 2 3 4 5 6 
#
# 1 0.013143 -0.009215 -0.001847 0.000000 0.000000 0.000000
# 2 -0.009215 0.026713 -0.008017 0.000000 0.000000 0.000000
# 3 -0.001847 -0.008017 0.015891 0.000000 0.000000 0.000000
# 4 0.000000 0.000000 0.000000 0.041655 0.000000 0.000000
# 5 0.000000 0.000000 0.000000 0.000000 0.087970 0.000000
# 6 0.000000 0.000000 0.000000 0.000000 0.000000 0.032107
#
#
# Mechanical properties :
#
#
# Convention : Reuss Voigt Hill
#
# Bulk Modulus (GPa) = 56.85623 60.52385 58.69004
# Shear Modulus (GPa) = 19.12045 22.68268 20.90156
#
# Velocity S-wave (km/s) = 3.14819 3.42893 3.29156
# Velocity P-wave (km/s) = 6.53347 6.85926 6.69835
#
# Compressibility (1/GPa) = 0.01758822
#
# Stress axis : x y z
#
# Youngs Moduli (GPa) = 76.08503 37.43511 62.93005
#
# Poissons Ratio (x) = 0.34496 0.11622
# Poissons Ratio (y) = 0.70112 0.50454
# Poissons Ratio (z) = 0.14052 0.30013
#
# Static dielectric constant tensor:
#      x y z
#    x 3.696020 0.000000 0.000000 
#    y 0.000000 3.457570 0.000000 
#    z 0.000000 0.000000 3.435970 
# 
# 
# High freq. dielectric constant tensor:
#      x y z
#    x 1.770390 0.000000 0.000000 
#    y 0.000000 1.747070 0.000000 
#    z 0.000000 0.000000 1.743780 
# 
# From -- ./inp_files/19459.got.cif
#   From: 2010.03.12/outbox.cif.g09.slc.cpg/sg51_10_cif.got.tgz:19459.got - 2010.04.16 13:43:02.
