data_PCOD8209997
_publ_section_title
;
Structure prediction by ZEFSAII (Michael W. Deem and Ramdas Pophale) SiO2 
 PCOD8209997
Probable space group: P M M A
;
_chemical_formula_sum "Si O2"
_cell_formula_units_Z 48
_cell_length_a 20.724747
_cell_length_b 8.625902
_cell_length_c 14.011838
_cell_angle_alpha 90.000000
_cell_angle_beta 90.000000
_cell_angle_gamma 90.000000
_cell_volume 2504.891187
_symmetry_space_group_name_H-M "P M M A"
_symmetry_group_IT_number 51
_symmetry_cell_setting 'orthorhombic'
loop_
_space_group_symop_operation_xyz
x,y,z
1/2-x,-y,z
1/2+x,-y,-z
-x,y,-z
-x,-y,-z
1/2+x,y,-z
1/2-x,y,z
x,-y,z
loop_
_atom_site_type_symbol
_atom_site_label
_atom_site_fract_x
_atom_site_fract_y
_atom_site_fract_z
Si Si1 0.125059 0.315598 0.216404
Si Si2 0.628977 0.319420 0.208855
Si Si3 0.000435 0.684304 0.893436
Si Si4 0.750000 0.316565 0.896838
Si Si5 0.931238 0.182093 0.604629
Si Si6 0.930525 0.319875 0.405972
Si Si7 0.250000 0.179982 0.892938
O O1 0.126112 0.500000 0.226513
O O2 0.062569 0.253034 0.160271
O O3 0.187313 0.254238 0.159140
O O4 0.123246 0.240151 0.321549
O O5 0.640315 0.500000 0.185781
O O6 0.564699 0.256181 0.157978
O O7 0.621136 0.291392 0.322061
O O8 0.688327 0.222964 0.169743
O O9 0.998700 0.500000 0.893933
O O10 0.000000 0.751842 0.000000
O O11 0.750000 0.500000 0.897911
O O12 0.750000 0.264575 0.005898
O O13 0.907397 0.224507 0.498231
O O14 0.998625 0.266881 0.628161
O O15 0.941699 0.000000 0.612408
O O16 0.934685 0.500000 0.432509
O O17 0.250000 0.000000 0.914476
#
# Coordination Sequence:
#
# PCOD8209997 Si02
#       7
#     8   8   8   4   8   8   4
#     4  10  19  36  59  86 114 148 197 242 284 331
#     4  10  20  37  60  84 110 149 197 243 284 333
#     4   9  16  29  54  84 110 136 181 244 291 325
#     4  10  22  40  65  86 111 154 201 244 278 334
#     4  11  21  33  54  86 123 156 184 228 292 356
#     4  10  19  35  60  86 113 148 194 245 285 333
#     4  12  26  40  57  82 121 160 187 232 292 356
#
# _framework density 19.162507999999999
#
# number of rings (size 3 to 8) (size 9 to 14) (size 15 to 20)
#    0.000    1.833    1.667    4.750    0.000    4.667 
#    0.000    0.833    0.000    4.000    0.000    0.000 
#    0.000    0.000    0.000    0.000    0.000    0.000 
#
# Total GULP energy -595286.123393 kJ/mol
# GULP energy per Si atom -12401.794237 kJ/mol
# Density = 1.911889 g / cm^3
# Si number density = 19.162508 Si / 1000 Ang^3
#
#
#
# Elastic Constant Matrix: (Units=GPa)
#
#
# Indices 1 2 3 4 5 6 
#
# 1 129.2012 18.5996 59.3260 0.0000 0.0000 0.0000
# 2 18.5996 37.1653 15.1628 0.0000 0.0000 0.0000
# 3 59.3260 15.1628 125.5488 0.0000 0.0000 0.0000
# 4 0.0000 0.0000 0.0000 11.4667 0.0000 0.0000
# 5 0.0000 0.0000 0.0000 0.0000 34.2138 0.0000
# 6 0.0000 0.0000 0.0000 0.0000 0.0000 10.6027
#
#
#
# Elastic Compliance Matrix: (Units=1/GPa)
#
#
# Indices 1 2 3 4 5 6 
#
# 1 0.010260 -0.003320 -0.004447 0.000000 0.000000 0.000000
# 2 -0.003320 0.029376 -0.001979 0.000000 0.000000 0.000000
# 3 -0.004447 -0.001979 0.010305 0.000000 0.000000 0.000000
# 4 0.000000 0.000000 0.000000 0.087209 0.000000 0.000000
# 5 0.000000 0.000000 0.000000 0.000000 0.029228 0.000000
# 6 0.000000 0.000000 0.000000 0.000000 0.000000 0.094316
#
#
# Mechanical properties :
#
#
# Convention : Reuss Voigt Hill
#
# Bulk Modulus (GPa) = 32.84223 53.12135 42.98179
# Shear Modulus (GPa) = 17.22142 24.51176 20.86659
#
# Velocity S-wave (km/s) = 3.00109 3.58040 3.30347
# Velocity P-wave (km/s) = 5.40229 6.69881 6.08518
#
# Compressibility (1/GPa) = 0.03044861
#
# Stress axis : x y z
#
# Youngs Moduli (GPa) = 97.46714 34.04167 97.03614
#
# Poissons Ratio (x) = 0.11303 0.43153
# Poissons Ratio (y) = 0.32362 0.19202
# Poissons Ratio (z) = 0.43345 0.06736
#
# Static dielectric constant tensor:
#      x y z
#    x 3.483500 0.000000 0.000000 
#    y 0.000000 3.204530 0.000000 
#    z 0.000000 0.000000 3.711960 
# 
# 
# High freq. dielectric constant tensor:
#      x y z
#    x 1.729270 0.000000 0.000000 
#    y 0.000000 1.722870 0.000000 
#    z 0.000000 0.000000 1.764020 
# 
# From -- ./inp_files/24991.got.cif
#   From: 2010.03.12/outbox.cif.g09.slc.cpg/sg51_13_cif.got.tgz:24991.got - 2010.04.16 13:43:02.
