data_PCOD8209911
_publ_section_title
;
Structure prediction by ZEFSAII (Michael W. Deem and Ramdas Pophale) SiO2 
 PCOD8209911
Probable space group: P M M A
;
_chemical_formula_sum "Si O2"
_cell_formula_units_Z 48
_cell_length_a 28.441402
_cell_length_b 9.144031
_cell_length_c 9.992844
_cell_angle_alpha 90.000000
_cell_angle_beta 90.000000
_cell_angle_gamma 90.000000
_cell_volume 2598.829562
_symmetry_space_group_name_H-M "P M M A"
_symmetry_group_IT_number 51
_symmetry_cell_setting 'orthorhombic'
loop_
_space_group_symop_operation_xyz
x,y,z
1/2-x,-y,z
1/2+x,-y,-z
-x,y,-z
-x,-y,-z
1/2+x,y,-z
1/2-x,y,z
x,-y,z
loop_
_atom_site_type_symbol
_atom_site_label
_atom_site_fract_x
_atom_site_fract_y
_atom_site_fract_z
Si Si1 0.374062 0.327993 0.999286
Si Si2 0.696361 0.330165 0.770324
Si Si3 0.460969 0.836350 0.111993
Si Si4 0.479837 0.826222 0.638351
Si Si5 0.623045 0.826474 0.279571
Si Si6 0.803716 0.828365 0.504401
O O1 0.376452 0.500000 0.972592
O O2 0.332112 0.283729 0.098552
O O3 0.421867 0.277463 0.068428
O O4 0.364691 0.246605 0.860869
O O5 0.750000 0.287114 0.799367
O O6 0.690129 0.500000 0.738810
O O7 0.677511 0.245197 0.640220
O O8 0.484686 0.774102 0.246387
O O9 0.439827 0.000000 0.133897
O O10 0.500000 0.845965 0.000000
O O11 0.500000 0.761091 0.500000
O O12 0.427202 0.768016 0.666629
O O13 0.477996 0.000000 0.633142
O O14 0.663325 0.777098 0.382906
O O15 0.622024 0.000000 0.258360
O O16 0.750000 0.780594 0.472873
O O17 0.807747 0.000000 0.525971
#
# Coordination Sequence:
#
# PCOD8209911 Si02
#       6
#     8   8   8   8   8   8
#     4  11  23  36  54  81 111 143 183 228 270 313
#     4   9  20  39  58  77 107 146 184 220 264 325
#     4  10  19  35  57  78 105 142 181 216 262 326
#     4   9  18  32  52  78 103 135 179 218 255 315
#     4  10  20  36  55  78 110 143 178 220 269 325
#     4   9  19  35  57  85 111 136 174 228 281 322
#
# _framework density 18.469851999999999
#
# number of rings (size 3 to 8) (size 9 to 14) (size 15 to 20)
#    0.000    2.333    1.667    0.500    2.333    3.000 
#    0.000    0.000    0.000    1.000    0.000    0.000 
#    0.000    0.000    0.000    0.000    0.000    0.000 
#
# Total GULP energy -595256.906521 kJ/mol
# GULP energy per Si atom -12401.185553 kJ/mol
# Density = 1.842781 g / cm^3
# Si number density = 18.469852 Si / 1000 Ang^3
#
#
#
# Elastic Constant Matrix: (Units=GPa)
#
#
# Indices 1 2 3 4 5 6 
#
# 1 103.2387 37.6559 84.6804 0.0000 0.0000 0.0000
# 2 37.6559 38.0572 47.7718 0.0000 0.0000 0.0000
# 3 84.6804 47.7718 188.0086 0.0000 0.0000 0.0000
# 4 0.0000 0.0000 0.0000 25.1691 0.0000 0.0000
# 5 0.0000 0.0000 0.0000 0.0000 37.5389 0.0000
# 6 0.0000 0.0000 0.0000 0.0000 0.0000 25.4454
#
#
#
# Elastic Compliance Matrix: (Units=1/GPa)
#
#
# Indices 1 2 3 4 5 6 
#
# 1 0.018166 -0.011312 -0.005308 0.000000 0.000000 0.000000
# 2 -0.011312 0.045626 -0.006498 0.000000 0.000000 0.000000
# 3 -0.005308 -0.006498 0.009361 0.000000 0.000000 0.000000
# 4 0.000000 0.000000 0.000000 0.039731 0.000000 0.000000
# 5 0.000000 0.000000 0.000000 0.000000 0.026639 0.000000
# 6 0.000000 0.000000 0.000000 0.000000 0.000000 0.039300
#
#
# Mechanical properties :
#
#
# Convention : Reuss Voigt Hill
#
# Bulk Modulus (GPa) = 37.15157 74.39118 55.77137
# Shear Modulus (GPa) = 21.36477 28.24378 24.80427
#
# Velocity S-wave (km/s) = 3.40477 3.91472 3.66862
# Velocity P-wave (km/s) = 5.96783 7.79730 6.94309
#
# Compressibility (1/GPa) = 0.02691676
#
# Stress axis : x y z
#
# Youngs Moduli (GPa) = 55.04849 21.91748 106.82872
#
# Poissons Ratio (x) = 0.24792 0.56703
# Poissons Ratio (y) = 0.62268 0.69421
# Poissons Ratio (z) = 0.29219 0.14243
#
# Static dielectric constant tensor:
#      x y z
#    x 3.470170 0.000000 0.000000 
#    y 0.000000 3.174390 0.000000 
#    z 0.000000 0.000000 3.574990 
# 
# 
# High freq. dielectric constant tensor:
#      x y z
#    x 1.720800 0.000000 0.000000 
#    y 0.000000 1.690970 0.000000 
#    z 0.000000 0.000000 1.729300 
# 
# From -- ./inp_files/12834.got.cif
#   From: 2010.03.12/outbox.cif.g09.slc.cpg/sg51_7_cif.got.tgz:12834.got - 2010.04.16 13:43:02.
