data_PCOD8209330
_publ_section_title
;
Structure prediction by ZEFSAII (Michael W. Deem and Ramdas Pophale) SiO2 
 PCOD8209330
Probable space group: P M M A
;
_chemical_formula_sum "Si O2"
_cell_formula_units_Z 64
_cell_length_a 8.744326
_cell_length_b 14.768468
_cell_length_c 29.642915
_cell_angle_alpha 90.000000
_cell_angle_beta 90.000000
_cell_angle_gamma 90.000000
_cell_volume 3828.094898
_symmetry_space_group_name_H-M "P M M A"
_symmetry_group_IT_number 51
_symmetry_cell_setting 'orthorhombic'
loop_
_space_group_symop_operation_xyz
x,y,z
1/2-x,-y,z
1/2+x,-y,-z
-x,y,-z
-x,-y,-z
1/2+x,y,-z
1/2-x,y,z
x,-y,z
loop_
_atom_site_type_symbol
_atom_site_label
_atom_site_fract_x
_atom_site_fract_y
_atom_site_fract_z
Si Si1 0.568043 0.138105 0.545425
Si Si2 0.571370 0.601345 0.355091
Si Si3 0.578105 0.891967 0.954702
Si Si4 0.579584 0.107229 0.134926
Si Si5 0.427162 0.765600 0.305358
Si Si6 0.432752 0.336005 0.545749
Si Si7 0.931206 0.896798 0.772410
Si Si8 0.422851 0.902015 0.633296
O O1 0.500000 0.096162 0.500000
O O2 0.750000 0.126861 0.547981
O O3 0.519469 0.241919 0.549814
O O4 0.481940 0.080979 0.583247
O O5 0.750000 0.617055 0.351339
O O6 0.523320 0.500000 0.340697
O O7 0.499086 0.668864 0.317957
O O8 0.523297 0.612992 0.407714
O O9 0.750000 0.855610 0.953687
O O10 0.493384 0.852131 0.910674
O O11 0.573369 0.000000 0.954433
O O12 0.500000 0.854078 0.000000
O O13 0.750000 0.146461 0.140340
O O14 0.480825 0.136200 0.178122
O O15 0.582949 0.000000 0.130626
O O16 0.250000 0.748520 0.297782
O O17 0.497327 0.820660 0.262222
O O18 0.456648 0.832094 0.346737
O O19 0.500000 0.384799 0.500000
O O20 0.250000 0.324512 0.540843
O O21 0.750000 0.898374 0.769348
O O22 0.992579 0.000000 0.762477
O O23 0.250000 0.861930 0.634600
O O24 0.426615 0.000000 0.658035
#
# Coordination Sequence:
#
# PCOD8209330 Si02
#       8
#     8   8   8   8   8   8   8   8
#     4  11  21  34  53  73  96 123 151 182 219 262
#     4  10  22  39  57  76 100 128 154 184 226 277
#     4   9  15  22  33  50  76 112 153 198 245 286
#     4   9  16  25  38  58  83 113 154 199 239 281
#     4  11  22  36  55  76  97 122 154 195 237 278
#     4  10  19  33  54  76 100 124 149 179 217 266
#     4   9  18  32  48  67  93 123 155 194 241 286
#     4  11  23  37  53  73  97 125 155 187 224 269
#
# _framework density 16.718498
#
# number of rings (size 3 to 8) (size 9 to 14) (size 15 to 20)
#    0.000    2.000    1.250    4.125    0.000    6.750 
#    0.000    1.250    0.000    0.000    0.000    0.000 
#    0.000    0.000    0.000    0.000    0.000    0.625 
#
# Total GULP energy -793029.944213 kJ/mol
# GULP energy per Si atom -12391.092878 kJ/mol
# Density = 1.668045 g / cm^3
# Si number density = 16.718498 Si / 1000 Ang^3
#
#
#
# Elastic Constant Matrix: (Units=GPa)
#
#
# Indices 1 2 3 4 5 6 
#
# 1 57.0434 21.3702 27.2089 0.0000 0.0000 0.0000
# 2 21.3702 73.3383 41.4375 0.0000 0.0000 0.0000
# 3 27.2089 41.4375 120.1534 0.0000 0.0000 0.0000
# 4 0.0000 0.0000 0.0000 7.7828 0.0000 0.0000
# 5 0.0000 0.0000 0.0000 0.0000 28.7194 0.0000
# 6 0.0000 0.0000 0.0000 0.0000 0.0000 9.8849
#
#
#
# Elastic Compliance Matrix: (Units=1/GPa)
#
#
# Indices 1 2 3 4 5 6 
#
# 1 0.020640 -0.004190 -0.003229 0.000000 0.000000 0.000000
# 2 -0.004190 0.017786 -0.005185 0.000000 0.000000 0.000000
# 3 -0.003229 -0.005185 0.010842 0.000000 0.000000 0.000000
# 4 0.000000 0.000000 0.000000 0.128489 0.000000 0.000000
# 5 0.000000 0.000000 0.000000 0.000000 0.034820 0.000000
# 6 0.000000 0.000000 0.000000 0.000000 0.000000 0.101165
#
#
# Mechanical properties :
#
#
# Convention : Reuss Voigt Hill
#
# Bulk Modulus (GPa) = 41.56215 47.84093 44.70154
# Shear Modulus (GPa) = 14.41045 19.97864 17.19455
#
# Velocity S-wave (km/s) = 2.93908 3.46063 3.21046
# Velocity P-wave (km/s) = 6.03585 6.68174 6.36699
#
# Compressibility (1/GPa) = 0.02406035
#
# Stress axis : x y z
#
# Youngs Moduli (GPa) = 48.44864 56.22395 92.23302
#
# Poissons Ratio (x) = 0.23558 0.29783
# Poissons Ratio (y) = 0.20300 0.47823
# Poissons Ratio (z) = 0.15644 0.29152
#
# Static dielectric constant tensor:
#      x y z
#    x 3.198860 0.000000 0.000000 
#    y 0.000000 2.829170 0.000000 
#    z 0.000000 0.000000 3.348920 
# 
# 
# High freq. dielectric constant tensor:
#      x y z
#    x 1.653850 0.000000 0.000000 
#    y 0.000000 1.592620 0.000000 
#    z 0.000000 0.000000 1.637490 
# 
# From -- ./inp_files/37584.got.cif
#   From: 2010.03.12/outbox.cif.g09.slc.cpg/sg51_19_cif.got.tgz:37584.got - 2010.04.16 13:43:02.
