data_PCOD8209739
_publ_section_title
;
Structure prediction by ZEFSAII (Michael W. Deem and Ramdas Pophale) SiO2 
 PCOD8209739
Probable space group: P M M A
;
_chemical_formula_sum "Si O2"
_cell_formula_units_Z 64
_cell_length_a 28.567501
_cell_length_b 9.206562
_cell_length_c 12.599966
_cell_angle_alpha 90.000000
_cell_angle_beta 90.000000
_cell_angle_gamma 90.000000
_cell_volume 3313.897769
_symmetry_space_group_name_H-M "P M M A"
_symmetry_group_IT_number 51
_symmetry_cell_setting 'orthorhombic'
loop_
_space_group_symop_operation_xyz
x,y,z
1/2-x,-y,z
1/2+x,-y,-z
-x,y,-z
-x,-y,-z
1/2+x,y,-z
1/2-x,y,z
x,-y,z
loop_
_atom_site_type_symbol
_atom_site_label
_atom_site_fract_x
_atom_site_fract_y
_atom_site_fract_z
Si Si1 0.445309 0.834268 0.987616
Si Si2 0.663346 0.170025 0.289433
Si Si3 0.695448 0.831258 0.057744
Si Si4 0.380472 0.669953 0.346498
Si Si5 0.061081 0.170883 0.753524
Si Si6 0.022565 0.170479 0.386971
Si Si7 0.697485 0.668078 0.489181
Si Si8 0.630014 0.330017 0.895516
O O1 0.420572 0.735091 0.074919
O O2 0.427719 0.000000 0.000952
O O3 0.500000 0.823476 0.000000
O O4 0.432410 0.769487 0.872401
O O5 0.678573 0.224733 0.172858
O O6 0.608559 0.206742 0.310329
O O7 0.693279 0.250062 0.377862
O O8 0.673700 0.000000 0.299461
O O9 0.750000 0.801732 0.045642
O O10 0.682577 0.000000 0.045202
O O11 0.670351 0.744355 0.964223
O O12 0.389979 0.500000 0.361125
O O13 0.428268 0.751156 0.373622
O O14 0.339690 0.726996 0.424844
O O15 0.362224 0.703983 0.228319
O O16 0.015052 0.235802 0.697057
O O17 0.053183 0.000000 0.760874
O O18 0.000000 0.203441 0.500000
O O19 0.031298 0.000000 0.370545
O O20 0.750000 0.693588 0.533519
O O21 0.688103 0.500000 0.466590
O O22 0.630472 0.500000 0.919170
#
# Coordination Sequence:
#
# PCOD8209739 Si02
#       8
#     8   8   8   8   8   8   8   8
#     4  10  19  34  57  81 110 152 195 235 285 341
#     4  10  19  36  61  87 117 147 183 236 293 348
#     4  10  21  38  61  87 116 152 193 241 297 352
#     4  10  23  41  58  80 115 157 195 234 289 347
#     4   9  17  31  53  82 114 148 184 225 280 341
#     4  10  20  35  58  88 116 148 194 242 286 336
#     4  10  22  40  60  81 108 145 190 238 289 348
#     4  11  23  38  57  83 117 155 197 242 287 343
#
# _framework density 19.312605000000001
#
# number of rings (size 3 to 8) (size 9 to 14) (size 15 to 20)
#    0.000    2.000    1.250    2.250    0.000    6.000 
#    0.000    2.500    0.000    0.000    0.000    0.000 
#    0.000    0.000    0.000    0.000    0.000    0.000 
#
# Total GULP energy -793612.807982 kJ/mol
# GULP energy per Si atom -12400.200125 kJ/mol
# Density = 1.926865 g / cm^3
# Si number density = 19.312605 Si / 1000 Ang^3
#
#
#
# Elastic Constant Matrix: (Units=GPa)
#
#
# Indices 1 2 3 4 5 6 
#
# 1 130.0457 48.6997 62.3592 0.0000 0.0000 0.0000
# 2 48.6997 58.3084 54.0500 0.0000 0.0000 0.0000
# 3 62.3592 54.0500 121.2853 0.0000 0.0000 0.0000
# 4 0.0000 0.0000 0.0000 27.8654 0.0000 0.0000
# 5 0.0000 0.0000 0.0000 0.0000 34.1922 0.0000
# 6 0.0000 0.0000 0.0000 0.0000 0.0000 28.4986
#
#
#
# Elastic Compliance Matrix: (Units=1/GPa)
#
#
# Indices 1 2 3 4 5 6 
#
# 1 0.011736 -0.007171 -0.002838 0.000000 0.000000 0.000000
# 2 -0.007171 0.033603 -0.011288 0.000000 0.000000 0.000000
# 3 -0.002838 -0.011288 0.014735 0.000000 0.000000 0.000000
# 4 0.000000 0.000000 0.000000 0.035887 0.000000 0.000000
# 5 0.000000 0.000000 0.000000 0.000000 0.029246 0.000000
# 6 0.000000 0.000000 0.000000 0.000000 0.000000 0.035089
#
#
# Mechanical properties :
#
#
# Convention : Reuss Voigt Hill
#
# Bulk Modulus (GPa) = 57.21101 71.09526 64.15313
# Shear Modulus (GPa) = 23.95580 27.74661 25.85121
#
# Velocity S-wave (km/s) = 3.52579 3.79451 3.66261
# Velocity P-wave (km/s) = 6.80168 7.48936 7.15379
#
# Compressibility (1/GPa) = 0.01747915
#
# Stress axis : x y z
#
# Youngs Moduli (GPa) = 85.20736 29.75929 67.86636
#
# Poissons Ratio (x) = 0.21340 0.19264
# Poissons Ratio (y) = 0.61101 0.76607
# Poissons Ratio (z) = 0.24186 0.33592
#
# Static dielectric constant tensor:
#      x y z
#    x 3.685710 0.000000 0.000000 
#    y 0.000000 3.312620 0.000000 
#    z 0.000000 0.000000 3.794160 
# 
# 
# High freq. dielectric constant tensor:
#      x y z
#    x 1.767720 0.000000 0.000000 
#    y 0.000000 1.724510 0.000000 
#    z 0.000000 0.000000 1.759820 
# 
# From -- ./inp_files/19644.got.cif
#   From: 2010.03.12/outbox.cif.g09.slc.cpg/sg51_10_cif.got.tgz:19644.got - 2010.04.16 13:43:02.
