data_PCOD8209263
_publ_section_title
;
Structure prediction by ZEFSAII (Michael W. Deem and Ramdas Pophale) SiO2 
 PCOD8209263
Probable space group: P M M A
;
_chemical_formula_sum "Si O2"
_cell_formula_units_Z 56
_cell_length_a 19.386377
_cell_length_b 9.487421
_cell_length_c 17.442414
_cell_angle_alpha 90.000000
_cell_angle_beta 90.000000
_cell_angle_gamma 90.000000
_cell_volume 3208.126001
_symmetry_space_group_name_H-M "P M M A"
_symmetry_group_IT_number 51
_symmetry_cell_setting 'orthorhombic'
loop_
_space_group_symop_operation_xyz
x,y,z
1/2-x,-y,z
1/2+x,-y,-z
-x,y,-z
-x,-y,-z
1/2+x,y,-z
1/2-x,y,z
x,-y,z
loop_
_atom_site_type_symbol
_atom_site_label
_atom_site_fract_x
_atom_site_fract_y
_atom_site_fract_z
Si Si1 0.101382 0.333455 0.049024
Si Si2 0.171917 0.838868 0.169072
Si Si3 0.454046 0.666266 0.892494
Si Si4 0.579158 0.833844 0.688997
Si Si5 0.671418 0.663133 0.397326
Si Si6 0.444675 0.334060 0.721603
Si Si7 0.670904 0.836406 0.544584
O O1 0.112737 0.500000 0.057499
O O2 0.162668 0.253677 0.092438
O O3 0.030728 0.280020 0.088641
O O4 0.099348 0.285949 0.959278
O O5 0.250000 0.821586 0.198490
O O6 0.121836 0.785660 0.236450
O O7 0.155752 0.000000 0.148132
O O8 0.456821 0.500000 0.895250
O O9 0.431092 0.719712 0.808685
O O10 0.508121 0.749099 0.684574
O O11 0.623581 0.790707 0.615222
O O12 0.563902 0.000000 0.690377
O O13 0.750000 0.701703 0.375149
O O14 0.664071 0.500000 0.418972
O O15 0.624148 0.702725 0.325061
O O16 0.646034 0.750702 0.470480
O O17 0.461817 0.500000 0.719709
O O18 0.750000 0.800347 0.565430
O O19 0.662056 0.000000 0.525272
#
# Coordination Sequence:
#
# PCOD8209263 Si02
#       7
#     8   8   8   8   8   8   8
#     4   9  16  30  51  72  95 127 167 204 239 286
#     4  10  20  33  48  70 104 138 165 202 251 295
#     4   8  15  29  50  73  98 125 157 202 247 285
#     4  10  20  33  50  74 101 130 168 206 242 292
#     4   9  19  35  53  73  97 126 162 204 250 299
#     4  10  19  33  53  75 101 131 162 202 251 297
#     4   9  18  34  54  72  95 132 171 203 241 291
#
# _framework density 17.455673999999998
#
# number of rings (size 3 to 8) (size 9 to 14) (size 15 to 20)
#    0.000    2.714    1.429    1.286    0.000    3.714 
#    0.000    5.714    0.000    5.143    0.000    2.000 
#    0.000    0.000    0.000    0.000    0.000    0.000 
#
# Total GULP energy -694291.710976 kJ/mol
# GULP energy per Si atom -12398.066267 kJ/mol
# Density = 1.741594 g / cm^3
# Si number density = 17.455674 Si / 1000 Ang^3
#
#
#
# Elastic Constant Matrix: (Units=GPa)
#
#
# Indices 1 2 3 4 5 6 
#
# 1 83.8268 35.8842 64.1214 0.0000 0.0000 0.0000
# 2 35.8842 42.0281 47.1954 0.0000 0.0000 0.0000
# 3 64.1214 47.1954 149.9679 0.0000 0.0000 0.0000
# 4 0.0000 0.0000 0.0000 23.3668 0.0000 0.0000
# 5 0.0000 0.0000 0.0000 0.0000 30.2776 0.0000
# 6 0.0000 0.0000 0.0000 0.0000 0.0000 26.4096
#
#
#
# Elastic Compliance Matrix: (Units=1/GPa)
#
#
# Indices 1 2 3 4 5 6 
#
# 1 0.021126 -0.012209 -0.005191 0.000000 0.000000 0.000000
# 2 -0.012209 0.043854 -0.008581 0.000000 0.000000 0.000000
# 3 -0.005191 -0.008581 0.011588 0.000000 0.000000 0.000000
# 4 0.000000 0.000000 0.000000 0.042796 0.000000 0.000000
# 5 0.000000 0.000000 0.000000 0.000000 0.033028 0.000000
# 6 0.000000 0.000000 0.000000 0.000000 0.000000 0.037865
#
#
# Mechanical properties :
#
#
# Convention : Reuss Voigt Hill
#
# Bulk Modulus (GPa) = 40.63912 63.35833 51.99872
# Shear Modulus (GPa) = 19.96654 24.58559 22.27606
#
# Velocity S-wave (km/s) = 3.38574 3.75701 3.57620
# Velocity P-wave (km/s) = 6.21419 7.42938 6.84879
#
# Compressibility (1/GPa) = 0.02460683
#
# Stress axis : x y z
#
# Youngs Moduli (GPa) = 47.33458 22.80319 86.29749
#
# Poissons Ratio (x) = 0.27840 0.44794
# Poissons Ratio (y) = 0.57791 0.74049
# Poissons Ratio (z) = 0.24570 0.19567
#
# Static dielectric constant tensor:
#      x y z
#    x 3.129540 0.000000 0.000000 
#    y 0.000000 3.045150 0.000000 
#    z 0.000000 0.000000 3.533300 
# 
# 
# High freq. dielectric constant tensor:
#      x y z
#    x 1.661440 0.000000 0.000000 
#    y 0.000000 1.655160 0.000000 
#    z 0.000000 0.000000 1.682510 
# 
# From -- ./inp_files/30764.got.cif
#   From: 2010.03.12/outbox.cif.g09.slc.cpg/sg51_16_cif.got.tgz:30764.got - 2010.04.16 13:43:02.
