data_PCOD8209841
_publ_section_title
;
Structure prediction by ZEFSAII (Michael W. Deem and Ramdas Pophale) SiO2 
 PCOD8209841
Probable space group: P M M A
;
_chemical_formula_sum "Si O2"
_cell_formula_units_Z 64
_cell_length_a 17.470368
_cell_length_b 14.625784
_cell_length_c 12.486149
_cell_angle_alpha 90.000000
_cell_angle_beta 90.000000
_cell_angle_gamma 90.000000
_cell_volume 3190.433682
_symmetry_space_group_name_H-M "P M M A"
_symmetry_group_IT_number 51
_symmetry_cell_setting 'orthorhombic'
loop_
_space_group_symop_operation_xyz
x,y,z
1/2-x,-y,z
1/2+x,-y,-z
-x,y,-z
-x,-y,-z
1/2+x,y,-z
1/2-x,y,z
x,-y,z
loop_
_atom_site_type_symbol
_atom_site_label
_atom_site_fract_x
_atom_site_fract_y
_atom_site_fract_z
Si Si1 0.422941 0.282996 0.819096
Si Si2 0.104934 0.098241 0.245079
Si Si3 0.337522 0.604599 0.991015
Si Si4 0.586644 0.896758 0.506710
Si Si5 0.839144 0.605211 0.599900
Si Si6 0.457841 0.900924 0.888576
Si Si7 0.104298 0.705907 0.194841
Si Si8 0.838963 0.729920 0.399051
O O1 0.389690 0.359786 0.895673
O O2 0.398996 0.181631 0.863461
O O3 0.514127 0.290191 0.825523
O O4 0.390301 0.298752 0.701411
O O5 0.113804 0.106328 0.371661
O O6 0.141040 0.191022 0.196556
O O7 0.016313 0.095030 0.210957
O O8 0.142880 0.000000 0.208192
O O9 0.250000 0.617508 0.956433
O O10 0.358910 0.500000 0.010549
O O11 0.351686 0.655150 0.101827
O O12 0.500000 0.860184 0.500000
O O13 0.641094 0.832162 0.436989
O O14 0.592469 0.000000 0.460570
O O15 0.750000 0.612668 0.627271
O O16 0.865154 0.500000 0.589400
O O17 0.885259 0.653809 0.693957
O O18 0.858900 0.656212 0.489865
O O19 0.415636 0.000000 0.897141
O O20 0.500000 0.879272 0.000000
O O21 0.750000 0.726601 0.367113
#
# Coordination Sequence:
#
# PCOD8209841 Si02
#       8
#     8   8   8   8   8   8   8   8
#     4  11  23  38  62  91 123 154 200 256 306 364
#     4   9  17  30  52  86 123 155 191 239 299 355
#     4  11  25  44  64  86 118 161 203 249 316 386
#     4  10  19  34  59  87 119 160 207 254 301 359
#     4  10  22  40  60  84 118 161 205 251 312 376
#     4   9  17  32  56  88 123 158 197 241 297 362
#     4  11  20  37  66  94 119 151 201 261 308 354
#     4  11  24  40  59  84 123 170 206 247 308 379
#
# _framework density 20.059968999999999
#
# number of rings (size 3 to 8) (size 9 to 14) (size 15 to 20)
#    0.000    1.750    1.250    4.500    0.000    4.750 
#    0.000    1.875    0.000    3.375    0.000    0.000 
#    0.000    0.000    0.000    0.000    0.000    0.000 
#
# Total GULP energy -793410.944192 kJ/mol
# GULP energy per Si atom -12397.046003 kJ/mol
# Density = 2.001431 g / cm^3
# Si number density = 20.059969 Si / 1000 Ang^3
#
#
#
# Elastic Constant Matrix: (Units=GPa)
#
#
# Indices 1 2 3 4 5 6 
#
# 1 38.9959 35.5930 16.8271 0.0000 0.0000 0.0000
# 2 35.5930 175.8796 53.8029 0.0000 0.0000 0.0000
# 3 16.8271 53.8029 90.5046 0.0000 0.0000 0.0000
# 4 0.0000 0.0000 0.0000 -16.1328 0.0000 0.0000
# 5 0.0000 0.0000 0.0000 0.0000 28.9664 0.0000
# 6 0.0000 0.0000 0.0000 0.0000 0.0000 63.8144
#
#
#
# Elastic Compliance Matrix: (Units=1/GPa)
#
#
# Indices 1 2 3 4 5 6 
#
# 1 0.031932 -0.005679 -0.002561 0.000000 0.000000 0.000000
# 2 -0.005679 0.007959 -0.003676 0.000000 0.000000 0.000000
# 3 -0.002561 -0.003676 0.013711 0.000000 0.000000 0.000000
# 4 0.000000 0.000000 0.000000 -0.061985 0.000000 0.000000
# 5 0.000000 0.000000 0.000000 0.000000 0.034523 0.000000
# 6 0.000000 0.000000 0.000000 0.000000 0.000000 0.015670
#
#
# Mechanical properties :
#
#
# Convention : Reuss Voigt Hill
#
# Bulk Modulus (GPa) = 33.59014 57.53623 45.56319
# Shear Modulus (GPa) = 66.16868 28.60674 47.38771
#
# Velocity S-wave (km/s) = 5.74953 3.78042 4.86562
# Velocity P-wave (km/s) = 7.80111 6.91374 7.37079
#
# Compressibility (1/GPa) = 0.02977064
#
# Stress axis : x y z
#
# Youngs Moduli (GPa) = 31.31656 125.63794 72.93647
#
# Poissons Ratio (x) = 0.71345 0.18680
# Poissons Ratio (y) = 0.17784 0.26810
# Poissons Ratio (z) = 0.08021 0.46183
#
# Static dielectric constant tensor:
#      x y z
#    x 3.324280 0.000000 0.000000 
#    y 0.000000 4.226800 0.000000 
#    z 0.000000 0.000000 3.699080 
# 
# 
# High freq. dielectric constant tensor:
#      x y z
#    x 1.742980 0.000000 0.000000 
#    y 0.000000 1.806970 0.000000 
#    z 0.000000 0.000000 1.792190 
# 
# From -- ./inp_files/17550.got.cif
#   From: 2010.03.12/outbox.cif.g09.slc.cpg/sg51_9_cif.got.tgz:17550.got - 2010.04.16 13:43:02.
