data_PCOD8209042
_publ_section_title
;
Structure prediction by ZEFSAII (Michael W. Deem and Ramdas Pophale) SiO2 
 PCOD8209042
Probable space group: P M M A
;
_chemical_formula_sum "Si O2"
_cell_formula_units_Z 40
_cell_length_a 26.389847
_cell_length_b 8.655576
_cell_length_c 9.167302
_cell_angle_alpha 90.000000
_cell_angle_beta 90.000000
_cell_angle_gamma 90.000000
_cell_volume 2093.988947
_symmetry_space_group_name_H-M "P M M A"
_symmetry_group_IT_number 51
_symmetry_cell_setting 'orthorhombic'
loop_
_space_group_symop_operation_xyz
x,y,z
1/2-x,-y,z
1/2+x,-y,-z
-x,y,-z
-x,-y,-z
1/2+x,y,-z
1/2-x,y,z
x,-y,z
loop_
_atom_site_type_symbol
_atom_site_label
_atom_site_fract_x
_atom_site_fract_y
_atom_site_fract_z
Si Si1 0.003786 0.320716 0.329871
Si Si2 0.305131 0.319748 0.168962
Si Si3 0.404378 0.681555 0.839940
Si Si4 0.804557 0.821374 0.145068
Si Si5 0.093960 0.179569 0.158539
O O1 0.014237 0.500000 0.295854
O O2 0.952180 0.263841 0.254261
O O3 0.000000 0.287712 0.500000
O O4 0.049483 0.220222 0.268585
O O5 0.250000 0.273643 0.237999
O O6 0.315341 0.500000 0.191784
O O7 0.352532 0.225986 0.236744
O O8 0.303462 0.282703 0.998372
O O9 0.396960 0.500000 0.829528
O O10 0.354158 0.762339 0.767780
O O11 0.413265 0.729470 0.007266
O O12 0.750000 0.799028 0.227949
O O13 0.811800 0.000000 0.101772
O O14 0.093465 0.000000 0.122927
#
# Coordination Sequence:
#
# PCOD8209042 Si02
#       5
#     8   8   8   8   8
#     4  10  22  39  55  71  96 131 171 214 256 297
#     4   9  16  27  46  72 101 132 165 202 243 288
#     4  10  19  32  53  77 100 130 167 207 248 292
#     4   9  16  26  43  70 103 133 159 195 244 293
#     4  11  21  32  51  78 106 134 164 203 249 299
#
# _framework density 19.102297
#
# number of rings (size 3 to 8) (size 9 to 14) (size 15 to 20)
#    0.000    2.200    0.000    6.600    0.000    6.800 
#    0.000    0.000    0.000    1.200    0.000    2.800 
#    0.000    0.000    0.000    0.000    0.000    0.000 
#
# Total GULP energy -495666.765222 kJ/mol
# GULP energy per Si atom -12391.669131 kJ/mol
# Density = 1.905882 g / cm^3
# Si number density = 19.102297 Si / 1000 Ang^3
#
#
#
# Elastic Constant Matrix: (Units=GPa)
#
#
# Indices 1 2 3 4 5 6 
#
# 1 207.2887 54.1439 44.5780 0.0000 0.0000 0.0000
# 2 54.1439 55.5159 13.0620 0.0000 0.0000 0.0000
# 3 44.5780 13.0620 41.3892 0.0000 0.0000 0.0000
# 4 0.0000 0.0000 0.0000 3.0704 0.0000 0.0000
# 5 0.0000 0.0000 0.0000 0.0000 0.0651 0.0000
# 6 0.0000 0.0000 0.0000 0.0000 0.0000 29.9158
#
#
#
# Elastic Compliance Matrix: (Units=1/GPa)
#
#
# Indices 1 2 3 4 5 6 
#
# 1 0.007811 -0.006091 -0.006490 0.000000 0.000000 0.000000
# 2 -0.006091 0.024207 -0.001079 0.000000 0.000000 0.000000
# 3 -0.006490 -0.001079 0.031492 0.000000 0.000000 0.000000
# 4 0.000000 0.000000 0.000000 0.325690 0.000000 0.000000
# 5 0.000000 0.000000 0.000000 0.000000 15.366616 0.000000
# 6 0.000000 0.000000 0.000000 0.000000 0.000000 0.033427
#
#
# Mechanical properties :
#
#
# Convention : Reuss Voigt Hill
#
# Bulk Modulus (GPa) = 27.63302 58.64016 43.13659
# Shear Modulus (GPa) = 0.31588 19.43759 9.87674
#
# Velocity S-wave (km/s) = 0.40709 3.19337 2.27633
# Velocity P-wave (km/s) = 3.83643 6.66044 5.43505
#
# Compressibility (1/GPa) = 0.03618859
#
# Stress axis : x y z
#
# Youngs Moduli (GPa) = 128.02639 41.31028 31.75398
#
# Poissons Ratio (x) = 0.25161 0.20610
# Poissons Ratio (y) = 0.77978 0.03428
# Poissons Ratio (z) = 0.83095 0.04459
#
# Static dielectric constant tensor:
#      x y z
#    x 4.503860 0.000000 0.000000 
#    y 0.000000 3.485570 0.000000 
#    z 0.000000 0.000000 2.871010 
# 
# 
# High freq. dielectric constant tensor:
#      x y z
#    x 1.780540 0.000000 0.000000 
#    y 0.000000 1.750610 0.000000 
#    z 0.000000 0.000000 1.667260 
# 
# From -- ./inp_files/12103.got.cif
#   From: 2010.03.12/outbox.cif.g09.slc.cpg/sg51_7_cif.got.tgz:12103.got - 2010.04.16 13:43:02.
