data_PCOD8209812
_publ_section_title
;
Structure prediction by ZEFSAII (Michael W. Deem and Ramdas Pophale) SiO2 
 PCOD8209812
Probable space group: P M M A
;
_chemical_formula_sum "Si O2"
_cell_formula_units_Z 64
_cell_length_a 25.378272
_cell_length_b 9.107774
_cell_length_c 14.425219
_cell_angle_alpha 90.000000
_cell_angle_beta 90.000000
_cell_angle_gamma 90.000000
_cell_volume 3334.238857
_symmetry_space_group_name_H-M "P M M A"
_symmetry_group_IT_number 51
_symmetry_cell_setting 'orthorhombic'
loop_
_space_group_symop_operation_xyz
x,y,z
1/2-x,-y,z
1/2+x,-y,-z
-x,y,-z
-x,-y,-z
1/2+x,y,-z
1/2-x,y,z
x,-y,z
loop_
_atom_site_type_symbol
_atom_site_label
_atom_site_fract_x
_atom_site_fract_y
_atom_site_fract_z
Si Si1 0.102990 0.171252 0.117562
Si Si2 0.975074 0.826274 0.593160
Si Si3 0.189457 0.329410 0.234215
Si Si4 0.995610 0.173832 0.208015
Si Si5 0.144225 0.173762 0.407347
Si Si6 0.894649 0.829046 0.098713
Si Si7 0.688301 0.832825 0.397222
Si Si8 0.810899 0.328110 0.213870
O O1 0.153485 0.256741 0.155488
O O2 0.050054 0.234473 0.165048
O O3 0.110866 0.000000 0.141071
O O4 0.096893 0.199541 0.009059
O O5 0.915464 0.773562 0.608255
O O6 0.000000 0.755086 0.500000
O O7 0.008434 0.778913 0.683848
O O8 0.975218 0.000000 0.582145
O O9 0.250000 0.305810 0.204682
O O10 0.175289 0.500000 0.242084
O O11 0.180778 0.255012 0.333768
O O12 0.945237 0.236629 0.153277
O O13 0.996394 0.000000 0.196338
O O14 0.160003 0.223557 0.510348
O O15 0.151747 0.000000 0.394309
O O16 0.842645 0.743770 0.129973
O O17 0.886812 0.000000 0.120941
O O18 0.750000 0.816442 0.413733
O O19 0.668572 0.735096 0.311679
O O20 0.672195 0.000000 0.375084
O O21 0.750000 0.286777 0.198772
O O22 0.820478 0.500000 0.213890
#
# Coordination Sequence:
#
# PCOD8209812 Si02
#       8
#     8   8   8   8   8   8   8   8
#     4  10  20  38  60  85 112 143 187 238 287 335
#     4   9  17  28  50  86 118 143 174 218 275 334
#     4  11  24  39  56  81 115 155 194 234 286 345
#     4   9  17  33  57  85 116 145 178 227 283 339
#     4  10  19  34  58  85 113 146 187 232 277 330
#     4  10  21  35  60  89 111 141 186 238 287 337
#     4   9  18  32  53  81 109 139 182 233 277 322
#     4  10  22  39  56  77 112 154 190 228 278 337
#
# _framework density 19.194787000000002
#
# number of rings (size 3 to 8) (size 9 to 14) (size 15 to 20)
#    0.000    2.250    1.250    1.500    1.750    5.250 
#    0.000    4.375    0.000    1.875    0.000    0.000 
#    0.000    0.000    0.000    0.000    0.000    0.000 
#
# Total GULP energy -793703.071615 kJ/mol
# GULP energy per Si atom -12401.610494 kJ/mol
# Density = 1.915110 g / cm^3
# Si number density = 19.194787 Si / 1000 Ang^3
#
#
#
# Elastic Constant Matrix: (Units=GPa)
#
#
# Indices 1 2 3 4 5 6 
#
# 1 97.3801 39.2614 57.7568 0.0000 0.0000 0.0000
# 2 39.2614 51.9952 37.0537 0.0000 0.0000 0.0000
# 3 57.7568 37.0537 119.4782 0.0000 0.0000 0.0000
# 4 0.0000 0.0000 0.0000 12.7867 0.0000 0.0000
# 5 0.0000 0.0000 0.0000 0.0000 38.2729 0.0000
# 6 0.0000 0.0000 0.0000 0.0000 0.0000 14.7351
#
#
#
# Elastic Compliance Matrix: (Units=1/GPa)
#
#
# Indices 1 2 3 4 5 6 
#
# 1 0.017180 -0.009056 -0.005497 0.000000 0.000000 0.000000
# 2 -0.009056 0.029462 -0.004760 0.000000 0.000000 0.000000
# 3 -0.005497 -0.004760 0.012503 0.000000 0.000000 0.000000
# 4 0.000000 0.000000 0.000000 0.078206 0.000000 0.000000
# 5 0.000000 0.000000 0.000000 0.000000 0.026128 0.000000
# 6 0.000000 0.000000 0.000000 0.000000 0.000000 0.067865
#
#
# Mechanical properties :
#
#
# Convention : Reuss Voigt Hill
#
# Bulk Modulus (GPa) = 48.72877 59.66636 54.19756
# Shear Modulus (GPa) = 18.06301 22.14438 20.10370
#
# Velocity S-wave (km/s) = 3.07096 3.40025 3.23979
# Velocity P-wave (km/s) = 6.16571 6.82406 6.50322
#
# Compressibility (1/GPa) = 0.02052176
#
# Stress axis : x y z
#
# Youngs Moduli (GPa) = 58.20688 33.94181 79.98133
#
# Poissons Ratio (x) = 0.30736 0.43963
# Poissons Ratio (y) = 0.52709 0.38068
# Poissons Ratio (z) = 0.31994 0.16155
#
# Static dielectric constant tensor:
#      x y z
#    x 3.603690 0.000000 0.000000 
#    y 0.000000 3.170140 0.000000 
#    z 0.000000 0.000000 3.605340 
# 
# 
# High freq. dielectric constant tensor:
#      x y z
#    x 1.753340 0.000000 0.000000 
#    y 0.000000 1.706270 0.000000 
#    z 0.000000 0.000000 1.760060 
# 
# From -- ./inp_files/26295.got.cif
#   From: 2010.03.12/outbox.cif.g09.slc.cpg/sg51_14_cif.got.tgz:26295.got - 2010.04.16 13:43:02.
