data_PCOD8209555
_publ_section_title
;
Structure prediction by ZEFSAII (Michael W. Deem and Ramdas Pophale) SiO2 
 PCOD8209555
Probable space group: P M M A
;
_chemical_formula_sum "Si O2"
_cell_formula_units_Z 64
_cell_length_a 18.062602
_cell_length_b 14.098725
_cell_length_c 12.764977
_cell_angle_alpha 90.000000
_cell_angle_beta 90.000000
_cell_angle_gamma 90.000000
_cell_volume 3250.724682
_symmetry_space_group_name_H-M "P M M A"
_symmetry_group_IT_number 51
_symmetry_cell_setting 'orthorhombic'
loop_
_space_group_symop_operation_xyz
x,y,z
1/2-x,-y,z
1/2+x,-y,-z
-x,y,-z
-x,-y,-z
1/2+x,y,-z
1/2-x,y,z
x,-y,z
loop_
_atom_site_type_symbol
_atom_site_label
_atom_site_fract_x
_atom_site_fract_y
_atom_site_fract_z
Si Si1 0.041247 0.608338 0.105165
Si Si2 0.836860 0.393578 0.436931
Si Si3 0.424154 0.109566 0.714154
Si Si4 0.335114 0.760488 0.122975
Si Si5 0.586687 0.214751 0.495869
Si Si6 0.892560 0.606017 0.206045
Si Si7 0.333780 0.789004 0.888274
Si Si8 0.403426 0.890392 0.295243
O O1 0.067558 0.500000 0.090581
O O2 0.112627 0.669172 0.135074
O O3 0.981273 0.619021 0.198157
O O4 0.000000 0.644585 0.000000
O O5 0.750000 0.378084 0.428353
O O6 0.855313 0.500000 0.477258
O O7 0.871863 0.315268 0.513384
O O8 0.872671 0.374155 0.324916
O O9 0.392104 0.166850 0.614885
O O10 0.386478 0.144560 0.820351
O O11 0.510860 0.126742 0.730759
O O12 0.406223 0.000000 0.694571
O O13 0.250000 0.727077 0.134328
O O14 0.353183 0.836733 0.211562
O O15 0.347976 0.810211 0.010462
O O16 0.500000 0.233699 0.500000
O O17 0.613805 0.146024 0.587983
O O18 0.869002 0.500000 0.170948
O O19 0.849335 0.677659 0.130632
O O20 0.250000 0.812488 0.856401
O O21 0.381721 0.000000 0.290525
#
# Coordination Sequence:
#
# PCOD8209555 Si02
#       8
#     8   8   8   8   8   8   8   8
#     4  10  20  36  60  88 120 160 206 250 293 355
#     4  10  21  37  59  91 127 158 192 241 305 368
#     4  10  21  38  62  91 117 147 196 260 319 363
#     4  11  25  40  59  88 126 167 205 248 300 359
#     4  10  21  38  64  92 120 155 200 255 304 359
#     4  10  19  33  58  89 119 154 196 244 298 361
#     4  11  22  36  56  87 125 159 194 247 307 363
#     4  10  23  43  65  86 115 161 212 256 301 365
#
# _framework density 19.687918
#
# number of rings (size 3 to 8) (size 9 to 14) (size 15 to 20)
#    0.000    1.750    2.500    1.500    1.750    4.250 
#    0.000    4.375    0.000    2.250    0.000    0.000 
#    0.000    0.000    0.000    0.000    0.000    0.000 
#
# Total GULP energy -793749.914886 kJ/mol
# GULP energy per Si atom -12402.342420 kJ/mol
# Density = 1.964311 g / cm^3
# Si number density = 19.687918 Si / 1000 Ang^3
#
#
#
# Elastic Constant Matrix: (Units=GPa)
#
#
# Indices 1 2 3 4 5 6 
#
# 1 71.9600 46.1628 42.9773 0.0000 0.0000 0.0000
# 2 46.1628 107.9701 34.2019 0.0000 0.0000 0.0000
# 3 42.9773 34.2019 72.8651 0.0000 0.0000 0.0000
# 4 0.0000 0.0000 0.0000 39.9856 0.0000 0.0000
# 5 0.0000 0.0000 0.0000 0.0000 21.7376 0.0000
# 6 0.0000 0.0000 0.0000 0.0000 0.0000 21.5130
#
#
#
# Elastic Compliance Matrix: (Units=1/GPa)
#
#
# Indices 1 2 3 4 5 6 
#
# 1 0.025470 -0.007202 -0.011642 0.000000 0.000000 0.000000
# 2 -0.007202 0.012916 -0.001815 0.000000 0.000000 0.000000
# 3 -0.011642 -0.001815 0.021443 0.000000 0.000000 0.000000
# 4 0.000000 0.000000 0.000000 0.025009 0.000000 0.000000
# 5 0.000000 0.000000 0.000000 0.000000 0.046003 0.000000
# 6 0.000000 0.000000 0.000000 0.000000 0.000000 0.046483
#
#
# Mechanical properties :
#
#
# Convention : Reuss Voigt Hill
#
# Bulk Modulus (GPa) = 54.02251 55.49768 54.76010
# Shear Modulus (GPa) = 22.24086 25.27745 23.75916
#
# Velocity S-wave (km/s) = 3.36470 3.58705 3.47766
# Velocity P-wave (km/s) = 6.52641 6.73838 6.63324
#
# Compressibility (1/GPa) = 0.01851080
#
# Stress axis : x y z
#
# Youngs Moduli (GPa) = 39.26231 77.42453 46.63604
#
# Poissons Ratio (x) = 0.55759 0.54295
# Poissons Ratio (y) = 0.28276 0.08464
# Poissons Ratio (z) = 0.45710 0.14051
#
# Static dielectric constant tensor:
#      x y z
#    x 3.543270 0.000000 0.000000 
#    y 0.000000 3.654290 0.000000 
#    z 0.000000 0.000000 3.565770 
# 
# 
# High freq. dielectric constant tensor:
#      x y z
#    x 1.762640 0.000000 0.000000 
#    y 0.000000 1.771940 0.000000 
#    z 0.000000 0.000000 1.761880 
# 
# From -- ./inp_files/17526.got.cif
#   From: 2010.03.12/outbox.cif.g09.slc.cpg/sg51_9_cif.got.tgz:17526.got - 2010.04.16 13:43:02.
