data_PCOD8209456
_publ_section_title
;
Structure prediction by ZEFSAII (Michael W. Deem and Ramdas Pophale) SiO2 
 PCOD8209456
Probable space group: P M M A
;
_chemical_formula_sum "Si O2"
_cell_formula_units_Z 64
_cell_length_a 17.683320
_cell_length_b 8.991239
_cell_length_c 21.587233
_cell_angle_alpha 90.000000
_cell_angle_beta 90.000000
_cell_angle_gamma 90.000000
_cell_volume 3432.261170
_symmetry_space_group_name_H-M "P M M A"
_symmetry_group_IT_number 51
_symmetry_cell_setting 'orthorhombic'
loop_
_space_group_symop_operation_xyz
x,y,z
1/2-x,-y,z
1/2+x,-y,-z
-x,y,-z
-x,-y,-z
1/2+x,y,-z
1/2-x,y,z
x,-y,z
loop_
_atom_site_type_symbol
_atom_site_label
_atom_site_fract_x
_atom_site_fract_y
_atom_site_fract_z
Si Si1 0.662392 0.328129 0.217596
Si Si2 0.666367 0.170889 0.635729
Si Si3 0.662642 0.672732 0.993022
Si Si4 0.982124 0.825067 0.567512
Si Si5 0.452991 0.670483 0.680366
Si Si6 0.395312 0.326343 0.250573
Si Si7 0.593421 0.175257 0.876708
Si Si8 0.419240 0.825151 0.894177
O O1 0.750000 0.290016 0.224024
O O2 0.648650 0.500000 0.198637
O O3 0.625077 0.294365 0.284351
O O4 0.626619 0.223380 0.166098
O O5 0.750000 0.191116 0.606353
O O6 0.603433 0.222149 0.585930
O O7 0.662339 0.271114 0.696977
O O8 0.651500 0.000000 0.654709
O O9 0.750000 0.696790 0.010853
O O10 0.642797 0.500000 0.986246
O O11 0.645540 0.753643 0.928963
O O12 0.611303 0.741429 0.046182
O O13 0.000000 0.756369 0.500000
O O14 0.042106 0.764918 0.617571
O O15 0.992420 0.000000 0.565645
O O16 0.459392 0.500000 0.660285
O O17 0.519881 0.712474 0.727722
O O18 0.383385 0.500000 0.238594
O O19 0.377428 0.238669 0.188155
O O20 0.506411 0.219823 0.887049
O O21 0.604943 0.000000 0.877483
O O22 0.408902 0.000000 0.904080
#
# Coordination Sequence:
#
# PCOD8209456 Si02
#       8
#     8   8   8   8   8   8   8   8
#     4  10  20  35  56  81 110 144 181 222 271 325
#     4   9  18  33  53  77 108 145 182 222 271 323
#     4  11  25  42  58  78 106 142 183 227 275 326
#     4   9  18  33  54  79 107 143 185 225 265 316
#     4   9  18  33  53  78 107 139 177 218 262 315
#     4  10  19  33  55  80 106 138 176 220 269 318
#     4  11  23  38  58  83 109 141 180 223 272 328
#     4  11  23  38  58  83 110 140 180 226 272 325
#
# _framework density 18.646598000000001
#
# number of rings (size 3 to 8) (size 9 to 14) (size 15 to 20)
#    0.000    2.000    1.250    2.250    0.000    7.750 
#    0.000    0.625    0.000    0.750    0.000    0.000 
#    0.000    0.000    0.000    0.000    0.000    0.000 
#
# Total GULP energy -793802.527869 kJ/mol
# GULP energy per Si atom -12403.164498 kJ/mol
# Density = 1.860416 g / cm^3
# Si number density = 18.646598 Si / 1000 Ang^3
#
#
#
# Elastic Constant Matrix: (Units=GPa)
#
#
# Indices 1 2 3 4 5 6 
#
# 1 69.3826 27.7984 28.5519 0.0000 0.0000 0.0000
# 2 27.7984 62.0593 40.9292 0.0000 0.0000 0.0000
# 3 28.5519 40.9292 125.9957 0.0000 0.0000 0.0000
# 4 0.0000 0.0000 0.0000 28.5544 0.0000 0.0000
# 5 0.0000 0.0000 0.0000 0.0000 19.8575 0.0000
# 6 0.0000 0.0000 0.0000 0.0000 0.0000 25.2781
#
#
#
# Elastic Compliance Matrix: (Units=1/GPa)
#
#
# Indices 1 2 3 4 5 6 
#
# 1 0.017897 -0.006798 -0.001847 0.000000 0.000000 0.000000
# 2 -0.006798 0.023090 -0.005960 0.000000 0.000000 0.000000
# 3 -0.001847 -0.005960 0.010291 0.000000 0.000000 0.000000
# 4 0.000000 0.000000 0.000000 0.035021 0.000000 0.000000
# 5 0.000000 0.000000 0.000000 0.000000 0.050359 0.000000
# 6 0.000000 0.000000 0.000000 0.000000 0.000000 0.039560
#
#
# Mechanical properties :
#
#
# Convention : Reuss Voigt Hill
#
# Bulk Modulus (GPa) = 45.31693 50.22183 47.76938
# Shear Modulus (GPa) = 23.49803 25.41521 24.45662
#
# Velocity S-wave (km/s) = 3.55375 3.69588 3.62551
# Velocity P-wave (km/s) = 6.41831 6.72344 6.57265
#
# Compressibility (1/GPa) = 0.02206681
#
# Stress axis : x y z
#
# Youngs Moduli (GPa) = 55.87613 43.30969 97.16805
#
# Poissons Ratio (x) = 0.29443 0.17949
# Poissons Ratio (y) = 0.37986 0.57912
# Poissons Ratio (z) = 0.10321 0.25813
#
# Static dielectric constant tensor:
#      x y z
#    x 3.495210 0.000000 0.000000 
#    y 0.000000 3.446430 0.000000 
#    z 0.000000 0.000000 3.500280 
# 
# 
# High freq. dielectric constant tensor:
#      x y z
#    x 1.722570 0.000000 0.000000 
#    y 0.000000 1.726890 0.000000 
#    z 0.000000 0.000000 1.719840 
# 
# From -- ./inp_files/33762.got.cif
#   From: 2010.03.12/outbox.cif.g09.slc.cpg/sg51_17_cif.got.tgz:33762.got - 2010.04.16 13:43:02.
