data_PCOD8209316
_publ_section_title
;
Structure prediction by ZEFSAII (Michael W. Deem and Ramdas Pophale) SiO2 
 PCOD8209316
Probable space group: P M M A
;
_chemical_formula_sum "Si O2"
_cell_formula_units_Z 64
_cell_length_a 8.890162
_cell_length_b 20.366056
_cell_length_c 19.727273
_cell_angle_alpha 90.000000
_cell_angle_beta 90.000000
_cell_angle_gamma 90.000000
_cell_volume 3571.771464
_symmetry_space_group_name_H-M "P M M A"
_symmetry_group_IT_number 51
_symmetry_cell_setting 'orthorhombic'
loop_
_space_group_symop_operation_xyz
x,y,z
1/2-x,-y,z
1/2+x,-y,-z
-x,y,-z
-x,-y,-z
1/2+x,y,-z
1/2-x,y,z
x,-y,z
loop_
_atom_site_type_symbol
_atom_site_label
_atom_site_fract_x
_atom_site_fract_y
_atom_site_fract_z
Si Si1 0.574055 0.625968 0.931044
Si Si2 0.427421 0.222723 0.069945
Si Si3 0.071208 0.817870 0.795570
Si Si4 0.076211 0.573813 0.801223
Si Si5 0.577862 0.074724 0.704809
Si Si6 0.576996 0.732079 0.432140
Si Si7 0.425141 0.886396 0.569275
Si Si8 0.928579 0.692588 0.288567
O O1 0.750000 0.616811 0.938295
O O2 0.528812 0.701394 0.917689
O O3 0.515784 0.581699 0.869960
O O4 0.500000 0.599944 0.000000
O O5 0.250000 0.211861 0.066896
O O6 0.497597 0.180212 0.130311
O O7 0.500000 0.197675 0.000000
O O8 0.250000 0.817752 0.802405
O O9 0.011436 0.753447 0.755953
O O10 0.019924 0.882269 0.756017
O O11 0.250000 0.588878 0.817365
O O12 0.053563 0.500000 0.773502
O O13 0.015945 0.624294 0.744299
O O14 0.750000 0.099880 0.703087
O O15 0.508376 0.077548 0.630088
O O16 0.570079 0.000000 0.730555
O O17 0.500000 0.704817 0.500000
O O18 0.750000 0.714680 0.440137
O O19 0.550015 0.809030 0.422331
O O20 0.507643 0.696957 0.365324
O O21 0.500000 0.911683 0.500000
O O22 0.250000 0.905113 0.569598
O O23 0.750000 0.697332 0.292177
#
# Coordination Sequence:
#
# PCOD8209316 Si02
#       8
#     8   8   8   8   8   8   8   8
#     4  10  20  33  51  75 106 143 179 218 261 313
#     4  10  20  34  54  83 112 141 178 221 270 321
#     4  11  20  35  59  82 107 141 179 226 272 318
#     4  10  20  34  53  76 104 141 181 222 269 320
#     4  11  24  39  54  77 111 147 183 225 269 320
#     4   9  17  31  50  76 104 133 169 216 266 313
#     4  10  19  33  53  78 107 143 183 222 269 323
#     4   9  17  32  53  77 105 135 174 220 267 315
#
# _framework density 17.918278999999998
#
# number of rings (size 3 to 8) (size 9 to 14) (size 15 to 20)
#    0.000    2.000    2.500    1.875    0.000    3.250 
#    0.000    0.625    0.000    0.750    0.000    0.000 
#    0.000    0.000    0.000    0.000    0.000    0.000 
#
# Total GULP energy -793751.669005 kJ/mol
# GULP energy per Si atom -12402.369828 kJ/mol
# Density = 1.787750 g / cm^3
# Si number density = 17.918279 Si / 1000 Ang^3
#
#
#
# Elastic Constant Matrix: (Units=GPa)
#
#
# Indices 1 2 3 4 5 6 
#
# 1 70.1070 28.9962 41.0950 0.0000 0.0000 0.0000
# 2 28.9962 73.4599 51.2307 0.0000 0.0000 0.0000
# 3 41.0950 51.2307 144.4121 0.0000 0.0000 0.0000
# 4 0.0000 0.0000 0.0000 21.8513 0.0000 0.0000
# 5 0.0000 0.0000 0.0000 0.0000 34.1011 0.0000
# 6 0.0000 0.0000 0.0000 0.0000 0.0000 19.9151
#
#
#
# Elastic Compliance Matrix: (Units=1/GPa)
#
#
# Indices 1 2 3 4 5 6 
#
# 1 0.018297 -0.004772 -0.003514 0.000000 0.000000 0.000000
# 2 -0.004772 0.019332 -0.005500 0.000000 0.000000 0.000000
# 3 -0.003514 -0.005500 0.009876 0.000000 0.000000 0.000000
# 4 0.000000 0.000000 0.000000 0.045764 0.000000 0.000000
# 5 0.000000 0.000000 0.000000 0.000000 0.029325 0.000000
# 6 0.000000 0.000000 0.000000 0.000000 0.000000 0.050213
#
#
# Mechanical properties :
#
#
# Convention : Reuss Voigt Hill
#
# Bulk Modulus (GPa) = 50.16713 58.95808 54.56261
# Shear Modulus (GPa) = 24.15184 26.28398 25.21791
#
# Velocity S-wave (km/s) = 3.67534 3.83414 3.75558
# Velocity P-wave (km/s) = 6.78744 7.25094 7.02302
#
# Compressibility (1/GPa) = 0.01993337
#
# Stress axis : x y z
#
# Youngs Moduli (GPa) = 54.65287 51.72705 101.25689
#
# Poissons Ratio (x) = 0.24682 0.35582
# Poissons Ratio (y) = 0.26078 0.55695
# Poissons Ratio (z) = 0.19205 0.28452
#
# Static dielectric constant tensor:
#      x y z
#    x 3.257120 0.000000 0.000000 
#    y 0.000000 3.135620 0.000000 
#    z 0.000000 0.000000 3.490830 
# 
# 
# High freq. dielectric constant tensor:
#      x y z
#    x 1.691420 0.000000 0.000000 
#    y 0.000000 1.666190 0.000000 
#    z 0.000000 0.000000 1.700130 
# 
# From -- ./inp_files/28345.got.cif
#   From: 2010.03.12/outbox.cif.g09.slc.cpg/sg51_15_cif.got.tgz:28345.got - 2010.04.16 13:43:02.
