data_PCOD8209193
_publ_section_title
;
Structure prediction by ZEFSAII (Michael W. Deem and Ramdas Pophale) SiO2 
 PCOD8209193
Probable space group: P M M A
;
_chemical_formula_sum "Si O2"
_cell_formula_units_Z 52
_cell_length_a 8.988569
_cell_length_b 13.946646
_cell_length_c 23.586526
_cell_angle_alpha 90.000000
_cell_angle_beta 90.000000
_cell_angle_gamma 90.000000
_cell_volume 2956.816096
_symmetry_space_group_name_H-M "P M M A"
_symmetry_group_IT_number 51
_symmetry_cell_setting 'orthorhombic'
loop_
_space_group_symop_operation_xyz
x,y,z
1/2-x,-y,z
1/2+x,-y,-z
-x,y,-z
-x,-y,-z
1/2+x,y,-z
1/2-x,y,z
x,-y,z
loop_
_atom_site_type_symbol
_atom_site_label
_atom_site_fract_x
_atom_site_fract_y
_atom_site_fract_z
Si Si1 0.424014 0.792512 0.938740
Si Si2 0.084035 0.609284 0.761779
Si Si3 0.574555 0.889255 0.262075
Si Si4 0.423841 0.237354 0.171669
Si Si5 0.083657 0.725331 0.652787
Si Si6 0.083517 0.000000 0.942980
Si Si7 0.924543 0.391236 0.559522
O O1 0.250000 0.765985 0.944136
O O2 0.505635 0.734220 0.889598
O O3 0.450216 0.900045 0.911947
O O4 0.500000 0.777014 0.000000
O O5 0.250000 0.629597 0.787151
O O6 0.038721 0.500000 0.767822
O O7 0.085251 0.637386 0.696263
O O8 0.955361 0.667678 0.792732
O O9 0.750000 0.877073 0.251803
O O10 0.495633 0.853463 0.204436
O O11 0.526102 0.823126 0.315845
O O12 0.531108 0.000000 0.273893
O O13 0.250000 0.218203 0.164645
O O14 0.250000 0.743145 0.628878
O O15 0.976825 0.691950 0.602419
O O16 0.250000 0.000000 0.964126
O O17 0.000000 0.000000 0.000000
O O18 0.750000 0.380812 0.551833
O O19 0.965931 0.500000 0.579689
O O20 0.000000 0.368983 0.500000
#
# Coordination Sequence:
#
# PCOD8209193 Si02
#       7
#     8   8   8   8   8   4   8
#     4  10  19  33  50  70  96 129 166 204 249 300
#     4   9  18  34  55  76  99 131 169 207 249 299
#     4   9  19  36  55  73  98 135 175 212 251 296
#     4  11  22  33  48  75 105 133 165 204 252 302
#     4   9  17  31  52  77 102 130 165 206 252 300
#     4   8  16  28  44  64  86 116 152 190 231 278
#     4  10  20  32  48  73 105 139 171 205 248 297
#
# _framework density 17.586483999999999
#
# number of rings (size 3 to 8) (size 9 to 14) (size 15 to 20)
#    0.000    2.462    0.000    3.692    1.077    5.231 
#    0.000    0.000    0.000    0.923    0.000    0.000 
#    0.000    0.000    0.000    0.000    0.000    0.000 
#
# Total GULP energy -644245.417398 kJ/mol
# GULP energy per Si atom -12389.334950 kJ/mol
# Density = 1.754646 g / cm^3
# Si number density = 17.586484 Si / 1000 Ang^3
#
#
#
# Elastic Constant Matrix: (Units=GPa)
#
#
# Indices 1 2 3 4 5 6 
#
# 1 90.2474 32.2972 54.3420 0.0000 0.0000 0.0000
# 2 32.2972 90.3053 43.8981 0.0000 0.0000 0.0000
# 3 54.3420 43.8981 104.1659 0.0000 0.0000 0.0000
# 4 0.0000 0.0000 0.0000 13.5213 0.0000 0.0000
# 5 0.0000 0.0000 0.0000 0.0000 31.1997 0.0000
# 6 0.0000 0.0000 0.0000 0.0000 0.0000 21.4727
#
#
#
# Elastic Compliance Matrix: (Units=1/GPa)
#
#
# Indices 1 2 3 4 5 6 
#
# 1 0.016483 -0.002157 -0.007690 0.000000 0.000000 0.000000
# 2 -0.002157 0.014209 -0.004863 0.000000 0.000000 0.000000
# 3 -0.007690 -0.004863 0.015661 0.000000 0.000000 0.000000
# 4 0.000000 0.000000 0.000000 0.073957 0.000000 0.000000
# 5 0.000000 0.000000 0.000000 0.000000 0.032052 0.000000
# 6 0.000000 0.000000 0.000000 0.000000 0.000000 0.046571
#
#
# Mechanical properties :
#
#
# Convention : Reuss Voigt Hill
#
# Bulk Modulus (GPa) = 59.05389 60.64370 59.84880
# Shear Modulus (GPa) = 21.36785 23.51749 22.44267
#
# Velocity S-wave (km/s) = 3.48949 3.66081 3.57617
# Velocity P-wave (km/s) = 7.06310 7.24063 7.15241
#
# Compressibility (1/GPa) = 0.01693368
#
# Stress axis : x y z
#
# Youngs Moduli (GPa) = 60.66831 70.37920 63.85236
#
# Poissons Ratio (x) = 0.15180 0.49103
# Poissons Ratio (y) = 0.13085 0.31049
# Poissons Ratio (z) = 0.46654 0.34223
#
# Static dielectric constant tensor:
#      x y z
#    x 3.231240 0.000000 0.000000 
#    y 0.000000 3.284150 0.000000 
#    z 0.000000 0.000000 3.087730 
# 
# 
# High freq. dielectric constant tensor:
#      x y z
#    x 1.680930 0.000000 0.000000 
#    y 0.000000 1.663800 0.000000 
#    z 0.000000 0.000000 1.667830 
# 
# From -- ./inp_files/31749.got.cif
#   From: 2010.03.12/outbox.cif.g09.slc.cpg/sg51_16_cif.got.tgz:31749.got - 2010.04.16 13:43:02.
