data_PCOD8209643
_publ_section_title
;
Structure prediction by ZEFSAII (Michael W. Deem and Ramdas Pophale) SiO2 
 PCOD8209643
Probable space group: P M M A
;
_chemical_formula_sum "Si O2"
_cell_formula_units_Z 64
_cell_length_a 8.789786
_cell_length_b 25.744162
_cell_length_c 14.418639
_cell_angle_alpha 90.000000
_cell_angle_beta 90.000000
_cell_angle_gamma 90.000000
_cell_volume 3262.731455
_symmetry_space_group_name_H-M "P M M A"
_symmetry_group_IT_number 51
_symmetry_cell_setting 'orthorhombic'
loop_
_space_group_symop_operation_xyz
x,y,z
1/2-x,-y,z
1/2+x,-y,-z
-x,y,-z
-x,-y,-z
1/2+x,y,-z
1/2-x,y,z
x,-y,z
loop_
_atom_site_type_symbol
_atom_site_label
_atom_site_fract_x
_atom_site_fract_y
_atom_site_fract_z
Si Si1 0.082764 0.941041 0.413103
Si Si2 0.427624 0.161766 0.207508
Si Si3 0.573838 0.560450 0.902804
Si Si4 0.927022 0.203556 0.593634
Si Si5 0.928162 0.057813 0.220533
Si Si6 0.929738 0.644533 0.221129
Si Si7 0.929827 0.743044 0.100902
Si Si8 0.069774 0.679272 0.404524
O O1 0.250000 0.914524 0.392445
O O2 0.000000 0.913089 0.500000
O O3 0.969012 0.938091 0.327840
O O4 0.116476 0.000000 0.440250
O O5 0.250000 0.169056 0.188785
O O6 0.467255 0.167553 0.317529
O O7 0.480563 0.104708 0.170836
O O8 0.515799 0.204249 0.148737
O O9 0.750000 0.576344 0.905372
O O10 0.551449 0.500000 0.881027
O O11 0.486188 0.591505 0.824099
O O12 0.500000 0.576014 0.000000
O O13 0.750000 0.206649 0.576031
O O14 0.988073 0.261679 0.612261
O O15 0.000000 0.180064 0.500000
O O16 0.750000 0.066679 0.206547
O O17 0.975337 0.000000 0.182833
O O18 0.750000 0.644053 0.230996
O O19 0.985327 0.694109 0.161528
O O20 0.004772 0.644918 0.321861
O O21 0.750000 0.744664 0.091585
O O22 0.000000 0.737269 0.000000
O O23 0.250000 0.674554 0.407270
O O24 0.000000 0.657689 0.500000
#
# Coordination Sequence:
#
# PCOD8209643 Si02
#       8
#     8   8   8   8   8   8   8   8
#     4   9  16  27  44  66  93 127 168 213 261 314
#     4  11  22  38  58  82 112 146 185 230 284 340
#     4  10  21  37  58  86 122 164 208 255 305 355
#     4   9  19  33  52  78 109 147 186 230 279 332
#     4  10  21  36  53  74 101 136 178 223 274 334
#     4  11  22  36  59  90 122 161 203 243 291 347
#     4  11  24  40  60  87 118 150 186 230 285 345
#     4  10  19  34  55  82 118 157 199 245 291 344
#
# _framework density 19.615466000000001
#
# number of rings (size 3 to 8) (size 9 to 14) (size 15 to 20)
#    0.000    1.875    1.250    3.000    0.000    7.500 
#    0.000    1.250    0.000    0.750    0.000    0.000 
#    0.000    0.000    0.000    0.000    0.000    0.000 
#
# Total GULP energy -793534.238597 kJ/mol
# GULP energy per Si atom -12398.972478 kJ/mol
# Density = 1.957082 g / cm^3
# Si number density = 19.615466 Si / 1000 Ang^3
#
#
#
# Elastic Constant Matrix: (Units=GPa)
#
#
# Indices 1 2 3 4 5 6 
#
# 1 80.1475 31.6609 43.0364 0.0000 0.0000 0.0000
# 2 31.6609 86.7777 47.0896 0.0000 0.0000 0.0000
# 3 43.0364 47.0896 103.7754 0.0000 0.0000 0.0000
# 4 0.0000 0.0000 0.0000 -22.3799 0.0000 0.0000
# 5 0.0000 0.0000 0.0000 0.0000 34.6793 0.0000
# 6 0.0000 0.0000 0.0000 0.0000 0.0000 26.3689
#
#
#
# Elastic Compliance Matrix: (Units=1/GPa)
#
#
# Indices 1 2 3 4 5 6 
#
# 1 0.016653 -0.003089 -0.005504 0.000000 0.000000 0.000000
# 2 -0.003089 0.015861 -0.005916 0.000000 0.000000 0.000000
# 3 -0.005504 -0.005916 0.014604 0.000000 0.000000 0.000000
# 4 0.000000 0.000000 0.000000 -0.044683 0.000000 0.000000
# 5 0.000000 0.000000 0.000000 0.000000 0.028836 0.000000
# 6 0.000000 0.000000 0.000000 0.000000 0.000000 0.037924
#
#
# Mechanical properties :
#
#
# Convention : Reuss Voigt Hill
#
# Bulk Modulus (GPa) = 55.25349 57.14161 56.19755
# Shear Modulus (GPa) = 47.96364 17.66123 32.81243
#
# Velocity S-wave (km/s) = 4.95026 3.00388 4.09440
# Velocity P-wave (km/s) = 7.80403 6.42068 7.14591
#
# Compressibility (1/GPa) = 0.01809840
#
# Stress axis : x y z
#
# Youngs Moduli (GPa) = 60.04956 63.04738 68.47662
#
# Poissons Ratio (x) = 0.19474 0.37693
# Poissons Ratio (y) = 0.18548 0.40512
# Poissons Ratio (z) = 0.33054 0.37300
#
# Static dielectric constant tensor:
#      x y z
#    x 3.987170 0.000000 0.000000 
#    y 0.000000 3.668680 0.000000 
#    z 0.000000 0.000000 3.483540 
# 
# 
# High freq. dielectric constant tensor:
#      x y z
#    x 1.776140 0.000000 0.000000 
#    y 0.000000 1.761650 0.000000 
#    z 0.000000 0.000000 1.742620 
# 
# From -- ./inp_files/22364.got.cif
#   From: 2010.03.12/outbox.cif.g09.slc.cpg/sg51_12_cif.got.tgz:22364.got - 2010.04.16 13:43:02.
