data_PCOD8209543
_publ_section_title
;
Structure prediction by ZEFSAII (Michael W. Deem and Ramdas Pophale) SiO2 
 PCOD8209543
Probable space group: P M M A
;
_chemical_formula_sum "Si O2"
_cell_formula_units_Z 48
_cell_length_a 8.850621
_cell_length_b 14.146661
_cell_length_c 20.733573
_cell_angle_alpha 90.000000
_cell_angle_beta 90.000000
_cell_angle_gamma 90.000000
_cell_volume 2595.982979
_symmetry_space_group_name_H-M "P M M A"
_symmetry_group_IT_number 51
_symmetry_cell_setting 'orthorhombic'
loop_
_space_group_symop_operation_xyz
x,y,z
1/2-x,-y,z
1/2+x,-y,-z
-x,y,-z
-x,-y,-z
1/2+x,y,-z
1/2-x,y,z
x,-y,z
loop_
_atom_site_type_symbol
_atom_site_label
_atom_site_fract_x
_atom_site_fract_y
_atom_site_fract_z
Si Si1 0.575125 0.609943 0.317201
Si Si2 0.927666 0.722674 0.189037
Si Si3 0.924252 0.893082 0.754212
Si Si4 0.427925 0.285497 0.434944
Si Si5 0.926734 0.892809 0.381812
Si Si6 0.571575 0.392573 0.065510
O O1 0.750000 0.628252 0.333497
O O2 0.539280 0.500000 0.309227
O O3 0.528713 0.659767 0.250739
O O4 0.475980 0.651377 0.374651
O O5 0.750000 0.742112 0.185919
O O6 0.985843 0.669140 0.125517
O O7 0.016097 0.822215 0.191011
O O8 0.750000 0.873054 0.737219
O O9 0.023817 0.873770 0.691226
O O10 0.946409 0.000000 0.779388
O O11 0.500000 0.328664 0.500000
O O12 0.250000 0.287148 0.441666
O O13 0.483555 0.177351 0.428303
O O14 0.750000 0.871064 0.386941
O O15 0.965505 0.000000 0.402490
O O16 0.750000 0.387717 0.059475
O O17 0.516751 0.500000 0.076825
O O18 0.500000 0.351273 0.000000
#
# Coordination Sequence:
#
# PCOD8209543 Si02
#       6
#     8   8   8   8   8   8
#     4  10  21  38  59  82 108 140 181 229 277 326
#     4  10  19  33  57  84 112 146 184 225 271 323
#     4  10  20  33  52  81 114 145 178 221 273 325
#     4  12  25  40  58  79 108 144 183 228 278 332
#     4  10  20  36  58  82 109 141 178 222 274 331
#     4   9  18  33  53  81 116 152 187 223 268 322
#
# _framework density 18.490106000000001
#
# number of rings (size 3 to 8) (size 9 to 14) (size 15 to 20)
#    0.000    1.833    1.667    3.000    0.000    5.667 
#    0.000    0.000    0.000    3.500    0.000    0.000 
#    0.000    0.000    0.000    0.000    0.000    0.000 
#
# Total GULP energy -595374.278964 kJ/mol
# GULP energy per Si atom -12403.630812 kJ/mol
# Density = 1.844802 g / cm^3
# Si number density = 18.490106 Si / 1000 Ang^3
#
#
#
# Elastic Constant Matrix: (Units=GPa)
#
#
# Indices 1 2 3 4 5 6 
#
# 1 85.8745 41.6125 49.9358 0.0000 0.0000 0.0000
# 2 41.6125 99.3369 54.6746 0.0000 0.0000 0.0000
# 3 49.9358 54.6746 129.4939 0.0000 0.0000 0.0000
# 4 0.0000 0.0000 0.0000 26.4174 0.0000 0.0000
# 5 0.0000 0.0000 0.0000 0.0000 30.2241 0.0000
# 6 0.0000 0.0000 0.0000 0.0000 0.0000 27.7352
#
#
#
# Elastic Compliance Matrix: (Units=1/GPa)
#
#
# Indices 1 2 3 4 5 6 
#
# 1 0.016369 -0.004407 -0.004452 0.000000 0.000000 0.000000
# 2 -0.004407 0.014301 -0.004339 0.000000 0.000000 0.000000
# 3 -0.004452 -0.004339 0.011271 0.000000 0.000000 0.000000
# 4 0.000000 0.000000 0.000000 0.037854 0.000000 0.000000
# 5 0.000000 0.000000 0.000000 0.000000 0.033086 0.000000
# 6 0.000000 0.000000 0.000000 0.000000 0.000000 0.036055
#
#
# Mechanical properties :
#
#
# Convention : Reuss Voigt Hill
#
# Bulk Modulus (GPa) = 64.32364 67.46121 65.89242
# Shear Modulus (GPa) = 27.69897 28.10750 27.90323
#
# Velocity S-wave (km/s) = 3.87465 3.90312 3.88892
# Velocity P-wave (km/s) = 7.40817 7.54167 7.47521
#
# Compressibility (1/GPa) = 0.01554638
#
# Stress axis : x y z
#
# Youngs Moduli (GPa) = 61.09137 69.92630 88.72440
#
# Poissons Ratio (x) = 0.30815 0.39496
# Poissons Ratio (y) = 0.26922 0.38494
# Poissons Ratio (z) = 0.27195 0.30339
#
# Static dielectric constant tensor:
#      x y z
#    x 3.338440 0.000000 0.000000 
#    y 0.000000 3.544920 0.000000 
#    z 0.000000 0.000000 3.341850 
# 
# 
# High freq. dielectric constant tensor:
#      x y z
#    x 1.718170 0.000000 0.000000 
#    y 0.000000 1.720650 0.000000 
#    z 0.000000 0.000000 1.703240 
# 
# From -- ./inp_files/27516.got.cif
#   From: 2010.03.12/outbox.cif.g09.slc.cpg/sg51_14_cif.got.tgz:27516.got - 2010.04.16 13:43:02.
