data_PCOD8209214
_publ_section_title
;
Structure prediction by ZEFSAII (Michael W. Deem and Ramdas Pophale) SiO2 
 PCOD8209214
Probable space group: P M M A
;
_chemical_formula_sum "Si O2"
_cell_formula_units_Z 64
_cell_length_a 23.823644
_cell_length_b 9.128511
_cell_length_c 16.264577
_cell_angle_alpha 90.000000
_cell_angle_beta 90.000000
_cell_angle_gamma 90.000000
_cell_volume 3537.129064
_symmetry_space_group_name_H-M "P M M A"
_symmetry_group_IT_number 51
_symmetry_cell_setting 'orthorhombic'
loop_
_space_group_symop_operation_xyz
x,y,z
1/2-x,-y,z
1/2+x,-y,-z
-x,y,-z
-x,-y,-z
1/2+x,y,-z
1/2-x,y,z
x,-y,z
loop_
_atom_site_type_symbol
_atom_site_label
_atom_site_fract_x
_atom_site_fract_y
_atom_site_fract_z
Si Si1 0.527094 0.169655 0.273138
Si Si2 0.892094 0.666631 0.382673
Si Si3 0.063033 0.669783 0.028752
Si Si4 0.911365 0.828219 0.802038
Si Si5 0.313692 0.335584 0.771567
Si Si6 0.685092 0.330314 0.709343
Si Si7 0.187614 0.326062 0.477650
Si Si8 0.105576 0.171545 0.875324
O O1 0.551460 0.249664 0.354214
O O2 0.460966 0.203151 0.264025
O O3 0.557365 0.222870 0.188988
O O4 0.539822 0.000000 0.285912
O O5 0.910316 0.500000 0.399078
O O6 0.845680 0.681048 0.313295
O O7 0.862157 0.736166 0.463776
O O8 0.078440 0.500000 0.038272
O O9 0.073382 0.748981 0.114112
O O10 0.101971 0.742262 0.960266
O O11 0.000000 0.694726 0.000000
O O12 0.852832 0.768582 0.767969
O O13 0.905990 0.000000 0.819762
O O14 0.250000 0.299297 0.751689
O O15 0.321646 0.500000 0.807037
O O16 0.334803 0.216968 0.837275
O O17 0.750000 0.303224 0.732476
O O18 0.669324 0.500000 0.722156
O O19 0.673495 0.281884 0.615666
O O20 0.250000 0.265081 0.500999
O O21 0.189551 0.500000 0.487314
O O22 0.102634 0.000000 0.893366
#
# Coordination Sequence:
#
# PCOD8209214 Si02
#       8
#     8   8   8   8   8   8   8   8
#     4   9  19  33  48  71 106 143 171 205 257 309
#     4   9  16  27  49  78 104 135 178 220 259 306
#     4  11  22  35  56  83 106 129 167 215 260 308
#     4  11  22  37  57  79 106 140 176 213 259 317
#     4   9  17  29  46  71 105 140 174 215 260 305
#     4   9  19  37  59  81 106 136 173 221 272 315
#     4   8  14  28  52  79 105 135 175 223 270 312
#     4  10  19  33  51  72 103 138 173 211 251 305
#
# _framework density 18.093772000000001
#
# number of rings (size 3 to 8) (size 9 to 14) (size 15 to 20)
#    0.000    2.500    1.250    2.250    0.000    4.000 
#    0.000    1.875    0.000    9.375    0.000    0.000 
#    0.000    0.000    0.000    0.000    0.000    0.000 
#
# Total GULP energy -793443.034853 kJ/mol
# GULP energy per Si atom -12397.547420 kJ/mol
# Density = 1.805259 g / cm^3
# Si number density = 18.093772 Si / 1000 Ang^3
#
#
#
# Elastic Constant Matrix: (Units=GPa)
#
#
# Indices 1 2 3 4 5 6 
#
# 1 81.1860 44.9596 39.3868 0.0000 0.0000 0.0000
# 2 44.9596 76.3926 50.9415 0.0000 0.0000 0.0000
# 3 39.3868 50.9415 84.6891 0.0000 0.0000 0.0000
# 4 0.0000 0.0000 0.0000 12.9698 0.0000 0.0000
# 5 0.0000 0.0000 0.0000 0.0000 26.5837 0.0000
# 6 0.0000 0.0000 0.0000 0.0000 0.0000 26.2014
#
#
#
# Elastic Compliance Matrix: (Units=1/GPa)
#
#
# Indices 1 2 3 4 5 6 
#
# 1 0.018875 -0.008774 -0.003500 0.000000 0.000000 0.000000
# 2 -0.008774 0.025936 -0.011520 0.000000 0.000000 0.000000
# 3 -0.003500 -0.011520 0.020365 0.000000 0.000000 0.000000
# 4 0.000000 0.000000 0.000000 0.077102 0.000000 0.000000
# 5 0.000000 0.000000 0.000000 0.000000 0.037617 0.000000
# 6 0.000000 0.000000 0.000000 0.000000 0.000000 0.038166
#
#
# Mechanical properties :
#
#
# Convention : Reuss Voigt Hill
#
# Bulk Modulus (GPa) = 56.86134 56.98261 56.92198
# Shear Modulus (GPa) = 18.41531 20.28298 19.34914
#
# Velocity S-wave (km/s) = 3.19371 3.35175 3.27369
# Velocity P-wave (km/s) = 6.71520 6.82205 6.76883
#
# Compressibility (1/GPa) = 0.01758664
#
# Stress axis : x y z
#
# Youngs Moduli (GPa) = 52.98133 38.55584 49.10272
#
# Poissons Ratio (x) = 0.33830 0.17188
# Poissons Ratio (y) = 0.46487 0.56568
# Poissons Ratio (z) = 0.18545 0.44418
#
# Static dielectric constant tensor:
#      x y z
#    x 3.344980 0.000000 0.000000 
#    y 0.000000 3.240800 0.000000 
#    z 0.000000 0.000000 3.364590 
# 
# 
# High freq. dielectric constant tensor:
#      x y z
#    x 1.694140 0.000000 0.000000 
#    y 0.000000 1.687580 0.000000 
#    z 0.000000 0.000000 1.692740 
# 
# From -- ./inp_files/26304.got.cif
#   From: 2010.03.12/outbox.cif.g09.slc.cpg/sg51_14_cif.got.tgz:26304.got - 2010.04.16 13:43:02.
