data_PCOD8209331
_publ_section_title
;
Structure prediction by ZEFSAII (Michael W. Deem and Ramdas Pophale) SiO2 
 PCOD8209331
Probable space group: P M M A
;
_chemical_formula_sum "Si O2"
_cell_formula_units_Z 40
_cell_length_a 20.438290
_cell_length_b 11.611859
_cell_length_c 9.301680
_cell_angle_alpha 90.000000
_cell_angle_beta 90.000000
_cell_angle_gamma 90.000000
_cell_volume 2207.535546
_symmetry_space_group_name_H-M "P M M A"
_symmetry_group_IT_number 51
_symmetry_cell_setting 'orthorhombic'
loop_
_space_group_symop_operation_xyz
x,y,z
1/2-x,-y,z
1/2+x,-y,-z
-x,y,-z
-x,-y,-z
1/2+x,y,-z
1/2-x,y,z
x,-y,z
loop_
_atom_site_type_symbol
_atom_site_label
_atom_site_fract_x
_atom_site_fract_y
_atom_site_fract_z
Si Si1 0.750000 0.125574 0.668948
Si Si2 0.896919 0.500000 0.441298
Si Si3 0.032842 0.500000 0.276663
Si Si4 0.390202 0.137130 0.351287
Si Si5 0.494321 0.740703 0.164665
Si Si6 0.250000 0.127336 0.671879
Si Si7 0.878121 0.255024 0.351414
O O1 0.680598 0.185702 0.709091
O O2 0.750000 0.115646 0.497784
O O3 0.750000 0.000000 0.741597
O O4 0.905671 0.500000 0.614205
O O5 0.858161 0.386058 0.392177
O O6 0.967651 0.500000 0.369528
O O7 0.036107 0.387176 0.177100
O O8 0.446637 0.168578 0.240744
O O9 0.405530 0.191982 0.506373
O O10 0.386154 0.000000 0.371447
O O11 0.565630 0.748298 0.233255
O O12 0.500000 0.776807 0.000000
O O13 0.184904 0.195077 0.720120
O O14 0.250000 0.000000 0.742981
#
# Coordination Sequence:
#
# PCOD8209331 Si02
#       7
#     4   4   4   8   8   4   8
#     4   7  14  30  50  72  95 127 170 210 260 312
#     4   9  16  29  56  83 101 128 174 225 258 311
#     4   9  17  34  52  75 105 137 172 212 271 319
#     4  10  19  33  54  76 103 139 178 224 270 318
#     4  11  22  34  52  78 108 141 179 222 267 319
#     4   9  18  33  54  78 107 140 173 214 266 324
#     4  10  19  34  55  80 105 137 177 220 269 316
#
# _framework density 18.119754
#
# number of rings (size 3 to 8) (size 9 to 14) (size 15 to 20)
#    0.000    2.400    2.000    2.700    0.000    3.200 
#    0.000    1.000    0.000    1.800    0.000    2.800 
#    0.000    0.000    0.000    0.000    0.000    0.000 
#
# Total GULP energy -495774.654662 kJ/mol
# GULP energy per Si atom -12394.366367 kJ/mol
# Density = 1.807851 g / cm^3
# Si number density = 18.119754 Si / 1000 Ang^3
#
#
#
# Elastic Constant Matrix: (Units=GPa)
#
#
# Indices 1 2 3 4 5 6 
#
# 1 107.3074 48.8465 39.9887 0.0000 0.0000 0.0000
# 2 48.8465 116.5093 28.6771 0.0000 0.0000 0.0000
# 3 39.9887 28.6771 87.1164 0.0000 0.0000 0.0000
# 4 0.0000 0.0000 0.0000 11.3205 0.0000 0.0000
# 5 0.0000 0.0000 0.0000 0.0000 3.3596 0.0000
# 6 0.0000 0.0000 0.0000 0.0000 0.0000 29.1442
#
#
#
# Elastic Compliance Matrix: (Units=1/GPa)
#
#
# Indices 1 2 3 4 5 6 
#
# 1 0.012977 -0.004325 -0.004533 0.000000 0.000000 0.000000
# 2 -0.004325 0.010781 -0.001564 0.000000 0.000000 0.000000
# 3 -0.004533 -0.001564 0.014074 0.000000 0.000000 0.000000
# 4 0.000000 0.000000 0.000000 0.088335 0.000000 0.000000
# 5 0.000000 0.000000 0.000000 0.000000 0.297652 0.000000
# 6 0.000000 0.000000 0.000000 0.000000 0.000000 0.034312
#
#
# Mechanical properties :
#
#
# Convention : Reuss Voigt Hill
#
# Bulk Modulus (GPa) = 58.86099 60.66197 59.76148
# Shear Modulus (GPa) = 10.31698 21.65959 15.98828
#
# Velocity S-wave (km/s) = 2.38875 3.46115 2.97369
# Velocity P-wave (km/s) = 6.33744 7.03731 6.69652
#
# Compressibility (1/GPa) = 0.01698918
#
# Stress axis : x y z
#
# Youngs Moduli (GPa) = 77.05944 92.75509 71.05065
#
# Poissons Ratio (x) = 0.40115 0.32208
# Poissons Ratio (y) = 0.33327 0.11110
# Poissons Ratio (z) = 0.34932 0.14504
#
# Static dielectric constant tensor:
#      x y z
#    x 3.549470 0.000000 0.000000 
#    y 0.000000 3.543710 0.000000 
#    z 0.000000 0.000000 2.921320 
# 
# 
# High freq. dielectric constant tensor:
#      x y z
#    x 1.700160 0.000000 0.000000 
#    y 0.000000 1.706650 0.000000 
#    z 0.000000 0.000000 1.659550 
# 
# From -- ./inp_files/10721.got.cif
#   From: 2010.03.12/outbox.cif.g09.slc.cpg/sg51_6_cif.got.tgz:10721.got - 2010.04.16 13:43:02.
