data_PCOD8209795
_publ_section_title
;
Structure prediction by ZEFSAII (Michael W. Deem and Ramdas Pophale) SiO2 
 PCOD8209795
Probable space group: P M M A
;
_chemical_formula_sum "Si O2"
_cell_formula_units_Z 64
_cell_length_a 15.196707
_cell_length_b 9.260551
_cell_length_c 24.132272
_cell_angle_alpha 90.000000
_cell_angle_beta 90.000000
_cell_angle_gamma 90.000000
_cell_volume 3396.131748
_symmetry_space_group_name_H-M "P M M A"
_symmetry_group_IT_number 51
_symmetry_cell_setting 'orthorhombic'
loop_
_space_group_symop_operation_xyz
x,y,z
1/2-x,-y,z
1/2+x,-y,-z
-x,y,-z
-x,-y,-z
1/2+x,y,-z
1/2-x,y,z
x,-y,z
loop_
_atom_site_type_symbol
_atom_site_label
_atom_site_fract_x
_atom_site_fract_y
_atom_site_fract_z
Si Si1 0.995893 0.329638 0.809155
Si Si2 0.648547 0.669552 0.894755
Si Si3 0.649035 0.330855 0.110959
Si Si4 0.145794 0.837803 0.997158
Si Si5 0.652304 0.665487 0.606212
Si Si6 0.150001 0.834751 0.621886
Si Si7 0.502087 0.671965 0.314741
Si Si8 0.100902 0.168479 0.499700
O O1 0.991726 0.500000 0.804883
O O2 0.087464 0.282561 0.838012
O O3 0.992030 0.264660 0.747344
O O4 0.910990 0.275876 0.843612
O O5 0.750000 0.706842 0.881085
O O6 0.636457 0.500000 0.906194
O O7 0.613006 0.752905 0.948725
O O8 0.750000 0.291272 0.125817
O O9 0.639513 0.500000 0.097878
O O10 0.613698 0.245701 0.057413
O O11 0.250000 0.841264 0.997427
O O12 0.106819 0.000000 0.997297
O O13 0.750000 0.681497 0.632177
O O14 0.629936 0.500000 0.593057
O O15 0.581680 0.727390 0.649993
O O16 0.651029 0.749971 0.548764
O O17 0.250000 0.817329 0.642054
O O18 0.091344 0.733073 0.659832
O O19 0.143486 0.786450 0.557970
O O20 0.117465 0.000000 0.627654
O O21 0.508307 0.500000 0.314549
O O22 0.000000 0.216825 0.500000
O O23 0.111826 0.000000 0.487937
#
# Coordination Sequence:
#
# PCOD8209795 Si02
#       8
#     8   8   8   8   8   8   8   8
#     4   9  19  34  52  75  99 129 172 215 250 291
#     4   9  17  31  52  75  99 130 167 205 247 297
#     4   9  17  31  51  72  96 128 165 205 248 296
#     4   9  17  30  49  74 104 132 159 199 252 305
#     4  10  21  35  53  80 112 143 174 213 264 317
#     4  10  21  37  56  79 107 138 173 215 264 315
#     4  10  21  37  55  76 105 139 178 221 262 307
#     4  10  19  34  58  82 106 138 175 216 261 312
#
# _framework density 18.84497
#
# number of rings (size 3 to 8) (size 9 to 14) (size 15 to 20)
#    0.000    2.500    1.250    0.750    0.000    4.750 
#    0.000    8.125    0.000    1.500    0.000    1.750 
#    0.000    0.000    0.000    0.000    0.000    0.000 
#
# Total GULP energy -793604.565507 kJ/mol
# GULP energy per Si atom -12400.071336 kJ/mol
# Density = 1.880208 g / cm^3
# Si number density = 18.844970 Si / 1000 Ang^3
#
#
#
# Elastic Constant Matrix: (Units=GPa)
#
#
# Indices 1 2 3 4 5 6 
#
# 1 99.8832 25.7690 58.5142 0.0000 0.0000 0.0000
# 2 25.7690 45.5585 40.4979 0.0000 0.0000 0.0000
# 3 58.5142 40.4979 150.4621 0.0000 0.0000 0.0000
# 4 0.0000 0.0000 0.0000 7.6759 0.0000 0.0000
# 5 0.0000 0.0000 0.0000 0.0000 14.6205 0.0000
# 6 0.0000 0.0000 0.0000 0.0000 0.0000 16.7808
#
#
#
# Elastic Compliance Matrix: (Units=1/GPa)
#
#
# Indices 1 2 3 4 5 6 
#
# 1 0.013472 -0.003895 -0.004191 0.000000 0.000000 0.000000
# 2 -0.003895 0.029979 -0.006554 0.000000 0.000000 0.000000
# 3 -0.004191 -0.006554 0.010040 0.000000 0.000000 0.000000
# 4 0.000000 0.000000 0.000000 0.130277 0.000000 0.000000
# 5 0.000000 0.000000 0.000000 0.000000 0.068397 0.000000
# 6 0.000000 0.000000 0.000000 0.000000 0.000000 0.059592
#
#
# Mechanical properties :
#
#
# Convention : Reuss Voigt Hill
#
# Bulk Modulus (GPa) = 41.30331 60.60730 50.95531
# Shear Modulus (GPa) = 14.32226 19.22365 16.77295
#
# Velocity S-wave (km/s) = 2.75981 3.19736 2.98661
# Velocity P-wave (km/s) = 5.66749 6.77212 6.24428
#
# Compressibility (1/GPa) = 0.02421113
#
# Stress axis : x y z
#
# Youngs Moduli (GPa) = 74.23065 33.35658 99.60000
#
# Poissons Ratio (x) = 0.12991 0.41740
# Poissons Ratio (y) = 0.28909 0.65283
# Poissons Ratio (z) = 0.31108 0.21864
#
# Static dielectric constant tensor:
#      x y z
#    x 3.497900 0.000000 0.000000 
#    y 0.000000 3.296850 0.000000 
#    z 0.000000 0.000000 3.593460 
# 
# 
# High freq. dielectric constant tensor:
#      x y z
#    x 1.739220 0.000000 0.000000 
#    y 0.000000 1.708470 0.000000 
#    z 0.000000 0.000000 1.727850 
# 
# From -- ./inp_files/35678.got.cif
#   From: 2010.03.12/outbox.cif.g09.slc.cpg/sg51_18_cif.got.tgz:35678.got - 2010.04.16 13:43:02.
