data_PCOD8209710
_publ_section_title
;
Structure prediction by ZEFSAII (Michael W. Deem and Ramdas Pophale) SiO2 
 PCOD8209710
Probable space group: P M M A
;
_chemical_formula_sum "Si O2"
_cell_formula_units_Z 48
_cell_length_a 8.598155
_cell_length_b 30.954750
_cell_length_c 9.313186
_cell_angle_alpha 90.000000
_cell_angle_beta 90.000000
_cell_angle_gamma 90.000000
_cell_volume 2478.739271
_symmetry_space_group_name_H-M "P M M A"
_symmetry_group_IT_number 51
_symmetry_cell_setting 'orthorhombic'
loop_
_space_group_symop_operation_xyz
x,y,z
1/2-x,-y,z
1/2+x,-y,-z
-x,y,-z
-x,-y,-z
1/2+x,y,-z
1/2-x,y,z
x,-y,z
loop_
_atom_site_type_symbol
_atom_site_label
_atom_site_fract_x
_atom_site_fract_y
_atom_site_fract_z
Si Si1 0.065408 0.331668 0.154156
Si Si2 0.930603 0.000000 0.345579
Si Si3 0.565914 0.093715 0.339845
Si Si4 0.565334 0.576403 0.156259
Si Si5 0.066084 0.829502 0.158202
Si Si6 0.065448 0.500000 0.342015
Si Si7 0.066758 0.749021 0.342237
O O1 0.250000 0.337490 0.143116
O O2 0.014699 0.295465 0.267710
O O3 0.988322 0.376195 0.206062
O O4 0.000000 0.317547 0.000000
O O5 0.977873 0.045895 0.273496
O O6 0.000000 0.000000 0.500000
O O7 0.750000 0.000000 0.368915
O O8 0.500000 0.100125 0.500000
O O9 0.750000 0.101326 0.345212
O O10 0.488377 0.126581 0.231192
O O11 0.750000 0.573485 0.153499
O O12 0.496660 0.542711 0.266865
O O13 0.500000 0.565188 0.000000
O O14 0.250000 0.828849 0.149402
O O15 0.001751 0.789155 0.250253
O O16 0.000000 0.825763 0.000000
O O17 0.250000 0.500000 0.341881
O O18 0.000000 0.500000 0.500000
O O19 0.250000 0.751880 0.352200
O O20 0.000000 0.751343 0.500000
#
# Coordination Sequence:
#
# PCOD8209710 Si02
#       7
#     8   4   8   8   8   4   8
#     4  10  20  37  59  86 115 148 188 232 278 332
#     4   8  16  30  51  78 109 142 180 222 272 326
#     4  10  19  34  56  83 112 145 183 228 275 330
#     4  11  22  39  62  89 118 154 194 236 282 335
#     4  11  23  39  57  81 110 146 187 232 282 335
#     4  12  25  42  61  86 118 154 194 240 289 340
#     4  10  23  39  58  83 113 146 185 228 277 333
#
# _framework density 19.364682999999999
#
# number of rings (size 3 to 8) (size 9 to 14) (size 15 to 20)
#    0.000    1.667    0.000    6.000    0.000    5.333 
#    0.000    2.083    0.000    0.000    0.000    0.000 
#    0.000    0.000    0.000    0.000    0.000    0.000 
#
# Total GULP energy -595128.481673 kJ/mol
# GULP energy per Si atom -12398.510035 kJ/mol
# Density = 1.932061 g / cm^3
# Si number density = 19.364683 Si / 1000 Ang^3
#
#
#
# Elastic Constant Matrix: (Units=GPa)
#
#
# Indices 1 2 3 4 5 6 
#
# 1 107.7690 63.7015 53.4262 0.0000 0.0000 0.0000
# 2 63.7015 176.9655 112.5695 0.0000 0.0000 0.0000
# 3 53.4262 112.5695 154.0394 0.0000 0.0000 0.0000
# 4 0.0000 0.0000 0.0000 70.1408 0.0000 0.0000
# 5 0.0000 0.0000 0.0000 0.0000 36.4459 0.0000
# 6 0.0000 0.0000 0.0000 0.0000 0.0000 50.5201
#
#
#
# Elastic Compliance Matrix: (Units=1/GPa)
#
#
# Indices 1 2 3 4 5 6 
#
# 1 0.012075 -0.003144 -0.001890 0.000000 0.000000 0.000000
# 2 -0.003144 0.011378 -0.007224 0.000000 0.000000 0.000000
# 3 -0.001890 -0.007224 0.012427 0.000000 0.000000 0.000000
# 4 0.000000 0.000000 0.000000 0.014257 0.000000 0.000000
# 5 0.000000 0.000000 0.000000 0.000000 0.027438 0.000000
# 6 0.000000 0.000000 0.000000 0.000000 0.000000 0.019794
#
#
# Mechanical properties :
#
#
# Convention : Reuss Voigt Hill
#
# Bulk Modulus (GPa) = 88.01159 99.79647 93.90403
# Shear Modulus (GPa) = 39.78553 45.35981 42.57267
#
# Velocity S-wave (km/s) = 4.53762 4.84508 4.69387
# Velocity P-wave (km/s) = 8.54409 9.10752 8.83030
#
# Compressibility (1/GPa) = 0.01136214
#
# Stress axis : x y z
#
# Youngs Moduli (GPa) = 82.81833 87.88797 80.46987
#
# Poissons Ratio (x) = 0.27632 0.15211
# Poissons Ratio (y) = 0.26038 0.58135
# Poissons Ratio (z) = 0.15655 0.63495
#
# Static dielectric constant tensor:
#      x y z
#    x 3.713570 0.000000 0.000000 
#    y 0.000000 4.034410 0.000000 
#    z 0.000000 0.000000 3.468270 
# 
# 
# High freq. dielectric constant tensor:
#      x y z
#    x 1.766520 0.000000 0.000000 
#    y 0.000000 1.778890 0.000000 
#    z 0.000000 0.000000 1.742280 
# 
# From -- ./inp_files/6128.got.cif
#   From: 2010.03.12/outbox.cif.g09.slc.cpg/sg51_4_cif.got.tgz:6128.got - 2010.04.16 13:43:02.
