data_PCOD8209968
_publ_section_title
;
Structure prediction by ZEFSAII (Michael W. Deem and Ramdas Pophale) SiO2 
 PCOD8209968
Probable space group: P M M A
;
_chemical_formula_sum "Si O2"
_cell_formula_units_Z 36
_cell_length_a 10.347217
_cell_length_b 7.902404
_cell_length_c 23.653006
_cell_angle_alpha 90.000000
_cell_angle_beta 90.000000
_cell_angle_gamma 90.000000
_cell_volume 1934.056369
_symmetry_space_group_name_H-M "P M M A"
_symmetry_group_IT_number 51
_symmetry_cell_setting 'orthorhombic'
loop_
_space_group_symop_operation_xyz
x,y,z
1/2-x,-y,z
1/2+x,-y,-z
-x,y,-z
-x,-y,-z
1/2+x,y,-z
1/2-x,y,z
x,-y,z
loop_
_atom_site_type_symbol
_atom_site_label
_atom_site_fract_x
_atom_site_fract_y
_atom_site_fract_z
Si Si1 0.595892 0.000000 0.552482
Si Si2 0.750000 0.300509 0.941621
Si Si3 0.488985 0.302092 0.128370
Si Si4 0.403055 0.689343 0.368223
Si Si5 0.250000 0.197392 0.929242
Si Si6 0.606474 0.299554 0.754876
O O1 0.500000 0.000000 0.500000
O O2 0.557056 0.169544 0.586468
O O3 0.750000 0.000000 0.536844
O O4 0.750000 0.500000 0.935194
O O5 0.622620 0.222378 0.911637
O O6 0.750000 0.257353 0.006973
O O7 0.465468 0.500000 0.130687
O O8 0.627183 0.265644 0.103287
O O9 0.478654 0.229154 0.192591
O O10 0.250000 0.679632 0.362673
O O11 0.454983 0.500000 0.385202
O O12 0.456105 0.747560 0.306261
O O13 0.250000 0.000000 0.927170
O O14 0.750000 0.221038 0.760999
O O15 0.616556 0.500000 0.757546
#
# Coordination Sequence:
#
# PCOD8209968 Si02
#       6
#     4   4   8   8   4   8
#     4  10  20  34  54  80 112 146 185 217 256 308
#     4  10  20  36  60  82  94 122 178 231 268 316
#     4  10  19  35  59  81  98 127 175 224 271 322
#     4   8  15  29  52  81 110 140 176 224 271 311
#     4  12  26  38  46  66 112 150 174 205 262 330
#     4   8  13  27  54  83 104 121 160 224 274 307
#
# _framework density 18.613727999999998
#
# number of rings (size 3 to 8) (size 9 to 14) (size 15 to 20)
#    0.000    2.667    1.111    3.000    0.000    4.000 
#    2.000    0.000    2.444    0.000    0.000    0.000 
#    0.000    0.000    0.000    0.000    0.000    0.000 
#
# Total GULP energy -446025.580564 kJ/mol
# GULP energy per Si atom -12389.599460 kJ/mol
# Density = 1.857136 g / cm^3
# Si number density = 18.613728 Si / 1000 Ang^3
#
#
#
# Elastic Constant Matrix: (Units=GPa)
#
#
# Indices 1 2 3 4 5 6 
#
# 1 106.0156 21.1507 73.9219 0.0000 0.0000 0.0000
# 2 21.1507 61.6388 56.1564 0.0000 0.0000 0.0000
# 3 73.9219 56.1564 190.3021 0.0000 0.0000 0.0000
# 4 0.0000 0.0000 0.0000 -32.4922 0.0000 0.0000
# 5 0.0000 0.0000 0.0000 0.0000 37.0996 0.0000
# 6 0.0000 0.0000 0.0000 0.0000 0.0000 -7.2274
#
#
#
# Elastic Compliance Matrix: (Units=1/GPa)
#
#
# Indices 1 2 3 4 5 6 
#
# 1 0.012938 0.000190 -0.005082 0.000000 0.000000 0.000000
# 2 0.000190 0.022192 -0.006623 0.000000 0.000000 0.000000
# 3 -0.005082 -0.006623 0.009183 0.000000 0.000000 0.000000
# 4 0.000000 0.000000 0.000000 -0.030777 0.000000 0.000000
# 5 0.000000 0.000000 0.000000 0.000000 0.026954 0.000000
# 6 0.000000 0.000000 0.000000 0.000000 0.000000 -0.138362
#
#
# Mechanical properties :
#
#
# Convention : Reuss Voigt Hill
#
# Bulk Modulus (GPa) = 46.98204 73.37940 60.18072
# Shear Modulus (GPa) = -73.80239 13.25783 -30.27228
#
# Velocity S-wave (km/s) = -6.30361 2.67172 -4.03717
# Velocity P-wave (km/s) = 5.26169 7.00180 3.26648
#
# Compressibility (1/GPa) = 0.02128473
#
# Stress axis : x y z
#
# Youngs Moduli (GPa) = 77.29127 45.06182 108.89583
#
# Poissons Ratio (x) = -0.00858 0.55340
# Poissons Ratio (y) = -0.01471 0.72116
# Poissons Ratio (z) = 0.39279 0.29842
#
# Static dielectric constant tensor:
#      x y z
#    x 3.098480 0.000000 0.000000 
#    y 0.000000 3.447530 0.000000 
#    z 0.000000 0.000000 3.741310 
# 
# 
# High freq. dielectric constant tensor:
#      x y z
#    x 1.681410 0.000000 0.000000 
#    y 0.000000 1.709390 0.000000 
#    z 0.000000 0.000000 1.734300 
# 
# From -- ./inp_files/32775.got.cif
#   From: 2010.03.12/outbox.cif.g09.slc.cpg/sg51_17_cif.got.tgz:32775.got - 2010.04.16 13:43:02.
