data_PCOD8209608
_publ_section_title
;
Structure prediction by ZEFSAII (Michael W. Deem and Ramdas Pophale) SiO2 
 PCOD8209608
Probable space group: P M M A
;
_chemical_formula_sum "Si O2"
_cell_formula_units_Z 56
_cell_length_a 19.972483
_cell_length_b 9.528429
_cell_length_c 15.298286
_cell_angle_alpha 90.000000
_cell_angle_beta 90.000000
_cell_angle_gamma 90.000000
_cell_volume 2911.361524
_symmetry_space_group_name_H-M "P M M A"
_symmetry_group_IT_number 51
_symmetry_cell_setting 'orthorhombic'
loop_
_space_group_symop_operation_xyz
x,y,z
1/2-x,-y,z
1/2+x,-y,-z
-x,y,-z
-x,-y,-z
1/2+x,y,-z
1/2-x,y,z
x,-y,z
loop_
_atom_site_type_symbol
_atom_site_label
_atom_site_fract_x
_atom_site_fract_y
_atom_site_fract_z
Si Si1 0.562230 0.165190 0.561127
Si Si2 0.674472 0.660841 0.964808
Si Si3 0.968025 0.662595 0.907086
Si Si4 0.645144 0.841255 0.310073
Si Si5 0.174077 0.847811 0.880290
Si Si6 0.325264 0.660791 0.527589
Si Si7 0.003346 0.843231 0.259463
O O1 0.500000 0.212178 0.500000
O O2 0.627299 0.252992 0.536316
O O3 0.554216 0.202445 0.664022
O O4 0.575782 0.000000 0.547012
O O5 0.750000 0.708783 0.932341
O O6 0.678730 0.500000 0.992117
O O7 0.613201 0.685574 0.897518
O O8 0.645406 0.740093 0.049643
O O9 0.986007 0.500000 0.894685
O O10 0.999709 0.745110 0.825564
O O11 0.000000 0.713903 0.000000
O O12 0.668511 0.784766 0.216008
O O13 0.675390 0.732887 0.377922
O O14 0.565465 0.840781 0.313142
O O15 0.672122 0.000000 0.327351
O O16 0.250000 0.871462 0.906756
O O17 0.136440 0.000000 0.884654
O O18 0.250000 0.665621 0.489580
O O19 0.350059 0.500000 0.535981
O O20 0.019604 0.000000 0.225800
#
# Coordination Sequence:
#
# PCOD8209608 Si02
#       7
#     8   8   8   8   8   8   8
#     4  10  20  40  64  85 113 150 193 238 286 345
#     4   9  18  33  51  70  99 143 187 227 277 334
#     4  10  21  36  54  80 114 149 187 231 283 343
#     4  10  19  34  54  78 111 148 184 228 285 348
#     4   9  17  28  46  74 104 137 179 224 276 337
#     4  11  24  38  55  85 120 152 191 238 287 341
#     4  10  21  36  58  86 110 141 189 238 286 341
#
# _framework density 19.234987
#
# number of rings (size 3 to 8) (size 9 to 14) (size 15 to 20)
#    0.000    2.143    1.429    1.714    0.000    4.571 
#    0.000    2.143    0.000    2.571    0.000    0.000 
#    0.000    0.000    0.000    0.000    0.000    0.000 
#
# Total GULP energy -693888.994725 kJ/mol
# GULP energy per Si atom -12390.874906 kJ/mol
# Density = 1.919121 g / cm^3
# Si number density = 19.234987 Si / 1000 Ang^3
#
#
#
# Elastic Constant Matrix: (Units=GPa)
#
#
# Indices 1 2 3 4 5 6 
#
# 1 78.9984 29.1699 22.2244 0.0000 0.0000 0.0000
# 2 29.1699 68.3226 40.1782 0.0000 0.0000 0.0000
# 3 22.2244 40.1782 83.7107 0.0000 0.0000 0.0000
# 4 0.0000 0.0000 0.0000 27.0053 0.0000 0.0000
# 5 0.0000 0.0000 0.0000 0.0000 26.3415 0.0000
# 6 0.0000 0.0000 0.0000 0.0000 0.0000 22.9899
#
#
#
# Elastic Compliance Matrix: (Units=1/GPa)
#
#
# Indices 1 2 3 4 5 6 
#
# 1 0.015125 -0.005707 -0.001276 0.000000 0.000000 0.000000
# 2 -0.005707 0.022545 -0.009306 0.000000 0.000000 0.000000
# 3 -0.001276 -0.009306 0.016751 0.000000 0.000000 0.000000
# 4 0.000000 0.000000 0.000000 0.037030 0.000000 0.000000
# 5 0.000000 0.000000 0.000000 0.000000 0.037963 0.000000
# 6 0.000000 0.000000 0.000000 0.000000 0.000000 0.043497
#
#
# Mechanical properties :
#
#
# Convention : Reuss Voigt Hill
#
# Bulk Modulus (GPa) = 45.78079 46.01964 45.90022
# Shear Modulus (GPa) = 23.49945 24.56462 24.03204
#
# Velocity S-wave (km/s) = 3.49908 3.57750 3.53851
# Velocity P-wave (km/s) = 6.33855 6.40637 6.37255
#
# Compressibility (1/GPa) = 0.02184322
#
# Stress axis : x y z
#
# Youngs Moduli (GPa) = 66.11661 44.35487 59.69687
#
# Poissons Ratio (x) = 0.25312 0.07620
# Poissons Ratio (y) = 0.37732 0.55553
# Poissons Ratio (z) = 0.08439 0.41276
#
# Static dielectric constant tensor:
#      x y z
#    x 3.700270 0.000000 0.000000 
#    y 0.000000 3.701820 0.000000 
#    z 0.000000 0.000000 3.304680 
# 
# 
# High freq. dielectric constant tensor:
#      x y z
#    x 1.752270 0.000000 0.000000 
#    y 0.000000 1.742430 0.000000 
#    z 0.000000 0.000000 1.728850 
# 
# From -- ./inp_files/25656.got.cif
#   From: 2010.03.12/outbox.cif.g09.slc.cpg/sg51_13_cif.got.tgz:25656.got - 2010.04.16 13:43:02.
