data_PCOD8209394
_publ_section_title
;
Structure prediction by ZEFSAII (Michael W. Deem and Ramdas Pophale) SiO2 
 PCOD8209394
Probable space group: P M M A
;
_chemical_formula_sum "Si O2"
_cell_formula_units_Z 56
_cell_length_a 9.025495
_cell_length_b 14.578510
_cell_length_c 23.074274
_cell_angle_alpha 90.000000
_cell_angle_beta 90.000000
_cell_angle_gamma 90.000000
_cell_volume 3036.073034
_symmetry_space_group_name_H-M "P M M A"
_symmetry_group_IT_number 51
_symmetry_cell_setting 'orthorhombic'
loop_
_space_group_symop_operation_xyz
x,y,z
1/2-x,-y,z
1/2+x,-y,-z
-x,y,-z
-x,-y,-z
1/2+x,y,-z
1/2-x,y,z
x,-y,z
loop_
_atom_site_type_symbol
_atom_site_label
_atom_site_fract_x
_atom_site_fract_y
_atom_site_fract_z
Si Si1 0.578247 0.895220 0.222385
Si Si2 0.914525 0.398439 0.239091
Si Si3 0.585042 0.354478 0.369675
Si Si4 0.075055 0.395567 0.060049
Si Si5 0.572128 0.000000 0.563829
Si Si6 0.575974 0.856386 0.353377
Si Si7 0.077942 0.500000 0.439908
Si Si8 0.423016 0.734576 0.163226
O O1 0.750000 0.869449 0.220347
O O2 0.520690 0.878592 0.288017
O O3 0.498092 0.833189 0.173708
O O4 0.548145 0.000000 0.204627
O O5 0.750000 0.366580 0.218477
O O6 0.949498 0.500000 0.215224
O O7 0.919171 0.401377 0.307624
O O8 0.039132 0.328838 0.217896
O O9 0.750000 0.365752 0.396274
O O10 0.541719 0.248638 0.366374
O O11 0.466276 0.406623 0.407995
O O12 0.250000 0.388662 0.052635
O O13 0.030242 0.500000 0.078230
O O14 0.017884 0.320886 0.106876
O O15 0.000000 0.367992 0.000000
O O16 0.500000 0.000000 0.500000
O O17 0.518235 0.911693 0.599594
O O18 0.750000 0.000000 0.558141
O O19 0.750000 0.881162 0.359259
O O20 0.250000 0.500000 0.449263
O O21 0.000000 0.500000 0.500000
O O22 0.250000 0.751263 0.158970
#
# Coordination Sequence:
#
# PCOD8209394 Si02
#       8
#     8   8   8   8   4   8   4   8
#     4  10  20  37  60  84 113 151 192 232 281 343
#     4  10  19  33  54  80 112 150 188 223 269 331
#     4  10  20  38  61  82 109 144 183 229 276 329
#     4   9  19  36  56  81 117 160 200 239 283 331
#     4  12  26  42  62  86 114 144 183 232 287 352
#     4  10  20  39  64  85 111 146 184 231 285 338
#     4  12  26  42  60  80 108 146 189 232 279 338
#     4  11  22  34  53  85 123 152 186 237 290 340
#
# _framework density 18.444877999999999
#
# number of rings (size 3 to 8) (size 9 to 14) (size 15 to 20)
#    0.000    1.714    2.857    2.143    0.000    4.571 
#    0.000    1.429    0.000    0.429    0.000    0.000 
#    0.000    0.000    0.000    0.000    0.000    0.000 
#
# Total GULP energy -694309.168091 kJ/mol
# GULP energy per Si atom -12398.378002 kJ/mol
# Density = 1.840290 g / cm^3
# Si number density = 18.444878 Si / 1000 Ang^3
#
#
#
# Elastic Constant Matrix: (Units=GPa)
#
#
# Indices 1 2 3 4 5 6 
#
# 1 77.6953 48.4470 46.4524 0.0000 0.0000 0.0000
# 2 48.4470 131.6652 59.1764 0.0000 0.0000 0.0000
# 3 46.4524 59.1764 98.7944 0.0000 0.0000 0.0000
# 4 0.0000 0.0000 0.0000 17.5115 0.0000 0.0000
# 5 0.0000 0.0000 0.0000 0.0000 31.1547 0.0000
# 6 0.0000 0.0000 0.0000 0.0000 0.0000 31.3918
#
#
#
# Elastic Compliance Matrix: (Units=1/GPa)
#
#
# Indices 1 2 3 4 5 6 
#
# 1 0.019443 -0.004167 -0.006646 0.000000 0.000000 0.000000
# 2 -0.004167 0.011286 -0.004801 0.000000 0.000000 0.000000
# 3 -0.006646 -0.004801 0.016122 0.000000 0.000000 0.000000
# 4 0.000000 0.000000 0.000000 0.057105 0.000000 0.000000
# 5 0.000000 0.000000 0.000000 0.000000 0.032098 0.000000
# 6 0.000000 0.000000 0.000000 0.000000 0.000000 0.031855
#
#
# Mechanical properties :
#
#
# Convention : Reuss Voigt Hill
#
# Bulk Modulus (GPa) = 64.00527 68.47850 66.24188
# Shear Modulus (GPa) = 24.46841 26.28351 25.37596
#
# Velocity S-wave (km/s) = 3.64616 3.77898 3.71317
# Velocity P-wave (km/s) = 7.24584 7.49984 7.37393
#
# Compressibility (1/GPa) = 0.01562371
#
# Stress axis : x y z
#
# Youngs Moduli (GPa) = 51.43365 88.60490 62.02538
#
# Poissons Ratio (x) = 0.36923 0.41220
# Poissons Ratio (y) = 0.21433 0.29777
# Poissons Ratio (z) = 0.34181 0.42538
#
# Static dielectric constant tensor:
#      x y z
#    x 3.312950 0.000000 0.000000 
#    y 0.000000 3.511290 0.000000 
#    z 0.000000 0.000000 3.251260 
# 
# 
# High freq. dielectric constant tensor:
#      x y z
#    x 1.707260 0.000000 0.000000 
#    y 0.000000 1.725730 0.000000 
#    z 0.000000 0.000000 1.700150 
# 
# From -- ./inp_files/32088.got.cif
#   From: 2010.03.12/outbox.cif.g09.slc.cpg/sg51_17_cif.got.tgz:32088.got - 2010.04.16 13:43:02.
