data_PCOD8209484
_publ_section_title
;
Structure prediction by ZEFSAII (Michael W. Deem and Ramdas Pophale) SiO2 
 PCOD8209484
Probable space group: P M M A
;
_chemical_formula_sum "Si O2"
_cell_formula_units_Z 64
_cell_length_a 14.257128
_cell_length_b 9.246562
_cell_length_c 24.931229
_cell_angle_alpha 90.000000
_cell_angle_beta 90.000000
_cell_angle_gamma 90.000000
_cell_volume 3286.669409
_symmetry_space_group_name_H-M "P M M A"
_symmetry_group_IT_number 51
_symmetry_cell_setting 'orthorhombic'
loop_
_space_group_symop_operation_xyz
x,y,z
1/2-x,-y,z
1/2+x,-y,-z
-x,y,-z
-x,-y,-z
1/2+x,y,-z
1/2-x,y,z
x,-y,z
loop_
_atom_site_type_symbol
_atom_site_label
_atom_site_fract_x
_atom_site_fract_y
_atom_site_fract_z
Si Si1 0.140416 0.331538 0.230056
Si Si2 0.856990 0.829997 0.087193
Si Si3 0.893185 0.337903 0.483241
Si Si4 0.856877 0.665153 0.978840
Si Si5 0.525950 0.332256 0.875415
Si Si6 0.852063 0.839569 0.581932
Si Si7 0.357640 0.331569 0.636301
Si Si8 0.474427 0.827179 0.320784
O O1 0.250000 0.289239 0.229304
O O2 0.127623 0.500000 0.244670
O O3 0.096264 0.294606 0.172562
O O4 0.085076 0.233964 0.271982
O O5 0.750000 0.792288 0.104169
O O6 0.929081 0.758254 0.129527
O O7 0.873549 0.000000 0.085985
O O8 0.879646 0.767292 0.028640
O O9 0.853204 0.500000 0.483960
O O10 0.838353 0.248395 0.527473
O O11 0.875337 0.273062 0.424155
O O12 0.000000 0.331180 0.500000
O O13 0.750000 0.682429 0.959581
O O14 0.877469 0.500000 0.996255
O O15 0.922361 0.712931 0.930049
O O16 0.498989 0.500000 0.874777
O O17 0.750000 0.843033 0.610139
O O18 0.924704 0.772821 0.624359
O O19 0.886002 0.000000 0.566338
O O20 0.250000 0.306244 0.652802
O O21 0.385557 0.500000 0.640331
O O22 0.421164 0.240307 0.677835
O O23 0.478724 0.000000 0.316248
#
# Coordination Sequence:
#
# PCOD8209484 Si02
#       8
#     8   8   8   8   8   8   8   8
#     4  10  22  41  64  88 113 142 180 229 284 338
#     4  10  21  35  51  77 115 155 192 229 271 322
#     4  10  19  33  55  82 112 144 180 224 271 323
#     4   9  17  31  53  81 114 150 186 226 274 329
#     4  10  20  35  57  84 111 143 186 233 280 332
#     4  10  21  35  52  77 110 146 181 218 265 324
#     4  10  21  38  59  83 113 148 188 233 278 328
#     4  11  23  39  59  82 112 146 185 230 277 332
#
# _framework density 19.4726
#
# number of rings (size 3 to 8) (size 9 to 14) (size 15 to 20)
#    0.000    2.000    1.250    2.250    0.000    7.750 
#    0.000    0.625    0.000    3.000    0.000    0.000 
#    0.000    0.000    0.000    0.000    0.000    0.000 
#
# Total GULP energy -793583.004327 kJ/mol
# GULP energy per Si atom -12399.734443 kJ/mol
# Density = 1.942828 g / cm^3
# Si number density = 19.472600 Si / 1000 Ang^3
#
#
#
# Elastic Constant Matrix: (Units=GPa)
#
#
# Indices 1 2 3 4 5 6 
#
# 1 140.6922 59.4563 58.0781 0.0000 0.0000 0.0000
# 2 59.4563 78.5632 46.3719 0.0000 0.0000 0.0000
# 3 58.0781 46.3719 73.7717 0.0000 0.0000 0.0000
# 4 0.0000 0.0000 0.0000 15.2594 0.0000 0.0000
# 5 0.0000 0.0000 0.0000 0.0000 32.2464 0.0000
# 6 0.0000 0.0000 0.0000 0.0000 0.0000 26.5930
#
#
#
# Elastic Compliance Matrix: (Units=1/GPa)
#
#
# Indices 1 2 3 4 5 6 
#
# 1 0.011861 -0.005508 -0.005875 0.000000 0.000000 0.000000
# 2 -0.005508 0.022795 -0.009992 0.000000 0.000000 0.000000
# 3 -0.005875 -0.009992 0.024462 0.000000 0.000000 0.000000
# 4 0.000000 0.000000 0.000000 0.065533 0.000000 0.000000
# 5 0.000000 0.000000 0.000000 0.000000 0.031011 0.000000
# 6 0.000000 0.000000 0.000000 0.000000 0.000000 0.037604
#
#
# Mechanical properties :
#
#
# Convention : Reuss Voigt Hill
#
# Bulk Modulus (GPa) = 61.10157 68.98218 65.04187
# Shear Modulus (GPa) = 20.70627 23.42782 22.06704
#
# Velocity S-wave (km/s) = 3.26445 3.47236 3.37001
# Velocity P-wave (km/s) = 6.75686 7.18182 6.97258
#
# Compressibility (1/GPa) = 0.01636619
#
# Stress axis : x y z
#
# Youngs Moduli (GPa) = 84.31106 43.86884 40.88047
#
# Poissons Ratio (x) = 0.24165 0.24018
# Poissons Ratio (y) = 0.46442 0.40848
# Poissons Ratio (z) = 0.49534 0.43834
#
# Static dielectric constant tensor:
#      x y z
#    x 3.743130 0.000000 0.000000 
#    y 0.000000 3.496820 0.000000 
#    z 0.000000 0.000000 3.377060 
# 
# 
# High freq. dielectric constant tensor:
#      x y z
#    x 1.777140 0.000000 0.000000 
#    y 0.000000 1.748870 0.000000 
#    z 0.000000 0.000000 1.736110 
# 
# From -- ./inp_files/35758.got.cif
#   From: 2010.03.12/outbox.cif.g09.slc.cpg/sg51_18_cif.got.tgz:35758.got - 2010.04.16 13:43:02.
