data_PCOD8209808
_publ_section_title
;
Structure prediction by ZEFSAII (Michael W. Deem and Ramdas Pophale) SiO2 
 PCOD8209808
Probable space group: P M M A
;
_chemical_formula_sum "Si O2"
_cell_formula_units_Z 64
_cell_length_a 19.062744
_cell_length_b 19.986150
_cell_length_c 9.164793
_cell_angle_alpha 90.000000
_cell_angle_beta 90.000000
_cell_angle_gamma 90.000000
_cell_volume 3491.702376
_symmetry_space_group_name_H-M "P M M A"
_symmetry_group_IT_number 51
_symmetry_cell_setting 'orthorhombic'
loop_
_space_group_symop_operation_xyz
x,y,z
1/2-x,-y,z
1/2+x,-y,-z
-x,y,-z
-x,-y,-z
1/2+x,y,-z
1/2-x,y,z
x,-y,z
loop_
_atom_site_type_symbol
_atom_site_label
_atom_site_fract_x
_atom_site_fract_y
_atom_site_fract_z
Si Si1 0.330431 0.924137 0.179355
Si Si2 0.331824 0.423222 0.675371
Si Si3 0.830066 0.422040 0.657179
Si Si4 0.918000 0.317060 0.820246
Si Si5 0.569315 0.923953 0.083165
Si Si6 0.580934 0.685070 0.159622
Si Si7 0.590878 0.812595 0.646284
Si Si8 0.425623 0.817079 0.680978
O O1 0.250000 0.901235 0.168873
O O2 0.371888 0.876897 0.288246
O O3 0.337015 0.000000 0.238475
O O4 0.363431 0.918955 0.019580
O O5 0.250000 0.410634 0.701759
O O6 0.351016 0.500000 0.709350
O O7 0.351965 0.405547 0.508944
O O8 0.375031 0.377463 0.784632
O O9 0.750000 0.400157 0.684361
O O10 0.839384 0.500000 0.689040
O O11 0.880005 0.384036 0.768816
O O12 0.885386 0.255652 0.726690
O O13 0.000498 0.327964 0.797551
O O14 0.903874 0.304559 0.989681
O O15 0.590764 0.883847 0.227994
O O16 0.552692 0.000000 0.130284
O O17 0.500000 0.894275 0.000000
O O18 0.605403 0.753633 0.233893
O O19 0.508473 0.816118 0.665196
O O20 0.611766 0.814671 0.476077
#
# Coordination Sequence:
#
# PCOD8209808 Si02
#       8
#     8   8   8   8   8   8   8   8
#     4  10  21  37  56  80 113 149 182 222 277 334
#     4   9  19  37  58  79 107 142 181 226 274 327
#     4   9  19  36  56  77 103 138 179 223 271 325
#     4  10  21  35  54  78 110 143 179 224 271 321
#     4  10  19  34  58  84 110 144 185 227 272 325
#     4  10  21  35  53  80 110 144 179 223 275 323
#     4  10  20  35  55  81 107 142 182 225 274 324
#     4  10  20  34  57  82 109 138 183 234 271 318
#
# _framework density 18.329170000000001
#
# number of rings (size 3 to 8) (size 9 to 14) (size 15 to 20)
#    0.000    2.250    1.250    2.250    1.750    4.000 
#    0.000    8.125    0.000    1.500    0.000    0.000 
#    0.000    0.000    0.000    0.000    0.000    0.000 
#
# Total GULP energy -793620.731721 kJ/mol
# GULP energy per Si atom -12400.323933 kJ/mol
# Density = 1.828745 g / cm^3
# Si number density = 18.329170 Si / 1000 Ang^3
#
#
#
# Elastic Constant Matrix: (Units=GPa)
#
#
# Indices 1 2 3 4 5 6 
#
# 1 38.0265 36.2535 39.1636 0.0000 0.0000 0.0000
# 2 36.2535 105.5408 71.8312 0.0000 0.0000 0.0000
# 3 39.1636 71.8312 128.2218 0.0000 0.0000 0.0000
# 4 0.0000 0.0000 0.0000 34.4747 0.0000 0.0000
# 5 0.0000 0.0000 0.0000 0.0000 25.9408 0.0000
# 6 0.0000 0.0000 0.0000 0.0000 0.0000 22.1331
#
#
#
# Elastic Compliance Matrix: (Units=1/GPa)
#
#
# Indices 1 2 3 4 5 6 
#
# 1 0.043617 -0.009561 -0.007966 0.000000 0.000000 0.000000
# 2 -0.009561 0.017410 -0.006833 0.000000 0.000000 0.000000
# 3 -0.007966 -0.006833 0.014060 0.000000 0.000000 0.000000
# 4 0.000000 0.000000 0.000000 0.029007 0.000000 0.000000
# 5 0.000000 0.000000 0.000000 0.000000 0.038549 0.000000
# 6 0.000000 0.000000 0.000000 0.000000 0.000000 0.045181
#
#
# Mechanical properties :
#
#
# Convention : Reuss Voigt Hill
#
# Bulk Modulus (GPa) = 37.92630 62.92063 50.42346
# Shear Modulus (GPa) = 20.38055 24.81243 22.59649
#
# Velocity S-wave (km/s) = 3.33816 3.68328 3.51496
# Velocity P-wave (km/s) = 5.96611 7.24509 6.63648
#
# Compressibility (1/GPa) = 0.02636693
#
# Stress axis : x y z
#
# Youngs Moduli (GPa) = 22.92697 57.43966 71.12391
#
# Poissons Ratio (x) = 0.54916 0.56658
# Poissons Ratio (y) = 0.21920 0.48598
# Poissons Ratio (z) = 0.18264 0.39248
#
# Static dielectric constant tensor:
#      x y z
#    x 3.215410 0.000000 0.000000 
#    y 0.000000 3.423360 0.000000 
#    z 0.000000 0.000000 3.460290 
# 
# 
# High freq. dielectric constant tensor:
#      x y z
#    x 1.693510 0.000000 0.000000 
#    y 0.000000 1.718730 0.000000 
#    z 0.000000 0.000000 1.712870 
# 
# From -- ./inp_files/10029.got.cif
#   From: 2010.03.12/outbox.cif.g09.slc.cpg/sg51_6_cif.got.tgz:10029.got - 2010.04.16 13:43:02.
