data_PCOD8209157
_publ_section_title
;
Structure prediction by ZEFSAII (Michael W. Deem and Ramdas Pophale) SiO2 
 PCOD8209157
Probable space group: P M M A
;
_chemical_formula_sum "Si O2"
_cell_formula_units_Z 56
_cell_length_a 9.197864
_cell_length_b 14.009227
_cell_length_c 21.199748
_cell_angle_alpha 90.000000
_cell_angle_beta 90.000000
_cell_angle_gamma 90.000000
_cell_volume 2731.692780
_symmetry_space_group_name_H-M "P M M A"
_symmetry_group_IT_number 51
_symmetry_cell_setting 'orthorhombic'
loop_
_space_group_symop_operation_xyz
x,y,z
1/2-x,-y,z
1/2+x,-y,-z
-x,y,-z
-x,-y,-z
1/2+x,y,-z
1/2-x,y,z
x,-y,z
loop_
_atom_site_type_symbol
_atom_site_label
_atom_site_fract_x
_atom_site_fract_y
_atom_site_fract_z
Si Si1 0.424699 0.780352 0.562300
Si Si2 0.534025 0.293932 0.138472
Si Si3 0.418386 0.892341 0.801113
Si Si4 0.580544 0.389053 0.615381
Si Si5 0.750000 0.388266 0.899579
Si Si6 0.250000 0.612398 0.952370
Si Si7 0.091276 0.607028 0.735572
Si Si8 0.417447 0.888072 0.326265
O O1 0.500000 0.825386 0.500000
O O2 0.250000 0.784666 0.557733
O O3 0.483028 0.671381 0.566943
O O4 0.481758 0.837984 0.622282
O O5 0.543681 0.178392 0.140247
O O6 0.375737 0.335076 0.136417
O O7 0.610425 0.337134 0.076938
O O8 0.604711 0.326113 0.203924
O O9 0.250000 0.884122 0.781337
O O10 0.518029 0.862548 0.742057
O O11 0.454910 0.000000 0.823487
O O12 0.750000 0.364235 0.607144
O O13 0.548093 0.500000 0.602833
O O14 0.531688 0.359724 0.686310
O O15 0.750000 0.500000 0.884535
O O16 0.750000 0.369016 0.973680
O O17 0.250000 0.500000 0.936590
O O18 0.250000 0.611128 0.701790
O O19 0.056475 0.500000 0.759093
O O20 0.250000 0.852428 0.330378
O O21 0.426949 0.000000 0.338833
#
# Coordination Sequence:
#
# PCOD8209157 Si02
#       8
#     8   8   8   8   4   4   8   8
#     4  12  25  41  62  86 119 163 208 252 299 361
#     4  12  22  37  61  89 119 164 205 255 313 364
#     4  10  21  39  64  95 126 160 205 255 309 370
#     4  10  22  39  59  85 119 157 201 257 313 365
#     4  11  26  40  59  89 125 163 207 258 306 366
#     4  11  22  42  63  85 121 165 211 254 304 372
#     4  10  19  32  54  84 116 150 194 247 307 375
#     4  10  22  41  67  97 127 156 193 248 311 367
#
# _framework density 20.500109999999999
#
# number of rings (size 3 to 8) (size 9 to 14) (size 15 to 20)
#    0.000    1.286    1.429    4.714    2.000    3.429 
#    0.000    0.000    0.000    2.571    0.000    0.000 
#    0.000    0.000    0.000    0.000    0.000    0.000 
#
# Total GULP energy -694343.829466 kJ/mol
# GULP energy per Si atom -12398.996955 kJ/mol
# Density = 2.045345 g / cm^3
# Si number density = 20.500110 Si / 1000 Ang^3
#
#
#
# Elastic Constant Matrix: (Units=GPa)
#
#
# Indices 1 2 3 4 5 6 
#
# 1 156.9289 40.0594 35.3292 0.0000 0.0000 0.0000
# 2 40.0594 102.2658 47.4984 0.0000 0.0000 0.0000
# 3 35.3292 47.4984 67.0028 0.0000 0.0000 0.0000
# 4 0.0000 0.0000 0.0000 24.8633 0.0000 0.0000
# 5 0.0000 0.0000 0.0000 0.0000 45.7123 0.0000
# 6 0.0000 0.0000 0.0000 0.0000 0.0000 32.8415
#
#
#
# Elastic Compliance Matrix: (Units=1/GPa)
#
#
# Indices 1 2 3 4 5 6 
#
# 1 0.007407 -0.001621 -0.002756 0.000000 0.000000 0.000000
# 2 -0.001621 0.014933 -0.009731 0.000000 0.000000 0.000000
# 3 -0.002756 -0.009731 0.023277 0.000000 0.000000 0.000000
# 4 0.000000 0.000000 0.000000 0.040220 0.000000 0.000000
# 5 0.000000 0.000000 0.000000 0.000000 0.021876 0.000000
# 6 0.000000 0.000000 0.000000 0.000000 0.000000 0.030449
#
#
# Mechanical properties :
#
#
# Convention : Reuss Voigt Hill
#
# Bulk Modulus (GPa) = 57.47420 63.55238 60.51329
# Shear Modulus (GPa) = 29.03956 34.23746 31.63851
#
# Velocity S-wave (km/s) = 3.76780 4.09113 3.93279
# Velocity P-wave (km/s) = 6.85750 7.30649 7.08555
#
# Compressibility (1/GPa) = 0.01739911
#
# Stress axis : x y z
#
# Youngs Moduli (GPa) = 135.01403 66.96411 42.96159
#
# Poissons Ratio (x) = 0.10856 0.11841
# Poissons Ratio (y) = 0.21889 0.41808
# Poissons Ratio (z) = 0.37211 0.65166
#
# Static dielectric constant tensor:
#      x y z
#    x 3.844380 0.000000 0.000000 
#    y 0.000000 3.964700 0.000000 
#    z 0.000000 0.000000 3.481510 
# 
# 
# High freq. dielectric constant tensor:
#      x y z
#    x 1.816430 0.000000 0.000000 
#    y 0.000000 1.808210 0.000000 
#    z 0.000000 0.000000 1.781590 
# 
# From -- ./inp_files/32090.got.cif
#   From: 2010.03.12/outbox.cif.g09.slc.cpg/sg51_17_cif.got.tgz:32090.got - 2010.04.16 13:43:02.
