data_PCOD8209977
_publ_section_title
;
Structure prediction by ZEFSAII (Michael W. Deem and Ramdas Pophale) SiO2 
 PCOD8209977
Probable space group: P M M A
;
_chemical_formula_sum "Si O2"
_cell_formula_units_Z 48
_cell_length_a 30.845143
_cell_length_b 8.922750
_cell_length_c 8.985095
_cell_angle_alpha 90.000000
_cell_angle_beta 90.000000
_cell_angle_gamma 90.000000
_cell_volume 2472.909291
_symmetry_space_group_name_H-M "P M M A"
_symmetry_group_IT_number 51
_symmetry_cell_setting 'orthorhombic'
loop_
_space_group_symop_operation_xyz
x,y,z
1/2-x,-y,z
1/2+x,-y,-z
-x,y,-z
-x,-y,-z
1/2+x,y,-z
1/2-x,y,z
x,-y,z
loop_
_atom_site_type_symbol
_atom_site_label
_atom_site_fract_x
_atom_site_fract_y
_atom_site_fract_z
Si Si1 0.494539 0.671637 0.328527
Si Si2 0.582801 0.824103 0.833267
Si Si3 0.662801 0.677140 0.672995
Si Si4 0.836223 0.324333 0.332375
Si Si5 0.419260 0.673264 0.855632
Si Si6 0.750000 0.169655 0.676897
Si Si7 0.250000 0.831850 0.676921
O O1 0.500000 0.712122 0.500000
O O2 0.478870 0.500000 0.307749
O O3 0.459189 0.782063 0.261484
O O4 0.540163 0.699268 0.250589
O O5 0.624288 0.737908 0.772697
O O6 0.590969 0.000000 0.822292
O O7 0.574609 0.777471 0.002556
O O8 0.665283 0.500000 0.689181
O O9 0.654957 0.726707 0.502106
O O10 0.707393 0.746063 0.736444
O O11 0.828420 0.500000 0.327029
O O12 0.876790 0.274432 0.233515
O O13 0.793337 0.248292 0.263651
O O14 0.415787 0.500000 0.905051
O O15 0.750000 0.175510 0.499910
O O16 0.750000 0.000000 0.736779
O O17 0.250000 0.000000 0.738227
#
# Coordination Sequence:
#
# PCOD8209977 Si02
#       7
#     8   8   8   8   8   4   4
#     4  10  21  40  65  88 109 139 183 231 276 329
#     4  12  25  38  54  81 117 152 184 225 278 332
#     4  10  19  35  59  84 110 146 192 235 276 327
#     4   9  18  34  58  84 108 140 187 236 275 319
#     4  10  21  38  59  82 110 146 186 228 275 329
#     4   9  17  31  52  83 118 147 180 228 284 333
#     4   9  17  29  50  81 116 149 178 218 276 333
#
# _framework density 19.410336000000001
#
# number of rings (size 3 to 8) (size 9 to 14) (size 15 to 20)
#    0.000    2.000    0.000    4.000    0.000    9.000 
#    0.000    2.500    0.000    3.000    0.000    0.000 
#    0.000    0.000    0.000    0.000    0.000    0.000 
#
# Total GULP energy -595388.506121 kJ/mol
# GULP energy per Si atom -12403.927211 kJ/mol
# Density = 1.936616 g / cm^3
# Si number density = 19.410336 Si / 1000 Ang^3
#
#
#
# Elastic Constant Matrix: (Units=GPa)
#
#
# Indices 1 2 3 4 5 6 
#
# 1 143.6837 48.0216 48.0563 0.0000 0.0000 0.0000
# 2 48.0216 82.6476 35.6943 0.0000 0.0000 0.0000
# 3 48.0563 35.6943 90.9870 0.0000 0.0000 0.0000
# 4 0.0000 0.0000 0.0000 14.8072 0.0000 0.0000
# 5 0.0000 0.0000 0.0000 0.0000 -33.3441 0.0000
# 6 0.0000 0.0000 0.0000 0.0000 0.0000 27.4680
#
#
#
# Elastic Compliance Matrix: (Units=1/GPa)
#
#
# Indices 1 2 3 4 5 6 
#
# 1 0.009442 -0.004012 -0.003413 0.000000 0.000000 0.000000
# 2 -0.004012 0.016273 -0.004265 0.000000 0.000000 0.000000
# 3 -0.003413 -0.004265 0.014466 0.000000 0.000000 0.000000
# 4 0.000000 0.000000 0.000000 0.067535 0.000000 0.000000
# 5 0.000000 0.000000 0.000000 0.000000 -0.029990 0.000000
# 6 0.000000 0.000000 0.000000 0.000000 0.000000 0.036406
#
#
# Mechanical properties :
#
#
# Convention : Reuss Voigt Hill
#
# Bulk Modulus (GPa) = 59.51939 64.54029 62.02984
# Shear Modulus (GPa) = 34.93768 14.15595 24.54682
#
# Velocity S-wave (km/s) = 4.24719 2.70348 3.56002
# Velocity P-wave (km/s) = 7.40147 6.56260 6.99463
#
# Compressibility (1/GPa) = 0.01680125
#
# Stress axis : x y z
#
# Youngs Moduli (GPa) = 105.90723 61.45258 69.12632
#
# Poissons Ratio (x) = 0.24656 0.23593
# Poissons Ratio (y) = 0.42493 0.29480
# Poissons Ratio (z) = 0.36147 0.26207
#
# Static dielectric constant tensor:
#      x y z
#    x 3.771630 0.000000 0.000000 
#    y 0.000000 3.531820 0.000000 
#    z 0.000000 0.000000 3.417650 
# 
# 
# High freq. dielectric constant tensor:
#      x y z
#    x 1.774640 0.000000 0.000000 
#    y 0.000000 1.752060 0.000000 
#    z 0.000000 0.000000 1.739170 
# 
# From -- ./inp_files/12975.got.cif
#   From: 2010.03.12/outbox.cif.g09.slc.cpg/sg51_7_cif.got.tgz:12975.got - 2010.04.16 13:43:02.
