data_PCOD8209633
_publ_section_title
;
Structure prediction by ZEFSAII (Michael W. Deem and Ramdas Pophale) SiO2 
 PCOD8209633
Probable space group: P M M A
;
_chemical_formula_sum "Si O2"
_cell_formula_units_Z 48
_cell_length_a 20.402111
_cell_length_b 9.125067
_cell_length_c 14.537364
_cell_angle_alpha 90.000000
_cell_angle_beta 90.000000
_cell_angle_gamma 90.000000
_cell_volume 2706.430212
_symmetry_space_group_name_H-M "P M M A"
_symmetry_group_IT_number 51
_symmetry_cell_setting 'orthorhombic'
loop_
_space_group_symop_operation_xyz
x,y,z
1/2-x,-y,z
1/2+x,-y,-z
-x,y,-z
-x,-y,-z
1/2+x,y,-z
1/2-x,y,z
x,-y,z
loop_
_atom_site_type_symbol
_atom_site_label
_atom_site_fract_x
_atom_site_fract_y
_atom_site_fract_z
Si Si1 0.675445 0.172332 0.053993
Si Si2 0.016047 0.329850 0.252124
Si Si3 0.564400 0.670267 0.947302
Si Si4 0.621495 0.173298 0.250787
Si Si5 0.324003 0.329866 0.575694
Si Si6 0.062665 0.327145 0.446699
O O1 0.750000 0.221971 0.035631
O O2 0.655010 0.222230 0.155841
O O3 0.667225 0.000000 0.042725
O O4 0.629342 0.247889 0.979238
O O5 0.994895 0.500000 0.258386
O O6 0.057809 0.299300 0.161009
O O7 0.060577 0.282752 0.339304
O O8 0.951675 0.232798 0.253020
O O9 0.572912 0.500000 0.970353
O O10 0.500000 0.731234 0.000000
O O11 0.664727 0.240406 0.331614
O O12 0.620099 0.000000 0.262087
O O13 0.250000 0.305632 0.541549
O O14 0.338470 0.500000 0.596718
O O15 0.371098 0.268466 0.494691
O O16 0.060863 0.500000 0.456480
O O17 0.000000 0.259402 0.500000
#
# Coordination Sequence:
#
# PCOD8209633 Si02
#       6
#     8   8   8   8   8   8
#     4  10  22  38  54  75 107 145 180 215 262 321
#     4  10  19  34  55  80 109 137 173 217 264 311
#     4  10  20  34  55  82 110 137 173 223 269 311
#     4  11  21  33  53  80 110 138 171 217 267 313
#     4  10  20  34  53  77 103 136 176 214 258 312
#     4   9  16  30  54  77 102 136 171 209 253 305
#
# _framework density 17.73554
#
# number of rings (size 3 to 8) (size 9 to 14) (size 15 to 20)
#    0.000    2.000    3.333    1.000    0.000    3.000 
#    0.000    2.500    0.000    3.000    0.000    0.000 
#    0.000    0.000    0.000    0.000    0.000    0.000 
#
# Total GULP energy -595244.759515 kJ/mol
# GULP energy per Si atom -12400.932490 kJ/mol
# Density = 1.769517 g / cm^3
# Si number density = 17.735540 Si / 1000 Ang^3
#
#
#
# Elastic Constant Matrix: (Units=GPa)
#
#
# Indices 1 2 3 4 5 6 
#
# 1 139.2744 30.2091 73.9233 0.0000 0.0000 0.0000
# 2 30.2091 31.4358 30.2287 0.0000 0.0000 0.0000
# 3 73.9233 30.2287 143.4051 0.0000 0.0000 0.0000
# 4 0.0000 0.0000 0.0000 18.2025 0.0000 0.0000
# 5 0.0000 0.0000 0.0000 0.0000 10.3783 0.0000
# 6 0.0000 0.0000 0.0000 0.0000 0.0000 24.4696
#
#
#
# Elastic Compliance Matrix: (Units=1/GPa)
#
#
# Indices 1 2 3 4 5 6 
#
# 1 0.010795 -0.006300 -0.004237 0.000000 0.000000 0.000000
# 2 -0.006300 0.043575 -0.005938 0.000000 0.000000 0.000000
# 3 -0.004237 -0.005938 0.010409 0.000000 0.000000 0.000000
# 4 0.000000 0.000000 0.000000 0.054937 0.000000 0.000000
# 5 0.000000 0.000000 0.000000 0.000000 0.096355 0.000000
# 6 0.000000 0.000000 0.000000 0.000000 0.000000 0.040867
#
#
# Mechanical properties :
#
#
# Convention : Reuss Voigt Hill
#
# Bulk Modulus (GPa) = 31.41694 64.75972 48.08833
# Shear Modulus (GPa) = 16.63907 22.59369 19.61638
#
# Velocity S-wave (km/s) = 3.06629 3.57308 3.32934
# Velocity P-wave (km/s) = 5.50352 7.32229 6.47706
#
# Compressibility (1/GPa) = 0.03182996
#
# Stress axis : x y z
#
# Youngs Moduli (GPa) = 92.63221 22.94911 96.07137
#
# Poissons Ratio (x) = 0.14458 0.40704
# Poissons Ratio (y) = 0.58358 0.57044
# Poissons Ratio (z) = 0.39247 0.13626
#
# Static dielectric constant tensor:
#      x y z
#    x 3.360960 0.000000 0.000000 
#    y 0.000000 3.088120 0.000000 
#    z 0.000000 0.000000 3.556360 
# 
# 
# High freq. dielectric constant tensor:
#      x y z
#    x 1.684990 0.000000 0.000000 
#    y 0.000000 1.663420 0.000000 
#    z 0.000000 0.000000 1.692280 
# 
# From -- ./inp_files/24791.got.cif
#   From: 2010.03.12/outbox.cif.g09.slc.cpg/sg51_13_cif.got.tgz:24791.got - 2010.04.16 13:43:02.
