data_PCOD8209286
_publ_section_title
;
Structure prediction by ZEFSAII (Michael W. Deem and Ramdas Pophale) SiO2 
 PCOD8209286
Probable space group: P M M A
;
_chemical_formula_sum "Si O2"
_cell_formula_units_Z 56
_cell_length_a 9.109981
_cell_length_b 18.931419
_cell_length_c 18.412577
_cell_angle_alpha 90.000000
_cell_angle_beta 90.000000
_cell_angle_gamma 90.000000
_cell_volume 3175.522651
_symmetry_space_group_name_H-M "P M M A"
_symmetry_group_IT_number 51
_symmetry_cell_setting 'orthorhombic'
loop_
_space_group_symop_operation_xyz
x,y,z
1/2-x,-y,z
1/2+x,-y,-z
-x,y,-z
-x,-y,-z
1/2+x,y,-z
1/2-x,y,z
x,-y,z
loop_
_atom_site_type_symbol
_atom_site_label
_atom_site_fract_x
_atom_site_fract_y
_atom_site_fract_z
Si Si1 0.420389 0.918273 0.781135
Si Si2 0.580017 0.798840 0.703535
Si Si3 0.417640 0.277997 0.146129
Si Si4 0.420662 0.578098 0.647376
Si Si5 0.920990 0.158264 0.071857
Si Si6 0.420664 0.422189 0.202931
Si Si7 0.076285 0.720099 0.574408
O O1 0.250000 0.902319 0.765340
O O2 0.519181 0.876312 0.723588
O O3 0.459951 0.894988 0.863082
O O4 0.458863 0.000000 0.772447
O O5 0.750000 0.804782 0.681101
O O6 0.557181 0.747533 0.771686
O O7 0.485942 0.769783 0.637133
O O8 0.250000 0.264859 0.121925
O O9 0.522073 0.236930 0.090690
O O10 0.459842 0.361430 0.144192
O O11 0.250000 0.582374 0.664767
O O12 0.464060 0.500000 0.617178
O O13 0.498980 0.594037 0.722530
O O14 0.465206 0.638053 0.589664
O O15 0.750000 0.162662 0.056141
O O16 0.000000 0.129119 0.000000
O O17 0.250000 0.417815 0.221807
O O18 0.463268 0.500000 0.172025
O O19 0.250000 0.731423 0.568599
O O20 0.000000 0.742968 0.500000
#
# Coordination Sequence:
#
# PCOD8209286 Si02
#       7
#     8   8   8   8   8   8   8
#     4   9  19  36  57  81 108 138 168 198 240 295
#     4  10  19  33  53  77 103 131 169 212 252 299
#     4   9  17  30  49  72  99 131 168 210 252 298
#     4   9  18  31  46  67  97 132 170 213 260 308
#     4  10  20  33  51  76 106 139 170 202 242 291
#     4   9  16  27  46  71  97 127 165 211 260 304
#     4  11  22  34  50  71 100 137 176 217 262 307
#
# _framework density 17.634892000000001
#
# number of rings (size 3 to 8) (size 9 to 14) (size 15 to 20)
#    0.000    2.429    1.429    1.286    0.000    3.143 
#    0.000    0.000    0.000    0.857    0.000    0.000 
#    0.000    0.000    0.000    0.000    0.000    0.000 
#
# Total GULP energy -694330.201536 kJ/mol
# GULP energy per Si atom -12398.753599 kJ/mol
# Density = 1.759475 g / cm^3
# Si number density = 17.634892 Si / 1000 Ang^3
#
#
#
# Elastic Constant Matrix: (Units=GPa)
#
#
# Indices 1 2 3 4 5 6 
#
# 1 73.2352 44.0931 40.3663 0.0000 0.0000 0.0000
# 2 44.0931 107.9927 35.4307 0.0000 0.0000 0.0000
# 3 40.3663 35.4307 65.9538 0.0000 0.0000 0.0000
# 4 0.0000 0.0000 0.0000 16.6615 0.0000 0.0000
# 5 0.0000 0.0000 0.0000 0.0000 30.9885 0.0000
# 6 0.0000 0.0000 0.0000 0.0000 0.0000 25.3980
#
#
#
# Elastic Compliance Matrix: (Units=1/GPa)
#
#
# Indices 1 2 3 4 5 6 
#
# 1 0.023318 -0.005874 -0.011116 0.000000 0.000000 0.000000
# 2 -0.005874 0.012721 -0.003239 0.000000 0.000000 0.000000
# 3 -0.011116 -0.003239 0.023706 0.000000 0.000000 0.000000
# 4 0.000000 0.000000 0.000000 0.060019 0.000000 0.000000
# 5 0.000000 0.000000 0.000000 0.000000 0.032270 0.000000
# 6 0.000000 0.000000 0.000000 0.000000 0.000000 0.039373
#
#
# Mechanical properties :
#
#
# Convention : Reuss Voigt Hill
#
# Bulk Modulus (GPa) = 51.84805 54.10690 52.97747
# Shear Modulus (GPa) = 20.98262 23.09572 22.03917
#
# Velocity S-wave (km/s) = 3.45314 3.62285 3.53901
# Velocity P-wave (km/s) = 6.73525 6.94611 6.84149
#
# Compressibility (1/GPa) = 0.01928713
#
# Stress axis : x y z
#
# Youngs Moduli (GPa) = 42.88505 78.61238 42.18422
#
# Poissons Ratio (x) = 0.46174 0.46893
# Poissons Ratio (y) = 0.25189 0.13662
# Poissons Ratio (z) = 0.47672 0.25460
#
# Static dielectric constant tensor:
#      x y z
#    x 3.342240 0.000000 0.000000 
#    y 0.000000 3.443250 0.000000 
#    z 0.000000 0.000000 3.001250 
# 
# 
# High freq. dielectric constant tensor:
#      x y z
#    x 1.688270 0.000000 0.000000 
#    y 0.000000 1.682810 0.000000 
#    z 0.000000 0.000000 1.651890 
# 
# From -- ./inp_files/28163.got.cif
#   From: 2010.03.12/outbox.cif.g09.slc.cpg/sg51_15_cif.got.tgz:28163.got - 2010.04.16 13:43:02.
