data_PCOD8209335
_publ_section_title
;
Structure prediction by ZEFSAII (Michael W. Deem and Ramdas Pophale) SiO2 
 PCOD8209335
Probable space group: P M M A
;
_chemical_formula_sum "Si O2"
_cell_formula_units_Z 48
_cell_length_a 8.794572
_cell_length_b 18.772912
_cell_length_c 15.389020
_cell_angle_alpha 90.000000
_cell_angle_beta 90.000000
_cell_angle_gamma 90.000000
_cell_volume 2540.722989
_symmetry_space_group_name_H-M "P M M A"
_symmetry_group_IT_number 51
_symmetry_cell_setting 'orthorhombic'
loop_
_space_group_symop_operation_xyz
x,y,z
1/2-x,-y,z
1/2+x,-y,-z
-x,y,-z
-x,-y,-z
1/2+x,y,-z
1/2-x,y,z
x,-y,z
loop_
_atom_site_type_symbol
_atom_site_label
_atom_site_fract_x
_atom_site_fract_y
_atom_site_fract_z
Si Si1 0.573867 0.917654 0.246393
Si Si2 0.571457 0.163289 0.910531
Si Si3 0.930681 0.579859 0.752768
Si Si4 0.930036 0.674878 0.910328
Si Si5 0.070483 0.823324 0.590197
Si Si6 0.069204 0.671712 0.409279
O O1 0.750000 0.905319 0.224951
O O2 0.477345 0.886634 0.167853
O O3 0.527883 0.879715 0.335917
O O4 0.533356 0.000000 0.257645
O O5 0.750000 0.159569 0.921073
O O6 0.516689 0.244138 0.892052
O O7 0.500000 0.134527 0.000000
O O8 0.750000 0.578528 0.756950
O O9 0.997429 0.500000 0.757416
O O10 0.994954 0.625536 0.833338
O O11 0.984112 0.615712 0.663213
O O12 0.750000 0.669853 0.916573
O O13 0.000000 0.646369 0.000000
O O14 0.250000 0.813352 0.578837
O O15 0.000000 0.851544 0.500000
O O16 0.996426 0.748405 0.616656
O O17 0.250000 0.677326 0.416421
O O18 0.000000 0.644829 0.500000
#
# Coordination Sequence:
#
# PCOD8209335 Si02
#       6
#     8   8   8   8   8   8
#     4  10  22  38  54  76 107 139 170 209 258 308
#     4  10  20  35  56  80 104 135 175 216 258 304
#     4   9  18  32  50  73 103 138 170 203 250 305
#     4   9  18  33  53  76 101 130 168 211 251 296
#     4  10  20  35  56  79 104 135 171 213 258 304
#     4  10  19  33  54  77 101 132 172 214 254 300
#
# _framework density 18.89226
#
# number of rings (size 3 to 8) (size 9 to 14) (size 15 to 20)
#    0.000    2.333    0.000    3.500    0.000    5.000 
#    0.000    1.667    0.000    3.500    0.000    0.000 
#    0.000    0.000    0.000    0.000    0.000    0.000 
#
# Total GULP energy -595304.879609 kJ/mol
# GULP energy per Si atom -12402.184992 kJ/mol
# Density = 1.884926 g / cm^3
# Si number density = 18.892260 Si / 1000 Ang^3
#
#
#
# Elastic Constant Matrix: (Units=GPa)
#
#
# Indices 1 2 3 4 5 6 
#
# 1 57.1325 29.0439 41.7964 0.0000 0.0000 0.0000
# 2 29.0439 103.7530 80.6888 0.0000 0.0000 0.0000
# 3 41.7964 80.6888 153.4956 0.0000 0.0000 0.0000
# 4 0.0000 0.0000 0.0000 8.0204 0.0000 0.0000
# 5 0.0000 0.0000 0.0000 0.0000 31.7147 0.0000
# 6 0.0000 0.0000 0.0000 0.0000 0.0000 19.6913
#
#
#
# Elastic Compliance Matrix: (Units=1/GPa)
#
#
# Indices 1 2 3 4 5 6 
#
# 1 0.022254 -0.002566 -0.004711 0.000000 0.000000 0.000000
# 2 -0.002566 0.016599 -0.008027 0.000000 0.000000 0.000000
# 3 -0.004711 -0.008027 0.012017 0.000000 0.000000 0.000000
# 4 0.000000 0.000000 0.000000 0.124682 0.000000 0.000000
# 5 0.000000 0.000000 0.000000 0.000000 0.031531 0.000000
# 6 0.000000 0.000000 0.000000 0.000000 0.000000 0.050784
#
#
# Mechanical properties :
#
#
# Convention : Reuss Voigt Hill
#
# Bulk Modulus (GPa) = 49.35207 68.60438 58.97822
# Shear Modulus (GPa) = 16.93598 22.74209 19.83904
#
# Velocity S-wave (km/s) = 2.99733 3.47331 3.24406
# Velocity P-wave (km/s) = 6.17724 7.24414 6.73186
#
# Compressibility (1/GPa) = 0.02026258
#
# Stress axis : x y z
#
# Youngs Moduli (GPa) = 44.93600 60.24358 83.21393
#
# Poissons Ratio (x) = 0.15459 0.39200
# Poissons Ratio (y) = 0.11531 0.66797
# Poissons Ratio (z) = 0.21168 0.48358
#
# Static dielectric constant tensor:
#      x y z
#    x 3.307130 0.000000 0.000000 
#    y 0.000000 3.544750 0.000000 
#    z 0.000000 0.000000 3.609350 
# 
# 
# High freq. dielectric constant tensor:
#      x y z
#    x 1.722030 0.000000 0.000000 
#    y 0.000000 1.729430 0.000000 
#    z 0.000000 0.000000 1.748500 
# 
# From -- ./inp_files/21056.got.cif
#   From: 2010.03.12/outbox.cif.g09.slc.cpg/sg51_11_cif.got.tgz:21056.got - 2010.04.16 13:43:02.
