data_PCOD8209559
_publ_section_title
;
Structure prediction by ZEFSAII (Michael W. Deem and Ramdas Pophale) SiO2 
 PCOD8209559
Probable space group: P M M A
;
_chemical_formula_sum "Si O2"
_cell_formula_units_Z 64
_cell_length_a 30.113996
_cell_length_b 8.967273
_cell_length_c 14.397600
_cell_angle_alpha 90.000000
_cell_angle_beta 90.000000
_cell_angle_gamma 90.000000
_cell_volume 3887.933998
_symmetry_space_group_name_H-M "P M M A"
_symmetry_group_IT_number 51
_symmetry_cell_setting 'orthorhombic'
loop_
_space_group_symop_operation_xyz
x,y,z
1/2-x,-y,z
1/2+x,-y,-z
-x,y,-z
-x,-y,-z
1/2+x,y,-z
1/2-x,y,z
x,-y,z
loop_
_atom_site_type_symbol
_atom_site_label
_atom_site_fract_x
_atom_site_fract_y
_atom_site_fract_z
Si Si1 0.800748 0.672934 0.851067
Si Si2 0.546198 0.329362 0.044139
Si Si3 0.619472 0.675377 0.577649
Si Si4 0.300342 0.173654 0.345275
Si Si5 0.426788 0.168344 0.257044
Si Si6 0.878060 0.831263 0.936415
Si Si7 0.043211 0.674953 0.552446
Si Si8 0.516211 0.669969 0.245879
O O1 0.750000 0.698698 0.882078
O O2 0.811805 0.500000 0.837765
O O3 0.810366 0.752272 0.753436
O O4 0.831684 0.740995 0.932112
O O5 0.551968 0.500000 0.011653
O O6 0.547007 0.314530 0.155626
O O7 0.500000 0.267641 0.000000
O O8 0.588427 0.237281 0.010817
O O9 0.628163 0.500000 0.573071
O O10 0.667123 0.757954 0.576646
O O11 0.593318 0.715196 0.671026
O O12 0.589238 0.734651 0.491971
O O13 0.250000 0.203621 0.377851
O O14 0.310557 0.000000 0.333541
O O15 0.399084 0.177986 0.164221
O O16 0.476359 0.216114 0.232979
O O17 0.426316 0.000000 0.297146
O O18 0.867905 0.000000 0.966621
O O19 0.042017 0.500000 0.534205
O O20 0.043415 0.714746 0.661514
O O21 0.000000 0.745284 0.500000
O O22 0.498379 0.500000 0.255173
#
# Coordination Sequence:
#
# PCOD8209559 Si02
#       8
#     8   8   8   8   8   8   8   8
#     4  10  20  33  51  74  99 128 164 203 240 287
#     4  10  20  32  50  73  95 126 169 210 246 287
#     4  11  20  31  50  71  95 131 169 203 235 285
#     4  10  20  33  48  69 100 131 158 195 245 295
#     4  11  21  30  44  69 100 132 166 202 244 287
#     4  11  22  33  48  70 101 137 165 198 244 294
#     4   9  17  30  49  72  96 127 165 202 246 288
#     4  10  19  34  51  68  96 131 168 209 248 287
#
# _framework density 16.461185
#
# number of rings (size 3 to 8) (size 9 to 14) (size 15 to 20)
#    0.000    1.750    3.750    1.875    0.000    3.250 
#    0.000    1.875    0.000    0.000    0.000    0.875 
#    0.000    3.000    0.000    0.000    0.000    0.000 
#
# Total GULP energy -793565.302019 kJ/mol
# GULP energy per Si atom -12399.457844 kJ/mol
# Density = 1.642372 g / cm^3
# Si number density = 16.461185 Si / 1000 Ang^3
#
#
#
# Elastic Constant Matrix: (Units=GPa)
#
#
# Indices 1 2 3 4 5 6 
#
# 1 122.2461 57.9100 41.5198 0.0000 0.0000 0.0000
# 2 57.9100 71.1034 39.3066 0.0000 0.0000 0.0000
# 3 41.5198 39.3066 73.2907 0.0000 0.0000 0.0000
# 4 0.0000 0.0000 0.0000 10.0355 0.0000 0.0000
# 5 0.0000 0.0000 0.0000 0.0000 -32.0007 0.0000
# 6 0.0000 0.0000 0.0000 0.0000 0.0000 23.5718
#
#
#
# Elastic Compliance Matrix: (Units=1/GPa)
#
#
# Indices 1 2 3 4 5 6 
#
# 1 0.013637 -0.009717 -0.002514 0.000000 0.000000 0.000000
# 2 -0.009717 0.026914 -0.008930 0.000000 0.000000 0.000000
# 3 -0.002514 -0.008930 0.019858 0.000000 0.000000 0.000000
# 4 0.000000 0.000000 0.000000 0.099646 0.000000 0.000000
# 5 0.000000 0.000000 0.000000 0.000000 -0.031249 0.000000
# 6 0.000000 0.000000 0.000000 0.000000 0.000000 0.042424
#
#
# Mechanical properties :
#
#
# Convention : Reuss Voigt Hill
#
# Bulk Modulus (GPa) = 55.28695 60.45699 57.87197
# Shear Modulus (GPa) = 22.77063 8.84824 15.80944
#
# Velocity S-wave (km/s) = 3.72330 2.32097 3.10241
# Velocity P-wave (km/s) = 7.22102 6.63244 6.93298
#
# Compressibility (1/GPa) = 0.01808745
#
# Stress axis : x y z
#
# Youngs Moduli (GPa) = 73.32875 37.15490 50.35790
#
# Poissons Ratio (x) = 0.36103 0.12662
# Poissons Ratio (y) = 0.71252 0.44969
# Poissons Ratio (z) = 0.18437 0.33179
#
# Static dielectric constant tensor:
#      x y z
#    x 3.211210 0.000000 0.000000 
#    y 0.000000 3.166560 0.000000 
#    z 0.000000 0.000000 2.928190 
# 
# 
# High freq. dielectric constant tensor:
#      x y z
#    x 1.630000 0.000000 0.000000 
#    y 0.000000 1.635030 0.000000 
#    z 0.000000 0.000000 1.602830 
# 
# From -- ./inp_files/26700.got.cif
#   From: 2010.03.12/outbox.cif.g09.slc.cpg/sg51_14_cif.got.tgz:26700.got - 2010.04.16 13:43:02.
