data_PCOD8209701
_publ_section_title
;
Structure prediction by ZEFSAII (Michael W. Deem and Ramdas Pophale) SiO2 
 PCOD8209701
Probable space group: P M M A
;
_chemical_formula_sum "Si O2"
_cell_formula_units_Z 52
_cell_length_a 8.975568
_cell_length_b 17.077397
_cell_length_c 18.523822
_cell_angle_alpha 90.000000
_cell_angle_beta 90.000000
_cell_angle_gamma 90.000000
_cell_volume 2839.319174
_symmetry_space_group_name_H-M "P M M A"
_symmetry_group_IT_number 51
_symmetry_cell_setting 'orthorhombic'
loop_
_space_group_symop_operation_xyz
x,y,z
1/2-x,-y,z
1/2+x,-y,-z
-x,y,-z
-x,-y,-z
1/2+x,y,-z
1/2-x,y,z
x,-y,z
loop_
_atom_site_type_symbol
_atom_site_label
_atom_site_fract_x
_atom_site_fract_y
_atom_site_fract_z
Si Si1 0.074162 0.828862 0.078070
Si Si2 0.578026 0.000000 0.924661
Si Si3 0.421283 0.189670 0.329278
Si Si4 0.578290 0.659360 0.576961
Si Si5 0.584894 0.091574 0.431290
Si Si6 0.074776 0.265488 0.800588
Si Si7 0.077987 0.411890 0.709817
O O1 0.250000 0.815537 0.070828
O O2 0.038795 0.916072 0.113598
O O3 0.007729 0.758756 0.126115
O O4 0.000000 0.822454 0.000000
O O5 0.750000 0.000000 0.942785
O O6 0.500000 0.000000 0.000000
O O7 0.250000 0.180910 0.305415
O O8 0.443501 0.253819 0.391811
O O9 0.485578 0.109170 0.361034
O O10 0.521766 0.205991 0.260451
O O11 0.500000 0.650347 0.500000
O O12 0.750000 0.638030 0.566214
O O13 0.511672 0.599614 0.635708
O O14 0.500000 0.127638 0.500000
O O15 0.750000 0.129955 0.426176
O O16 0.601914 0.000000 0.439562
O O17 0.250000 0.258240 0.813107
O O18 0.027491 0.352975 0.774189
O O19 0.250000 0.395744 0.691454
O O20 0.050927 0.500000 0.738045
#
# Coordination Sequence:
#
# PCOD8209701 Si02
#       7
#     8   4   8   8   8   8   8
#     4  10  19  34  56  82 111 142 177 213 254 303
#     4   8  16  30  50  76 106 138 169 202 241 288
#     4  10  20  34  51  71  97 131 171 214 260 310
#     4  10  20  32  49  74 101 131 169 212 260 312
#     4  10  20  33  49  69  94 127 170 217 264 311
#     4  10  20  35  55  79 106 136 171 212 259 312
#     4   9  19  36  56  76 101 135 173 214 262 314
#
# _framework density 18.314249
#
# number of rings (size 3 to 8) (size 9 to 14) (size 15 to 20)
#    0.000    2.308    0.000    2.769    0.000    5.846 
#    1.385    0.000    0.000    0.462    0.000    0.000 
#    0.000    0.000    0.000    0.000    0.000    0.000 
#
# Total GULP energy -644478.813464 kJ/mol
# GULP energy per Si atom -12393.823336 kJ/mol
# Density = 1.827256 g / cm^3
# Si number density = 18.314249 Si / 1000 Ang^3
#
#
#
# Elastic Constant Matrix: (Units=GPa)
#
#
# Indices 1 2 3 4 5 6 
#
# 1 95.0877 41.8371 47.6408 0.0000 0.0000 0.0000
# 2 41.8371 53.0086 51.4601 0.0000 0.0000 0.0000
# 3 47.6408 51.4601 100.5135 0.0000 0.0000 0.0000
# 4 0.0000 0.0000 0.0000 22.6405 0.0000 0.0000
# 5 0.0000 0.0000 0.0000 0.0000 35.7596 0.0000
# 6 0.0000 0.0000 0.0000 0.0000 0.0000 23.0321
#
#
#
# Elastic Compliance Matrix: (Units=1/GPa)
#
#
# Indices 1 2 3 4 5 6 
#
# 1 0.016369 -0.010711 -0.002275 0.000000 0.000000 0.000000
# 2 -0.010711 0.044514 -0.017713 0.000000 0.000000 0.000000
# 3 -0.002275 -0.017713 0.020096 0.000000 0.000000 0.000000
# 4 0.000000 0.000000 0.000000 0.044169 0.000000 0.000000
# 5 0.000000 0.000000 0.000000 0.000000 0.027965 0.000000
# 6 0.000000 0.000000 0.000000 0.000000 0.000000 0.043418
#
#
# Mechanical properties :
#
#
# Convention : Reuss Voigt Hill
#
# Bulk Modulus (GPa) = 51.06984 58.94287 55.00635
# Shear Modulus (GPa) = 18.90681 23.46457 21.18569
#
# Velocity S-wave (km/s) = 3.21651 3.58330 3.40485
# Velocity P-wave (km/s) = 6.46069 7.02667 6.74961
#
# Compressibility (1/GPa) = 0.01958103
#
# Stress axis : x y z
#
# Youngs Moduli (GPa) = 61.09135 22.46466 49.76145
#
# Poissons Ratio (x) = 0.24062 0.11320
# Poissons Ratio (y) = 0.65434 0.88145
# Poissons Ratio (z) = 0.13897 0.39793
#
# Static dielectric constant tensor:
#      x y z
#    x 3.536070 0.000000 0.000000 
#    y 0.000000 3.489180 0.000000 
#    z 0.000000 0.000000 3.163580 
# 
# 
# High freq. dielectric constant tensor:
#      x y z
#    x 1.725780 0.000000 0.000000 
#    y 0.000000 1.700960 0.000000 
#    z 0.000000 0.000000 1.685880 
# 
# From -- ./inp_files/27964.got.cif
#   From: 2010.03.12/outbox.cif.g09.slc.cpg/sg51_14_cif.got.tgz:27964.got - 2010.04.16 13:43:02.
