data_PCOD8209517
_publ_section_title
;
Structure prediction by ZEFSAII (Michael W. Deem and Ramdas Pophale) SiO2 
 PCOD8209517
Probable space group: P M M A
;
_chemical_formula_sum "Si O2"
_cell_formula_units_Z 56
_cell_length_a 16.222329
_cell_length_b 9.395801
_cell_length_c 19.572105
_cell_angle_alpha 90.000000
_cell_angle_beta 90.000000
_cell_angle_gamma 90.000000
_cell_volume 2983.214985
_symmetry_space_group_name_H-M "P M M A"
_symmetry_group_IT_number 51
_symmetry_cell_setting 'orthorhombic'
loop_
_space_group_symop_operation_xyz
x,y,z
1/2-x,-y,z
1/2+x,-y,-z
-x,y,-z
-x,-y,-z
1/2+x,y,-z
1/2-x,y,z
x,-y,z
loop_
_atom_site_type_symbol
_atom_site_label
_atom_site_fract_x
_atom_site_fract_y
_atom_site_fract_z
Si Si1 0.250000 0.170366 0.760876
Si Si2 0.518047 0.336481 0.578643
Si Si3 0.339961 0.660437 0.221395
Si Si4 0.399028 0.661171 0.697763
Si Si5 0.571067 0.831983 0.050331
Si Si6 0.505931 0.342947 0.167098
Si Si7 0.750000 0.831796 0.081113
Si Si8 0.843557 0.836381 0.644660
O O1 0.171499 0.229950 0.720232
O O2 0.250000 0.226001 0.840144
O O3 0.250000 0.000000 0.757174
O O4 0.500000 0.310898 0.500000
O O5 0.539196 0.500000 0.594737
O O6 0.439880 0.290755 0.625802
O O7 0.598117 0.242577 0.591772
O O8 0.250000 0.684085 0.187911
O O9 0.347932 0.500000 0.251421
O O10 0.407556 0.683673 0.162133
O O11 0.354993 0.772774 0.280540
O O12 0.363239 0.500000 0.692512
O O13 0.471466 0.667297 0.753511
O O14 0.551973 0.779110 0.126095
O O15 0.667165 0.783920 0.038781
O O16 0.564089 0.000000 0.048378
O O17 0.500000 0.766573 0.000000
O O18 0.528818 0.500000 0.137838
O O19 0.750000 0.000000 0.087546
O O20 0.750000 0.817271 0.618807
O O21 0.869529 0.000000 0.648619
#
# Coordination Sequence:
#
# PCOD8209517 Si02
#       8
#     4   8   8   8   8   8   4   8
#     4  11  21  35  59  87 113 148 187 230 284 344
#     4  10  21  39  60  80 106 146 192 234 282 339
#     4   9  17  32  54  78 106 141 179 218 263 322
#     4  10  20  36  57  84 113 140 182 240 288 331
#     4  10  21  38  58  79 109 150 189 230 280 336
#     4  10  19  33  56  83 111 140 178 231 283 328
#     4   9  18  35  57  81 109 142 189 230 268 334
#     4  10  20  33  52  79 110 141 175 220 270 324
#
# _framework density 18.771695000000001
#
# number of rings (size 3 to 8) (size 9 to 14) (size 15 to 20)
#    0.000    2.143    2.857    0.643    0.000    2.571 
#    2.571    0.357    0.000    0.000    0.000    0.000 
#    0.000    0.000    0.000    0.000    0.000    0.000 
#
# Total GULP energy -694018.282795 kJ/mol
# GULP energy per Si atom -12393.183621 kJ/mol
# Density = 1.872897 g / cm^3
# Si number density = 18.771695 Si / 1000 Ang^3
#
#
#
# Elastic Constant Matrix: (Units=GPa)
#
#
# Indices 1 2 3 4 5 6 
#
# 1 146.3479 49.4042 47.4660 0.0000 0.0000 0.0000
# 2 49.4042 58.8022 18.1133 0.0000 0.0000 0.0000
# 3 47.4660 18.1133 70.3442 0.0000 0.0000 0.0000
# 4 0.0000 0.0000 0.0000 13.4079 0.0000 0.0000
# 5 0.0000 0.0000 0.0000 0.0000 26.8656 0.0000
# 6 0.0000 0.0000 0.0000 0.0000 0.0000 30.0913
#
#
#
# Elastic Compliance Matrix: (Units=1/GPa)
#
#
# Indices 1 2 3 4 5 6 
#
# 1 0.011263 -0.007736 -0.005608 0.000000 0.000000 0.000000
# 2 -0.007736 0.023784 -0.000905 0.000000 0.000000 0.000000
# 3 -0.005608 -0.000905 0.018233 0.000000 0.000000 0.000000
# 4 0.000000 0.000000 0.000000 0.074583 0.000000 0.000000
# 5 0.000000 0.000000 0.000000 0.000000 0.037222 0.000000
# 6 0.000000 0.000000 0.000000 0.000000 0.000000 0.033232
#
#
# Mechanical properties :
#
#
# Convention : Reuss Voigt Hill
#
# Bulk Modulus (GPa) = 40.34931 56.16237 48.25584
# Shear Modulus (GPa) = 21.26969 24.77367 23.02168
#
# Velocity S-wave (km/s) = 3.36977 3.63676 3.50580
# Velocity P-wave (km/s) = 6.05655 6.90060 6.49231
#
# Compressibility (1/GPa) = 0.02478357
#
# Stress axis : x y z
#
# Youngs Moduli (GPa) = 88.78300 42.04490 54.84557
#
# Poissons Ratio (x) = 0.32525 0.30759
# Poissons Ratio (y) = 0.68680 0.04961
# Poissons Ratio (z) = 0.49792 0.03803
#
# Static dielectric constant tensor:
#      x y z
#    x 3.879750 0.000000 0.000000 
#    y 0.000000 3.390560 0.000000 
#    z 0.000000 0.000000 3.180930 
# 
# 
# High freq. dielectric constant tensor:
#      x y z
#    x 1.746800 0.000000 0.000000 
#    y 0.000000 1.720280 0.000000 
#    z 0.000000 0.000000 1.697490 
# 
# From -- ./inp_files/33561.got.cif
#   From: 2010.03.12/outbox.cif.g09.slc.cpg/sg51_17_cif.got.tgz:33561.got - 2010.04.16 13:43:02.
