data_PCOD8209447
_publ_section_title
;
Structure prediction by ZEFSAII (Michael W. Deem and Ramdas Pophale) SiO2 
 PCOD8209447
Probable space group: P M M A
;
_chemical_formula_sum "Si O2"
_cell_formula_units_Z 56
_cell_length_a 15.733287
_cell_length_b 9.202966
_cell_length_c 19.493234
_cell_angle_alpha 90.000000
_cell_angle_beta 90.000000
_cell_angle_gamma 90.000000
_cell_volume 2822.481985
_symmetry_space_group_name_H-M "P M M A"
_symmetry_group_IT_number 51
_symmetry_cell_setting 'orthorhombic'
loop_
_space_group_symop_operation_xyz
x,y,z
1/2-x,-y,z
1/2+x,-y,-z
-x,y,-z
-x,-y,-z
1/2+x,y,-z
1/2-x,y,z
x,-y,z
loop_
_atom_site_type_symbol
_atom_site_label
_atom_site_fract_x
_atom_site_fract_y
_atom_site_fract_z
Si Si1 0.506959 0.170221 0.919988
Si Si2 0.592211 0.836387 0.301108
Si Si3 0.348975 0.669060 0.569956
Si Si4 0.898280 0.835085 0.710755
Si Si5 0.657386 0.827622 0.158332
Si Si6 0.346365 0.331735 0.159346
Si Si7 0.149428 0.163501 0.437831
O O1 0.420488 0.235610 0.886368
O O2 0.589963 0.250273 0.891669
O O3 0.517882 0.000000 0.903485
O O4 0.500000 0.201035 0.000000
O O5 0.601043 0.731449 0.365411
O O6 0.497348 0.832504 0.271357
O O7 0.649957 0.781477 0.238116
O O8 0.617063 0.000000 0.323969
O O9 0.250000 0.705700 0.579366
O O10 0.366909 0.500000 0.565174
O O11 0.385622 0.740122 0.500451
O O12 0.849547 0.734624 0.764421
O O13 0.884371 0.772771 0.634093
O O14 0.862342 0.000000 0.715136
O O15 0.750000 0.771146 0.131871
O O16 0.653416 0.000000 0.152560
O O17 0.250000 0.313217 0.131672
O O18 0.372340 0.500000 0.163275
O O19 0.250000 0.168118 0.436572
O O20 0.115130 0.000000 0.448307
#
# Coordination Sequence:
#
# PCOD8209447 Si02
#       7
#     8   8   8   8   8   8   8
#     4  10  21  39  64  93 123 155 196 245 292 341
#     4  10  19  33  55  79 107 145 188 239 296 346
#     4  10  21  35  50  72 106 146 189 237 287 347
#     4  10  20  36  59  85 111 144 194 250 294 341
#     4   9  17  32  56  86 117 148 188 238 292 347
#     4  11  24  40  60  88 124 165 202 238 290 354
#     4   9  18  33  53  76 103 139 185 238 294 346
#
# _framework density 19.840693000000002
#
# number of rings (size 3 to 8) (size 9 to 14) (size 15 to 20)
#    0.000    2.143    1.429    1.714    0.000    5.714 
#    0.000    5.714    0.000    0.429    0.000    0.000 
#    0.000    0.000    0.000    0.000    0.000    0.000 
#
# Total GULP energy -694412.367046 kJ/mol
# GULP energy per Si atom -12400.220840 kJ/mol
# Density = 1.979554 g / cm^3
# Si number density = 19.840693 Si / 1000 Ang^3
#
#
#
# Elastic Constant Matrix: (Units=GPa)
#
#
# Indices 1 2 3 4 5 6 
#
# 1 99.6714 41.0242 59.0407 0.0000 0.0000 0.0000
# 2 41.0242 78.4477 53.7151 0.0000 0.0000 0.0000
# 3 59.0407 53.7151 117.2459 0.0000 0.0000 0.0000
# 4 0.0000 0.0000 0.0000 13.9252 0.0000 0.0000
# 5 0.0000 0.0000 0.0000 0.0000 27.5587 0.0000
# 6 0.0000 0.0000 0.0000 0.0000 0.0000 23.2275
#
#
#
# Elastic Compliance Matrix: (Units=1/GPa)
#
#
# Indices 1 2 3 4 5 6 
#
# 1 0.015080 -0.003914 -0.005800 0.000000 0.000000 0.000000
# 2 -0.003914 0.019590 -0.007004 0.000000 0.000000 0.000000
# 3 -0.005800 -0.007004 0.014659 0.000000 0.000000 0.000000
# 4 0.000000 0.000000 0.000000 0.071812 0.000000 0.000000
# 5 0.000000 0.000000 0.000000 0.000000 0.036286 0.000000
# 6 0.000000 0.000000 0.000000 0.000000 0.000000 0.043052
#
#
# Mechanical properties :
#
#
# Convention : Reuss Voigt Hill
#
# Bulk Modulus (GPa) = 62.92680 66.99166 64.95923
# Shear Modulus (GPa) = 20.90180 22.38129 21.64154
#
# Velocity S-wave (km/s) = 3.24926 3.36229 3.30626
# Velocity P-wave (km/s) = 6.77213 6.99367 6.88379
#
# Compressibility (1/GPa) = 0.01589148
#
# Stress axis : x y z
#
# Youngs Moduli (GPa) = 66.31298 51.04613 68.21887
#
# Poissons Ratio (x) = 0.19982 0.39570
# Poissons Ratio (y) = 0.25958 0.47780
# Poissons Ratio (z) = 0.38464 0.35752
#
# Static dielectric constant tensor:
#      x y z
#    x 3.673030 0.000000 0.000000 
#    y 0.000000 3.394310 0.000000 
#    z 0.000000 0.000000 3.602860 
# 
# 
# High freq. dielectric constant tensor:
#      x y z
#    x 1.778960 0.000000 0.000000 
#    y 0.000000 1.743410 0.000000 
#    z 0.000000 0.000000 1.776350 
# 
# From -- ./inp_files/33486.got.cif
#   From: 2010.03.12/outbox.cif.g09.slc.cpg/sg51_17_cif.got.tgz:33486.got - 2010.04.16 13:43:02.
