data_PCOD8209951
_publ_section_title
;
Structure prediction by ZEFSAII (Michael W. Deem and Ramdas Pophale) SiO2 
 PCOD8209951
Probable space group: P M M A
;
_chemical_formula_sum "Si O2"
_cell_formula_units_Z 64
_cell_length_a 28.345762
_cell_length_b 9.177844
_cell_length_c 12.719404
_cell_angle_alpha 90.000000
_cell_angle_beta 90.000000
_cell_angle_gamma 90.000000
_cell_volume 3308.990876
_symmetry_space_group_name_H-M "P M M A"
_symmetry_group_IT_number 51
_symmetry_cell_setting 'orthorhombic'
loop_
_space_group_symop_operation_xyz
x,y,z
1/2-x,-y,z
1/2+x,-y,-z
-x,y,-z
-x,-y,-z
1/2+x,y,-z
1/2-x,y,z
x,-y,z
loop_
_atom_site_type_symbol
_atom_site_label
_atom_site_fract_x
_atom_site_fract_y
_atom_site_fract_z
Si Si1 0.805659 0.661862 0.818075
Si Si2 0.392214 0.166702 0.861714
Si Si3 0.389922 0.670622 0.461570
Si Si4 0.053440 0.665174 0.037308
Si Si5 0.543619 0.327696 0.724623
Si Si6 0.696986 0.834316 0.017722
Si Si7 0.560338 0.329334 0.322481
Si Si8 0.695883 0.172050 0.609066
O O1 0.750000 0.651074 0.825587
O O2 0.828052 0.500000 0.805146
O O3 0.820013 0.760872 0.720216
O O4 0.824503 0.734137 0.924967
O O5 0.335919 0.181675 0.880064
O O6 0.403822 0.255417 0.757910
O O7 0.407541 0.000000 0.846142
O O8 0.417467 0.226553 0.965215
O O9 0.378154 0.500000 0.454700
O O10 0.417577 0.728327 0.358303
O O11 0.423055 0.706203 0.560174
O O12 0.340432 0.757743 0.474552
O O13 0.072734 0.500000 0.026804
O O14 0.057867 0.720629 0.157843
O O15 0.000000 0.670127 0.000000
O O16 0.539819 0.500000 0.716489
O O17 0.492081 0.264414 0.694343
O O18 0.750000 0.786569 0.049452
O O19 0.696855 0.000000 0.975657
O O20 0.561476 0.500000 0.298335
O O21 0.750000 0.213874 0.580320
O O22 0.689676 0.000000 0.613090
#
# Coordination Sequence:
#
# PCOD8209951 Si02
#       8
#     8   8   8   8   8   8   8   8
#     4   9  17  30  51  78 106 137 177 227 276 322
#     4  11  23  36  55  83 115 149 190 236 280 331
#     4  10  21  36  60  89 111 141 190 243 282 324
#     4  10  19  35  58  83 113 149 184 220 274 344
#     4   9  18  35  59  86 114 145 183 227 281 342
#     4   9  19  36  54  75 108 149 188 226 276 336
#     4  10  20  39  61  81 110 148 189 232 283 340
#     4  10  21  37  55  77 112 154 188 223 275 338
#
# _framework density 19.341245000000001
#
# number of rings (size 3 to 8) (size 9 to 14) (size 15 to 20)
#    0.000    2.250    1.250    1.500    1.750    5.500 
#    0.000    1.250    0.000    3.750    0.000    0.000 
#    0.000    0.000    0.000    0.000    0.000    0.000 
#
# Total GULP energy -793563.535920 kJ/mol
# GULP energy per Si atom -12399.430249 kJ/mol
# Density = 1.929722 g / cm^3
# Si number density = 19.341245 Si / 1000 Ang^3
#
#
#
# Elastic Constant Matrix: (Units=GPa)
#
#
# Indices 1 2 3 4 5 6 
#
# 1 77.8314 35.0448 34.1711 0.0000 0.0000 0.0000
# 2 35.0448 67.0564 38.0639 0.0000 0.0000 0.0000
# 3 34.1711 38.0639 102.1448 0.0000 0.0000 0.0000
# 4 0.0000 0.0000 0.0000 22.6842 0.0000 0.0000
# 5 0.0000 0.0000 0.0000 0.0000 23.1108 0.0000
# 6 0.0000 0.0000 0.0000 0.0000 0.0000 24.8384
#
#
#
# Elastic Compliance Matrix: (Units=1/GPa)
#
#
# Indices 1 2 3 4 5 6 
#
# 1 0.017548 -0.007405 -0.003111 0.000000 0.000000 0.000000
# 2 -0.007405 0.022038 -0.005735 0.000000 0.000000 0.000000
# 3 -0.003111 -0.005735 0.012968 0.000000 0.000000 0.000000
# 4 0.000000 0.000000 0.000000 0.044084 0.000000 0.000000
# 5 0.000000 0.000000 0.000000 0.000000 0.043270 0.000000
# 6 0.000000 0.000000 0.000000 0.000000 0.000000 0.040260
#
#
# Mechanical properties :
#
#
# Convention : Reuss Voigt Hill
#
# Bulk Modulus (GPa) = 49.87051 51.28803 50.57927
# Shear Modulus (GPa) = 22.79405 23.44353 23.11879
#
# Velocity S-wave (km/s) = 3.43668 3.48530 3.46108
# Velocity P-wave (km/s) = 6.44889 6.53999 6.49460
#
# Compressibility (1/GPa) = 0.02005193
#
# Stress axis : x y z
#
# Youngs Moduli (GPa) = 56.98511 45.37529 77.11280
#
# Poissons Ratio (x) = 0.33601 0.23990
# Poissons Ratio (y) = 0.42198 0.44226
# Poissons Ratio (z) = 0.17729 0.26024
#
# Static dielectric constant tensor:
#      x y z
#    x 3.771570 0.000000 0.000000 
#    y 0.000000 3.459580 0.000000 
#    z 0.000000 0.000000 3.490570 
# 
# 
# High freq. dielectric constant tensor:
#      x y z
#    x 1.761900 0.000000 0.000000 
#    y 0.000000 1.736110 0.000000 
#    z 0.000000 0.000000 1.739510 
# 
# From -- ./inp_files/19453.got.cif
#   From: 2010.03.12/outbox.cif.g09.slc.cpg/sg51_10_cif.got.tgz:19453.got - 2010.04.16 13:43:02.
