data_PCOD8209856
_publ_section_title
;
Structure prediction by ZEFSAII (Michael W. Deem and Ramdas Pophale) SiO2 
 PCOD8209856
Probable space group: P M M A
;
_chemical_formula_sum "Si O2"
_cell_formula_units_Z 64
_cell_length_a 24.425555
_cell_length_b 14.661493
_cell_length_c 8.706511
_cell_angle_alpha 90.000000
_cell_angle_beta 90.000000
_cell_angle_gamma 90.000000
_cell_volume 3117.933089
_symmetry_space_group_name_H-M "P M M A"
_symmetry_group_IT_number 51
_symmetry_cell_setting 'orthorhombic'
loop_
_space_group_symop_operation_xyz
x,y,z
1/2-x,-y,z
1/2+x,-y,-z
-x,y,-z
-x,-y,-z
1/2+x,y,-z
1/2-x,y,z
x,-y,z
loop_
_atom_site_type_symbol
_atom_site_label
_atom_site_fract_x
_atom_site_fract_y
_atom_site_fract_z
Si Si1 0.645164 0.398466 0.763312
Si Si2 0.687571 0.220596 0.639137
Si Si3 0.020153 0.598976 0.325842
Si Si4 0.896782 0.896269 0.163554
Si Si5 0.185838 0.229220 0.706284
Si Si6 0.313414 0.602461 0.906700
Si Si7 0.098029 0.104438 0.194916
Si Si8 0.006048 0.792768 0.681205
O O1 0.667414 0.500000 0.727170
O O2 0.685565 0.326257 0.686377
O O3 0.585087 0.385551 0.692057
O O4 0.647027 0.381999 0.947145
O O5 0.750000 0.186110 0.649710
O O6 0.664024 0.215915 0.466566
O O7 0.651812 0.158167 0.751689
O O8 0.004782 0.500000 0.248206
O O9 0.000000 0.593794 0.500000
O O10 0.993268 0.689077 0.248643
O O11 0.837594 0.851965 0.189511
O O12 0.938720 0.840507 0.267950
O O13 0.896507 0.000000 0.220952
O O14 0.910955 0.889435 0.986071
O O15 0.250000 0.218757 0.710502
O O16 0.168091 0.327862 0.773210
O O17 0.250000 0.619298 0.955119
O O18 0.320927 0.500000 0.841565
O O19 0.044377 0.147841 0.264214
O O20 0.103782 0.000000 0.249212
O O21 0.000000 0.785115 0.500000
#
# Coordination Sequence:
#
# PCOD8209856 Si02
#       8
#     8   8   8   8   8   8   8   8
#     4  10  19  34  60  90 121 160 205 249 298 359
#     4  11  23  39  61  92 123 157 205 253 306 368
#     4   9  19  35  58  90 126 162 200 245 299 359
#     4  11  25  42  63  90 119 158 207 254 306 368
#     4  10  23  40  60  89 126 162 198 249 309 367
#     4   9  18  35  59  88 124 163 203 249 302 363
#     4  11  24  43  64  88 120 158 202 256 310 361
#     4  11  22  39  66  93 122 161 202 250 306 359
#
# _framework density 20.526418
#
# number of rings (size 3 to 8) (size 9 to 14) (size 15 to 20)
#    0.000    1.750    1.250    2.625    1.750    6.750 
#    0.000    4.375    0.000    2.250    0.000    0.000 
#    0.000    0.000    0.000    0.000    0.000    0.000 
#
# Total GULP energy -793387.818972 kJ/mol
# GULP energy per Si atom -12396.684671 kJ/mol
# Density = 2.047970 g / cm^3
# Si number density = 20.526418 Si / 1000 Ang^3
#
#
#
# Elastic Constant Matrix: (Units=GPa)
#
#
# Indices 1 2 3 4 5 6 
#
# 1 51.1972 41.4906 31.0193 0.0000 0.0000 0.0000
# 2 41.4906 159.6124 38.6949 0.0000 0.0000 0.0000
# 3 31.0193 38.6949 63.1774 0.0000 0.0000 0.0000
# 4 0.0000 0.0000 0.0000 30.4085 0.0000 0.0000
# 5 0.0000 0.0000 0.0000 0.0000 29.0439 0.0000
# 6 0.0000 0.0000 0.0000 0.0000 0.0000 17.8883
#
#
#
# Elastic Compliance Matrix: (Units=1/GPa)
#
#
# Indices 1 2 3 4 5 6 
#
# 1 0.031013 -0.005132 -0.012083 0.000000 0.000000 0.000000
# 2 -0.005132 0.008207 -0.002507 0.000000 0.000000 0.000000
# 3 -0.012083 -0.002507 0.023297 0.000000 0.000000 0.000000
# 4 0.000000 0.000000 0.000000 0.032886 0.000000 0.000000
# 5 0.000000 0.000000 0.000000 0.000000 0.034431 0.000000
# 6 0.000000 0.000000 0.000000 0.000000 0.000000 0.055903
#
#
# Mechanical properties :
#
#
# Convention : Reuss Voigt Hill
#
# Bulk Modulus (GPa) = 43.34374 55.15519 49.24947
# Shear Modulus (GPa) = 21.47121 26.32030 23.89576
#
# Velocity S-wave (km/s) = 3.23774 3.58476 3.41566
# Velocity P-wave (km/s) = 5.92784 6.63797 6.29293
#
# Compressibility (1/GPa) = 0.02307138
#
# Stress axis : x y z
#
# Youngs Moduli (GPa) = 32.24503 121.84741 42.92478
#
# Poissons Ratio (x) = 0.62534 0.51868
# Poissons Ratio (y) = 0.16549 0.10760
# Poissons Ratio (z) = 0.38963 0.30544
#
# Static dielectric constant tensor:
#      x y z
#    x 3.683150 0.000000 0.000000 
#    y 0.000000 4.221920 0.000000 
#    z 0.000000 0.000000 3.878000 
# 
# 
# High freq. dielectric constant tensor:
#      x y z
#    x 1.798350 0.000000 0.000000 
#    y 0.000000 1.822860 0.000000 
#    z 0.000000 0.000000 1.793230 
# 
# From -- ./inp_files/11904.got.cif
#   From: 2010.03.12/outbox.cif.g09.slc.cpg/sg51_6_cif.got.tgz:11904.got - 2010.04.16 13:43:02.
