data_PCOD8209344
_publ_section_title
;
Structure prediction by ZEFSAII (Michael W. Deem and Ramdas Pophale) SiO2 
 PCOD8209344
Probable space group: P M M A
;
_chemical_formula_sum "Si O2"
_cell_formula_units_Z 48
_cell_length_a 9.370365
_cell_length_b 20.041407
_cell_length_c 14.459271
_cell_angle_alpha 90.000000
_cell_angle_beta 90.000000
_cell_angle_gamma 90.000000
_cell_volume 2715.383116
_symmetry_space_group_name_H-M "P M M A"
_symmetry_group_IT_number 51
_symmetry_cell_setting 'orthorhombic'
loop_
_space_group_symop_operation_xyz
x,y,z
1/2-x,-y,z
1/2+x,-y,-z
-x,y,-z
-x,-y,-z
1/2+x,y,-z
1/2-x,y,z
x,-y,z
loop_
_atom_site_type_symbol
_atom_site_label
_atom_site_fract_x
_atom_site_fract_y
_atom_site_fract_z
Si Si1 0.919038 0.925749 0.215945
Si Si2 0.584885 0.422069 0.908794
Si Si3 0.086281 0.278792 0.586421
Si Si4 0.083338 0.875975 0.588728
Si Si5 0.583426 0.195188 0.093829
Si Si6 0.085164 0.325499 0.786745
O O1 0.750000 0.917499 0.219694
O O2 0.976047 0.912467 0.319589
O O3 0.977947 0.871923 0.142482
O O4 0.965658 0.000000 0.184294
O O5 0.750000 0.402473 0.921944
O O6 0.566075 0.500000 0.889021
O O7 0.517875 0.383294 0.822898
O O8 0.500000 0.399786 0.000000
O O9 0.250000 0.287845 0.561097
O O10 0.048951 0.201685 0.602522
O O11 0.046802 0.318404 0.679090
O O12 0.000000 0.308934 0.500000
O O13 0.250000 0.889654 0.573288
O O14 0.000000 0.904799 0.500000
O O15 0.750000 0.188240 0.070666
O O16 0.553664 0.256145 0.162353
O O17 0.500000 0.208348 0.000000
O O18 0.250000 0.346261 0.800777
#
# Coordination Sequence:
#
# PCOD8209344 Si02
#       6
#     8   8   8   8   8   8
#     4   9  17  31  50  68  92 131 170 202 247 305
#     4  10  21  36  54  79 110 140 170 205 247 297
#     4   9  17  30  49  74 102 132 165 206 252 298
#     4   9  16  29  48  70  96 126 161 202 249 299
#     4  10  20  34  50  71  97 126 166 212 252 295
#     4  10  19  33  54  77 104 135 169 209 252 298
#
# _framework density 17.677063
#
# number of rings (size 3 to 8) (size 9 to 14) (size 15 to 20)
#    0.000    2.500    1.667    1.000    0.000    4.333 
#    0.000    0.833    0.000    1.500    0.000    0.000 
#    0.000    0.000    0.000    0.000    0.000    0.000 
#
# Total GULP energy -595216.460808 kJ/mol
# GULP energy per Si atom -12400.342934 kJ/mol
# Density = 1.763683 g / cm^3
# Si number density = 17.677063 Si / 1000 Ang^3
#
#
#
# Elastic Constant Matrix: (Units=GPa)
#
#
# Indices 1 2 3 4 5 6 
#
# 1 68.1397 40.4387 55.8616 0.0000 0.0000 0.0000
# 2 40.4387 64.9533 43.6846 0.0000 0.0000 0.0000
# 3 55.8616 43.6846 116.5305 0.0000 0.0000 0.0000
# 4 0.0000 0.0000 0.0000 26.8827 0.0000 0.0000
# 5 0.0000 0.0000 0.0000 0.0000 32.5755 0.0000
# 6 0.0000 0.0000 0.0000 0.0000 0.0000 15.8307
#
#
#
# Elastic Compliance Matrix: (Units=1/GPa)
#
#
# Indices 1 2 3 4 5 6 
#
# 1 0.029819 -0.011969 -0.009808 0.000000 0.000000 0.000000
# 2 -0.011969 0.025390 -0.003781 0.000000 0.000000 0.000000
# 3 -0.009808 -0.003781 0.014700 0.000000 0.000000 0.000000
# 4 0.000000 0.000000 0.000000 0.037199 0.000000 0.000000
# 5 0.000000 0.000000 0.000000 0.000000 0.030698 0.000000
# 6 0.000000 0.000000 0.000000 0.000000 0.000000 0.063169
#
#
# Mechanical properties :
#
#
# Convention : Reuss Voigt Hill
#
# Bulk Modulus (GPa) = 53.20484 58.84371 56.02427
# Shear Modulus (GPa) = 19.35332 22.36700 20.86016
#
# Velocity S-wave (km/s) = 3.31241 3.56098 3.43894
# Velocity P-wave (km/s) = 6.69275 7.08999 6.89423
#
# Compressibility (1/GPa) = 0.01879528
#
# Stress axis : x y z
#
# Youngs Moduli (GPa) = 33.53540 39.38592 68.02586
#
# Poissons Ratio (x) = 0.47140 0.66718
# Poissons Ratio (y) = 0.40137 0.25718
# Poissons Ratio (z) = 0.32891 0.14890
#
# Static dielectric constant tensor:
#      x y z
#    x 3.133310 0.000000 0.000000 
#    y 0.000000 3.178580 0.000000 
#    z 0.000000 0.000000 3.419770 
# 
# 
# High freq. dielectric constant tensor:
#      x y z
#    x 1.663180 0.000000 0.000000 
#    y 0.000000 1.670540 0.000000 
#    z 0.000000 0.000000 1.689170 
# 
# From -- ./inp_files/21085.got.cif
#   From: 2010.03.12/outbox.cif.g09.slc.cpg/sg51_11_cif.got.tgz:21085.got - 2010.04.16 13:43:02.
