data_PCOD8209272
_publ_section_title
;
Structure prediction by ZEFSAII (Michael W. Deem and Ramdas Pophale) SiO2 
 PCOD8209272
Probable space group: P M M A
;
_chemical_formula_sum "Si O2"
_cell_formula_units_Z 52
_cell_length_a 9.244392
_cell_length_b 15.635681
_cell_length_c 19.617498
_cell_angle_alpha 90.000000
_cell_angle_beta 90.000000
_cell_angle_gamma 90.000000
_cell_volume 2835.559544
_symmetry_space_group_name_H-M "P M M A"
_symmetry_group_IT_number 51
_symmetry_cell_setting 'orthorhombic'
loop_
_space_group_symop_operation_xyz
x,y,z
1/2-x,-y,z
1/2+x,-y,-z
-x,y,-z
-x,-y,-z
1/2+x,y,-z
1/2-x,y,z
x,-y,z
loop_
_atom_site_type_symbol
_atom_site_label
_atom_site_fract_x
_atom_site_fract_y
_atom_site_fract_z
Si Si1 0.920582 0.686106 0.572447
Si Si2 0.414223 0.353234 0.934936
Si Si3 0.413261 0.500000 0.432308
Si Si4 0.078638 0.405359 0.789225
Si Si5 0.414355 0.150652 0.934828
Si Si6 0.077391 0.249659 0.696940
Si Si7 0.421058 0.904887 0.789875
O O1 0.750000 0.706754 0.564334
O O2 0.945715 0.590217 0.605331
O O3 0.000000 0.695196 0.500000
O O4 0.996558 0.751477 0.624340
O O5 0.250000 0.383505 0.944065
O O6 0.482449 0.392009 0.865710
O O7 0.426009 0.251912 0.929489
O O8 0.500000 0.389000 0.000000
O O9 0.250000 0.500000 0.457285
O O10 0.500000 0.500000 0.500000
O O11 0.250000 0.395859 0.793050
O O12 0.032538 0.500000 0.762794
O O13 0.020641 0.332095 0.738991
O O14 0.250000 0.120165 0.943634
O O15 0.483691 0.112203 0.865587
O O16 0.500000 0.114892 0.000000
O O17 0.250000 0.250987 0.685827
O O18 0.022498 0.164595 0.735733
O O19 0.250000 0.894238 0.794955
O O20 0.466301 0.000000 0.765471
#
# Coordination Sequence:
#
# PCOD8209272 Si02
#       7
#     8   8   4   8   8   8   8
#     4  10  20  35  54  78 107 138 169 202 242 289
#     4   9  16  28  45  64  90 125 166 210 250 292
#     4   8  16  30  48  72 104 136 165 194 229 278
#     4   9  17  29  46  69  96 129 169 208 246 294
#     4   9  16  28  46  68  94 125 162 205 252 300
#     4  10  19  33  53  76 101 131 168 207 250 300
#     4   9  17  31  52  75  99 130 169 210 253 304
#
# _framework density 18.338532000000001
#
# number of rings (size 3 to 8) (size 9 to 14) (size 15 to 20)
#    0.000    2.769    1.538    0.462    1.077    1.231 
#    0.000    1.538    0.000    2.769    0.000    0.000 
#    0.000    0.000    0.000    0.000    0.000    0.000 
#
# Total GULP energy -644386.464836 kJ/mol
# GULP energy per Si atom -12392.047401 kJ/mol
# Density = 1.829679 g / cm^3
# Si number density = 18.338532 Si / 1000 Ang^3
#
#
#
# Elastic Constant Matrix: (Units=GPa)
#
#
# Indices 1 2 3 4 5 6 
#
# 1 49.1388 27.5339 41.5487 0.0000 0.0000 0.0000
# 2 27.5339 99.7904 64.8808 0.0000 0.0000 0.0000
# 3 41.5487 64.8808 129.4958 0.0000 0.0000 0.0000
# 4 0.0000 0.0000 0.0000 17.2799 0.0000 0.0000
# 5 0.0000 0.0000 0.0000 0.0000 29.9004 0.0000
# 6 0.0000 0.0000 0.0000 0.0000 0.0000 9.8968
#
#
#
# Elastic Compliance Matrix: (Units=1/GPa)
#
#
# Indices 1 2 3 4 5 6 
#
# 1 0.028460 -0.002841 -0.007708 0.000000 0.000000 0.000000
# 2 -0.002841 0.015146 -0.006677 0.000000 0.000000 0.000000
# 3 -0.007708 -0.006677 0.013541 0.000000 0.000000 0.000000
# 4 0.000000 0.000000 0.000000 0.057871 0.000000 0.000000
# 5 0.000000 0.000000 0.000000 0.000000 0.033444 0.000000
# 6 0.000000 0.000000 0.000000 0.000000 0.000000 0.101043
#
#
# Mechanical properties :
#
#
# Convention : Reuss Voigt Hill
#
# Bulk Modulus (GPa) = 44.06340 60.70576 52.38458
# Shear Modulus (GPa) = 17.15142 21.04620 19.09881
#
# Velocity S-wave (km/s) = 3.06153 3.39137 3.23066
# Velocity P-wave (km/s) = 6.04791 6.96491 6.52254
#
# Compressibility (1/GPa) = 0.02269457
#
# Stress axis : x y z
#
# Youngs Moduli (GPa) = 35.13742 66.02339 73.85153
#
# Poissons Ratio (x) = 0.18758 0.56923
# Poissons Ratio (y) = 0.09983 0.49311
# Poissons Ratio (z) = 0.27083 0.44084
#
# Static dielectric constant tensor:
#      x y z
#    x 3.068390 0.000000 0.000000 
#    y 0.000000 3.580130 0.000000 
#    z 0.000000 0.000000 3.318200 
# 
# 
# High freq. dielectric constant tensor:
#      x y z
#    x 1.671770 0.000000 0.000000 
#    y 0.000000 1.701880 0.000000 
#    z 0.000000 0.000000 1.707160 
# 
# From -- ./inp_files/31783.got.cif
#   From: 2010.03.12/outbox.cif.g09.slc.cpg/sg51_16_cif.got.tgz:31783.got - 2010.04.16 13:43:02.
