data_PCOD8209033
_publ_section_title
;
Structure prediction by ZEFSAII (Michael W. Deem and Ramdas Pophale) SiO2 
 PCOD8209033
Probable space group: P M M A
;
_chemical_formula_sum "Si O2"
_cell_formula_units_Z 46
_cell_length_a 23.416166
_cell_length_b 11.776327
_cell_length_c 9.617281
_cell_angle_alpha 90.000000
_cell_angle_beta 90.000000
_cell_angle_gamma 90.000000
_cell_volume 2652.027055
_symmetry_space_group_name_H-M "P M M A"
_symmetry_group_IT_number 51
_symmetry_cell_setting 'orthorhombic'
loop_
_space_group_symop_operation_xyz
x,y,z
1/2-x,-y,z
1/2+x,-y,-z
-x,y,-z
-x,-y,-z
1/2+x,y,-z
1/2-x,y,z
x,-y,z
loop_
_atom_site_type_symbol
_atom_site_label
_atom_site_fract_x
_atom_site_fract_y
_atom_site_fract_z
Si Si1 0.250000 0.755304 0.224198
Si Si2 0.475787 0.364854 0.643341
Si Si3 0.686010 0.000000 0.032208
Si Si4 0.750000 0.366185 0.489305
Si Si5 0.050301 0.374686 0.105857
Si Si6 0.654315 0.244370 0.008419
Si Si7 0.650765 0.634958 0.288929
Si Si8 0.250000 0.000000 0.230008
O O1 0.250000 0.665530 0.348028
O O2 0.250000 0.878071 0.307332
O O3 0.196542 0.740545 0.121686
O O4 0.500000 0.315010 0.500000
O O5 0.471706 0.500000 0.640222
O O6 0.522747 0.324940 0.754269
O O7 0.412558 0.316745 0.676951
O O8 0.651959 0.884826 0.068612
O O9 0.750000 0.000000 0.101952
O O10 0.693306 0.000000 0.865575
O O11 0.750000 0.500000 0.483807
O O12 0.806466 0.320974 0.409654
O O13 0.079367 0.500000 0.129426
O O14 0.093028 0.281622 0.046925
O O15 0.000000 0.394120 0.000000
O O16 0.672553 0.321327 0.139280
O O17 0.650436 0.500000 0.280871
#
# Coordination Sequence:
#
# PCOD8209033 Si02
#       8
#     4   8   4   4   8   8   8   2
#     4  10  21  35  54  78 100 136 182 225 265 314
#     4   9  18  32  50  72 105 145 175 203 253 317
#     4   8  18  36  54  77 104 134 182 232 267 316
#     4  10  23  34  45  77 117 141 167 214 271 330
#     4  10  19  32  52  82 109 133 174 218 255 317
#     4  11  19  35  60  78 101 140 179 227 272 308
#     4  10  20  35  52  76 111 143 171 213 271 326
#     4   6  14  36  54  68  96 126 174 222 264 298
#
# _framework density 17.345224000000002
#
# number of rings (size 3 to 8) (size 9 to 14) (size 15 to 20)
#    0.261    2.087    2.609    1.043    2.435    1.391 
#    0.000    1.304    0.000    0.000    0.000    1.217 
#    0.000    0.000    0.000    0.000    0.000    0.000 
#
# Total GULP energy -569885.314899 kJ/mol
# GULP energy per Si atom -12388.811193 kJ/mol
# Density = 1.730575 g / cm^3
# Si number density = 17.345224 Si / 1000 Ang^3
#
#
#
# Elastic Constant Matrix: (Units=GPa)
#
#
# Indices 1 2 3 4 5 6 
#
# 1 91.6746 44.7447 36.7021 0.0000 0.0000 0.0000
# 2 44.7447 50.1537 21.7030 0.0000 0.0000 0.0000
# 3 36.7021 21.7030 116.4734 0.0000 0.0000 0.0000
# 4 0.0000 0.0000 0.0000 10.5490 0.0000 0.0000
# 5 0.0000 0.0000 0.0000 0.0000 27.8448 0.0000
# 6 0.0000 0.0000 0.0000 0.0000 0.0000 22.6176
#
#
#
# Elastic Compliance Matrix: (Units=1/GPa)
#
#
# Indices 1 2 3 4 5 6 
#
# 1 0.020430 -0.016795 -0.003308 0.000000 0.000000 0.000000
# 2 -0.016795 0.035494 -0.001322 0.000000 0.000000 0.000000
# 3 -0.003308 -0.001322 0.009874 0.000000 0.000000 0.000000
# 4 0.000000 0.000000 0.000000 0.094796 0.000000 0.000000
# 5 0.000000 0.000000 0.000000 0.000000 0.035913 0.000000
# 6 0.000000 0.000000 0.000000 0.000000 0.000000 0.044213
#
#
# Mechanical properties :
#
#
# Convention : Reuss Voigt Hill
#
# Bulk Modulus (GPa) = 43.57475 51.62236 47.59855
# Shear Modulus (GPa) = 17.16914 22.54575 19.85744
#
# Velocity S-wave (km/s) = 3.14960 3.60922 3.38721
# Velocity P-wave (km/s) = 6.19703 6.86986 6.54210
#
# Compressibility (1/GPa) = 0.02294907
#
# Stress axis : x y z
#
# Youngs Moduli (GPa) = 48.94769 28.17350 101.27256
#
# Poissons Ratio (x) = 0.47318 0.33503
# Poissons Ratio (y) = 0.82208 0.13383
# Poissons Ratio (z) = 0.16193 0.03723
#
# Static dielectric constant tensor:
#      x y z
#    x 3.236430 0.000000 0.000000 
#    y 0.000000 3.090350 0.000000 
#    z 0.000000 0.000000 3.850980 
# 
# 
# High freq. dielectric constant tensor:
#      x y z
#    x 1.668480 0.000000 0.000000 
#    y 0.000000 1.635960 0.000000 
#    z 0.000000 0.000000 1.665920 
# 
# From -- ./inp_files/11734.got.cif
#   From: 2010.03.12/outbox.cif.g09.slc.cpg/sg51_6_cif.got.tgz:11734.got - 2010.04.16 13:43:02.
