data_PCOD8209858
_publ_section_title
;
Structure prediction by ZEFSAII (Michael W. Deem and Ramdas Pophale) SiO2 
 PCOD8209858
Probable space group: P M M A
;
_chemical_formula_sum "Si O2"
_cell_formula_units_Z 56
_cell_length_a 16.377888
_cell_length_b 30.879685
_cell_length_c 5.195124
_cell_angle_alpha 90.000000
_cell_angle_beta 90.000000
_cell_angle_gamma 90.000000
_cell_volume 2627.402909
_symmetry_space_group_name_H-M "P M M A"
_symmetry_group_IT_number 51
_symmetry_cell_setting 'orthorhombic'
loop_
_space_group_symop_operation_xyz
x,y,z
1/2-x,-y,z
1/2+x,-y,-z
-x,y,-z
-x,-y,-z
1/2+x,y,-z
1/2-x,y,z
x,-y,z
loop_
_atom_site_type_symbol
_atom_site_label
_atom_site_fract_x
_atom_site_fract_y
_atom_site_fract_z
Si Si1 0.052773 0.451752 0.245292
Si Si2 0.414808 0.050498 0.767238
Si Si3 0.845781 0.369333 0.678627
Si Si4 0.152995 0.682087 0.818722
Si Si5 0.155086 0.180753 0.401370
Si Si6 0.595072 0.912244 0.731514
Si Si7 0.092487 0.224215 0.914665
O O1 0.088949 0.500000 0.195857
O O2 0.125538 0.418438 0.290124
O O3 0.000000 0.451899 0.500000
O O4 0.000000 0.436938 0.000000
O O5 0.364866 0.061828 0.508774
O O6 0.499115 0.077107 0.749746
O O7 0.433549 0.000000 0.794577
O O8 0.363375 0.068810 0.009201
O O9 0.750000 0.371740 0.660278
O O10 0.879817 0.346386 0.421075
O O11 0.874495 0.341792 0.922624
O O12 0.250000 0.689640 0.802301
O O13 0.107583 0.727647 0.812279
O O14 0.250000 0.172291 0.455796
O O15 0.109872 0.138483 0.294120
O O16 0.113615 0.193701 0.671706
O O17 0.146999 0.215791 0.170368
O O18 0.000000 0.216684 0.000000
#
# Coordination Sequence:
#
# PCOD8209858 Si02
#       7
#     8   8   8   8   8   8   8
#     4  10  21  37  57  86 122 162 201 252 313 363
#     4  10  19  34  60  91 123 159 202 253 306 355
#     4  10  21  37  62  89 117 160 205 249 301 375
#     4  10  21  40  62  88 123 160 200 248 318 377
#     4  12  26  44  65  91 131 173 207 254 330 385
#     4  10  20  33  58  86 118 158 203 242 296 365
#     4  12  27  43  67  95 125 160 218 272 312 373
#
# _framework density 21.313821999999998
#
# number of rings (size 3 to 8) (size 9 to 14) (size 15 to 20)
#    0.000    1.429    0.000    6.429    6.000    3.143 
#    0.000    0.000    0.000    9.857    0.000    0.000 
#    0.000    0.000    0.000    0.000    0.000    0.000 
#
# Total GULP energy -694261.040996 kJ/mol
# GULP energy per Si atom -12397.518589 kJ/mol
# Density = 2.126531 g / cm^3
# Si number density = 21.313822 Si / 1000 Ang^3
#
#
#
# Elastic Constant Matrix: (Units=GPa)
#
#
# Indices 1 2 3 4 5 6 
#
# 1 45.2067 44.6919 30.6185 0.0000 0.0000 0.0000
# 2 44.6919 141.5197 55.8321 0.0000 0.0000 0.0000
# 3 30.6185 55.8321 207.7053 0.0000 0.0000 0.0000
# 4 0.0000 0.0000 0.0000 42.6064 0.0000 0.0000
# 5 0.0000 0.0000 0.0000 0.0000 19.7752 0.0000
# 6 0.0000 0.0000 0.0000 0.0000 0.0000 12.8544
#
#
#
# Elastic Compliance Matrix: (Units=1/GPa)
#
#
# Indices 1 2 3 4 5 6 
#
# 1 0.033129 -0.009548 -0.002317 0.000000 0.000000 0.000000
# 2 -0.009548 0.010656 -0.001457 0.000000 0.000000 0.000000
# 3 -0.002317 -0.001457 0.005548 0.000000 0.000000 0.000000
# 4 0.000000 0.000000 0.000000 0.023471 0.000000 0.000000
# 5 0.000000 0.000000 0.000000 0.000000 0.050568 0.000000
# 6 0.000000 0.000000 0.000000 0.000000 0.000000 0.077794
#
#
# Mechanical properties :
#
#
# Convention : Reuss Voigt Hill
#
# Bulk Modulus (GPa) = 44.07424 72.96853 58.52138
# Shear Modulus (GPa) = 21.24277 32.59980 26.92129
#
# Velocity S-wave (km/s) = 3.16043 3.91514 3.55785
# Velocity P-wave (km/s) = 5.83450 7.39915 6.66291
#
# Compressibility (1/GPa) = 0.02268899
#
# Stress axis : x y z
#
# Youngs Moduli (GPa) = 30.18468 93.84182 180.25434
#
# Poissons Ratio (x) = 0.89601 0.41767
# Poissons Ratio (y) = 0.28821 0.26262
# Poissons Ratio (z) = 0.06994 0.13672
#
# Static dielectric constant tensor:
#      x y z
#    x 3.400680 0.000000 0.000000 
#    y 0.000000 3.964660 0.000000 
#    z 0.000000 0.000000 7.146740 
# 
# 
# High freq. dielectric constant tensor:
#      x y z
#    x 1.795160 0.000000 0.000000 
#    y 0.000000 1.844780 0.000000 
#    z 0.000000 0.000000 1.874670 
# 
# From -- ./inp_files/1482.got.cif
#   From: 2010.03.12/outbox.cif.g09.slc.cpg/sg51_1_cif.got.tgz:1482.got - 2010.04.16 13:43:02.
