data_PCOD8209258
_publ_section_title
;
Structure prediction by ZEFSAII (Michael W. Deem and Ramdas Pophale) SiO2 
 PCOD8209258
Probable space group: P M M A
;
_chemical_formula_sum "Si O2"
_cell_formula_units_Z 64
_cell_length_a 31.105766
_cell_length_b 9.138758
_cell_length_c 12.133873
_cell_angle_alpha 90.000000
_cell_angle_beta 90.000000
_cell_angle_gamma 90.000000
_cell_volume 3449.272634
_symmetry_space_group_name_H-M "P M M A"
_symmetry_group_IT_number 51
_symmetry_cell_setting 'orthorhombic'
loop_
_space_group_symop_operation_xyz
x,y,z
1/2-x,-y,z
1/2+x,-y,-z
-x,y,-z
-x,-y,-z
1/2+x,y,-z
1/2-x,y,z
x,-y,z
loop_
_atom_site_type_symbol
_atom_site_label
_atom_site_fract_x
_atom_site_fract_y
_atom_site_fract_z
Si Si1 0.299991 0.334162 0.729830
Si Si2 0.133006 0.172328 0.589600
Si Si3 0.011302 0.333655 0.379170
Si Si4 0.556838 0.827149 0.248484
Si Si5 0.125916 0.673592 0.127275
Si Si6 0.951305 0.672793 0.025329
Si Si7 0.297622 0.325660 0.977753
Si Si8 0.887863 0.333199 0.630470
O O1 0.250000 0.327685 0.701069
O O2 0.317215 0.500000 0.717638
O O3 0.323700 0.230077 0.644343
O O4 0.308392 0.274972 0.853491
O O5 0.092535 0.222776 0.663034
O O6 0.129912 0.234610 0.466966
O O7 0.135410 0.000000 0.580432
O O8 0.994419 0.500000 0.364875
O O9 0.061334 0.323865 0.359468
O O10 0.000000 0.273621 0.500000
O O11 0.989079 0.230851 0.289450
O O12 0.555273 0.000000 0.233642
O O13 0.567396 0.753513 0.132198
O O14 0.128425 0.500000 0.125617
O O15 0.080137 0.720135 0.074486
O O16 0.166179 0.740094 0.059053
O O17 0.130051 0.728350 0.253173
O O18 0.949928 0.500000 0.047215
O O19 0.000000 0.724260 0.000000
O O20 0.250000 0.268702 0.012642
O O21 0.297569 0.500000 0.980192
O O22 0.873182 0.500000 0.609186
#
# Coordination Sequence:
#
# PCOD8209258 Si02
#       8
#     8   8   8   8   8   8   8   8
#     4   9  18  34  58  84 106 132 170 216 264 316
#     4  11  23  36  51  76 109 143 176 212 262 318
#     4  10  19  33  53  74  98 137 185 229 271 309
#     4  11  23  35  51  77 109 141 177 220 268 325
#     4   9  17  30  50  75 102 134 170 217 269 312
#     4  10  20  35  55  77 103 135 176 223 271 324
#     4   8  14  27  50  80 107 128 157 203 260 315
#     4  10  20  35  54  76 103 137 182 227 264 312
#
# _framework density 18.554637
#
# number of rings (size 3 to 8) (size 9 to 14) (size 15 to 20)
#    0.000    2.250    1.250    3.000    0.000    5.750 
#    0.000    1.250    0.000    3.000    0.000    0.000 
#    0.000    0.000    0.000    0.000    0.000    0.000 
#
# Total GULP energy -793625.603169 kJ/mol
# GULP energy per Si atom -12400.400050 kJ/mol
# Density = 1.851241 g / cm^3
# Si number density = 18.554637 Si / 1000 Ang^3
#
#
#
# Elastic Constant Matrix: (Units=GPa)
#
#
# Indices 1 2 3 4 5 6 
#
# 1 98.5615 30.2713 66.1491 0.0000 0.0000 0.0000
# 2 30.2713 47.9739 45.7606 0.0000 0.0000 0.0000
# 3 66.1491 45.7606 154.5160 0.0000 0.0000 0.0000
# 4 0.0000 0.0000 0.0000 17.8264 0.0000 0.0000
# 5 0.0000 0.0000 0.0000 0.0000 33.9847 0.0000
# 6 0.0000 0.0000 0.0000 0.0000 0.0000 6.1340
#
#
#
# Elastic Compliance Matrix: (Units=1/GPa)
#
#
# Indices 1 2 3 4 5 6 
#
# 1 0.014941 -0.004636 -0.005023 0.000000 0.000000 0.000000
# 2 -0.004636 0.030490 -0.007045 0.000000 0.000000 0.000000
# 3 -0.005023 -0.007045 0.010709 0.000000 0.000000 0.000000
# 4 0.000000 0.000000 0.000000 0.056096 0.000000 0.000000
# 5 0.000000 0.000000 0.000000 0.000000 0.029425 0.000000
# 6 0.000000 0.000000 0.000000 0.000000 0.000000 0.163025
#
#
# Mechanical properties :
#
#
# Convention : Reuss Voigt Hill
#
# Bulk Modulus (GPa) = 43.99296 65.04594 54.51945
# Shear Modulus (GPa) = 14.46455 22.18038 18.32247
#
# Velocity S-wave (km/s) = 2.79510 3.46122 3.14584
# Velocity P-wave (km/s) = 5.84621 7.14884 6.53009
#
# Compressibility (1/GPa) = 0.02273091
#
# Stress axis : x y z
#
# Youngs Moduli (GPa) = 66.92843 32.79755 93.38138
#
# Poissons Ratio (x) = 0.15206 0.46909
# Poissons Ratio (y) = 0.31030 0.65787
# Poissons Ratio (z) = 0.33621 0.23106
#
# Static dielectric constant tensor:
#      x y z
#    x 3.479530 0.000000 0.000000 
#    y 0.000000 3.086770 0.000000 
#    z 0.000000 0.000000 2.814240 
# 
# 
# High freq. dielectric constant tensor:
#      x y z
#    x 1.718020 0.000000 0.000000 
#    y 0.000000 1.683710 0.000000 
#    z 0.000000 0.000000 1.727860 
# 
# From -- ./inp_files/19485.got.cif
#   From: 2010.03.12/outbox.cif.g09.slc.cpg/sg51_10_cif.got.tgz:19485.got - 2010.04.16 13:43:02.
