data_PCOD8209825
_publ_section_title
;
Structure prediction by ZEFSAII (Michael W. Deem and Ramdas Pophale) SiO2 
 PCOD8209825
Probable space group: P M M A
;
_chemical_formula_sum "Si O2"
_cell_formula_units_Z 64
_cell_length_a 19.340025
_cell_length_b 8.929954
_cell_length_c 19.004288
_cell_angle_alpha 90.000000
_cell_angle_beta 90.000000
_cell_angle_gamma 90.000000
_cell_volume 3282.145700
_symmetry_space_group_name_H-M "P M M A"
_symmetry_group_IT_number 51
_symmetry_cell_setting 'orthorhombic'
loop_
_space_group_symop_operation_xyz
x,y,z
1/2-x,-y,z
1/2+x,-y,-z
-x,y,-z
-x,-y,-z
1/2+x,y,-z
1/2-x,y,z
x,-y,z
loop_
_atom_site_type_symbol
_atom_site_label
_atom_site_fract_x
_atom_site_fract_y
_atom_site_fract_z
Si Si1 0.522331 0.333283 0.799345
Si Si2 0.169731 0.672464 0.979541
Si Si3 0.563703 0.323063 0.642966
Si Si4 0.863470 0.666273 0.170220
Si Si5 0.669319 0.822195 0.550913
Si Si6 0.944941 0.823841 0.942275
Si Si7 0.577104 0.322680 0.430179
Si Si8 0.676109 0.676518 0.313164
O O1 0.553671 0.500000 0.810310
O O2 0.543624 0.271082 0.722074
O O3 0.440822 0.341664 0.802882
O O4 0.545141 0.226095 0.862149
O O5 0.250000 0.690374 0.994281
O O6 0.145417 0.500000 0.984172
O O7 0.131004 0.767233 0.038351
O O8 0.148743 0.747889 0.904166
O O9 0.575630 0.500000 0.641545
O O10 0.635389 0.239380 0.623353
O O11 0.503735 0.284012 0.584065
O O12 0.832673 0.500000 0.157827
O O13 0.823925 0.748066 0.234626
O O14 0.750000 0.767946 0.543164
O O15 0.616334 0.759878 0.492868
O O16 0.667346 0.000000 0.550140
O O17 0.948975 0.000000 0.944053
O O18 0.000000 0.757624 0.000000
O O19 0.586667 0.500000 0.442121
O O20 0.615545 0.260140 0.361027
O O21 0.750000 0.712148 0.349160
O O22 0.664074 0.500000 0.303821
#
# Coordination Sequence:
#
# PCOD8209825 Si02
#       8
#     8   8   8   8   8   8   8   8
#     4  10  19  35  60  87 114 145 185 238 289 333
#     4  10  20  34  56  85 113 146 189 235 286 341
#     4  10  21  38  62  91 117 143 185 238 289 342
#     4   9  15  27  49  79 114 145 177 222 276 332
#     4  11  25  42  58  80 113 154 197 237 282 337
#     4  11  23  37  55  81 114 154 195 231 273 331
#     4  10  19  34  58  89 118 146 183 230 281 337
#     4   9  15  24  44  78 117 150 178 214 267 329
#
# _framework density 19.499438000000001
#
# number of rings (size 3 to 8) (size 9 to 14) (size 15 to 20)
#    0.000    2.000    2.500    1.875    0.000    6.250 
#    0.000    0.625    0.000    1.500    0.000    0.000 
#    0.000    0.000    0.000    0.000    0.000    0.000 
#
# Total GULP energy -792895.231262 kJ/mol
# GULP energy per Si atom -12388.987988 kJ/mol
# Density = 1.945506 g / cm^3
# Si number density = 19.499438 Si / 1000 Ang^3
#
#
#
# Elastic Constant Matrix: (Units=GPa)
#
#
# Indices 1 2 3 4 5 6 
#
# 1 110.9721 36.2397 55.2313 0.0000 0.0000 0.0000
# 2 36.2397 48.3889 36.8938 0.0000 0.0000 0.0000
# 3 55.2313 36.8938 102.3287 0.0000 0.0000 0.0000
# 4 0.0000 0.0000 0.0000 207.3844 0.0000 0.0000
# 5 0.0000 0.0000 0.0000 0.0000 27.4471 0.0000
# 6 0.0000 0.0000 0.0000 0.0000 0.0000 19.3218
#
#
#
# Elastic Compliance Matrix: (Units=1/GPa)
#
#
# Indices 1 2 3 4 5 6 
#
# 1 0.013594 -0.006325 -0.005057 0.000000 0.000000 0.000000
# 2 -0.006325 0.031444 -0.007923 0.000000 0.000000 0.000000
# 3 -0.005057 -0.007923 0.015358 0.000000 0.000000 0.000000
# 4 0.000000 0.000000 0.000000 0.004822 0.000000 0.000000
# 5 0.000000 0.000000 0.000000 0.000000 0.036434 0.000000
# 6 0.000000 0.000000 0.000000 0.000000 0.000000 0.051755
#
#
# Mechanical properties :
#
#
# Convention : Reuss Voigt Hill
#
# Bulk Modulus (GPa) = 45.90032 57.60215 51.75124
# Shear Modulus (GPa) = 25.09066 59.71897 42.40482
#
# Velocity S-wave (km/s) = 3.59100 5.54008 4.66839
# Velocity P-wave (km/s) = 6.38625 8.39809 7.46030
#
# Compressibility (1/GPa) = 0.02178634
#
# Stress axis : x y z
#
# Youngs Moduli (GPa) = 73.56436 31.80285 65.11212
#
# Poissons Ratio (x) = 0.20116 0.32924
# Poissons Ratio (y) = 0.46531 0.51587
# Poissons Ratio (z) = 0.37198 0.25197
#
# Static dielectric constant tensor:
#      x y z
#    x 3.679470 0.000000 0.000000 
#    y 0.000000 3.161440 0.000000 
#    z 0.000000 0.000000 3.812910 
# 
# 
# High freq. dielectric constant tensor:
#      x y z
#    x 1.761070 0.000000 0.000000 
#    y 0.000000 1.711400 0.000000 
#    z 0.000000 0.000000 1.770470 
# 
# From -- ./inp_files/30656.got.cif
#   From: 2010.03.12/outbox.cif.g09.slc.cpg/sg51_16_cif.got.tgz:30656.got - 2010.04.16 13:43:02.
