data_PCOD8209284
_publ_section_title
;
Structure prediction by ZEFSAII (Michael W. Deem and Ramdas Pophale) SiO2 
 PCOD8209284
Probable space group: P M M A
;
_chemical_formula_sum "Si O2"
_cell_formula_units_Z 36
_cell_length_a 8.991508
_cell_length_b 22.350386
_cell_length_c 10.126499
_cell_angle_alpha 90.000000
_cell_angle_beta 90.000000
_cell_angle_gamma 90.000000
_cell_volume 2035.058449
_symmetry_space_group_name_H-M "P M M A"
_symmetry_group_IT_number 51
_symmetry_cell_setting 'orthorhombic'
loop_
_space_group_symop_operation_xyz
x,y,z
1/2-x,-y,z
1/2+x,-y,-z
-x,y,-z
-x,-y,-z
1/2+x,y,-z
1/2-x,y,z
x,-y,z
loop_
_atom_site_type_symbol
_atom_site_label
_atom_site_fract_x
_atom_site_fract_y
_atom_site_fract_z
Si Si1 0.924944 0.289940 0.636549
Si Si2 0.075192 0.068141 0.134513
Si Si3 0.076895 0.848454 0.367113
Si Si4 0.919521 0.500000 0.135681
Si Si5 0.574046 0.629980 0.144079
O O1 0.750000 0.303439 0.629055
O O2 0.959359 0.220488 0.662367
O O3 0.000000 0.311248 0.500000
O O4 0.997649 0.323830 0.758440
O O5 0.250000 0.075451 0.116773
O O6 0.013301 0.111226 0.248744
O O7 0.030968 0.000000 0.169039
O O8 0.000000 0.089555 0.000000
O O9 0.250000 0.859490 0.385658
O O10 0.000000 0.870730 0.500000
O O11 0.750000 0.500000 0.095262
O O12 0.956389 0.436797 0.207558
O O13 0.000000 0.500000 0.000000
O O14 0.750000 0.643237 0.132763
O O15 0.500000 0.636324 0.000000
#
# Coordination Sequence:
#
# PCOD8209284 Si02
#       5
#     8   8   8   4   8
#     4  10  20  35  52  72 100 133 167 205 250 296
#     4   9  18  33  51  72  99 129 161 199 242 287
#     4   9  19  34  51  72  98 128 163 202 243 289
#     4   8  16  30  49  72  99 128 160 200 244 290
#     4  10  19  33  53  77 102 130 165 204 246 293
#
# _framework density 17.689909
#
# number of rings (size 3 to 8) (size 9 to 14) (size 15 to 20)
#    0.000    2.667    0.000    1.333    0.000    4.000 
#    0.000    2.778    0.000    0.000    0.000    0.000 
#    0.000    0.000    0.000    0.000    0.000    0.000 
#
# Total GULP energy -446210.570884 kJ/mol
# GULP energy per Si atom -12394.738080 kJ/mol
# Density = 1.764965 g / cm^3
# Si number density = 17.689909 Si / 1000 Ang^3
#
#
#
# Elastic Constant Matrix: (Units=GPa)
#
#
# Indices 1 2 3 4 5 6 
#
# 1 67.3831 46.6217 58.4960 0.0000 0.0000 0.0000
# 2 46.6217 96.2656 88.7071 0.0000 0.0000 0.0000
# 3 58.4960 88.7071 150.0418 0.0000 0.0000 0.0000
# 4 0.0000 0.0000 0.0000 8.9801 0.0000 0.0000
# 5 0.0000 0.0000 0.0000 0.0000 35.5561 0.0000
# 6 0.0000 0.0000 0.0000 0.0000 0.0000 22.1996
#
#
#
# Elastic Compliance Matrix: (Units=1/GPa)
#
#
# Indices 1 2 3 4 5 6 
#
# 1 0.024230 -0.006656 -0.005511 0.000000 0.000000 0.000000
# 2 -0.006656 0.024649 -0.011978 0.000000 0.000000 0.000000
# 3 -0.005511 -0.011978 0.015895 0.000000 0.000000 0.000000
# 4 0.000000 0.000000 0.000000 0.111357 0.000000 0.000000
# 5 0.000000 0.000000 0.000000 0.000000 0.028125 0.000000
# 6 0.000000 0.000000 0.000000 0.000000 0.000000 0.045046
#
#
# Mechanical properties :
#
#
# Convention : Reuss Voigt Hill
#
# Bulk Modulus (GPa) = 60.66672 77.92668 69.29670
# Shear Modulus (GPa) = 16.49690 21.33819 18.91755
#
# Velocity S-wave (km/s) = 3.05710 3.47686 3.27371
# Velocity P-wave (km/s) = 6.84325 7.76306 7.31763
#
# Compressibility (1/GPa) = 0.01648350
#
# Stress axis : x y z
#
# Youngs Moduli (GPa) = 41.27057 40.56971 62.91326
#
# Poissons Ratio (x) = 0.27005 0.34673
# Poissons Ratio (y) = 0.27471 0.75356
# Poissons Ratio (z) = 0.22745 0.48593
#
# Static dielectric constant tensor:
#      x y z
#    x 3.353470 0.000000 0.000000 
#    y 0.000000 3.916810 0.000000 
#    z 0.000000 0.000000 3.211880 
# 
# 
# High freq. dielectric constant tensor:
#      x y z
#    x 1.690660 0.000000 0.000000 
#    y 0.000000 1.691550 0.000000 
#    z 0.000000 0.000000 1.672300 
# 
# From -- ./inp_files/5028.got.cif
#   From: 2010.03.12/outbox.cif.g09.slc.cpg/sg51_3_cif.got.tgz:5028.got - 2010.04.16 13:43:02.
