data_PCOD8209100
_publ_section_title
;
Structure prediction by ZEFSAII (Michael W. Deem and Ramdas Pophale) SiO2 
 PCOD8209100
Probable space group: P M M A
;
_chemical_formula_sum "Si O2"
_cell_formula_units_Z 40
_cell_length_a 8.885628
_cell_length_b 25.585391
_cell_length_c 9.234255
_cell_angle_alpha 90.000000
_cell_angle_beta 90.000000
_cell_angle_gamma 90.000000
_cell_volume 2099.336463
_symmetry_space_group_name_H-M "P M M A"
_symmetry_group_IT_number 51
_symmetry_cell_setting 'orthorhombic'
loop_
_space_group_symop_operation_xyz
x,y,z
1/2-x,-y,z
1/2+x,-y,-z
-x,y,-z
-x,-y,-z
1/2+x,y,-z
1/2-x,y,z
x,-y,z
loop_
_atom_site_type_symbol
_atom_site_label
_atom_site_fract_x
_atom_site_fract_y
_atom_site_fract_z
Si Si1 0.071818 0.331246 0.158145
Si Si2 0.925228 0.757538 0.346425
Si Si3 0.924586 0.060994 0.649399
Si Si4 0.075158 0.857884 0.848496
Si Si5 0.425282 0.444899 0.153974
O O1 0.250000 0.322150 0.144590
O O2 0.031520 0.389109 0.225837
O O3 0.002808 0.291099 0.269891
O O4 0.000000 0.323437 0.000000
O O5 0.750000 0.745329 0.365353
O O6 0.954444 0.809289 0.255072
O O7 0.000000 0.767197 0.500000
O O8 0.750000 0.075412 0.640194
O O9 0.000000 0.079394 0.500000
O O10 0.999810 0.090511 0.782950
O O11 0.951670 0.000000 0.676666
O O12 0.250000 0.869232 0.872095
O O13 0.000000 0.843960 0.000000
O O14 0.250000 0.444164 0.125017
O O15 0.468796 0.500000 0.238249
O O16 0.500000 0.446777 0.000000
#
# Coordination Sequence:
#
# PCOD8209100 Si02
#       5
#     8   8   8   8   8
#     4  10  19  32  53  80 110 143 179 222 270 320
#     4  11  24  40  58  80 107 141 181 225 274 328
#     4  10  21  38  61  88 118 152 188 226 269 319
#     4  11  24  40  60  85 113 146 183 226 274 323
#     4   8  14  25  43  70 103 137 173 214 261 313
#
# _framework density 19.053640999999999
#
# number of rings (size 3 to 8) (size 9 to 14) (size 15 to 20)
#    0.000    2.000    0.000    3.600    0.000    8.800 
#    0.000    0.000    0.000    0.600    0.000    0.000 
#    0.000    0.000    0.000    0.000    0.000    0.000 
#
# Total GULP energy -495744.852132 kJ/mol
# GULP energy per Si atom -12393.621303 kJ/mol
# Density = 1.901027 g / cm^3
# Si number density = 19.053641 Si / 1000 Ang^3
#
#
#
# Elastic Constant Matrix: (Units=GPa)
#
#
# Indices 1 2 3 4 5 6 
#
# 1 120.3926 73.3990 68.1829 0.0000 0.0000 0.0000
# 2 73.3990 110.5243 52.8164 0.0000 0.0000 0.0000
# 3 68.1829 52.8164 108.5644 0.0000 0.0000 0.0000
# 4 0.0000 0.0000 0.0000 -60.0940 0.0000 0.0000
# 5 0.0000 0.0000 0.0000 0.0000 33.3951 0.0000
# 6 0.0000 0.0000 0.0000 0.0000 0.0000 26.5587
#
#
#
# Elastic Compliance Matrix: (Units=1/GPa)
#
#
# Indices 1 2 3 4 5 6 
#
# 1 0.017096 -0.008107 -0.006793 0.000000 0.000000 0.000000
# 2 -0.008107 0.015633 -0.002514 0.000000 0.000000 0.000000
# 3 -0.006793 -0.002514 0.014700 0.000000 0.000000 0.000000
# 4 0.000000 0.000000 0.000000 -0.016641 0.000000 0.000000
# 5 0.000000 0.000000 0.000000 0.000000 0.029944 0.000000
# 6 0.000000 0.000000 0.000000 0.000000 0.000000 0.037652
#
#
# Mechanical properties :
#
#
# Convention : Reuss Voigt Hill
#
# Bulk Modulus (GPa) = 79.35517 80.91978 80.13747
# Shear Modulus (GPa) = 36.38655 9.64417 23.01536
#
# Velocity S-wave (km/s) = 4.37474 2.25224 3.47929
# Velocity P-wave (km/s) = 8.20101 7.02318 7.63484
#
# Compressibility (1/GPa) = 0.01260157
#
# Stress axis : x y z
#
# Youngs Moduli (GPa) = 58.49379 63.96706 68.02643
#
# Poissons Ratio (x) = 0.51860 0.46208
# Poissons Ratio (y) = 0.47422 0.17100
# Poissons Ratio (z) = 0.39733 0.16080
#
# Static dielectric constant tensor:
#      x y z
#    x 3.667030 0.000000 0.000000 
#    y 0.000000 4.094250 0.000000 
#    z 0.000000 0.000000 3.183380 
# 
# 
# High freq. dielectric constant tensor:
#      x y z
#    x 1.756790 0.000000 0.000000 
#    y 0.000000 1.768300 0.000000 
#    z 0.000000 0.000000 1.709570 
# 
# From -- ./inp_files/5197.got.cif
#   From: 2010.03.12/outbox.cif.g09.slc.cpg/sg51_3_cif.got.tgz:5197.got - 2010.04.16 13:43:02.
