data_PCOD8209986
_publ_section_title
;
Structure prediction by ZEFSAII (Michael W. Deem and Ramdas Pophale) SiO2 
 PCOD8209986
Probable space group: P M M A
;
_chemical_formula_sum "Si O2"
_cell_formula_units_Z 56
_cell_length_a 22.020703
_cell_length_b 8.888246
_cell_length_c 14.526757
_cell_angle_alpha 90.000000
_cell_angle_beta 90.000000
_cell_angle_gamma 90.000000
_cell_volume 2843.255693
_symmetry_space_group_name_H-M "P M M A"
_symmetry_group_IT_number 51
_symmetry_cell_setting 'orthorhombic'
loop_
_space_group_symop_operation_xyz
x,y,z
1/2-x,-y,z
1/2+x,-y,-z
-x,y,-z
-x,-y,-z
1/2+x,y,-z
1/2-x,y,z
x,-y,z
loop_
_atom_site_type_symbol
_atom_site_label
_atom_site_fract_x
_atom_site_fract_y
_atom_site_fract_z
Si Si1 0.078958 0.327116 0.772429
Si Si2 0.452125 0.675788 0.308830
Si Si3 0.250000 0.663017 0.161538
Si Si4 0.250000 0.335502 0.372951
Si Si5 0.366186 0.821712 0.449257
Si Si6 0.378512 0.322040 0.132153
Si Si7 0.067411 0.166069 0.964244
Si Si8 0.320861 0.324984 0.629272
O O1 0.074107 0.500000 0.804811
O O2 0.072044 0.222733 0.860478
O O3 0.144160 0.294527 0.725218
O O4 0.024116 0.292900 0.700804
O O5 0.438007 0.500000 0.321995
O O6 0.427047 0.760411 0.399391
O O7 0.420317 0.739659 0.215360
O O8 0.250000 0.500000 0.110226
O O9 0.250000 0.627978 0.267925
O O10 0.188660 0.752766 0.137060
O O11 0.250000 0.500000 0.425079
O O12 0.191394 0.238747 0.394823
O O13 0.359035 0.766374 0.553772
O O14 0.368088 0.000000 0.447668
O O15 0.374774 0.500000 0.143333
O O16 0.400724 0.283041 0.031182
O O17 0.097325 0.000000 0.968906
O O18 0.000000 0.154920 0.000000
O O19 0.250000 0.272206 0.635701
O O20 0.324136 0.500000 0.603986
#
# Coordination Sequence:
#
# PCOD8209986 Si02
#       8
#     8   8   4   4   8   8   8   8
#     4  10  22  41  65  90 113 150 208 257 295 349
#     4  10  20  36  61  90 120 155 197 249 301 350
#     4   9  18  33  55  84 113 148 193 241 292 346
#     4  11  19  35  59  84 117 158 205 245 288 344
#     4  12  24  36  57  91 125 157 196 238 297 364
#     4  10  19  35  59  85 115 154 199 245 293 350
#     4  11  23  38  59  87 119 157 194 238 306 368
#     4  10  22  42  66  87 114 157 205 252 298 346
#
# _framework density 19.695730999999999
#
# number of rings (size 3 to 8) (size 9 to 14) (size 15 to 20)
#    0.000    1.571    3.571    1.929    0.000    2.857 
#    1.286    3.214    0.000    0.000    0.000    0.000 
#    0.000    0.000    0.000    0.000    0.000    0.000 
#
# Total GULP energy -694114.398507 kJ/mol
# GULP energy per Si atom -12394.899973 kJ/mol
# Density = 1.965090 g / cm^3
# Si number density = 19.695731 Si / 1000 Ang^3
#
#
#
# Elastic Constant Matrix: (Units=GPa)
#
#
# Indices 1 2 3 4 5 6 
#
# 1 96.9326 28.7013 41.4437 0.0000 0.0000 0.0000
# 2 28.7013 73.4078 39.8708 0.0000 0.0000 0.0000
# 3 41.4437 39.8708 96.7722 0.0000 0.0000 0.0000
# 4 0.0000 0.0000 0.0000 122.7168 0.0000 0.0000
# 5 0.0000 0.0000 0.0000 0.0000 34.9596 0.0000
# 6 0.0000 0.0000 0.0000 0.0000 0.0000 11.0945
#
#
#
# Elastic Compliance Matrix: (Units=1/GPa)
#
#
# Indices 1 2 3 4 5 6 
#
# 1 0.013019 -0.002656 -0.004481 0.000000 0.000000 0.000000
# 2 -0.002656 0.018092 -0.006316 0.000000 0.000000 0.000000
# 3 -0.004481 -0.006316 0.014855 0.000000 0.000000 0.000000
# 4 0.000000 0.000000 0.000000 0.008149 0.000000 0.000000
# 5 0.000000 0.000000 0.000000 0.000000 0.028604 0.000000
# 6 0.000000 0.000000 0.000000 0.000000 0.000000 0.090135
#
#
# Mechanical properties :
#
#
# Convention : Reuss Voigt Hill
#
# Bulk Modulus (GPa) = 52.47084 54.12712 53.29898
# Shear Modulus (GPa) = 24.25846 44.22731 34.24289
#
# Velocity S-wave (km/s) = 3.51331 4.74384 4.17417
# Velocity P-wave (km/s) = 6.56935 7.58595 7.09588
#
# Compressibility (1/GPa) = 0.01905820
#
# Stress axis : x y z
#
# Youngs Moduli (GPa) = 76.81171 55.27375 67.31762
#
# Poissons Ratio (x) = 0.14683 0.30165
# Poissons Ratio (y) = 0.20404 0.42520
# Poissons Ratio (z) = 0.34420 0.34913
#
# Static dielectric constant tensor:
#      x y z
#    x 3.781030 0.000000 0.000000 
#    y 0.000000 3.517580 0.000000 
#    z 0.000000 0.000000 3.591120 
# 
# 
# High freq. dielectric constant tensor:
#      x y z
#    x 1.773300 0.000000 0.000000 
#    y 0.000000 1.748850 0.000000 
#    z 0.000000 0.000000 1.761970 
# 
# From -- ./inp_files/25922.got.cif
#   From: 2010.03.12/outbox.cif.g09.slc.cpg/sg51_13_cif.got.tgz:25922.got - 2010.04.16 13:43:02.
