data_PCOD8209304
_publ_section_title
;
Structure prediction by ZEFSAII (Michael W. Deem and Ramdas Pophale) SiO2 
 PCOD8209304
Probable space group: P M M A
;
_chemical_formula_sum "Si O2"
_cell_formula_units_Z 64
_cell_length_a 14.279875
_cell_length_b 9.231882
_cell_length_c 24.762774
_cell_angle_alpha 90.000000
_cell_angle_beta 90.000000
_cell_angle_gamma 90.000000
_cell_volume 3264.479492
_symmetry_space_group_name_H-M "P M M A"
_symmetry_group_IT_number 51
_symmetry_cell_setting 'orthorhombic'
loop_
_space_group_symop_operation_xyz
x,y,z
1/2-x,-y,z
1/2+x,-y,-z
-x,y,-z
-x,-y,-z
1/2+x,y,-z
1/2-x,y,z
x,-y,z
loop_
_atom_site_type_symbol
_atom_site_label
_atom_site_fract_x
_atom_site_fract_y
_atom_site_fract_z
Si Si1 0.857012 0.831522 0.636486
Si Si2 0.393221 0.837469 0.483481
Si Si3 0.469764 0.169237 0.874575
Si Si4 0.647965 0.660919 0.416763
Si Si5 0.857029 0.669936 0.910550
Si Si6 0.140993 0.330562 0.783596
Si Si7 0.855478 0.836475 0.019011
Si Si8 0.476705 0.328351 0.679412
O O1 0.750000 0.803787 0.653262
O O2 0.875447 0.771155 0.575881
O O3 0.921247 0.745737 0.679367
O O4 0.883655 0.000000 0.639241
O O5 0.500000 0.831056 0.500000
O O6 0.338590 0.747848 0.528111
O O7 0.353320 0.000000 0.483961
O O8 0.571364 0.246782 0.870715
O O9 0.397060 0.238747 0.833307
O O10 0.428618 0.196718 0.933979
O O11 0.481245 0.000000 0.861571
O O12 0.750000 0.654859 0.388699
O O13 0.612686 0.500000 0.431464
O O14 0.577129 0.731466 0.373721
O O15 0.750000 0.703346 0.892423
O O16 0.878326 0.500000 0.908072
O O17 0.873920 0.724071 0.971314
O O18 0.250000 0.294104 0.774117
O O19 0.126956 0.500000 0.795798
O O20 0.082059 0.281105 0.731476
O O21 0.750000 0.818949 0.041792
O O22 0.870485 0.000000 0.996684
O O23 0.487910 0.500000 0.677598
#
# Coordination Sequence:
#
# PCOD8209304 Si02
#       8
#     8   8   8   8   8   8   8   8
#     4  10  21  37  56  79 110 146 183 225 272 324
#     4  10  19  33  53  77 108 145 181 218 264 321
#     4  11  22  36  57  85 116 151 191 235 283 336
#     4  10  20  33  52  79 109 140 175 217 266 321
#     4  10  21  36  55  82 116 154 196 238 279 328
#     4  10  22  41  63  85 111 144 181 226 282 337
#     4   9  18  33  53  80 117 156 190 228 279 337
#     4  10  21  38  59  81 107 139 180 227 275 327
#
# _framework density 19.604963000000001
#
# number of rings (size 3 to 8) (size 9 to 14) (size 15 to 20)
#    0.000    2.000    1.250    2.250    0.000    7.750 
#    0.000    1.875    0.000    3.000    0.000    0.000 
#    0.000    0.000    0.000    0.000    0.000    0.000 
#
# Total GULP energy -793600.548241 kJ/mol
# GULP energy per Si atom -12400.008566 kJ/mol
# Density = 1.956034 g / cm^3
# Si number density = 19.604963 Si / 1000 Ang^3
#
#
#
# Elastic Constant Matrix: (Units=GPa)
#
#
# Indices 1 2 3 4 5 6 
#
# 1 126.9717 48.2635 40.5130 0.0000 0.0000 0.0000
# 2 48.2635 72.9776 37.1894 0.0000 0.0000 0.0000
# 3 40.5130 37.1894 62.0278 0.0000 0.0000 0.0000
# 4 0.0000 0.0000 0.0000 27.0345 0.0000 0.0000
# 5 0.0000 0.0000 0.0000 0.0000 32.9593 0.0000
# 6 0.0000 0.0000 0.0000 0.0000 0.0000 22.7933
#
#
#
# Elastic Compliance Matrix: (Units=1/GPa)
#
#
# Indices 1 2 3 4 5 6 
#
# 1 0.011214 -0.005305 -0.004144 0.000000 0.000000 0.000000
# 2 -0.005305 0.022241 -0.009870 0.000000 0.000000 0.000000
# 3 -0.004144 -0.009870 0.024746 0.000000 0.000000 0.000000
# 4 0.000000 0.000000 0.000000 0.036990 0.000000 0.000000
# 5 0.000000 0.000000 0.000000 0.000000 0.030340 0.000000
# 6 0.000000 0.000000 0.000000 0.000000 0.000000 0.043873
#
#
# Mechanical properties :
#
#
# Convention : Reuss Voigt Hill
#
# Bulk Modulus (GPa) = 51.11493 57.10100 54.10796
# Shear Modulus (GPa) = 23.30316 25.62483 24.46399
#
# Velocity S-wave (km/s) = 3.45140 3.61925 3.53632
# Velocity P-wave (km/s) = 6.48166 6.83039 6.65831
#
# Compressibility (1/GPa) = 0.01956376
#
# Stress axis : x y z
#
# Youngs Moduli (GPa) = 89.17058 44.96222 40.41041
#
# Poissons Ratio (x) = 0.23852 0.16746
# Poissons Ratio (y) = 0.47303 0.39885
# Poissons Ratio (z) = 0.36953 0.44377
#
# Static dielectric constant tensor:
#      x y z
#    x 3.745110 0.000000 0.000000 
#    y 0.000000 3.506220 0.000000 
#    z 0.000000 0.000000 3.356510 
# 
# 
# High freq. dielectric constant tensor:
#      x y z
#    x 1.782610 0.000000 0.000000 
#    y 0.000000 1.756190 0.000000 
#    z 0.000000 0.000000 1.739350 
# 
# From -- ./inp_files/35829.got.cif
#   From: 2010.03.12/outbox.cif.g09.slc.cpg/sg51_18_cif.got.tgz:35829.got - 2010.04.16 13:43:02.
