data_PCOD8209611
_publ_section_title
;
Structure prediction by ZEFSAII (Michael W. Deem and Ramdas Pophale) SiO2 
 PCOD8209611
Probable space group: P M M A
;
_chemical_formula_sum "Si O2"
_cell_formula_units_Z 64
_cell_length_a 16.979621
_cell_length_b 21.438967
_cell_length_c 9.271666
_cell_angle_alpha 90.000000
_cell_angle_beta 90.000000
_cell_angle_gamma 90.000000
_cell_volume 3375.123169
_symmetry_space_group_name_H-M "P M M A"
_symmetry_group_IT_number 51
_symmetry_cell_setting 'orthorhombic'
loop_
_space_group_symop_operation_xyz
x,y,z
1/2-x,-y,z
1/2+x,-y,-z
-x,y,-z
-x,-y,-z
1/2+x,y,-z
1/2-x,y,z
x,-y,z
loop_
_atom_site_type_symbol
_atom_site_label
_atom_site_fract_x
_atom_site_fract_y
_atom_site_fract_z
Si Si1 0.341667 0.139465 0.331001
Si Si2 0.407934 0.317750 0.010124
Si Si3 0.664182 0.645742 0.421416
Si Si4 0.655833 0.570450 0.166976
Si Si5 0.526629 0.072749 0.839674
Si Si6 0.429709 0.862996 0.603559
Si Si7 0.663808 0.236671 0.220983
Si Si8 0.843355 0.715161 0.689842
O O1 0.250000 0.127009 0.298692
O O2 0.392666 0.107779 0.204257
O O3 0.363039 0.111924 0.491100
O O4 0.363692 0.212543 0.334738
O O5 0.381380 0.385107 0.952927
O O6 0.368475 0.257872 0.934013
O O7 0.500000 0.310624 0.000000
O O8 0.384222 0.314503 0.174456
O O9 0.750000 0.622132 0.472563
O O10 0.623715 0.590375 0.327712
O O11 0.675034 0.701871 0.311601
O O12 0.619167 0.672726 0.560814
O O13 0.750000 0.577731 0.162883
O O14 0.628945 0.500000 0.135003
O O15 0.459950 0.084874 0.717056
O O16 0.545278 0.000000 0.843545
O O17 0.500000 0.095427 0.000000
O O18 0.500000 0.838871 0.500000
O O19 0.397908 0.807801 0.702013
O O20 0.750000 0.204120 0.202445
O O21 0.750000 0.707697 0.697799
#
# Coordination Sequence:
#
# PCOD8209611 Si02
#       8
#     8   8   8   8   8   8   8   8
#     4  10  21  37  61  91 118 154 197 250 301 355
#     4  11  24  33  51  82 118 155 189 235 289 347
#     4   8  15  30  54  78 104 137 176 229 283 332
#     4   9  18  37  60  79 105 150 200 236 279 345
#     4  10  24  44  61  82 119 161 198 242 293 357
#     4  10  21  34  60  88 116 151 190 241 290 359
#     4  10  19  34  54  79 113 148 186 231 288 347
#     4  10  19  34  54  83 119 143 179 237 301 350
#
# _framework density 18.96227
#
# number of rings (size 3 to 8) (size 9 to 14) (size 15 to 20)
#    0.000    2.250    1.250    2.250    5.250    2.750 
#    0.000    3.125    0.000    5.625    0.000    0.000 
#    0.000    0.000    0.000    0.000    0.000    0.000 
#
# Total GULP energy -792997.949740 kJ/mol
# GULP energy per Si atom -12390.592965 kJ/mol
# Density = 1.891911 g / cm^3
# Si number density = 18.962270 Si / 1000 Ang^3
#
#
#
# Elastic Constant Matrix: (Units=GPa)
#
#
# Indices 1 2 3 4 5 6 
#
# 1 74.4946 38.1856 46.8560 0.0000 0.0000 0.0000
# 2 38.1856 42.3108 26.5955 0.0000 0.0000 0.0000
# 3 46.8560 26.5955 131.9202 0.0000 0.0000 0.0000
# 4 0.0000 0.0000 0.0000 24.1786 0.0000 0.0000
# 5 0.0000 0.0000 0.0000 0.0000 13.5472 0.0000
# 6 0.0000 0.0000 0.0000 0.0000 0.0000 24.4357
#
#
#
# Elastic Compliance Matrix: (Units=1/GPa)
#
#
# Indices 1 2 3 4 5 6 
#
# 1 0.028170 -0.021911 -0.005588 0.000000 0.000000 0.000000
# 2 -0.021911 0.044107 -0.001110 0.000000 0.000000 0.000000
# 3 -0.005588 -0.001110 0.009789 0.000000 0.000000 0.000000
# 4 0.000000 0.000000 0.000000 0.041359 0.000000 0.000000
# 5 0.000000 0.000000 0.000000 0.000000 0.073816 0.000000
# 6 0.000000 0.000000 0.000000 0.000000 0.000000 0.040924
#
#
# Mechanical properties :
#
#
# Convention : Reuss Voigt Hill
#
# Bulk Modulus (GPa) = 40.24449 52.44442 46.34446
# Shear Modulus (GPa) = 16.46548 21.57152 19.01850
#
# Velocity S-wave (km/s) = 2.94994 3.37649 3.17040
# Velocity P-wave (km/s) = 5.73344 6.55120 6.15592
#
# Compressibility (1/GPa) = 0.02484812
#
# Stress axis : x y z
#
# Youngs Moduli (GPa) = 35.49832 22.67216 102.15627
#
# Poissons Ratio (x) = 0.49677 0.57088
# Poissons Ratio (y) = 0.77781 0.11335
# Poissons Ratio (z) = 0.19838 0.02516
#
# Static dielectric constant tensor:
#      x y z
#    x 3.500760 0.000000 0.000000 
#    y 0.000000 3.404620 0.000000 
#    z 0.000000 0.000000 3.691840 
# 
# 
# High freq. dielectric constant tensor:
#      x y z
#    x 1.725740 0.000000 0.000000 
#    y 0.000000 1.712080 0.000000 
#    z 0.000000 0.000000 1.749890 
# 
# From -- ./inp_files/10099.got.cif
#   From: 2010.03.12/outbox.cif.g09.slc.cpg/sg51_6_cif.got.tgz:10099.got - 2010.04.16 13:43:02.
