data_PCOD8209429
_publ_section_title
;
Structure prediction by ZEFSAII (Michael W. Deem and Ramdas Pophale) SiO2 
 PCOD8209429
Probable space group: P M M A
;
_chemical_formula_sum "Si O2"
_cell_formula_units_Z 56
_cell_length_a 16.004073
_cell_length_b 9.788543
_cell_length_c 18.785744
_cell_angle_alpha 90.000000
_cell_angle_beta 90.000000
_cell_angle_gamma 90.000000
_cell_volume 2942.909971
_symmetry_space_group_name_H-M "P M M A"
_symmetry_group_IT_number 51
_symmetry_cell_setting 'orthorhombic'
loop_
_space_group_symop_operation_xyz
x,y,z
1/2-x,-y,z
1/2+x,-y,-z
-x,y,-z
-x,-y,-z
1/2+x,y,-z
1/2-x,y,z
x,-y,z
loop_
_atom_site_type_symbol
_atom_site_label
_atom_site_fract_x
_atom_site_fract_y
_atom_site_fract_z
Si Si1 0.992836 0.342897 0.916086
Si Si2 0.069647 0.344277 0.700550
Si Si3 0.843997 0.150522 0.569671
Si Si4 0.844680 0.156664 0.859019
Si Si5 0.587629 0.656447 0.460825
Si Si6 0.923425 0.155900 0.714043
Si Si7 0.158708 0.342853 0.839541
O O1 0.979915 0.500000 0.890175
O O2 0.911982 0.254676 0.895621
O O3 0.078822 0.280129 0.881780
O O4 0.000000 0.335671 0.000000
O O5 0.037403 0.500000 0.696571
O O6 0.089192 0.292776 0.620792
O O7 0.148139 0.329894 0.753683
O O8 0.999050 0.252476 0.737245
O O9 0.750000 0.137315 0.595571
O O10 0.846977 0.250499 0.502442
O O11 0.892990 0.210213 0.637453
O O12 0.878463 0.000000 0.548380
O O13 0.750000 0.199959 0.880135
O O14 0.851881 0.168804 0.773486
O O15 0.861917 0.000000 0.882744
O O16 0.500000 0.679801 0.500000
O O17 0.616685 0.500000 0.465503
O O18 0.954626 0.000000 0.707959
O O19 0.250000 0.275715 0.858654
O O20 0.162631 0.500000 0.862246
#
# Coordination Sequence:
#
# PCOD8209429 Si02
#       7
#     8   8   8   8   8   8   8
#     4  10  21  37  60  89 117 147 185 230 276 327
#     4  10  19  33  55  78 102 137 186 231 273 331
#     4  10  21  35  51  74 104 139 179 223 273 331
#     4  10  21  37  58  85 117 152 188 227 275 332
#     4  10  20  33  50  74 102 134 177 229 279 328
#     4  10  19  33  55  79 106 142 184 227 273 325
#     4   9  18  34  56  80 108 144 184 226 274 328
#
# _framework density 19.028784999999999
#
# number of rings (size 3 to 8) (size 9 to 14) (size 15 to 20)
#    0.000    2.143    2.857    0.429    0.000    4.571 
#    0.000    2.857    0.000    4.286    0.000    0.000 
#    0.000    0.000    0.000    0.000    0.000    0.000 
#
# Total GULP energy -694052.149303 kJ/mol
# GULP energy per Si atom -12393.788380 kJ/mol
# Density = 1.898547 g / cm^3
# Si number density = 19.028785 Si / 1000 Ang^3
#
#
#
# Elastic Constant Matrix: (Units=GPa)
#
#
# Indices 1 2 3 4 5 6 
#
# 1 130.8469 48.8994 42.0103 0.0000 0.0000 0.0000
# 2 48.8994 60.8653 27.6298 0.0000 0.0000 0.0000
# 3 42.0103 27.6298 90.6631 0.0000 0.0000 0.0000
# 4 0.0000 0.0000 0.0000 18.2959 0.0000 0.0000
# 5 0.0000 0.0000 0.0000 0.0000 20.0790 0.0000
# 6 0.0000 0.0000 0.0000 0.0000 0.0000 26.4774
#
#
#
# Elastic Compliance Matrix: (Units=1/GPa)
#
#
# Indices 1 2 3 4 5 6 
#
# 1 0.011556 -0.007954 -0.002931 0.000000 0.000000 0.000000
# 2 -0.007954 0.024542 -0.003794 0.000000 0.000000 0.000000
# 3 -0.002931 -0.003794 0.013544 0.000000 0.000000 0.000000
# 4 0.000000 0.000000 0.000000 0.054657 0.000000 0.000000
# 5 0.000000 0.000000 0.000000 0.000000 0.049803 0.000000
# 6 0.000000 0.000000 0.000000 0.000000 0.000000 0.037768
#
#
# Mechanical properties :
#
#
# Convention : Reuss Voigt Hill
#
# Bulk Modulus (GPa) = 49.29616 57.71713 53.50664
# Shear Modulus (GPa) = 21.93100 23.89287 22.91193
#
# Velocity S-wave (km/s) = 3.39856 3.54731 3.47373
# Velocity P-wave (km/s) = 6.43138 6.86842 6.65349
#
# Compressibility (1/GPa) = 0.02028556
#
# Stress axis : x y z
#
# Youngs Moduli (GPa) = 86.53631 40.74675 73.83350
#
# Poissons Ratio (x) = 0.32408 0.21639
# Poissons Ratio (y) = 0.68828 0.28010
# Poissons Ratio (z) = 0.25361 0.15458
#
# Static dielectric constant tensor:
#      x y z
#    x 3.471080 0.000000 0.000000 
#    y 0.000000 3.375000 0.000000 
#    z 0.000000 0.000000 3.483950 
# 
# 
# High freq. dielectric constant tensor:
#      x y z
#    x 1.732260 0.000000 0.000000 
#    y 0.000000 1.718130 0.000000 
#    z 0.000000 0.000000 1.743500 
# 
# From -- ./inp_files/33451.got.cif
#   From: 2010.03.12/outbox.cif.g09.slc.cpg/sg51_17_cif.got.tgz:33451.got - 2010.04.16 13:43:02.
