data_PCOD8209154
_publ_section_title
;
Structure prediction by ZEFSAII (Michael W. Deem and Ramdas Pophale) SiO2 
 PCOD8209154
Probable space group: P M M A
;
_chemical_formula_sum "Si O2"
_cell_formula_units_Z 48
_cell_length_a 8.934405
_cell_length_b 20.385893
_cell_length_c 13.991242
_cell_angle_alpha 90.000000
_cell_angle_beta 90.000000
_cell_angle_gamma 90.000000
_cell_volume 2548.306395
_symmetry_space_group_name_H-M "P M M A"
_symmetry_group_IT_number 51
_symmetry_cell_setting 'orthorhombic'
loop_
_space_group_symop_operation_xyz
x,y,z
1/2-x,-y,z
1/2+x,-y,-z
-x,y,-z
-x,-y,-z
1/2+x,y,-z
1/2-x,y,z
x,-y,z
loop_
_atom_site_type_symbol
_atom_site_label
_atom_site_fract_x
_atom_site_fract_y
_atom_site_fract_z
Si Si1 0.423184 0.252362 0.098409
Si Si2 0.079848 0.615950 0.208050
Si Si3 0.425084 0.500000 0.897225
Si Si4 0.575293 0.327232 0.594691
Si Si5 0.925954 0.000000 0.103467
Si Si6 0.073885 0.188227 0.596568
Si Si7 0.924513 0.133441 0.202382
O O1 0.250000 0.240982 0.079020
O O2 0.454178 0.311816 0.169753
O O3 0.487356 0.186248 0.141405
O O4 0.500000 0.271319 0.000000
O O5 0.250000 0.594569 0.184768
O O6 0.052075 0.619526 0.321682
O O7 0.968650 0.564227 0.161850
O O8 0.250000 0.500000 0.913850
O O9 0.500000 0.500000 0.000000
O O10 0.500000 0.357782 0.500000
O O11 0.750000 0.312839 0.577876
O O12 0.495785 0.258894 0.620568
O O13 0.976970 0.937405 0.165377
O O14 0.750000 0.000000 0.086807
O O15 0.000000 0.000000 0.000000
O O16 0.250000 0.196360 0.580303
O O17 0.038368 0.139669 0.684812
O O18 0.000000 0.158849 0.500000
O O19 0.750000 0.145372 0.183996
#
# Coordination Sequence:
#
# PCOD8209154 Si02
#       7
#     8   8   4   8   4   8   8
#     4  11  22  36  56  83 113 144 186 237 286 337
#     4  10  22  40  60  84 116 152 190 234 284 337
#     4  12  26  42  63  86 115 154 195 236 284 342
#     4  10  19  34  57  87 118 150 186 231 283 336
#     4  10  22  40  57  78 110 150 193 234 287 344
#     4  10  19  32  54  83 114 148 185 231 284 338
#     4  10  21  37  57  81 111 149 190 235 285 339
#
# _framework density 18.836037999999999
#
# number of rings (size 3 to 8) (size 9 to 14) (size 15 to 20)
#    0.000    1.667    1.667    4.250    0.000    6.667 
#    0.000    0.833    0.000    0.000    0.000    0.000 
#    0.000    0.000    0.000    0.000    0.000    0.000 
#
# Total GULP energy -595298.009110 kJ/mol
# GULP energy per Si atom -12402.041856 kJ/mol
# Density = 1.879317 g / cm^3
# Si number density = 18.836038 Si / 1000 Ang^3
#
#
#
# Elastic Constant Matrix: (Units=GPa)
#
#
# Indices 1 2 3 4 5 6 
#
# 1 108.0448 47.8151 60.5528 0.0000 0.0000 0.0000
# 2 47.8151 89.8136 47.2213 0.0000 0.0000 0.0000
# 3 60.5528 47.2213 141.0455 0.0000 0.0000 0.0000
# 4 0.0000 0.0000 0.0000 40.3182 0.0000 0.0000
# 5 0.0000 0.0000 0.0000 0.0000 34.7934 0.0000
# 6 0.0000 0.0000 0.0000 0.0000 0.0000 24.3291
#
#
#
# Elastic Compliance Matrix: (Units=1/GPa)
#
#
# Indices 1 2 3 4 5 6 
#
# 1 0.013928 -0.005184 -0.004244 0.000000 0.000000 0.000000
# 2 -0.005184 0.015442 -0.002944 0.000000 0.000000 0.000000
# 3 -0.004244 -0.002944 0.009898 0.000000 0.000000 0.000000
# 4 0.000000 0.000000 0.000000 0.024803 0.000000 0.000000
# 5 0.000000 0.000000 0.000000 0.000000 0.028741 0.000000
# 6 0.000000 0.000000 0.000000 0.000000 0.000000 0.041103
#
#
# Mechanical properties :
#
#
# Convention : Reuss Voigt Hill
#
# Bulk Modulus (GPa) = 68.85441 72.23136 70.54288
# Shear Modulus (GPa) = 30.58110 32.10914 31.34512
#
# Velocity S-wave (km/s) = 4.03369 4.13324 4.08377
# Velocity P-wave (km/s) = 7.63729 7.82361 7.73101
#
# Compressibility (1/GPa) = 0.01452340
#
# Stress axis : x y z
#
# Youngs Moduli (GPa) = 71.79815 64.75864 101.03335
#
# Poissons Ratio (x) = 0.33568 0.42879
# Poissons Ratio (y) = 0.37217 0.29749
# Poissons Ratio (z) = 0.30471 0.19068
#
# Static dielectric constant tensor:
#      x y z
#    x 3.536510 0.000000 0.000000 
#    y 0.000000 3.384480 0.000000 
#    z 0.000000 0.000000 3.447400 
# 
# 
# High freq. dielectric constant tensor:
#      x y z
#    x 1.739660 0.000000 0.000000 
#    y 0.000000 1.711860 0.000000 
#    z 0.000000 0.000000 1.751080 
# 
# From -- ./inp_files/21239.got.cif
#   From: 2010.03.12/outbox.cif.g09.slc.cpg/sg51_11_cif.got.tgz:21239.got - 2010.04.16 13:43:02.
