data_PCOD8209556
_publ_section_title
;
Structure prediction by ZEFSAII (Michael W. Deem and Ramdas Pophale) SiO2 
 PCOD8209556
Probable space group: P M M A
;
_chemical_formula_sum "Si O2"
_cell_formula_units_Z 64
_cell_length_a 17.101538
_cell_length_b 14.064357
_cell_length_c 13.897209
_cell_angle_alpha 90.000000
_cell_angle_beta 90.000000
_cell_angle_gamma 90.000000
_cell_volume 3342.586389
_symmetry_space_group_name_H-M "P M M A"
_symmetry_group_IT_number 51
_symmetry_cell_setting 'orthorhombic'
loop_
_space_group_symop_operation_xyz
x,y,z
1/2-x,-y,z
1/2+x,-y,-z
-x,y,-z
-x,-y,-z
1/2+x,y,-z
1/2-x,y,z
x,-y,z
loop_
_atom_site_type_symbol
_atom_site_label
_atom_site_fract_x
_atom_site_fract_y
_atom_site_fract_z
Si Si1 0.069257 0.246892 0.929264
Si Si2 0.842631 0.104918 0.782200
Si Si3 0.023541 0.608123 0.198505
Si Si4 0.156993 0.894260 0.431537
Si Si5 0.159023 0.229126 0.605392
Si Si6 0.659758 0.889426 0.204889
Si Si7 0.459043 0.608588 0.597978
Si Si8 0.841220 0.288811 0.893738
O O1 0.103821 0.155683 0.875389
O O2 0.039640 0.325538 0.854286
O O3 0.137793 0.294915 0.993501
O O4 0.000000 0.213400 0.000000
O O5 0.750000 0.099671 0.780063
O O6 0.872721 0.133680 0.675398
O O7 0.870035 0.184433 0.857388
O O8 0.875327 0.000000 0.811340
O O9 0.004930 0.500000 0.168498
O O10 0.111808 0.632612 0.166711
O O11 0.019039 0.620966 0.313453
O O12 0.250000 0.892910 0.436184
O O13 0.123956 0.820644 0.509694
O O14 0.126925 0.000000 0.457000
O O15 0.250000 0.251864 0.595253
O O16 0.142250 0.158868 0.693403
O O17 0.117055 0.329227 0.620042
O O18 0.750000 0.874410 0.174404
O O19 0.639137 0.000000 0.213832
O O20 0.500000 0.642643 0.500000
O O21 0.430552 0.500000 0.588311
O O22 0.750000 0.307163 0.876564
#
# Coordination Sequence:
#
# PCOD8209556 Si02
#       8
#     8   8   8   8   8   8   8   8
#     4  10  21  38  59  81 112 153 194 235 284 342
#     4   8  15  29  49  76 113 150 181 217 268 329
#     4  10  22  42  62  80 111 152 186 228 291 349
#     4   8  14  26  47  77 110 144 178 213 265 328
#     4  10  19  33  59  87 113 145 187 236 279 330
#     4  10  20  35  57  86 119 152 189 236 288 339
#     4  10  22  40  61  83 112 151 187 224 282 352
#     4  10  21  35  58  88 114 141 191 246 286 333
#
# _framework density 19.146849
#
# number of rings (size 3 to 8) (size 9 to 14) (size 15 to 20)
#    0.000    2.500    1.250    1.500    1.750    5.000 
#    0.000    3.125    0.000    4.875    0.000    0.000 
#    0.000    0.000    0.000    0.000    0.000    0.000 
#
# Total GULP energy -793465.291156 kJ/mol
# GULP energy per Si atom -12397.895174 kJ/mol
# Density = 1.910327 g / cm^3
# Si number density = 19.146849 Si / 1000 Ang^3
#
#
#
# Elastic Constant Matrix: (Units=GPa)
#
#
# Indices 1 2 3 4 5 6 
#
# 1 66.9119 53.8348 45.7121 0.0000 0.0000 0.0000
# 2 53.8348 113.9062 53.9720 0.0000 0.0000 0.0000
# 3 45.7121 53.9720 114.2201 0.0000 0.0000 0.0000
# 4 0.0000 0.0000 0.0000 28.5699 0.0000 0.0000
# 5 0.0000 0.0000 0.0000 0.0000 23.1775 0.0000
# 6 0.0000 0.0000 0.0000 0.0000 0.0000 29.2930
#
#
#
# Elastic Compliance Matrix: (Units=1/GPa)
#
#
# Indices 1 2 3 4 5 6 
#
# 1 0.027127 -0.009891 -0.006183 0.000000 0.000000 0.000000
# 2 -0.009891 0.014919 -0.003091 0.000000 0.000000 0.000000
# 3 -0.006183 -0.003091 0.012690 0.000000 0.000000 0.000000
# 4 0.000000 0.000000 0.000000 0.035002 0.000000 0.000000
# 5 0.000000 0.000000 0.000000 0.000000 0.043145 0.000000
# 6 0.000000 0.000000 0.000000 0.000000 0.000000 0.034138
#
#
# Mechanical properties :
#
#
# Convention : Reuss Voigt Hill
#
# Bulk Modulus (GPa) = 60.95362 66.89733 63.92547
# Shear Modulus (GPa) = 23.71709 25.64271 24.67990
#
# Velocity S-wave (km/s) = 3.52333 3.66357 3.59413
# Velocity P-wave (km/s) = 6.96101 7.27396 7.11921
#
# Compressibility (1/GPa) = 0.01640592
#
# Stress axis : x y z
#
# Youngs Moduli (GPa) = 36.86364 67.03069 78.80320
#
# Poissons Ratio (x) = 0.66303 0.48721
# Poissons Ratio (y) = 0.36463 0.24356
# Poissons Ratio (z) = 0.22791 0.20718
#
# Static dielectric constant tensor:
#      x y z
#    x 3.224240 0.000000 0.000000 
#    y 0.000000 3.568780 0.000000 
#    z 0.000000 0.000000 3.768320 
# 
# 
# High freq. dielectric constant tensor:
#      x y z
#    x 1.719110 0.000000 0.000000 
#    y 0.000000 1.742200 0.000000 
#    z 0.000000 0.000000 1.757310 
# 
# From -- ./inp_files/25212.got.cif
#   From: 2010.03.12/outbox.cif.g09.slc.cpg/sg51_13_cif.got.tgz:25212.got - 2010.04.16 13:43:02.
