data_PCOD8209773
_publ_section_title
;
Structure prediction by ZEFSAII (Michael W. Deem and Ramdas Pophale) SiO2 
 PCOD8209773
Probable space group: P M M A
;
_chemical_formula_sum "Si O2"
_cell_formula_units_Z 64
_cell_length_a 17.921954
_cell_length_b 20.024257
_cell_length_c 9.488878
_cell_angle_alpha 90.000000
_cell_angle_beta 90.000000
_cell_angle_gamma 90.000000
_cell_volume 3405.309827
_symmetry_space_group_name_H-M "P M M A"
_symmetry_group_IT_number 51
_symmetry_cell_setting 'orthorhombic'
loop_
_space_group_symop_operation_xyz
x,y,z
1/2-x,-y,z
1/2+x,-y,-z
-x,y,-z
-x,-y,-z
1/2+x,y,-z
1/2-x,y,z
x,-y,z
loop_
_atom_site_type_symbol
_atom_site_label
_atom_site_fract_x
_atom_site_fract_y
_atom_site_fract_z
Si Si1 0.664376 0.924423 0.374490
Si Si2 0.922899 0.842736 0.574600
Si Si3 0.588981 0.425010 0.002075
Si Si4 0.429488 0.331100 0.230705
Si Si5 0.101215 0.321321 0.767550
Si Si6 0.664125 0.289311 0.520074
Si Si7 0.663349 0.183461 0.138917
Si Si8 0.931345 0.187828 0.894929
O O1 0.750000 0.914110 0.419508
O O2 0.611728 0.910502 0.510220
O O3 0.642906 0.875940 0.245532
O O4 0.649667 0.000000 0.324205
O O5 0.864220 0.786512 0.526722
O O6 0.935636 0.849403 0.743133
O O7 0.000000 0.824027 0.500000
O O8 0.620586 0.500000 0.015769
O O9 0.625535 0.379899 0.125058
O O10 0.500000 0.422977 0.000000
O O11 0.607688 0.393053 0.851444
O O12 0.515901 0.335845 0.274450
O O13 0.382380 0.332449 0.371390
O O14 0.421292 0.266314 0.132495
O O15 0.153608 0.323881 0.631145
O O16 0.110232 0.247279 0.832129
O O17 0.750000 0.289503 0.562005
O O18 0.750000 0.203389 0.150502
O O19 0.642247 0.161648 0.979150
O O20 0.000000 0.171714 0.000000
#
# Coordination Sequence:
#
# PCOD8209773 Si02
#       8
#     8   8   8   8   8   8   8   8
#     4  10  22  41  61  83 117 159 196 235 293 361
#     4  11  22  36  60  86 113 150 194 245 296 348
#     4   9  18  34  58  86 116 150 192 241 289 345
#     4  10  19  34  57  84 115 150 191 237 295 340
#     4  11  18  35  58  86 114 146 192 241 288 343
#     4  11  22  34  53  85 117 147 191 244 293 341
#     4  11  21  34  58  87 116 152 193 243 294 348
#     4  11  19  34  55  86 116 145 188 243 297 343
#
# _framework density 18.794179
#
# number of rings (size 3 to 8) (size 9 to 14) (size 15 to 20)
#    0.000    1.500    3.750    3.750    0.000    2.750 
#    0.000    1.250    0.000   10.125    0.000    0.000 
#    0.000    0.000    0.000    0.000    0.000    0.000 
#
# Total GULP energy -793297.930024 kJ/mol
# GULP energy per Si atom -12395.280157 kJ/mol
# Density = 1.875140 g / cm^3
# Si number density = 18.794179 Si / 1000 Ang^3
#
#
#
# Elastic Constant Matrix: (Units=GPa)
#
#
# Indices 1 2 3 4 5 6 
#
# 1 61.0056 13.5923 24.1109 0.0000 0.0000 0.0000
# 2 13.5923 94.3194 36.5114 0.0000 0.0000 0.0000
# 3 24.1109 36.5114 116.4000 0.0000 0.0000 0.0000
# 4 0.0000 0.0000 0.0000 27.6165 0.0000 0.0000
# 5 0.0000 0.0000 0.0000 0.0000 26.6622 0.0000
# 6 0.0000 0.0000 0.0000 0.0000 0.0000 15.3985
#
#
#
# Elastic Compliance Matrix: (Units=1/GPa)
#
#
# Indices 1 2 3 4 5 6 
#
# 1 0.017994 -0.001309 -0.003317 0.000000 0.000000 0.000000
# 2 -0.001309 0.012163 -0.003544 0.000000 0.000000 0.000000
# 3 -0.003317 -0.003544 0.010390 0.000000 0.000000 0.000000
# 4 0.000000 0.000000 0.000000 0.036210 0.000000 0.000000
# 5 0.000000 0.000000 0.000000 0.000000 0.037506 0.000000
# 6 0.000000 0.000000 0.000000 0.000000 0.000000 0.064941
#
#
# Mechanical properties :
#
#
# Convention : Reuss Voigt Hill
#
# Bulk Modulus (GPa) = 41.30992 46.68380 43.99686
# Shear Modulus (GPa) = 24.55630 27.10279 25.82955
#
# Velocity S-wave (km/s) = 3.61860 3.80160 3.71123
# Velocity P-wave (km/s) = 6.28386 6.64552 6.46722
#
# Compressibility (1/GPa) = 0.02420726
#
# Stress axis : x y z
#
# Youngs Moduli (GPa) = 55.57256 82.21772 96.24906
#
# Poissons Ratio (x) = 0.10765 0.31923
# Poissons Ratio (y) = 0.07276 0.34110
# Poissons Ratio (z) = 0.18432 0.29137
#
# Static dielectric constant tensor:
#      x y z
#    x 3.361500 0.000000 0.000000 
#    y 0.000000 3.362910 0.000000 
#    z 0.000000 0.000000 3.685720 
# 
# 
# High freq. dielectric constant tensor:
#      x y z
#    x 1.723780 0.000000 0.000000 
#    y 0.000000 1.697830 0.000000 
#    z 0.000000 0.000000 1.741620 
# 
# From -- ./inp_files/10065.got.cif
#   From: 2010.03.12/outbox.cif.g09.slc.cpg/sg51_6_cif.got.tgz:10065.got - 2010.04.16 13:43:02.
