data_PCOD8209898
_publ_section_title
;
Structure prediction by ZEFSAII (Michael W. Deem and Ramdas Pophale) SiO2 
 PCOD8209898
Probable space group: P M M A
;
_chemical_formula_sum "Si O2"
_cell_formula_units_Z 48
_cell_length_a 21.649850
_cell_length_b 9.212008
_cell_length_c 12.315597
_cell_angle_alpha 90.000000
_cell_angle_beta 90.000000
_cell_angle_gamma 90.000000
_cell_volume 2456.205318
_symmetry_space_group_name_H-M "P M M A"
_symmetry_group_IT_number 51
_symmetry_cell_setting 'orthorhombic'
loop_
_space_group_symop_operation_xyz
x,y,z
1/2-x,-y,z
1/2+x,-y,-z
-x,y,-z
-x,-y,-z
1/2+x,y,-z
1/2-x,y,z
x,-y,z
loop_
_atom_site_type_symbol
_atom_site_label
_atom_site_fract_x
_atom_site_fract_y
_atom_site_fract_z
Si Si1 0.972782 0.837668 0.116188
Si Si2 0.909541 0.834951 0.742145
Si Si3 0.317970 0.328278 0.625663
Si Si4 0.181132 0.164118 0.074646
Si Si5 0.070239 0.327254 0.475435
Si Si6 0.352742 0.329480 0.862816
O O1 0.923508 0.716650 0.145820
O O2 0.022232 0.830151 0.210833
O O3 0.943998 0.000000 0.110340
O O4 0.000000 0.795452 0.000000
O O5 0.863061 0.770210 0.832734
O O6 0.906433 0.732439 0.638814
O O7 0.890947 0.000000 0.710724
O O8 0.250000 0.275988 0.580753
O O9 0.321762 0.500000 0.617768
O O10 0.378090 0.267180 0.560955
O O11 0.320537 0.279611 0.751253
O O12 0.250000 0.167671 0.121724
O O13 0.159225 0.000000 0.048794
O O14 0.179735 0.253954 0.964140
O O15 0.070014 0.500000 0.471577
O O16 0.000000 0.271052 0.500000
O O17 0.347740 0.500000 0.880231
#
# Coordination Sequence:
#
# PCOD8209898 Si02
#       6
#     8   8   8   8   8   8
#     4  10  19  35  56  78 112 151 184 220 275 346
#     4  10  21  37  57  82 111 144 184 229 278 332
#     4   9  19  36  56  79 111 152 190 230 288 347
#     4  10  21  38  57  78 112 155 189 222 277 342
#     4  10  21  38  59  82 111 145 187 237 287 341
#     4  11  21  34  57  86 115 144 186 240 284 332
#
# _framework density 19.542339999999999
#
# number of rings (size 3 to 8) (size 9 to 14) (size 15 to 20)
#    0.000    2.000    1.667    2.000    0.000    5.000 
#    0.000    1.667    0.000    2.000    0.000    0.000 
#    0.000    0.000    0.000    0.000    0.000    0.000 
#
# Total GULP energy -595014.815688 kJ/mol
# GULP energy per Si atom -12396.141994 kJ/mol
# Density = 1.949786 g / cm^3
# Si number density = 19.542340 Si / 1000 Ang^3
#
#
#
# Elastic Constant Matrix: (Units=GPa)
#
#
# Indices 1 2 3 4 5 6 
#
# 1 131.5429 20.3489 57.4034 0.0000 0.0000 0.0000
# 2 20.3489 36.1035 31.8089 0.0000 0.0000 0.0000
# 3 57.4034 31.8089 122.3562 0.0000 0.0000 0.0000
# 4 0.0000 0.0000 0.0000 27.2386 0.0000 0.0000
# 5 0.0000 0.0000 0.0000 0.0000 22.0641 0.0000
# 6 0.0000 0.0000 0.0000 0.0000 0.0000 -26.6990
#
#
#
# Elastic Compliance Matrix: (Units=1/GPa)
#
#
# Indices 1 2 3 4 5 6 
#
# 1 0.009657 -0.001882 -0.004041 0.000000 0.000000 0.000000
# 2 -0.001882 0.036294 -0.008552 0.000000 0.000000 0.000000
# 3 -0.004041 -0.008552 0.012292 0.000000 0.000000 0.000000
# 4 0.000000 0.000000 0.000000 0.036713 0.000000 0.000000
# 5 0.000000 0.000000 0.000000 0.000000 0.045323 0.000000
# 6 0.000000 0.000000 0.000000 0.000000 0.000000 -0.037455
#
#
# Mechanical properties :
#
#
# Convention : Reuss Voigt Hill
#
# Bulk Modulus (GPa) = 34.13969 56.56943 45.35456
# Shear Modulus (GPa) = 35.32602 16.55016 25.93809
#
# Velocity S-wave (km/s) = 4.25628 2.91329 3.64713
# Velocity P-wave (km/s) = 6.45462 6.35030 6.40267
#
# Compressibility (1/GPa) = 0.02929142
#
# Stress axis : x y z
#
# Youngs Moduli (GPa) = 103.55451 27.55272 81.35330
#
# Poissons Ratio (x) = 0.05186 0.32876
# Poissons Ratio (y) = 0.19493 0.69575
# Poissons Ratio (z) = 0.41847 0.23564
#
# Static dielectric constant tensor:
#      x y z
#    x 3.871550 0.000000 0.000000 
#    y 0.000000 3.322230 0.000000 
#    z 0.000000 0.000000 3.566190 
# 
# 
# High freq. dielectric constant tensor:
#      x y z
#    x 1.777620 0.000000 0.000000 
#    y 0.000000 1.732500 0.000000 
#    z 0.000000 0.000000 1.760750 
# 
# From -- ./inp_files/18575.got.cif
#   From: 2010.03.12/outbox.cif.g09.slc.cpg/sg51_10_cif.got.tgz:18575.got - 2010.04.16 13:43:02.
