data_PCOD8209554
_publ_section_title
;
Structure prediction by ZEFSAII (Michael W. Deem and Ramdas Pophale) SiO2 
 PCOD8209554
Probable space group: P M M A
;
_chemical_formula_sum "Si O2"
_cell_formula_units_Z 64
_cell_length_a 9.203817
_cell_length_b 24.941422
_cell_length_c 14.245765
_cell_angle_alpha 90.000000
_cell_angle_beta 90.000000
_cell_angle_gamma 90.000000
_cell_volume 3270.204873
_symmetry_space_group_name_H-M "P M M A"
_symmetry_group_IT_number 51
_symmetry_cell_setting 'orthorhombic'
loop_
_space_group_symop_operation_xyz
x,y,z
1/2-x,-y,z
1/2+x,-y,-z
-x,y,-z
-x,-y,-z
1/2+x,y,-z
1/2-x,y,z
x,-y,z
loop_
_atom_site_type_symbol
_atom_site_label
_atom_site_fract_x
_atom_site_fract_y
_atom_site_fract_z
Si Si1 0.582389 0.938351 0.791450
Si Si2 0.916638 0.250253 0.227255
Si Si3 0.419574 0.225172 0.407700
Si Si4 0.579785 0.437819 0.793897
Si Si5 0.417682 0.100386 0.409257
Si Si6 0.581294 0.649920 0.093987
Si Si7 0.578218 0.150562 0.097233
Si Si8 0.409847 0.563553 0.414237
O O1 0.750000 0.919466 0.801510
O O2 0.530653 0.930516 0.683962
O O3 0.481547 0.904866 0.861046
O O4 0.564246 0.000000 0.820019
O O5 0.750000 0.245048 0.259611
O O6 0.943746 0.303272 0.167956
O O7 0.962198 0.198514 0.167270
O O8 0.018101 0.255897 0.317802
O O9 0.500000 0.247254 0.500000
O O10 0.250000 0.237233 0.417108
O O11 0.454077 0.162613 0.394358
O O12 0.750000 0.424295 0.803976
O O13 0.551561 0.500000 0.815011
O O14 0.486122 0.405042 0.867953
O O15 0.524922 0.422911 0.688391
O O16 0.500000 0.077094 0.500000
O O17 0.250000 0.090314 0.429070
O O18 0.750000 0.640583 0.071985
O O19 0.500000 0.667476 0.000000
O O20 0.750000 0.145705 0.080567
O O21 0.500000 0.163394 0.000000
O O22 0.500000 0.589292 0.500000
O O23 0.250000 0.588628 0.422030
O O24 0.401177 0.500000 0.425469
#
# Coordination Sequence:
#
# PCOD8209554 Si02
#       8
#     8   8   8   8   8   8   8   8
#     4  10  21  38  57  80 114 151 190 236 283 337
#     4  10  22  40  61  87 116 147 187 236 285 339
#     4  10  19  33  58  88 119 153 189 231 280 337
#     4   9  19  37  59  84 117 156 196 236 281 336
#     4   9  18  32  52  81 113 148 187 227 275 331
#     4  11  24  41  61  86 115 147 188 238 291 344
#     4  11  23  39  61  84 109 142 186 237 290 347
#     4   8  14  26  47  76 109 144 182 224 268 317
#
# _framework density 19.570640000000001
#
# number of rings (size 3 to 8) (size 9 to 14) (size 15 to 20)
#    0.000    2.250    1.250    2.250    0.000    4.250 
#    0.000    1.875    0.000    1.500    0.000    0.000 
#    0.000    0.000    0.000    0.000    0.000    0.000 
#
# Total GULP energy -793721.300595 kJ/mol
# GULP energy per Si atom -12401.895322 kJ/mol
# Density = 1.952610 g / cm^3
# Si number density = 19.570640 Si / 1000 Ang^3
#
#
#
# Elastic Constant Matrix: (Units=GPa)
#
#
# Indices 1 2 3 4 5 6 
#
# 1 103.3382 41.5541 71.1654 0.0000 0.0000 0.0000
# 2 41.5541 64.8468 35.4918 0.0000 0.0000 0.0000
# 3 71.1654 35.4918 125.1102 0.0000 0.0000 0.0000
# 4 0.0000 0.0000 0.0000 11.1324 0.0000 0.0000
# 5 0.0000 0.0000 0.0000 0.0000 43.8306 0.0000
# 6 0.0000 0.0000 0.0000 0.0000 0.0000 22.9496
#
#
#
# Elastic Compliance Matrix: (Units=1/GPa)
#
#
# Indices 1 2 3 4 5 6 
#
# 1 0.018340 -0.007153 -0.008403 0.000000 0.000000 0.000000
# 2 -0.007153 0.021046 -0.001901 0.000000 0.000000 0.000000
# 3 -0.008403 -0.001901 0.013312 0.000000 0.000000 0.000000
# 4 0.000000 0.000000 0.000000 0.089828 0.000000 0.000000
# 5 0.000000 0.000000 0.000000 0.000000 0.022815 0.000000
# 6 0.000000 0.000000 0.000000 0.000000 0.000000 0.043574
#
#
# Mechanical properties :
#
#
# Convention : Reuss Voigt Hill
#
# Bulk Modulus (GPa) = 56.23504 65.52420 60.87962
# Shear Modulus (GPa) = 20.01936 25.25477 22.63707
#
# Velocity S-wave (km/s) = 3.20179 3.59617 3.40470
# Velocity P-wave (km/s) = 6.51655 7.12719 6.82870
#
# Compressibility (1/GPa) = 0.01778251
#
# Stress axis : x y z
#
# Youngs Moduli (GPa) = 54.52436 47.51607 75.11919
#
# Poissons Ratio (x) = 0.33990 0.63124
# Poissons Ratio (y) = 0.39004 0.14282
# Poissons Ratio (z) = 0.45817 0.09034
#
# Static dielectric constant tensor:
#      x y z
#    x 3.614290 0.000000 0.000000 
#    y 0.000000 3.313820 0.000000 
#    z 0.000000 0.000000 3.686100 
# 
# 
# High freq. dielectric constant tensor:
#      x y z
#    x 1.760440 0.000000 0.000000 
#    y 0.000000 1.744370 0.000000 
#    z 0.000000 0.000000 1.773010 
# 
# From -- ./inp_files/22368.got.cif
#   From: 2010.03.12/outbox.cif.g09.slc.cpg/sg51_12_cif.got.tgz:22368.got - 2010.04.16 13:43:02.
