data_PCOD8209601
_publ_section_title
;
Structure prediction by ZEFSAII (Michael W. Deem and Ramdas Pophale) SiO2 
 PCOD8209601
Probable space group: P M M A
;
_chemical_formula_sum "Si O2"
_cell_formula_units_Z 48
_cell_length_a 30.071274
_cell_length_b 9.031672
_cell_length_c 9.276639
_cell_angle_alpha 90.000000
_cell_angle_beta 90.000000
_cell_angle_gamma 90.000000
_cell_volume 2519.478411
_symmetry_space_group_name_H-M "P M M A"
_symmetry_group_IT_number 51
_symmetry_cell_setting 'orthorhombic'
loop_
_space_group_symop_operation_xyz
x,y,z
1/2-x,-y,z
1/2+x,-y,-z
-x,y,-z
-x,-y,-z
1/2+x,y,-z
1/2-x,y,z
x,-y,z
loop_
_atom_site_type_symbol
_atom_site_label
_atom_site_fract_x
_atom_site_fract_y
_atom_site_fract_z
Si Si1 0.451238 0.673591 0.035040
Si Si2 0.622863 0.674112 0.198569
Si Si3 0.324224 0.838033 0.018388
Si Si4 0.250000 0.333019 0.509860
Si Si5 0.750000 0.663903 0.828254
Si Si6 0.603321 0.160998 0.749618
Si Si7 0.656031 0.822999 0.469265
O O1 0.452287 0.500000 0.057465
O O2 0.436418 0.735094 0.192754
O O3 0.500000 0.737554 0.000000
O O4 0.420013 0.713629 0.898421
O O5 0.627290 0.500000 0.226586
O O6 0.621577 0.761542 0.349632
O O7 0.667152 0.734578 0.119345
O O8 0.292132 0.754842 0.124885
O O9 0.368570 0.862217 0.106978
O O10 0.305795 0.000000 0.969654
O O11 0.250000 0.500000 0.576762
O O12 0.250000 0.346714 0.340613
O O13 0.205000 0.247153 0.555702
O O14 0.750000 0.500000 0.897145
O O15 0.633388 0.228253 0.620414
O O16 0.584610 0.000000 0.700348
O O17 0.660757 0.000000 0.461835
#
# Coordination Sequence:
#
# PCOD8209601 Si02
#       7
#     8   8   8   4   4   8   8
#     4   9  19  37  61  86 111 142 182 229 282 339
#     4  10  21  37  56  81 112 143 181 230 281 331
#     4  10  19  34  54  76 104 141 183 225 272 321
#     4  11  23  36  55  82 113 150 192 232 275 322
#     4  11  21  32  51  80 109 138 182 232 273 320
#     4   9  19  34  55  81 108 142 183 225 270 327
#     4  11  22  38  57  81 115 153 191 229 278 334
#
# _framework density 19.051563000000002
#
# number of rings (size 3 to 8) (size 9 to 14) (size 15 to 20)
#    0.000    2.000    1.667    2.000    0.000    4.333 
#    0.000    4.167    0.000    5.000    0.000    0.000 
#    0.000    0.000    0.000    0.000    0.000    0.000 
#
# Total GULP energy -594784.551715 kJ/mol
# GULP energy per Si atom -12391.344827 kJ/mol
# Density = 1.900820 g / cm^3
# Si number density = 19.051563 Si / 1000 Ang^3
#
#
#
# Elastic Constant Matrix: (Units=GPa)
#
#
# Indices 1 2 3 4 5 6 
#
# 1 86.3505 48.5677 32.9343 0.0000 0.0000 0.0000
# 2 48.5677 104.3273 38.4670 0.0000 0.0000 0.0000
# 3 32.9343 38.4670 91.3333 0.0000 0.0000 0.0000
# 4 0.0000 0.0000 0.0000 31.1343 0.0000 0.0000
# 5 0.0000 0.0000 0.0000 0.0000 25.6872 0.0000
# 6 0.0000 0.0000 0.0000 0.0000 0.0000 27.6523
#
#
#
# Elastic Compliance Matrix: (Units=1/GPa)
#
#
# Indices 1 2 3 4 5 6 
#
# 1 0.016444 -0.006474 -0.003203 0.000000 0.000000 0.000000
# 2 -0.006474 0.013896 -0.003518 0.000000 0.000000 0.000000
# 3 -0.003203 -0.003518 0.013586 0.000000 0.000000 0.000000
# 4 0.000000 0.000000 0.000000 0.032119 0.000000 0.000000
# 5 0.000000 0.000000 0.000000 0.000000 0.038930 0.000000
# 6 0.000000 0.000000 0.000000 0.000000 0.000000 0.036163
#
#
# Mechanical properties :
#
#
# Convention : Reuss Voigt Hill
#
# Bulk Modulus (GPa) = 57.02766 57.99433 57.51099
# Shear Modulus (GPa) = 27.26683 27.69757 27.48220
#
# Velocity S-wave (km/s) = 3.78724 3.81704 3.80217
# Velocity P-wave (km/s) = 7.00875 7.06634 7.03760
#
# Compressibility (1/GPa) = 0.01753535
#
# Stress axis : x y z
#
# Youngs Moduli (GPa) = 60.81393 71.96139 73.60747
#
# Poissons Ratio (x) = 0.46589 0.23575
# Poissons Ratio (y) = 0.39372 0.25897
# Poissons Ratio (z) = 0.19477 0.25318
#
# Static dielectric constant tensor:
#      x y z
#    x 3.387190 0.000000 0.000000 
#    y 0.000000 3.819610 0.000000 
#    z 0.000000 0.000000 3.438200 
# 
# 
# High freq. dielectric constant tensor:
#      x y z
#    x 1.719140 0.000000 0.000000 
#    y 0.000000 1.752060 0.000000 
#    z 0.000000 0.000000 1.736060 
# 
# From -- ./inp_files/12956.got.cif
#   From: 2010.03.12/outbox.cif.g09.slc.cpg/sg51_7_cif.got.tgz:12956.got - 2010.04.16 13:43:02.
