data_PCOD8209761
_publ_section_title
;
Structure prediction by ZEFSAII (Michael W. Deem and Ramdas Pophale) SiO2 
 PCOD8209761
Probable space group: P M M A
;
_chemical_formula_sum "Si O2"
_cell_formula_units_Z 48
_cell_length_a 18.109065
_cell_length_b 13.277410
_cell_length_c 10.082652
_cell_angle_alpha 90.000000
_cell_angle_beta 90.000000
_cell_angle_gamma 90.000000
_cell_volume 2424.287776
_symmetry_space_group_name_H-M "P M M A"
_symmetry_group_IT_number 51
_symmetry_cell_setting 'orthorhombic'
loop_
_space_group_symop_operation_xyz
x,y,z
1/2-x,-y,z
1/2+x,-y,-z
-x,y,-z
-x,-y,-z
1/2+x,y,-z
1/2-x,y,z
x,-y,z
loop_
_atom_site_type_symbol
_atom_site_label
_atom_site_fract_x
_atom_site_fract_y
_atom_site_fract_z
Si Si1 0.668987 0.613080 0.482322
Si Si2 0.446839 0.268409 0.377156
Si Si3 0.022907 0.386322 0.855376
Si Si4 0.166999 0.301209 0.795706
Si Si5 0.836761 0.109538 0.049101
Si Si6 0.665072 0.118222 0.748704
O O1 0.750000 0.619892 0.549660
O O2 0.655375 0.500000 0.427420
O O3 0.606031 0.637904 0.587522
O O4 0.665023 0.693667 0.363245
O O5 0.500000 0.239432 0.500000
O O6 0.494074 0.306513 0.252548
O O7 0.393777 0.174429 0.344619
O O8 0.994895 0.500000 0.827238
O O9 0.112150 0.385261 0.853567
O O10 0.000000 0.348751 0.000000
O O11 0.250000 0.321902 0.849356
O O12 0.137165 0.191727 0.843412
O O13 0.750000 0.095971 0.057756
O O14 0.873357 0.000000 0.081126
O O15 0.856920 0.144307 0.900171
O O16 0.750000 0.152200 0.718649
O O17 0.657419 0.000000 0.721571
#
# Coordination Sequence:
#
# PCOD8209761 Si02
#       6
#     8   8   8   8   8   8
#     4  10  21  37  58  84 114 152 200 245 287 344
#     4  12  23  37  59  86 118 156 192 240 293 359
#     4  11  24  40  58  85 120 157 200 250 302 354
#     4  10  19  34  57  83 113 153 198 240 288 352
#     4   8  15  31  57  85 110 141 186 240 293 343
#     4   9  19  38  62  85 112 150 196 244 295 350
#
# _framework density 19.799630000000001
#
# number of rings (size 3 to 8) (size 9 to 14) (size 15 to 20)
#    0.000    2.000    1.667    3.500    0.000    2.000 
#    0.000    2.500    0.000    8.000    0.000    0.000 
#    0.000    0.000    0.000    0.000    0.000    0.000 
#
# Total GULP energy -594909.243987 kJ/mol
# GULP energy per Si atom -12393.942583 kJ/mol
# Density = 1.975457 g / cm^3
# Si number density = 19.799630 Si / 1000 Ang^3
#
#
#
# Elastic Constant Matrix: (Units=GPa)
#
#
# Indices 1 2 3 4 5 6 
#
# 1 105.6340 44.6614 47.9984 0.0000 0.0000 0.0000
# 2 44.6614 94.9273 54.8126 0.0000 0.0000 0.0000
# 3 47.9984 54.8126 99.8277 0.0000 0.0000 0.0000
# 4 0.0000 0.0000 0.0000 40.3289 0.0000 0.0000
# 5 0.0000 0.0000 0.0000 0.0000 26.3986 0.0000
# 6 0.0000 0.0000 0.0000 0.0000 0.0000 27.6449
#
#
#
# Elastic Compliance Matrix: (Units=1/GPa)
#
#
# Indices 1 2 3 4 5 6 
#
# 1 0.012922 -0.003649 -0.004210 0.000000 0.000000 0.000000
# 2 -0.003649 0.016455 -0.007281 0.000000 0.000000 0.000000
# 3 -0.004210 -0.007281 0.016039 0.000000 0.000000 0.000000
# 4 0.000000 0.000000 0.000000 0.024796 0.000000 0.000000
# 5 0.000000 0.000000 0.000000 0.000000 0.037881 0.000000
# 6 0.000000 0.000000 0.000000 0.000000 0.000000 0.036173
#
#
# Mechanical properties :
#
#
# Convention : Reuss Voigt Hill
#
# Bulk Modulus (GPa) = 66.05951 66.14820 66.10386
# Shear Modulus (GPa) = 27.84117 29.06891 28.45504
#
# Velocity S-wave (km/s) = 3.75393 3.83581 3.79509
# Velocity P-wave (km/s) = 7.22674 7.28692 7.25689
#
# Compressibility (1/GPa) = 0.01513787
#
# Stress axis : x y z
#
# Youngs Moduli (GPa) = 77.38637 60.77166 62.34861
#
# Poissons Ratio (x) = 0.22175 0.26246
# Poissons Ratio (y) = 0.28238 0.45393
# Poissons Ratio (z) = 0.32577 0.44245
#
# Static dielectric constant tensor:
#      x y z
#    x 3.719700 0.000000 0.000000 
#    y 0.000000 4.549480 0.000000 
#    z 0.000000 0.000000 3.513430 
# 
# 
# High freq. dielectric constant tensor:
#      x y z
#    x 1.774410 0.000000 0.000000 
#    y 0.000000 1.765090 0.000000 
#    z 0.000000 0.000000 1.757360 
# 
# From -- ./inp_files/9661.got.cif
#   From: 2010.03.12/outbox.cif.g09.slc.cpg/sg51_5_cif.got.tgz:9661.got - 2010.04.16 13:43:02.
