data_PCOD8209853
_publ_section_title
;
Structure prediction by ZEFSAII (Michael W. Deem and Ramdas Pophale) SiO2 
 PCOD8209853
Probable space group: P M M A
;
_chemical_formula_sum "Si O2"
_cell_formula_units_Z 64
_cell_length_a 15.055761
_cell_length_b 9.298230
_cell_length_c 23.697520
_cell_angle_alpha 90.000000
_cell_angle_beta 90.000000
_cell_angle_gamma 90.000000
_cell_volume 3317.461528
_symmetry_space_group_name_H-M "P M M A"
_symmetry_group_IT_number 51
_symmetry_cell_setting 'orthorhombic'
loop_
_space_group_symop_operation_xyz
x,y,z
1/2-x,-y,z
1/2+x,-y,-z
-x,y,-z
-x,-y,-z
1/2+x,y,-z
1/2-x,y,z
x,-y,z
loop_
_atom_site_type_symbol
_atom_site_label
_atom_site_fract_x
_atom_site_fract_y
_atom_site_fract_z
Si Si1 0.148627 0.834022 0.382743
Si Si2 0.648651 0.165160 0.871754
Si Si3 0.510934 0.166044 0.303241
Si Si4 0.397294 0.833012 0.003365
Si Si5 0.355385 0.338358 0.491210
Si Si6 0.647694 0.833596 0.400639
Si Si7 0.497944 0.671098 0.810626
Si Si8 0.848247 0.336255 0.103441
O O1 0.250000 0.792773 0.366411
O O2 0.111724 0.742196 0.435140
O O3 0.086009 0.802055 0.329479
O O4 0.142155 0.000000 0.400907
O O5 0.750000 0.180452 0.852003
O O6 0.591195 0.264993 0.831115
O O7 0.615943 0.000000 0.866454
O O8 0.639579 0.217605 0.936238
O O9 0.588802 0.205359 0.346723
O O10 0.525573 0.268881 0.250502
O O11 0.517427 0.000000 0.284330
O O12 0.346418 0.749989 0.954662
O O13 0.378533 0.000000 0.993779
O O14 0.500000 0.793868 0.000000
O O15 0.250000 0.336802 0.491869
O O16 0.393450 0.500000 0.491032
O O17 0.390193 0.257326 0.546801
O O18 0.750000 0.794954 0.386777
O O19 0.637652 0.000000 0.417088
O O20 0.504302 0.500000 0.807729
O O21 0.420302 0.724843 0.852677
O O22 0.750000 0.323469 0.130759
O O23 0.872039 0.500000 0.088775
#
# Coordination Sequence:
#
# PCOD8209853 Si02
#       8
#     8   8   8   8   8   8   8   8
#     4   9  18  34  55  77 103 137 174 214 264 321
#     4  10  21  38  60  85 114 148 184 224 274 331
#     4  10  22  38  56  78 104 138 185 231 272 323
#     4  10  19  34  60  90 118 145 179 227 278 327
#     4   9  17  30  51  80 111 140 171 212 264 321
#     4   9  18  34  55  78 106 140 177 220 270 324
#     4  11  24  40  57  79 110 146 188 235 280 326
#     4  10  22  39  58  82 114 152 189 225 273 334
#
# _framework density 19.291858999999999
#
# number of rings (size 3 to 8) (size 9 to 14) (size 15 to 20)
#    0.000    2.250    1.250    1.125    0.000    6.250 
#    0.000    3.750    0.000    0.000    0.000    0.000 
#    0.000    0.000    0.000    0.000    0.000    0.000 
#
# Total GULP energy -793760.209985 kJ/mol
# GULP energy per Si atom -12402.503281 kJ/mol
# Density = 1.924795 g / cm^3
# Si number density = 19.291859 Si / 1000 Ang^3
#
#
#
# Elastic Constant Matrix: (Units=GPa)
#
#
# Indices 1 2 3 4 5 6 
#
# 1 61.3498 17.3989 17.3641 0.0000 0.0000 0.0000
# 2 17.3989 70.8939 42.5901 0.0000 0.0000 0.0000
# 3 17.3641 42.5901 90.6762 0.0000 0.0000 0.0000
# 4 0.0000 0.0000 0.0000 26.3748 0.0000 0.0000
# 5 0.0000 0.0000 0.0000 0.0000 22.4872 0.0000
# 6 0.0000 0.0000 0.0000 0.0000 0.0000 20.4838
#
#
#
# Elastic Compliance Matrix: (Units=1/GPa)
#
#
# Indices 1 2 3 4 5 6 
#
# 1 0.017748 -0.003224 -0.001885 0.000000 0.000000 0.000000
# 2 -0.003224 0.020236 -0.008887 0.000000 0.000000 0.000000
# 3 -0.001885 -0.008887 0.015564 0.000000 0.000000 0.000000
# 4 0.000000 0.000000 0.000000 0.037915 0.000000 0.000000
# 5 0.000000 0.000000 0.000000 0.000000 0.044470 0.000000
# 6 0.000000 0.000000 0.000000 0.000000 0.000000 0.048819
#
#
# Mechanical properties :
#
#
# Convention : Reuss Voigt Hill
#
# Bulk Modulus (GPa) = 39.12961 41.95846 40.54403
# Shear Modulus (GPa) = 22.59782 23.57361 23.08571
#
# Velocity S-wave (km/s) = 3.42623 3.49943 3.46302
# Velocity P-wave (km/s) = 5.99826 6.17450 6.08702
#
# Compressibility (1/GPa) = 0.02555609
#
# Stress axis : x y z
#
# Youngs Moduli (GPa) = 56.34580 49.41709 64.25290
#
# Poissons Ratio (x) = 0.15930 0.12108
# Poissons Ratio (y) = 0.18163 0.57104
# Poissons Ratio (z) = 0.10618 0.43919
#
# Static dielectric constant tensor:
#      x y z
#    x 3.595790 0.000000 0.000000 
#    y 0.000000 3.498270 0.000000 
#    z 0.000000 0.000000 3.405610 
# 
# 
# High freq. dielectric constant tensor:
#      x y z
#    x 1.757630 0.000000 0.000000 
#    y 0.000000 1.743980 0.000000 
#    z 0.000000 0.000000 1.743070 
# 
# From -- ./inp_files/35609.got.cif
#   From: 2010.03.12/outbox.cif.g09.slc.cpg/sg51_18_cif.got.tgz:35609.got - 2010.04.16 13:43:02.
