data_PCOD8209378
_publ_section_title
;
Structure prediction by ZEFSAII (Michael W. Deem and Ramdas Pophale) SiO2 
 PCOD8209378
Probable space group: P M M A
;
_chemical_formula_sum "Si O2"
_cell_formula_units_Z 64
_cell_length_a 15.833633
_cell_length_b 22.782163
_cell_length_c 9.107919
_cell_angle_alpha 90.000000
_cell_angle_beta 90.000000
_cell_angle_gamma 90.000000
_cell_volume 3285.448688
_symmetry_space_group_name_H-M "P M M A"
_symmetry_group_IT_number 51
_symmetry_cell_setting 'orthorhombic'
loop_
_space_group_symop_operation_xyz
x,y,z
1/2-x,-y,z
1/2+x,-y,-z
-x,y,-z
-x,-y,-z
1/2+x,y,-z
1/2-x,y,z
x,-y,z
loop_
_atom_site_type_symbol
_atom_site_label
_atom_site_fract_x
_atom_site_fract_y
_atom_site_fract_z
Si Si1 0.845271 0.567232 0.852343
Si Si2 0.406657 0.841718 0.743816
Si Si3 0.156448 0.844371 0.429305
Si Si4 0.990774 0.621374 0.667897
Si Si5 0.153739 0.361790 0.852998
Si Si6 0.028661 0.934679 0.332523
Si Si7 0.155232 0.237308 0.981182
Si Si8 0.054759 0.246366 0.275253
O O1 0.750000 0.579589 0.789808
O O2 0.852530 0.500000 0.903060
O O3 0.918360 0.579710 0.734584
O O4 0.862096 0.608202 0.991161
O O5 0.346351 0.852554 0.604646
O O6 0.458497 0.902359 0.768973
O O7 0.355061 0.823224 0.888765
O O8 0.468667 0.788622 0.703642
O O9 0.250000 0.848357 0.371868
O O10 0.112005 0.895107 0.333326
O O11 0.121450 0.780260 0.389289
O O12 0.083069 0.613417 0.742215
O O13 0.000000 0.602601 0.500000
O O14 0.957223 0.686947 0.681934
O O15 0.250000 0.374798 0.796616
O O16 0.140078 0.292100 0.872163
O O17 0.000000 0.937678 0.500000
O O18 0.045430 0.000000 0.269821
O O19 0.250000 0.239558 0.046578
O O20 0.086719 0.239632 0.108833
#
# Coordination Sequence:
#
# PCOD8209378 Si02
#       8
#     8   8   8   8   8   8   8   8
#     4  10  23  44  68  92 121 161 209 256 300 356
#     4  10  19  33  54  79 110 145 189 237 290 347
#     4  10  20  33  51  79 114 148 188 237 290 347
#     4  12  24  38  61  91 127 162 201 249 310 374
#     4  10  22  40  61  89 119 157 206 255 302 359
#     4   8  16  32  53  77 108 147 189 232 283 348
#     4  11  21  34  55  82 111 145 193 246 296 350
#     4  11  21  35  52  79 113 153 188 230 293 363
#
# _framework density 19.479834
#
# number of rings (size 3 to 8) (size 9 to 14) (size 15 to 20)
#    0.000    1.750    2.500    3.375    0.000    2.500 
#    0.000    0.000    0.000    8.625    0.000    0.000 
#    0.000    0.000    0.000    0.000    0.000    0.000 
#
# Total GULP energy -793425.225854 kJ/mol
# GULP energy per Si atom -12397.269154 kJ/mol
# Density = 1.943550 g / cm^3
# Si number density = 19.479834 Si / 1000 Ang^3
#
#
#
# Elastic Constant Matrix: (Units=GPa)
#
#
# Indices 1 2 3 4 5 6 
#
# 1 114.5081 28.6779 41.1015 0.0000 0.0000 0.0000
# 2 28.6779 86.0194 13.4877 0.0000 0.0000 0.0000
# 3 41.1015 13.4877 79.8405 0.0000 0.0000 0.0000
# 4 0.0000 0.0000 0.0000 5.4345 0.0000 0.0000
# 5 0.0000 0.0000 0.0000 0.0000 26.4743 0.0000
# 6 0.0000 0.0000 0.0000 0.0000 0.0000 19.1624
#
#
#
# Elastic Compliance Matrix: (Units=1/GPa)
#
#
# Indices 1 2 3 4 5 6 
#
# 1 0.011401 -0.002959 -0.005369 0.000000 0.000000 0.000000
# 2 -0.002959 0.012710 -0.000624 0.000000 0.000000 0.000000
# 3 -0.005369 -0.000624 0.015395 0.000000 0.000000 0.000000
# 4 0.000000 0.000000 0.000000 0.184009 0.000000 0.000000
# 5 0.000000 0.000000 0.000000 0.000000 0.037772 0.000000
# 6 0.000000 0.000000 0.000000 0.000000 0.000000 0.052186
#
#
# Mechanical properties :
#
#
# Convention : Reuss Voigt Hill
#
# Bulk Modulus (GPa) = 46.29450 49.65578 47.97514
# Shear Modulus (GPa) = 14.76767 23.35432 19.06099
#
# Velocity S-wave (km/s) = 2.75635 3.46627 3.13149
# Velocity P-wave (km/s) = 5.82640 6.44719 6.14464
#
# Compressibility (1/GPa) = 0.02160084
#
# Stress axis : x y z
#
# Youngs Moduli (GPa) = 87.70823 78.68046 64.95821
#
# Poissons Ratio (x) = 0.23283 0.34879
# Poissons Ratio (y) = 0.25954 0.04051
# Poissons Ratio (z) = 0.47095 0.04907
#
# Static dielectric constant tensor:
#      x y z
#    x 3.731460 0.000000 0.000000 
#    y 0.000000 3.820280 0.000000 
#    z 0.000000 0.000000 3.364150 
# 
# 
# High freq. dielectric constant tensor:
#      x y z
#    x 1.768900 0.000000 0.000000 
#    y 0.000000 1.749670 0.000000 
#    z 0.000000 0.000000 1.734490 
# 
# From -- ./inp_files/8668.got.cif
#   From: 2010.03.12/outbox.cif.g09.slc.cpg/sg51_5_cif.got.tgz:8668.got - 2010.04.16 13:43:02.
