data_PCOD8209694
_publ_section_title
;
Structure prediction by ZEFSAII (Michael W. Deem and Ramdas Pophale) SiO2 
 PCOD8209694
Probable space group: P M M A
;
_chemical_formula_sum "Si O2"
_cell_formula_units_Z 44
_cell_length_a 8.786851
_cell_length_b 28.505136
_cell_length_c 9.417651
_cell_angle_alpha 90.000000
_cell_angle_beta 90.000000
_cell_angle_gamma 90.000000
_cell_volume 2358.842651
_symmetry_space_group_name_H-M "P M M A"
_symmetry_group_IT_number 51
_symmetry_cell_setting 'orthorhombic'
loop_
_space_group_symop_operation_xyz
x,y,z
1/2-x,-y,z
1/2+x,-y,-z
-x,y,-z
-x,-y,-z
1/2+x,y,-z
1/2-x,y,z
x,-y,z
loop_
_atom_site_type_symbol
_atom_site_label
_atom_site_fract_x
_atom_site_fract_y
_atom_site_fract_z
Si Si1 0.931056 0.000000 0.844211
Si Si2 0.070074 0.364257 0.154008
Si Si3 0.429109 0.447354 0.352803
Si Si4 0.429179 0.284461 0.656203
Si Si5 0.430813 0.080823 0.657103
Si Si6 0.075471 0.817266 0.649007
O O1 0.987871 0.954244 0.762933
O O2 0.750000 0.000000 0.852796
O O3 0.000000 0.000000 0.000000
O O4 0.250000 0.360605 0.143379
O O5 0.017281 0.412406 0.229377
O O6 0.009174 0.320237 0.239845
O O7 0.000000 0.364181 0.000000
O O8 0.500000 0.429754 0.500000
O O9 0.250000 0.445935 0.372129
O O10 0.485620 0.500000 0.314923
O O11 0.500000 0.289240 0.500000
O O12 0.250000 0.295078 0.646041
O O13 0.460110 0.232377 0.726743
O O14 0.500000 0.074677 0.500000
O O15 0.250000 0.070949 0.651627
O O16 0.470317 0.133077 0.721599
O O17 0.250000 0.820571 0.612923
O O18 0.000000 0.813447 0.500000
#
# Coordination Sequence:
#
# PCOD8209694 Si02
#       6
#     4   8   8   8   8   8
#     4  12  25  40  55  76 106 142 180 220 267 318
#     4  11  23  37  53  76 107 143 181 221 266 316
#     4   9  19  36  57  80 105 134 172 217 264 315
#     4  10  19  34  56  82 110 141 177 218 263 312
#     4  10  19  35  58  84 110 139 176 218 262 311
#     4   8  16  30  52  80 108 136 171 215 261 308
#
# _framework density 18.653214999999999
#
# number of rings (size 3 to 8) (size 9 to 14) (size 15 to 20)
#    0.000    2.182    0.000    3.273    0.000    4.727 
#    0.000    0.909    0.000    0.000    0.000    0.000 
#    0.000    0.000    0.000    0.000    0.000    0.000 
#
# Total GULP energy -545184.714352 kJ/mol
# GULP energy per Si atom -12390.561690 kJ/mol
# Density = 1.861076 g / cm^3
# Si number density = 18.653215 Si / 1000 Ang^3
#
#
#
# Elastic Constant Matrix: (Units=GPa)
#
#
# Indices 1 2 3 4 5 6 
#
# 1 83.1132 62.6614 52.2605 0.0000 0.0000 0.0000
# 2 62.6614 165.7577 92.6816 0.0000 0.0000 0.0000
# 3 52.2605 92.6816 127.6916 0.0000 0.0000 0.0000
# 4 0.0000 0.0000 0.0000 -36.1779 0.0000 0.0000
# 5 0.0000 0.0000 0.0000 0.0000 31.9864 0.0000
# 6 0.0000 0.0000 0.0000 0.0000 0.0000 26.5365
#
#
#
# Elastic Compliance Matrix: (Units=1/GPa)
#
#
# Indices 1 2 3 4 5 6 
#
# 1 0.018013 -0.004523 -0.004089 0.000000 0.000000 0.000000
# 2 -0.004523 0.011289 -0.006343 0.000000 0.000000 0.000000
# 3 -0.004089 -0.006343 0.014109 0.000000 0.000000 0.000000
# 4 0.000000 0.000000 0.000000 -0.027641 0.000000 0.000000
# 5 0.000000 0.000000 0.000000 0.000000 0.031263 0.000000
# 6 0.000000 0.000000 0.000000 0.000000 0.000000 0.037684
#
#
# Mechanical properties :
#
#
# Convention : Reuss Voigt Hill
#
# Bulk Modulus (GPa) = 74.06987 87.97440 81.02214
# Shear Modulus (GPa) = 41.97159 15.73292 28.85225
#
# Velocity S-wave (km/s) = 4.74867 2.90736 3.93717
# Velocity P-wave (km/s) = 8.35832 7.65087 8.01241
#
# Compressibility (1/GPa) = 0.01350077
#
# Stress axis : x y z
#
# Youngs Moduli (GPa) = 55.51506 88.57945 70.87741
#
# Poissons Ratio (x) = 0.40064 0.28984
# Poissons Ratio (y) = 0.25109 0.44957
# Poissons Ratio (z) = 0.22702 0.56185
#
# Static dielectric constant tensor:
#      x y z
#    x 3.572250 0.000000 0.000000 
#    y 0.000000 4.406310 0.000000 
#    z 0.000000 0.000000 2.179440 
# 
# 
# High freq. dielectric constant tensor:
#      x y z
#    x 1.735960 0.000000 0.000000 
#    y 0.000000 1.754410 0.000000 
#    z 0.000000 0.000000 1.690810 
# 
# From -- ./inp_files/5883.got.cif
#   From: 2010.03.12/outbox.cif.g09.slc.cpg/sg51_3_cif.got.tgz:5883.got - 2010.04.16 13:43:02.
