data_PCOD8209669
_publ_section_title
;
Structure prediction by ZEFSAII (Michael W. Deem and Ramdas Pophale) SiO2 
 PCOD8209669
Probable space group: P M M A
;
_chemical_formula_sum "Si O2"
_cell_formula_units_Z 48
_cell_length_a 28.069210
_cell_length_b 8.885198
_cell_length_c 10.314782
_cell_angle_alpha 90.000000
_cell_angle_beta 90.000000
_cell_angle_gamma 90.000000
_cell_volume 2572.511670
_symmetry_space_group_name_H-M "P M M A"
_symmetry_group_IT_number 51
_symmetry_cell_setting 'orthorhombic'
loop_
_space_group_symop_operation_xyz
x,y,z
1/2-x,-y,z
1/2+x,-y,-z
-x,y,-z
-x,-y,-z
1/2+x,y,-z
1/2-x,y,z
x,-y,z
loop_
_atom_site_type_symbol
_atom_site_label
_atom_site_fract_x
_atom_site_fract_y
_atom_site_fract_z
Si Si1 0.197027 0.672002 0.626067
Si Si2 0.944327 0.173989 0.490538
Si Si3 0.303727 0.176345 0.357412
Si Si4 0.606147 0.321899 0.731215
Si Si5 0.553307 0.321474 0.984875
Si Si6 0.601085 0.674800 0.247800
O O1 0.250000 0.706770 0.681724
O O2 0.193816 0.500000 0.576770
O O3 0.185011 0.777869 0.505109
O O4 0.157973 0.701956 0.737643
O O5 0.918267 0.270459 0.599250
O O6 0.927848 0.227312 0.350035
O O7 0.000000 0.203650 0.500000
O O8 0.931164 0.000000 0.510609
O O9 0.250000 0.224192 0.319727
O O10 0.340002 0.259252 0.260762
O O11 0.311355 0.000000 0.344705
O O12 0.608208 0.500000 0.734441
O O13 0.576774 0.257080 0.853593
O O14 0.550902 0.500000 0.976425
O O15 0.500000 0.254970 0.000000
O O16 0.585729 0.269845 0.105618
O O17 0.587850 0.500000 0.268794
#
# Coordination Sequence:
#
# PCOD8209669 Si02
#       6
#     8   8   8   8   8   8
#     4   9  17  30  51  80 109 136 173 222 274 327
#     4  11  23  36  52  78 110 141 180 231 279 327
#     4  10  20  34  54  80 112 147 181 222 273 326
#     4  11  21  35  57  83 110 145 185 228 275 325
#     4   9  19  35  54  78 110 146 185 227 273 327
#     4  10  19  34  56  80 105 140 182 226 277 327
#
# _framework density 18.658808000000001
#
# number of rings (size 3 to 8) (size 9 to 14) (size 15 to 20)
#    0.000    2.000    1.667    2.500    0.000    3.667 
#    0.000    2.500    0.000    7.500    0.000    2.333 
#    0.000    0.000    0.000    0.000    0.000    0.000 
#
# Total GULP energy -595248.035079 kJ/mol
# GULP energy per Si atom -12401.000731 kJ/mol
# Density = 1.861634 g / cm^3
# Si number density = 18.658808 Si / 1000 Ang^3
#
#
#
# Elastic Constant Matrix: (Units=GPa)
#
#
# Indices 1 2 3 4 5 6 
#
# 1 141.5276 38.2905 56.0184 0.0000 0.0000 0.0000
# 2 38.2905 53.0235 20.4560 0.0000 0.0000 0.0000
# 3 56.0184 20.4560 87.6992 0.0000 0.0000 0.0000
# 4 0.0000 0.0000 0.0000 3.1343 0.0000 0.0000
# 5 0.0000 0.0000 0.0000 0.0000 36.2682 0.0000
# 6 0.0000 0.0000 0.0000 0.0000 0.0000 24.2039
#
#
#
# Elastic Compliance Matrix: (Units=1/GPa)
#
#
# Indices 1 2 3 4 5 6 
#
# 1 0.010804 -0.005648 -0.005584 0.000000 0.000000 0.000000
# 2 -0.005648 0.023677 -0.001915 0.000000 0.000000 0.000000
# 3 -0.005584 -0.001915 0.015416 0.000000 0.000000 0.000000
# 4 0.000000 0.000000 0.000000 0.319050 0.000000 0.000000
# 5 0.000000 0.000000 0.000000 0.000000 0.027572 0.000000
# 6 0.000000 0.000000 0.000000 0.000000 0.000000 0.041316
#
#
# Mechanical properties :
#
#
# Convention : Reuss Voigt Hill
#
# Bulk Modulus (GPa) = 42.36654 56.86446 49.61550
# Shear Modulus (GPa) = 10.59330 23.88696 17.24013
#
# Velocity S-wave (km/s) = 2.38531 3.58187 3.04298
# Velocity P-wave (km/s) = 5.50831 6.90279 6.24460
#
# Compressibility (1/GPa) = 0.02360353
#
# Stress axis : x y z
#
# Youngs Moduli (GPa) = 92.55933 42.23523 64.86793
#
# Poissons Ratio (x) = 0.23854 0.36220
# Poissons Ratio (y) = 0.52276 0.12423
# Poissons Ratio (z) = 0.51682 0.08088
#
# Static dielectric constant tensor:
#      x y z
#    x 3.889650 0.000000 0.000000 
#    y 0.000000 3.289160 0.000000 
#    z 0.000000 0.000000 3.323660 
# 
# 
# High freq. dielectric constant tensor:
#      x y z
#    x 1.746640 0.000000 0.000000 
#    y 0.000000 1.710230 0.000000 
#    z 0.000000 0.000000 1.701840 
# 
# From -- ./inp_files/12857.got.cif
#   From: 2010.03.12/outbox.cif.g09.slc.cpg/sg51_7_cif.got.tgz:12857.got - 2010.04.16 13:43:02.
