data_PCOD8209216
_publ_section_title
;
Structure prediction by ZEFSAII (Michael W. Deem and Ramdas Pophale) SiO2 
 PCOD8209216
Probable space group: P M M A
;
_chemical_formula_sum "Si O2"
_cell_formula_units_Z 52
_cell_length_a 9.265890
_cell_length_b 22.504813
_cell_length_c 14.601836
_cell_angle_alpha 90.000000
_cell_angle_beta 90.000000
_cell_angle_gamma 90.000000
_cell_volume 3044.878833
_symmetry_space_group_name_H-M "P M M A"
_symmetry_group_IT_number 51
_symmetry_cell_setting 'orthorhombic'
loop_
_space_group_symop_operation_xyz
x,y,z
1/2-x,-y,z
1/2+x,-y,-z
-x,y,-z
-x,-y,-z
1/2+x,y,-z
1/2-x,y,z
x,-y,z
loop_
_atom_site_type_symbol
_atom_site_label
_atom_site_fract_x
_atom_site_fract_y
_atom_site_fract_z
Si Si1 0.919010 0.107408 0.228123
Si Si2 0.405151 0.568795 0.422147
Si Si3 0.581246 0.000000 0.096312
Si Si4 0.416884 0.791276 0.909184
Si Si5 0.080794 0.930288 0.407186
Si Si6 0.581151 0.344420 0.090935
Si Si7 0.418712 0.567592 0.217696
O O1 0.750000 0.102186 0.253740
O O2 0.957672 0.169641 0.179232
O O3 0.011611 0.103674 0.320831
O O4 0.963897 0.056851 0.156004
O O5 0.500000 0.600911 0.500000
O O6 0.250000 0.600572 0.424215
O O7 0.385789 0.500000 0.447282
O O8 0.472079 0.574675 0.321806
O O9 0.750000 0.000000 0.073853
O O10 0.500000 0.000000 0.000000
O O11 0.250000 0.799067 0.933665
O O12 0.455550 0.723553 0.883534
O O13 0.500000 0.812623 0.000000
O O14 0.250000 0.914492 0.415103
O O15 0.000000 0.909678 0.500000
O O16 0.056382 0.000000 0.391456
O O17 0.750000 0.354546 0.076966
O O18 0.522833 0.387260 0.168130
O O19 0.500000 0.363898 0.000000
O O20 0.250000 0.584100 0.206185
O O21 0.443784 0.500000 0.183737
#
# Coordination Sequence:
#
# PCOD8209216 Si02
#       7
#     8   8   4   8   8   8   8
#     4  10  19  33  51  73 101 132 165 203 248 292
#     4   8  14  25  42  65  93 122 150 182 224 275
#     4  10  20  30  45  70 101 132 159 194 242 290
#     4   9  19  34  52  73  98 129 165 205 244 290
#     4  10  20  33  51  75 102 133 168 207 249 297
#     4  10  20  34  51  71  95 127 166 204 245 292
#     4   9  18  32  49  71  99 128 159 200 249 296
#
# _framework density 17.077855
#
# number of rings (size 3 to 8) (size 9 to 14) (size 15 to 20)
#    0.000    2.615    0.769    2.308    0.000    3.692 
#    0.000    1.538    0.000    0.923    0.000    2.154 
#    0.000    0.000    0.000    0.000    0.000    0.000 
#
# Total GULP energy -644625.389109 kJ/mol
# GULP energy per Si atom -12396.642098 kJ/mol
# Density = 1.703898 g / cm^3
# Si number density = 17.077855 Si / 1000 Ang^3
#
#
#
# Elastic Constant Matrix: (Units=GPa)
#
#
# Indices 1 2 3 4 5 6 
#
# 1 88.9466 40.2940 72.1632 0.0000 0.0000 0.0000
# 2 40.2940 61.9756 52.5463 0.0000 0.0000 0.0000
# 3 72.1632 52.5463 135.8783 0.0000 0.0000 0.0000
# 4 0.0000 0.0000 0.0000 13.2433 0.0000 0.0000
# 5 0.0000 0.0000 0.0000 0.0000 38.3558 0.0000
# 6 0.0000 0.0000 0.0000 0.0000 0.0000 20.4705
#
#
#
# Elastic Compliance Matrix: (Units=1/GPa)
#
#
# Indices 1 2 3 4 5 6 
#
# 1 0.021305 -0.006336 -0.008865 0.000000 0.000000 0.000000
# 2 -0.006336 0.025891 -0.006648 0.000000 0.000000 0.000000
# 3 -0.008865 -0.006648 0.014638 0.000000 0.000000 0.000000
# 4 0.000000 0.000000 0.000000 0.075510 0.000000 0.000000
# 5 0.000000 0.000000 0.000000 0.000000 0.026072 0.000000
# 6 0.000000 0.000000 0.000000 0.000000 0.000000 0.048851
#
#
# Mechanical properties :
#
#
# Convention : Reuss Voigt Hill
#
# Bulk Modulus (GPa) = 55.13280 68.53416 61.83348
# Shear Modulus (GPa) = 19.08343 22.53371 20.80857
#
# Velocity S-wave (km/s) = 3.34644 3.63639 3.49442
# Velocity P-wave (km/s) = 6.87639 7.60583 7.25029
#
# Compressibility (1/GPa) = 0.01813802
#
# Stress axis : x y z
#
# Youngs Moduli (GPa) = 46.93793 38.62390 68.31467
#
# Poissons Ratio (x) = 0.24470 0.60558
# Poissons Ratio (y) = 0.29738 0.45413
# Poissons Ratio (z) = 0.41609 0.25676
#
# Static dielectric constant tensor:
#      x y z
#    x 3.491700 0.000000 0.000000 
#    y 0.000000 3.028790 0.000000 
#    z 0.000000 0.000000 3.233940 
# 
# 
# High freq. dielectric constant tensor:
#      x y z
#    x 1.662890 0.000000 0.000000 
#    y 0.000000 1.630400 0.000000 
#    z 0.000000 0.000000 1.663030 
# 
# From -- ./inp_files/21520.got.cif
#   From: 2010.03.12/outbox.cif.g09.slc.cpg/sg51_11_cif.got.tgz:21520.got - 2010.04.16 13:43:02.
