data_PCOD8209674
_publ_section_title
;
Structure prediction by ZEFSAII (Michael W. Deem and Ramdas Pophale) SiO2 
 PCOD8209674
Probable space group: P M M A
;
_chemical_formula_sum "Si O2"
_cell_formula_units_Z 48
_cell_length_a 25.015710
_cell_length_b 8.838115
_cell_length_c 11.809278
_cell_angle_alpha 90.000000
_cell_angle_beta 90.000000
_cell_angle_gamma 90.000000
_cell_volume 2610.933606
_symmetry_space_group_name_H-M "P M M A"
_symmetry_group_IT_number 51
_symmetry_cell_setting 'orthorhombic'
loop_
_space_group_symop_operation_xyz
x,y,z
1/2-x,-y,z
1/2+x,-y,-z
-x,y,-z
-x,-y,-z
1/2+x,y,-z
1/2-x,y,z
x,-y,z
loop_
_atom_site_type_symbol
_atom_site_label
_atom_site_fract_x
_atom_site_fract_y
_atom_site_fract_z
Si Si1 0.561432 0.678565 0.503273
Si Si2 0.810955 0.824941 0.110042
Si Si3 0.001794 0.179414 0.125863
Si Si4 0.187868 0.324121 0.122530
Si Si5 0.096739 0.177302 0.722970
Si Si6 0.398834 0.820681 0.270672
O O1 0.500000 0.736506 0.500000
O O2 0.563577 0.500000 0.517498
O O3 0.592634 0.727274 0.390936
O O4 0.593165 0.754206 0.605345
O O5 0.750000 0.785853 0.142543
O O6 0.846750 0.784169 0.218607
O O7 0.818202 0.000000 0.077137
O O8 0.830544 0.730593 0.001626
O O9 0.053990 0.241050 0.189888
O O10 0.949569 0.232949 0.192724
O O11 0.003867 0.000000 0.118395
O O12 0.000000 0.249822 0.000000
O O13 0.250000 0.287354 0.139930
O O14 0.175055 0.500000 0.133650
O O15 0.157179 0.234806 0.220529
O O16 0.091075 0.000000 0.694706
O O17 0.399066 0.000000 0.279219
#
# Coordination Sequence:
#
# PCOD8209674 Si02
#       6
#     8   8   8   8   8   8
#     4  11  23  38  55  77 111 149 187 231 282 338
#     4   9  18  34  58  86 113 144 184 228 272 322
#     4   9  17  29  49  79 109 136 171 220 277 328
#     4  10  21  37  57  82 115 151 183 221 275 334
#     4  10  19  34  56  80 110 145 187 232 276 327
#     4  11  21  35  58  82 108 143 188 234 275 327
#
# _framework density 18.384229000000001
#
# number of rings (size 3 to 8) (size 9 to 14) (size 15 to 20)
#    0.000    2.000    1.667    2.500    0.000    5.000 
#    0.000    0.833    0.000    5.500    0.000    0.000 
#    0.000    0.000    0.000    0.000    0.000    0.000 
#
# Total GULP energy -595389.101618 kJ/mol
# GULP energy per Si atom -12403.939617 kJ/mol
# Density = 1.834239 g / cm^3
# Si number density = 18.384229 Si / 1000 Ang^3
#
#
#
# Elastic Constant Matrix: (Units=GPa)
#
#
# Indices 1 2 3 4 5 6 
#
# 1 95.9613 36.3186 64.7890 0.0000 0.0000 0.0000
# 2 36.3186 59.3485 42.7353 0.0000 0.0000 0.0000
# 3 64.7890 42.7353 149.9946 0.0000 0.0000 0.0000
# 4 0.0000 0.0000 0.0000 20.8357 0.0000 0.0000
# 5 0.0000 0.0000 0.0000 0.0000 31.3863 0.0000
# 6 0.0000 0.0000 0.0000 0.0000 0.0000 22.9438
#
#
#
# Elastic Compliance Matrix: (Units=1/GPa)
#
#
# Indices 1 2 3 4 5 6 
#
# 1 0.016336 -0.006185 -0.005294 0.000000 0.000000 0.000000
# 2 -0.006185 0.023540 -0.004035 0.000000 0.000000 0.000000
# 3 -0.005294 -0.004035 0.010103 0.000000 0.000000 0.000000
# 4 0.000000 0.000000 0.000000 0.047994 0.000000 0.000000
# 5 0.000000 0.000000 0.000000 0.000000 0.031861 0.000000
# 6 0.000000 0.000000 0.000000 0.000000 0.000000 0.043585
#
#
# Mechanical properties :
#
#
# Convention : Reuss Voigt Hill
#
# Bulk Modulus (GPa) = 52.76756 65.88781 59.32769
# Shear Modulus (GPa) = 23.72305 25.79726 24.76016
#
# Velocity S-wave (km/s) = 3.59611 3.75003 3.67388
# Velocity P-wave (km/s) = 6.78289 7.39374 7.09490
#
# Compressibility (1/GPa) = 0.01895104
#
# Stress axis : x y z
#
# Youngs Moduli (GPa) = 61.21464 42.48045 98.97657
#
# Poissons Ratio (x) = 0.26273 0.52399
# Poissons Ratio (y) = 0.37860 0.39942
# Poissons Ratio (z) = 0.32408 0.17143
#
# Static dielectric constant tensor:
#      x y z
#    x 3.462690 0.000000 0.000000 
#    y 0.000000 3.213120 0.000000 
#    z 0.000000 0.000000 3.420630 
# 
# 
# High freq. dielectric constant tensor:
#      x y z
#    x 1.713700 0.000000 0.000000 
#    y 0.000000 1.699130 0.000000 
#    z 0.000000 0.000000 1.715910 
# 
# From -- ./inp_files/18579.got.cif
#   From: 2010.03.12/outbox.cif.g09.slc.cpg/sg51_10_cif.got.tgz:18579.got - 2010.04.16 13:43:02.
