data_PCOD8209103
_publ_section_title
;
Structure prediction by ZEFSAII (Michael W. Deem and Ramdas Pophale) SiO2 
 PCOD8209103
Probable space group: P M M A
;
_chemical_formula_sum "Si O2"
_cell_formula_units_Z 64
_cell_length_a 23.490860
_cell_length_b 9.473423
_cell_length_c 14.729832
_cell_angle_alpha 90.000000
_cell_angle_beta 90.000000
_cell_angle_gamma 90.000000
_cell_volume 3277.959924
_symmetry_space_group_name_H-M "P M M A"
_symmetry_group_IT_number 51
_symmetry_cell_setting 'orthorhombic'
loop_
_space_group_symop_operation_xyz
x,y,z
1/2-x,-y,z
1/2+x,-y,-z
-x,y,-z
-x,-y,-z
1/2+x,y,-z
1/2-x,y,z
x,-y,z
loop_
_atom_site_type_symbol
_atom_site_label
_atom_site_fract_x
_atom_site_fract_y
_atom_site_fract_z
Si Si1 0.362207 0.658705 0.045247
Si Si2 0.987701 0.836709 0.288680
Si Si3 0.683823 0.835963 0.474158
Si Si4 0.122764 0.331964 0.678652
Si Si5 0.186824 0.333156 0.859757
Si Si6 0.111830 0.837427 0.351170
Si Si7 0.187882 0.341632 0.229112
Si Si8 0.467478 0.837679 0.092636
O O1 0.383973 0.500000 0.025505
O O2 0.312176 0.659425 0.119509
O O3 0.411967 0.744741 0.091924
O O4 0.340068 0.730036 0.952169
O O5 0.939381 0.737109 0.331386
O O6 0.044218 0.807357 0.348957
O O7 0.996188 0.798111 0.182306
O O8 0.969167 0.000000 0.298678
O O9 0.750000 0.809230 0.500109
O O10 0.667175 0.735330 0.391406
O O11 0.641840 0.789971 0.555675
O O12 0.674190 0.000000 0.448376
O O13 0.119169 0.500000 0.663427
O O14 0.146234 0.290910 0.777416
O O15 0.250000 0.269201 0.844571
O O16 0.191970 0.500000 0.869818
O O17 0.139019 0.756357 0.267625
O O18 0.124208 0.000000 0.332812
O O19 0.250000 0.288268 0.261026
O O20 0.176995 0.500000 0.265001
O O21 0.449079 0.000000 0.098673
O O22 0.500000 0.803799 0.000000
#
# Coordination Sequence:
#
# PCOD8209103 Si02
#       8
#     8   8   8   8   8   8   8   8
#     4  10  19  32  53  80 110 147 189 231 278 337
#     4  10  21  38  58  82 116 155 192 235 287 342
#     4  10  22  41  64  88 113 145 188 237 290 349
#     4  11  23  38  60  87 115 150 193 243 293 343
#     4   9  18  34  55  80 112 150 192 236 284 341
#     4  10  21  39  62  85 112 151 196 234 277 339
#     4  10  20  33  52  82 117 149 182 228 284 334
#     4  10  20  34  53  78 112 153 194 238 285 332
#
# _framework density 19.524339000000001
#
# number of rings (size 3 to 8) (size 9 to 14) (size 15 to 20)
#    0.000    2.000    1.250    2.250    0.000    5.250 
#    0.000    3.125    0.000    2.625    0.000    0.000 
#    0.000    0.000    0.000    0.000    0.000    0.000 
#
# Total GULP energy -793529.534481 kJ/mol
# GULP energy per Si atom -12398.898976 kJ/mol
# Density = 1.947990 g / cm^3
# Si number density = 19.524339 Si / 1000 Ang^3
#
#
#
# Elastic Constant Matrix: (Units=GPa)
#
#
# Indices 1 2 3 4 5 6 
#
# 1 106.9150 43.3510 35.0738 0.0000 0.0000 0.0000
# 2 43.3510 55.8640 31.4861 0.0000 0.0000 0.0000
# 3 35.0738 31.4861 91.0302 0.0000 0.0000 0.0000
# 4 0.0000 0.0000 0.0000 28.0459 0.0000 0.0000
# 5 0.0000 0.0000 0.0000 0.0000 31.2429 0.0000
# 6 0.0000 0.0000 0.0000 0.0000 0.0000 28.8661
#
#
#
# Elastic Compliance Matrix: (Units=1/GPa)
#
#
# Indices 1 2 3 4 5 6 
#
# 1 0.013941 -0.009678 -0.002024 0.000000 0.000000 0.000000
# 2 -0.009678 0.028953 -0.006286 0.000000 0.000000 0.000000
# 3 -0.002024 -0.006286 0.013939 0.000000 0.000000 0.000000
# 4 0.000000 0.000000 0.000000 0.035656 0.000000 0.000000
# 5 0.000000 0.000000 0.000000 0.000000 0.032007 0.000000
# 6 0.000000 0.000000 0.000000 0.000000 0.000000 0.034643
#
#
# Mechanical properties :
#
#
# Convention : Reuss Voigt Hill
#
# Bulk Modulus (GPa) = 47.94139 52.62568 50.28353
# Shear Modulus (GPa) = 24.74413 27.22421 25.98417
#
# Velocity S-wave (km/s) = 3.56385 3.73818 3.65205
# Velocity P-wave (km/s) = 6.44536 6.75606 6.60254
#
# Compressibility (1/GPa) = 0.02085880
#
# Stress axis : x y z
#
# Youngs Moduli (GPa) = 71.72943 34.53830 71.73889
#
# Poissons Ratio (x) = 0.33425 0.14521
# Poissons Ratio (y) = 0.69417 0.45094
# Poissons Ratio (z) = 0.14519 0.21710
#
# Static dielectric constant tensor:
#      x y z
#    x 3.602120 0.000000 0.000000 
#    y 0.000000 3.364120 0.000000 
#    z 0.000000 0.000000 3.669950 
# 
# 
# High freq. dielectric constant tensor:
#      x y z
#    x 1.766150 0.000000 0.000000 
#    y 0.000000 1.742080 0.000000 
#    z 0.000000 0.000000 1.765500 
# 
# From -- ./inp_files/26306.got.cif
#   From: 2010.03.12/outbox.cif.g09.slc.cpg/sg51_14_cif.got.tgz:26306.got - 2010.04.16 13:43:02.
