data_PCOD8209002
_publ_section_title
;
Structure prediction by ZEFSAII (Michael W. Deem and Ramdas Pophale) SiO2 
 PCOD8209002
Probable space group: P M M A
;
_chemical_formula_sum "Si O2"
_cell_formula_units_Z 64
_cell_length_a 8.843934
_cell_length_b 24.672086
_cell_length_c 15.338538
_cell_angle_alpha 90.000000
_cell_angle_beta 90.000000
_cell_angle_gamma 90.000000
_cell_volume 3346.842920
_symmetry_space_group_name_H-M "P M M A"
_symmetry_group_IT_number 51
_symmetry_cell_setting 'orthorhombic'
loop_
_space_group_symop_operation_xyz
x,y,z
1/2-x,-y,z
1/2+x,-y,-z
-x,y,-z
-x,-y,-z
1/2+x,y,-z
1/2-x,y,z
x,-y,z
loop_
_atom_site_type_symbol
_atom_site_label
_atom_site_fract_x
_atom_site_fract_y
_atom_site_fract_z
Si Si1 0.423968 0.101527 0.913835
Si Si2 0.430441 0.356610 0.720490
Si Si3 0.429663 0.060369 0.731162
Si Si4 0.427984 0.755264 0.317533
Si Si5 0.569764 0.147082 0.409787
Si Si6 0.421157 0.336676 0.913913
Si Si7 0.079074 0.218959 0.856350
Si Si8 0.075088 0.563733 0.409912
O O1 0.250000 0.086138 0.919423
O O2 0.495171 0.075301 0.826657
O O3 0.451665 0.166150 0.913664
O O4 0.500000 0.076807 0.000000
O O5 0.250000 0.352752 0.716754
O O6 0.499688 0.304191 0.673120
O O7 0.486411 0.359105 0.821749
O O8 0.489934 0.409540 0.671563
O O9 0.250000 0.063732 0.734502
O O10 0.489218 0.103819 0.661538
O O11 0.484352 0.000000 0.705161
O O12 0.250000 0.751638 0.333685
O O13 0.503339 0.793642 0.389650
O O14 0.461506 0.779997 0.222700
O O15 0.500000 0.126541 0.500000
O O16 0.750000 0.149734 0.414687
O O17 0.250000 0.355344 0.921643
O O18 0.439962 0.271663 0.916409
O O19 0.500000 0.361339 0.000000
O O20 0.250000 0.217285 0.816702
O O21 0.250000 0.580853 0.410769
O O22 0.054136 0.500000 0.398088
O O23 0.000000 0.583560 0.500000
#
# Coordination Sequence:
#
# PCOD8209002 Si02
#       8
#     8   8   8   8   8   8   8   8
#     4  10  19  32  52  78 107 141 179 220 270 327
#     4  10  21  37  57  84 119 157 194 234 281 333
#     4   9  19  37  59  78 103 142 180 220 276 336
#     4  11  21  34  55  83 113 145 183 224 274 330
#     4  11  22  39  60  82 109 139 177 223 275 336
#     4   9  18  30  48  75 111 149 189 230 277 327
#     4   9  17  32  50  73 106 146 182 220 272 327
#     4  10  21  38  61  89 119 152 193 240 287 335
#
# _framework density 19.122499000000001
#
# number of rings (size 3 to 8) (size 9 to 14) (size 15 to 20)
#    0.000    2.125    1.250    3.375    0.000    4.750 
#    0.000    2.500    0.000    3.000    0.000    0.000 
#    0.000    0.000    0.000    0.000    0.000    0.000 
#
# Total GULP energy -793538.573430 kJ/mol
# GULP energy per Si atom -12399.040210 kJ/mol
# Density = 1.907897 g / cm^3
# Si number density = 19.122499 Si / 1000 Ang^3
#
#
#
# Elastic Constant Matrix: (Units=GPa)
#
#
# Indices 1 2 3 4 5 6 
#
# 1 82.8018 31.6707 43.9217 0.0000 0.0000 0.0000
# 2 31.6707 65.3879 51.0680 0.0000 0.0000 0.0000
# 3 43.9217 51.0680 135.7935 0.0000 0.0000 0.0000
# 4 0.0000 0.0000 0.0000 19.8917 0.0000 0.0000
# 5 0.0000 0.0000 0.0000 0.0000 35.7422 0.0000
# 6 0.0000 0.0000 0.0000 0.0000 0.0000 17.3044
#
#
#
# Elastic Compliance Matrix: (Units=1/GPa)
#
#
# Indices 1 2 3 4 5 6 
#
# 1 0.015717 -0.005157 -0.003144 0.000000 0.000000 0.000000
# 2 -0.005157 0.023345 -0.007111 0.000000 0.000000 0.000000
# 3 -0.003144 -0.007111 0.011056 0.000000 0.000000 0.000000
# 4 0.000000 0.000000 0.000000 0.050272 0.000000 0.000000
# 5 0.000000 0.000000 0.000000 0.000000 0.027978 0.000000
# 6 0.000000 0.000000 0.000000 0.000000 0.000000 0.057789
#
#
# Mechanical properties :
#
#
# Convention : Reuss Voigt Hill
#
# Bulk Modulus (GPa) = 51.83339 59.70045 55.76692
# Shear Modulus (GPa) = 22.37999 25.07584 23.72791
#
# Velocity S-wave (km/s) = 3.42475 3.62515 3.52637
# Velocity P-wave (km/s) = 6.54243 6.98642 6.76807
#
# Compressibility (1/GPa) = 0.01929258
#
# Stress axis : x y z
#
# Youngs Moduli (GPa) = 63.62364 42.83534 90.45242
#
# Poissons Ratio (x) = 0.22090 0.28441
# Poissons Ratio (y) = 0.32811 0.64325
# Poissons Ratio (z) = 0.20005 0.30462
#
# Static dielectric constant tensor:
#      x y z
#    x 3.357060 0.000000 0.000000 
#    y 0.000000 3.381390 0.000000 
#    z 0.000000 0.000000 3.531210 
# 
# 
# High freq. dielectric constant tensor:
#      x y z
#    x 1.731220 0.000000 0.000000 
#    y 0.000000 1.725880 0.000000 
#    z 0.000000 0.000000 1.746990 
# 
# From -- ./inp_files/22339.got.cif
#   From: 2010.03.12/outbox.cif.g09.slc.cpg/sg51_12_cif.got.tgz:22339.got - 2010.04.16 13:43:02.
