data_PCOD8209196
_publ_section_title
;
Structure prediction by ZEFSAII (Michael W. Deem and Ramdas Pophale) SiO2 
 PCOD8209196
Probable space group: P M M A
;
_chemical_formula_sum "Si O2"
_cell_formula_units_Z 52
_cell_length_a 8.828585
_cell_length_b 22.439176
_cell_length_c 15.364894
_cell_angle_alpha 90.000000
_cell_angle_beta 90.000000
_cell_angle_gamma 90.000000
_cell_volume 3043.880343
_symmetry_space_group_name_H-M "P M M A"
_symmetry_group_IT_number 51
_symmetry_cell_setting 'orthorhombic'
loop_
_space_group_symop_operation_xyz
x,y,z
1/2-x,-y,z
1/2+x,-y,-z
-x,y,-z
-x,-y,-z
1/2+x,y,-z
1/2-x,y,z
x,-y,z
loop_
_atom_site_type_symbol
_atom_site_label
_atom_site_fract_x
_atom_site_fract_y
_atom_site_fract_z
Si Si1 0.930025 0.281218 0.733027
Si Si2 0.084873 0.146898 0.917931
Si Si3 0.924707 0.930381 0.590796
Si Si4 0.429554 0.370522 0.596188
Si Si5 0.923338 0.500000 0.409038
Si Si6 0.419012 0.287894 0.914509
Si Si7 0.930993 0.154063 0.270893
O O1 0.750000 0.279046 0.735190
O O2 0.986733 0.325532 0.659378
O O3 0.988560 0.303164 0.827176
O O4 0.993337 0.216765 0.705992
O O5 0.250000 0.118097 0.920974
O O6 0.092487 0.217623 0.927412
O O7 0.010292 0.132294 0.824370
O O8 0.000000 0.117941 0.000000
O O9 0.750000 0.910312 0.590241
O O10 0.000000 0.913059 0.500000
O O11 0.018599 0.896162 0.663064
O O12 0.941082 0.000000 0.610271
O O13 0.500000 0.364070 0.500000
O O14 0.250000 0.356932 0.592334
O O15 0.462822 0.436955 0.637455
O O16 0.750000 0.500000 0.432743
O O17 0.000000 0.500000 0.500000
O O18 0.250000 0.315075 0.906354
O O19 0.500000 0.315858 0.000000
O O20 0.750000 0.162579 0.270633
#
# Coordination Sequence:
#
# PCOD8209196 Si02
#       7
#     8   8   8   8   4   8   8
#     4  11  21  32  47  72 103 134 165 200 244 292
#     4   8  15  26  43  67  94 123 154 188 229 276
#     4  10  21  37  56  76  96 122 159 201 243 290
#     4  10  19  33  50  71  98 129 164 202 243 290
#     4   8  16  30  50  70  91 122 161 202 242 284
#     4   9  16  28  45  67  95 128 163 201 241 285
#     4  10  20  34  51  73 100 129 161 200 244 289
#
# _framework density 17.083458
#
# number of rings (size 3 to 8) (size 9 to 14) (size 15 to 20)
#    0.000    2.462    0.000    4.154    0.000    6.462 
#    0.000    3.077    0.000    0.462    0.000    0.538 
#    0.000    0.000    0.000    0.000    0.000    0.000 
#
# Total GULP energy -644377.172740 kJ/mol
# GULP energy per Si atom -12391.868707 kJ/mol
# Density = 1.704458 g / cm^3
# Si number density = 17.083458 Si / 1000 Ang^3
#
#
#
# Elastic Constant Matrix: (Units=GPa)
#
#
# Indices 1 2 3 4 5 6 
#
# 1 117.5394 36.6461 57.8237 0.0000 0.0000 0.0000
# 2 36.6461 51.1330 55.7165 0.0000 0.0000 0.0000
# 3 57.8237 55.7165 129.0259 0.0000 0.0000 0.0000
# 4 0.0000 0.0000 0.0000 -8.5920 0.0000 0.0000
# 5 0.0000 0.0000 0.0000 0.0000 32.1925 0.0000
# 6 0.0000 0.0000 0.0000 0.0000 0.0000 18.2453
#
#
#
# Elastic Compliance Matrix: (Units=1/GPa)
#
#
# Indices 1 2 3 4 5 6 
#
# 1 0.011549 -0.004981 -0.003025 0.000000 0.000000 0.000000
# 2 -0.004981 0.039085 -0.014646 0.000000 0.000000 0.000000
# 3 -0.003025 -0.014646 0.015430 0.000000 0.000000 0.000000
# 4 0.000000 0.000000 0.000000 -0.116387 0.000000 0.000000
# 5 0.000000 0.000000 0.000000 0.000000 0.031063 0.000000
# 6 0.000000 0.000000 0.000000 0.000000 0.000000 0.054809
#
#
# Mechanical properties :
#
#
# Convention : Reuss Voigt Hill
#
# Bulk Modulus (GPa) = 48.16618 66.45233 57.30926
# Shear Modulus (GPa) = 56.96630 18.20330 37.58480
#
# Velocity S-wave (km/s) = 5.78085 3.26782 4.69558
# Velocity P-wave (km/s) = 8.53308 7.29529 7.93835
#
# Compressibility (1/GPa) = 0.02076146
#
# Stress axis : x y z
#
# Youngs Moduli (GPa) = 86.58940 25.58531 64.80758
#
# Poissons Ratio (x) = 0.12744 0.19603
# Poissons Ratio (y) = 0.43129 0.94915
# Poissons Ratio (z) = 0.26192 0.37471
#
# Static dielectric constant tensor:
#      x y z
#    x 3.445590 0.000000 0.000000 
#    y 0.000000 2.982020 0.000000 
#    z 0.000000 0.000000 3.348590 
# 
# 
# High freq. dielectric constant tensor:
#      x y z
#    x 1.676400 0.000000 0.000000 
#    y 0.000000 1.620650 0.000000 
#    z 0.000000 0.000000 1.661790 
# 
# From -- ./inp_files/21522.got.cif
#   From: 2010.03.12/outbox.cif.g09.slc.cpg/sg51_11_cif.got.tgz:21522.got - 2010.04.16 13:43:02.
