data_PCOD8209369
_publ_section_title
;
Structure prediction by ZEFSAII (Michael W. Deem and Ramdas Pophale) SiO2 
 PCOD8209369
Probable space group: P M M A
;
_chemical_formula_sum "Si O2"
_cell_formula_units_Z 48
_cell_length_a 8.783725
_cell_length_b 30.682511
_cell_length_c 9.940582
_cell_angle_alpha 90.000000
_cell_angle_beta 90.000000
_cell_angle_gamma 90.000000
_cell_volume 2679.053838
_symmetry_space_group_name_H-M "P M M A"
_symmetry_group_IT_number 51
_symmetry_cell_setting 'orthorhombic'
loop_
_space_group_symop_operation_xyz
x,y,z
1/2-x,-y,z
1/2+x,-y,-z
-x,y,-z
-x,-y,-z
1/2+x,y,-z
1/2-x,y,z
x,-y,z
loop_
_atom_site_type_symbol
_atom_site_label
_atom_site_fract_x
_atom_site_fract_y
_atom_site_fract_z
Si Si1 0.074414 0.844203 0.638451
Si Si2 0.073103 0.257891 0.640015
Si Si3 0.070050 0.593134 0.852498
Si Si4 0.429400 0.094145 0.147198
Si Si5 0.569481 0.320358 0.851715
Si Si6 0.426386 0.000000 0.142938
Si Si7 0.926836 0.500000 0.144212
O O1 0.250000 0.856667 0.632860
O O2 0.047923 0.793210 0.660883
O O3 0.000000 0.860115 0.500000
O O4 0.997241 0.868457 0.761368
O O5 0.250000 0.270729 0.640528
O O6 0.000000 0.273558 0.500000
O O7 0.986359 0.280497 0.762160
O O8 0.250000 0.601985 0.858869
O O9 0.032705 0.545992 0.779830
O O10 0.988816 0.634372 0.781416
O O11 0.000000 0.590519 0.000000
O O12 0.250000 0.101153 0.135916
O O13 0.469932 0.046189 0.213672
O O14 0.500000 0.098582 0.000000
O O15 0.750000 0.320245 0.861301
O O16 0.500000 0.315147 0.000000
O O17 0.250000 0.000000 0.114366
O O18 0.500000 0.000000 0.000000
O O19 0.750000 0.500000 0.114045
O O20 0.000000 0.500000 0.000000
#
# Coordination Sequence:
#
# PCOD8209369 Si02
#       7
#     8   8   8   8   8   4   4
#     4  10  21  37  56  77 102 132 167 207 254 302
#     4  10  21  38  57  76  99 130 167 207 251 304
#     4   9  15  25  40  62  93 127 162 201 246 294
#     4  10  19  33  54  79 107 137 172 210 250 295
#     4  11  21  33  50  74 103 134 168 209 254 297
#     4   8  16  30  49  74 103 136 170 206 246 292
#     4   8  14  22  36  58  87 124 161 196 239 292
#
# _framework density 17.916772999999999
#
# number of rings (size 3 to 8) (size 9 to 14) (size 15 to 20)
#    0.000    2.333    0.000    4.500    0.000    4.000 
#    0.000    0.417    0.000    0.000    0.000    0.583 
#    0.000    0.000    0.000    0.000    0.000    0.000 
#
# Total GULP energy -594643.617200 kJ/mol
# GULP energy per Si atom -12388.408692 kJ/mol
# Density = 1.787599 g / cm^3
# Si number density = 17.916773 Si / 1000 Ang^3
#
#
#
# Elastic Constant Matrix: (Units=GPa)
#
#
# Indices 1 2 3 4 5 6 
#
# 1 124.0989 60.0281 48.2849 0.0000 0.0000 0.0000
# 2 60.0281 89.2925 53.9810 0.0000 0.0000 0.0000
# 3 48.2849 53.9810 76.8547 0.0000 0.0000 0.0000
# 4 0.0000 0.0000 0.0000 -1.2722 0.0000 0.0000
# 5 0.0000 0.0000 0.0000 0.0000 28.0027 0.0000
# 6 0.0000 0.0000 0.0000 0.0000 0.0000 -5.1876
#
#
#
# Elastic Compliance Matrix: (Units=1/GPa)
#
#
# Indices 1 2 3 4 5 6 
#
# 1 0.012424 -0.006315 -0.003370 0.000000 0.000000 0.000000
# 2 -0.006315 0.022673 -0.011958 0.000000 0.000000 0.000000
# 3 -0.003370 -0.011958 0.023528 0.000000 0.000000 0.000000
# 4 0.000000 0.000000 0.000000 -0.786060 0.000000 0.000000
# 5 0.000000 0.000000 0.000000 0.000000 0.035711 0.000000
# 6 0.000000 0.000000 0.000000 0.000000 0.000000 -0.192767
#
#
# Mechanical properties :
#
#
# Convention : Reuss Voigt Hill
#
# Bulk Modulus (GPa) = 65.19115 68.31491 66.75303
# Shear Modulus (GPa) = -5.98020 12.83872 3.42926
#
# Velocity S-wave (km/s) = -1.82894 2.67980 1.38497
# Velocity P-wave (km/s) = 5.65725 6.91281 6.31630
#
# Compressibility (1/GPa) = 0.01533951
#
# Stress axis : x y z
#
# Youngs Moduli (GPa) = 80.49033 44.10464 42.50278
#
# Poissons Ratio (x) = 0.27851 0.14324
# Poissons Ratio (y) = 0.50827 0.50825
# Poissons Ratio (z) = 0.27126 0.52740
#
# Static dielectric constant tensor:
#      x y z
#    x 3.206620 0.000000 0.000000 
#    y 0.000000 4.171300 0.000000 
#    z 0.000000 0.000000 2.894150 
# 
# 
# High freq. dielectric constant tensor:
#      x y z
#    x 1.712710 0.000000 0.000000 
#    y 0.000000 1.718420 0.000000 
#    z 0.000000 0.000000 1.640710 
# 
# From -- ./inp_files/6234.got.cif
#   From: 2010.03.12/outbox.cif.g09.slc.cpg/sg51_4_cif.got.tgz:6234.got - 2010.04.16 13:43:02.
