data_PCOD8209955
_publ_section_title
;
Structure prediction by ZEFSAII (Michael W. Deem and Ramdas Pophale) SiO2 
 PCOD8209955
Probable space group: P M M A
;
_chemical_formula_sum "Si O2"
_cell_formula_units_Z 56
_cell_length_a 16.827166
_cell_length_b 31.323505
_cell_length_c 5.091490
_cell_angle_alpha 90.000000
_cell_angle_beta 90.000000
_cell_angle_gamma 90.000000
_cell_volume 2683.652173
_symmetry_space_group_name_H-M "P M M A"
_symmetry_group_IT_number 51
_symmetry_cell_setting 'orthorhombic'
loop_
_space_group_symop_operation_xyz
x,y,z
1/2-x,-y,z
1/2+x,-y,-z
-x,y,-z
-x,-y,-z
1/2+x,y,-z
1/2-x,y,z
x,-y,z
loop_
_atom_site_type_symbol
_atom_site_label
_atom_site_fract_x
_atom_site_fract_y
_atom_site_fract_z
Si Si1 0.091300 0.683715 0.572448
Si Si2 0.844372 0.821702 0.796774
Si Si3 0.408718 0.450772 0.043330
Si Si4 0.842619 0.727356 0.919884
Si Si5 0.842940 0.592753 0.443857
Si Si6 0.344056 0.872630 0.701364
Si Si7 0.052511 0.047630 0.756278
O O1 0.144827 0.695204 0.320860
O O2 0.111197 0.635190 0.647450
O O3 0.000000 0.689490 0.500000
O O4 0.109702 0.713368 0.821844
O O5 0.750000 0.820749 0.781455
O O6 0.875507 0.773391 0.826273
O O7 0.879189 0.844860 0.539271
O O8 0.874863 0.848904 0.041212
O O9 0.399430 0.500000 0.123490
O O10 0.360402 0.442834 0.775693
O O11 0.500000 0.438269 0.000000
O O12 0.373963 0.422160 0.274716
O O13 0.750000 0.728955 0.996031
O O14 0.750000 0.601959 0.462747
O O15 0.250000 0.875184 0.684660
O O16 0.374402 0.920952 0.704624
O O17 0.000000 0.046831 0.500000
O O18 0.086160 0.000000 0.815129
O O19 0.000000 0.063901 0.000000
#
# Coordination Sequence:
#
# PCOD8209955 Si02
#       7
#     8   8   8   8   8   8   8
#     4  12  25  42  62  89 125 159 197 250 305 352
#     4   9  19  35  58  85 114 147 185 235 289 342
#     4  11  24  43  66  93 127 164 199 243 304 362
#     4  11  22  41  65  88 117 158 203 242 293 361
#     4  12  25  42  65  93 123 160 207 251 295 353
#     4  10  19  35  58  84 111 145 191 236 282 339
#     4  10  21  37  55  78 112 151 188 231 288 345
#
# _framework density 20.867086
#
# number of rings (size 3 to 8) (size 9 to 14) (size 15 to 20)
#    0.000    1.286    0.000    6.429    0.000    5.429 
#    0.000    7.143    0.000    5.143    0.000    0.000 
#    0.000    0.000    0.000    0.000    0.000    0.000 
#
# Total GULP energy -694686.409919 kJ/mol
# GULP energy per Si atom -12405.114463 kJ/mol
# Density = 2.081959 g / cm^3
# Si number density = 20.867086 Si / 1000 Ang^3
#
#
#
# Elastic Constant Matrix: (Units=GPa)
#
#
# Indices 1 2 3 4 5 6 
#
# 1 64.4205 44.8310 34.2993 0.0000 0.0000 0.0000
# 2 44.8310 104.4931 29.6967 0.0000 0.0000 0.0000
# 3 34.2993 29.6967 129.9856 0.0000 0.0000 0.0000
# 4 0.0000 0.0000 0.0000 56.3588 0.0000 0.0000
# 5 0.0000 0.0000 0.0000 0.0000 28.5321 0.0000
# 6 0.0000 0.0000 0.0000 0.0000 0.0000 28.3849
#
#
#
# Elastic Compliance Matrix: (Units=1/GPa)
#
#
# Indices 1 2 3 4 5 6 
#
# 1 0.024176 -0.009154 -0.004288 0.000000 0.000000 0.000000
# 2 -0.009154 0.013700 -0.000715 0.000000 0.000000 0.000000
# 3 -0.004288 -0.000715 0.008988 0.000000 0.000000 0.000000
# 4 0.000000 0.000000 0.000000 0.017743 0.000000 0.000000
# 5 0.000000 0.000000 0.000000 0.000000 0.035048 0.000000
# 6 0.000000 0.000000 0.000000 0.000000 0.000000 0.035230
#
#
# Mechanical properties :
#
#
# Convention : Reuss Voigt Hill
#
# Bulk Modulus (GPa) = 53.90359 57.39480 55.64919
# Shear Modulus (GPa) = 29.51886 35.32665 32.42276
#
# Velocity S-wave (km/s) = 3.76522 4.11899 3.94607
# Velocity P-wave (km/s) = 6.69256 7.08422 6.89117
#
# Compressibility (1/GPa) = 0.01855164
#
# Stress axis : x y z
#
# Youngs Moduli (GPa) = 41.36270 72.99069 111.26032
#
# Poissons Ratio (x) = 0.66814 0.47710
# Poissons Ratio (y) = 0.37863 0.07951
# Poissons Ratio (z) = 0.17737 0.05216
#
# Static dielectric constant tensor:
#      x y z
#    x 3.560460 0.000000 0.000000 
#    y 0.000000 3.978940 0.000000 
#    z 0.000000 0.000000 4.025660 
# 
# 
# High freq. dielectric constant tensor:
#      x y z
#    x 1.800650 0.000000 0.000000 
#    y 0.000000 1.829080 0.000000 
#    z 0.000000 0.000000 1.836540 
# 
# From -- ./inp_files/1487.got.cif
#   From: 2010.03.12/outbox.cif.g09.slc.cpg/sg51_1_cif.got.tgz:1487.got - 2010.04.16 13:43:02.
