data_PCOD8209358
_publ_section_title
;
Structure prediction by ZEFSAII (Michael W. Deem and Ramdas Pophale) SiO2 
 PCOD8209358
Probable space group: P M M A
;
_chemical_formula_sum "Si O2"
_cell_formula_units_Z 48
_cell_length_a 9.173423
_cell_length_b 20.413278
_cell_length_c 14.337604
_cell_angle_alpha 90.000000
_cell_angle_beta 90.000000
_cell_angle_gamma 90.000000
_cell_volume 2684.854476
_symmetry_space_group_name_H-M "P M M A"
_symmetry_group_IT_number 51
_symmetry_cell_setting 'orthorhombic'
loop_
_space_group_symop_operation_xyz
x,y,z
1/2-x,-y,z
1/2+x,-y,-z
-x,y,-z
-x,-y,-z
1/2+x,y,-z
1/2-x,y,z
x,-y,z
loop_
_atom_site_type_symbol
_atom_site_label
_atom_site_fract_x
_atom_site_fract_y
_atom_site_fract_z
Si Si1 0.920378 0.689295 0.726984
Si Si2 0.920718 0.810123 0.597649
Si Si3 0.580159 0.271623 0.093103
Si Si4 0.580671 0.573968 0.592461
Si Si5 0.583514 0.073771 0.729635
Si Si6 0.919638 0.881224 0.093026
O O1 0.750000 0.694827 0.751862
O O2 0.968756 0.749136 0.661211
O O3 0.960278 0.621095 0.677505
O O4 0.013192 0.688996 0.820931
O O5 0.750000 0.808819 0.577582
O O6 0.969463 0.876961 0.649018
O O7 0.000000 0.805114 0.500000
O O8 0.750000 0.287613 0.083822
O O9 0.550414 0.195165 0.109785
O O10 0.500000 0.295946 0.000000
O O11 0.500000 0.598457 0.500000
O O12 0.750000 0.578597 0.569335
O O13 0.533839 0.500000 0.619410
O O14 0.750000 0.090726 0.758046
O O15 0.483183 0.079488 0.820102
O O16 0.570345 0.000000 0.690392
O O17 0.750000 0.897229 0.082530
O O18 0.000000 0.905808 0.000000
#
# Coordination Sequence:
#
# PCOD8209358 Si02
#       6
#     8   8   8   8   8   8
#     4  10  19  33  54  78 106 139 172 212 257 301
#     4  10  21  35  52  74 100 131 170 213 257 302
#     4  10  20  33  53  80 107 135 169 211 258 308
#     4   9  18  32  51  78 111 145 178 212 255 305
#     4  10  21  37  54  72  99 135 172 212 258 307
#     4  10  20  34  54  78 103 132 166 209 259 311
#
# _framework density 17.878063999999998
#
# number of rings (size 3 to 8) (size 9 to 14) (size 15 to 20)
#    0.000    2.167    1.667    1.500    0.000    4.333 
#    0.000    0.000    0.000    0.500    0.000    0.000 
#    0.000    0.000    0.000    0.000    0.000    0.000 
#
# Total GULP energy -595389.294620 kJ/mol
# GULP energy per Si atom -12403.943638 kJ/mol
# Density = 1.783737 g / cm^3
# Si number density = 17.878064 Si / 1000 Ang^3
#
#
#
# Elastic Constant Matrix: (Units=GPa)
#
#
# Indices 1 2 3 4 5 6 
#
# 1 72.9995 37.9530 61.2097 0.0000 0.0000 0.0000
# 2 37.9530 89.6789 58.0523 0.0000 0.0000 0.0000
# 3 61.2097 58.0523 140.9245 0.0000 0.0000 0.0000
# 4 0.0000 0.0000 0.0000 19.3186 0.0000 0.0000
# 5 0.0000 0.0000 0.0000 0.0000 40.1003 0.0000
# 6 0.0000 0.0000 0.0000 0.0000 0.0000 15.4000
#
#
#
# Elastic Compliance Matrix: (Units=1/GPa)
#
#
# Indices 1 2 3 4 5 6 
#
# 1 0.022755 -0.004408 -0.008068 0.000000 0.000000 0.000000
# 2 -0.004408 0.016059 -0.004701 0.000000 0.000000 0.000000
# 3 -0.008068 -0.004701 0.012537 0.000000 0.000000 0.000000
# 4 0.000000 0.000000 0.000000 0.051764 0.000000 0.000000
# 5 0.000000 0.000000 0.000000 0.000000 0.024937 0.000000
# 6 0.000000 0.000000 0.000000 0.000000 0.000000 0.064935
#
#
# Mechanical properties :
#
#
# Convention : Reuss Voigt Hill
#
# Bulk Modulus (GPa) = 58.82969 68.67031 63.75000
# Shear Modulus (GPa) = 21.45860 24.72297 23.09079
#
# Velocity S-wave (km/s) = 3.46826 3.72273 3.59774
# Velocity P-wave (km/s) = 7.00114 7.54798 7.27970
#
# Compressibility (1/GPa) = 0.01699822
#
# Stress axis : x y z
#
# Youngs Moduli (GPa) = 43.94614 62.26879 79.76513
#
# Poissons Ratio (x) = 0.27445 0.64354
# Poissons Ratio (y) = 0.19370 0.37498
# Poissons Ratio (z) = 0.35455 0.29273
#
# Static dielectric constant tensor:
#      x y z
#    x 3.270210 0.000000 0.000000 
#    y 0.000000 3.344720 0.000000 
#    z 0.000000 0.000000 3.228210 
# 
# 
# High freq. dielectric constant tensor:
#      x y z
#    x 1.692850 0.000000 0.000000 
#    y 0.000000 1.681130 0.000000 
#    z 0.000000 0.000000 1.690420 
# 
# From -- ./inp_files/14420.got.cif
#   From: 2010.03.12/outbox.cif.g09.slc.cpg/sg51_8_cif.got.tgz:14420.got - 2010.04.16 13:43:02.
