data_PCOD8209732
_publ_section_title
;
Structure prediction by ZEFSAII (Michael W. Deem and Ramdas Pophale) SiO2 
 PCOD8209732
Probable space group: P M M A
;
_chemical_formula_sum "Si O2"
_cell_formula_units_Z 64
_cell_length_a 19.488416
_cell_length_b 8.986477
_cell_length_c 20.047214
_cell_angle_alpha 90.000000
_cell_angle_beta 90.000000
_cell_angle_gamma 90.000000
_cell_volume 3510.912735
_symmetry_space_group_name_H-M "P M M A"
_symmetry_group_IT_number 51
_symmetry_cell_setting 'orthorhombic'
loop_
_space_group_symop_operation_xyz
x,y,z
1/2-x,-y,z
1/2+x,-y,-z
-x,y,-z
-x,-y,-z
1/2+x,y,-z
1/2-x,y,z
x,-y,z
loop_
_atom_site_type_symbol
_atom_site_label
_atom_site_fract_x
_atom_site_fract_y
_atom_site_fract_z
Si Si1 0.416253 0.825135 0.670998
Si Si2 0.670090 0.327446 0.591100
Si Si3 0.551531 0.326047 0.829804
Si Si4 0.070614 0.825209 0.034021
Si Si5 0.670960 0.172779 0.453858
Si Si6 0.329417 0.669468 0.937459
Si Si7 0.395670 0.329135 0.802648
Si Si8 0.928879 0.176253 0.694723
O O1 0.377020 0.766446 0.605602
O O2 0.378414 0.762987 0.736471
O O3 0.495691 0.773857 0.668934
O O4 0.409849 0.000000 0.674805
O O5 0.750000 0.300826 0.606182
O O6 0.650182 0.500000 0.595801
O O7 0.651002 0.268735 0.518002
O O8 0.627681 0.234297 0.644182
O O9 0.567913 0.500000 0.826676
O O10 0.583407 0.258973 0.896753
O O11 0.470925 0.290453 0.830260
O O12 0.586818 0.247869 0.766502
O O13 0.070407 0.000000 0.047783
O O14 0.132342 0.783092 0.985446
O O15 0.000000 0.772241 0.000000
O O16 0.750000 0.197189 0.433321
O O17 0.656320 0.000000 0.469764
O O18 0.250000 0.683725 0.953636
O O19 0.355780 0.500000 0.948943
O O20 0.342361 0.714585 0.860517
O O21 0.389953 0.500000 0.782087
O O22 0.923601 0.000000 0.700895
#
# Coordination Sequence:
#
# PCOD8209732 Si02
#       8
#     8   8   8   8   8   8   8   8
#     4   9  19  33  51  78 110 142 177 219 263 311
#     4  10  21  37  56  78 104 136 178 225 272 324
#     4  10  19  34  57  81 107 139 179 222 265 317
#     4  11  22  35  56  83 109 141 182 226 271 322
#     4   9  18  34  54  75 103 142 184 220 260 315
#     4  10  21  37  55  78 110 146 184 225 270 322
#     4   9  18  32  51  76 105 140 178 216 261 315
#     4  10  20  35  55  80 111 141 174 220 270 320
#
# _framework density 18.228877000000001
#
# number of rings (size 3 to 8) (size 9 to 14) (size 15 to 20)
#    0.000    2.250    1.250    1.500    0.000    4.500 
#    0.000    3.125    0.000    3.750    0.000    0.000 
#    0.000    0.000    0.000    0.000    0.000    0.000 
#
# Total GULP energy -793819.326661 kJ/mol
# GULP energy per Si atom -12403.426979 kJ/mol
# Density = 1.818739 g / cm^3
# Si number density = 18.228877 Si / 1000 Ang^3
#
#
#
# Elastic Constant Matrix: (Units=GPa)
#
#
# Indices 1 2 3 4 5 6 
#
# 1 64.2282 32.2812 55.2891 0.0000 0.0000 0.0000
# 2 32.2812 68.5735 52.7774 0.0000 0.0000 0.0000
# 3 55.2891 52.7774 135.1782 0.0000 0.0000 0.0000
# 4 0.0000 0.0000 0.0000 38.3473 0.0000 0.0000
# 5 0.0000 0.0000 0.0000 0.0000 30.1677 0.0000
# 6 0.0000 0.0000 0.0000 0.0000 0.0000 21.9183
#
#
#
# Elastic Compliance Matrix: (Units=1/GPa)
#
#
# Indices 1 2 3 4 5 6 
#
# 1 0.025491 -0.005683 -0.008207 0.000000 0.000000 0.000000
# 2 -0.005683 0.022114 -0.006310 0.000000 0.000000 0.000000
# 3 -0.008207 -0.006310 0.013218 0.000000 0.000000 0.000000
# 4 0.000000 0.000000 0.000000 0.026077 0.000000 0.000000
# 5 0.000000 0.000000 0.000000 0.000000 0.033148 0.000000
# 6 0.000000 0.000000 0.000000 0.000000 0.000000 0.045624
#
#
# Mechanical properties :
#
#
# Convention : Reuss Voigt Hill
#
# Bulk Modulus (GPa) = 48.96398 60.96393 54.96396
# Shear Modulus (GPa) = 23.48741 26.59548 25.04145
#
# Velocity S-wave (km/s) = 3.59342 3.82380 3.71040
# Velocity P-wave (km/s) = 6.64349 7.28090 6.96948
#
# Compressibility (1/GPa) = 0.02042317
#
# Stress axis : x y z
#
# Youngs Moduli (GPa) = 39.22999 45.21921 75.65553
#
# Poissons Ratio (x) = 0.25700 0.62090
# Poissons Ratio (y) = 0.22296 0.47735
# Poissons Ratio (z) = 0.32196 0.28531
#
# Static dielectric constant tensor:
#      x y z
#    x 3.253170 0.000000 0.000000 
#    y 0.000000 3.356020 0.000000 
#    z 0.000000 0.000000 3.446940 
# 
# 
# High freq. dielectric constant tensor:
#      x y z
#    x 1.689480 0.000000 0.000000 
#    y 0.000000 1.709420 0.000000 
#    z 0.000000 0.000000 1.714910 
# 
# From -- ./inp_files/30625.got.cif
#   From: 2010.03.12/outbox.cif.g09.slc.cpg/sg51_16_cif.got.tgz:30625.got - 2010.04.16 13:43:02.
