data_PCOD8209984
_publ_section_title
;
Structure prediction by ZEFSAII (Michael W. Deem and Ramdas Pophale) SiO2 
 PCOD8209984
Probable space group: P M M A
;
_chemical_formula_sum "Si O2"
_cell_formula_units_Z 64
_cell_length_a 8.841666
_cell_length_b 24.115937
_cell_length_c 14.739846
_cell_angle_alpha 90.000000
_cell_angle_beta 90.000000
_cell_angle_gamma 90.000000
_cell_volume 3142.904551
_symmetry_space_group_name_H-M "P M M A"
_symmetry_group_IT_number 51
_symmetry_cell_setting 'orthorhombic'
loop_
_space_group_symop_operation_xyz
x,y,z
1/2-x,-y,z
1/2+x,-y,-z
-x,y,-z
-x,-y,-z
1/2+x,y,-z
1/2-x,y,z
x,-y,z
loop_
_atom_site_type_symbol
_atom_site_label
_atom_site_fract_x
_atom_site_fract_y
_atom_site_fract_z
Si Si1 0.576837 0.061781 0.227040
Si Si2 0.925714 0.786398 0.411666
Si Si3 0.582442 0.564794 0.086620
Si Si4 0.929050 0.160564 0.099191
Si Si5 0.070928 0.094864 0.407492
Si Si6 0.075670 0.264681 0.780731
Si Si7 0.572699 0.377681 0.757977
Si Si8 0.572904 0.437068 0.403633
O O1 0.750000 0.077275 0.251078
O O2 0.514033 0.106049 0.153791
O O3 0.481726 0.061105 0.319604
O O4 0.564942 0.000000 0.184518
O O5 0.750000 0.799759 0.429285
O O6 0.948174 0.748167 0.324950
O O7 0.000000 0.756646 0.500000
O O8 0.015422 0.842672 0.394232
O O9 0.750000 0.591235 0.098590
O O10 0.599791 0.500000 0.071395
O O11 0.479201 0.574660 0.173651
O O12 0.500000 0.592270 0.000000
O O13 0.750000 0.159336 0.088742
O O14 0.982313 0.214571 0.155721
O O15 0.000000 0.161518 0.000000
O O16 0.250000 0.092000 0.415354
O O17 0.000000 0.069385 0.500000
O O18 0.250000 0.277124 0.802022
O O19 0.977947 0.319076 0.800664
O O20 0.750000 0.378899 0.744349
O O21 0.494657 0.390997 0.662723
O O22 0.500000 0.425923 0.500000
O O23 0.750000 0.427021 0.410929
O O24 0.537311 0.500000 0.370582
#
# Coordination Sequence:
#
# PCOD8209984 Si02
#       8
#     8   8   8   8   8   8   8   8
#     4  10  21  40  64  89 121 158 197 244 298 356
#     4  10  19  35  59  85 114 151 193 236 286 342
#     4  10  21  39  63  89 118 153 194 242 299 358
#     4  10  22  42  65  89 116 153 196 245 304 361
#     4  11  21  34  57  87 122 158 195 237 284 345
#     4  10  22  41  61  81 117 159 199 247 299 355
#     4  12  25  38  58  89 124 160 202 249 301 360
#     4  10  21  39  63  90 123 165 211 257 306 359
#
# _framework density 20.363330999999999
#
# number of rings (size 3 to 8) (size 9 to 14) (size 15 to 20)
#    0.000    1.625    1.250    4.500    0.000    6.750 
#    0.000    2.500    0.000    0.000    0.000    0.000 
#    0.000    0.000    0.000    0.000    0.000    0.000 
#
# Total GULP energy -793675.566277 kJ/mol
# GULP energy per Si atom -12401.180723 kJ/mol
# Density = 2.031698 g / cm^3
# Si number density = 20.363331 Si / 1000 Ang^3
#
#
#
# Elastic Constant Matrix: (Units=GPa)
#
#
# Indices 1 2 3 4 5 6 
#
# 1 114.1224 39.7673 58.1537 0.0000 0.0000 0.0000
# 2 39.7673 80.3085 45.7030 0.0000 0.0000 0.0000
# 3 58.1537 45.7030 131.2172 0.0000 0.0000 0.0000
# 4 0.0000 0.0000 0.0000 15.0014 0.0000 0.0000
# 5 0.0000 0.0000 0.0000 0.0000 39.0390 0.0000
# 6 0.0000 0.0000 0.0000 0.0000 0.0000 21.9649
#
#
#
# Elastic Compliance Matrix: (Units=1/GPa)
#
#
# Indices 1 2 3 4 5 6 
#
# 1 0.012131 -0.003676 -0.004096 0.000000 0.000000 0.000000
# 2 -0.003676 0.016644 -0.004168 0.000000 0.000000 0.000000
# 3 -0.004096 -0.004168 0.010888 0.000000 0.000000 0.000000
# 4 0.000000 0.000000 0.000000 0.066660 0.000000 0.000000
# 5 0.000000 0.000000 0.000000 0.000000 0.025615 0.000000
# 6 0.000000 0.000000 0.000000 0.000000 0.000000 0.045527
#
#
# Mechanical properties :
#
#
# Convention : Reuss Voigt Hill
#
# Bulk Modulus (GPa) = 63.35882 68.09957 65.72920
# Shear Modulus (GPa) = 24.20062 27.33600 25.76831
#
# Velocity S-wave (km/s) = 3.45112 3.66787 3.56114
# Velocity P-wave (km/s) = 6.86018 7.17304 7.01835
#
# Compressibility (1/GPa) = 0.01578312
#
# Stress axis : x y z
#
# Youngs Moduli (GPa) = 82.43661 60.08072 91.84525
#
# Poissons Ratio (x) = 0.22085 0.37618
# Poissons Ratio (y) = 0.30303 0.38282
# Poissons Ratio (z) = 0.33764 0.25042
#
# Static dielectric constant tensor:
#      x y z
#    x 3.748610 0.000000 0.000000 
#    y 0.000000 3.603980 0.000000 
#    z 0.000000 0.000000 3.843660 
# 
# 
# High freq. dielectric constant tensor:
#      x y z
#    x 1.797440 0.000000 0.000000 
#    y 0.000000 1.787640 0.000000 
#    z 0.000000 0.000000 1.800170 
# 
# From -- ./inp_files/22335.got.cif
#   From: 2010.03.12/outbox.cif.g09.slc.cpg/sg51_12_cif.got.tgz:22335.got - 2010.04.16 13:43:02.
