data_PCOD8209791
_publ_section_title
;
Structure prediction by ZEFSAII (Michael W. Deem and Ramdas Pophale) SiO2 
 PCOD8209791
Probable space group: P M M A
;
_chemical_formula_sum "Si O2"
_cell_formula_units_Z 56
_cell_length_a 15.059309
_cell_length_b 9.338916
_cell_length_c 21.261724
_cell_angle_alpha 90.000000
_cell_angle_beta 90.000000
_cell_angle_gamma 90.000000
_cell_volume 2990.198298
_symmetry_space_group_name_H-M "P M M A"
_symmetry_group_IT_number 51
_symmetry_cell_setting 'orthorhombic'
loop_
_space_group_symop_operation_xyz
x,y,z
1/2-x,-y,z
1/2+x,-y,-z
-x,y,-z
-x,-y,-z
1/2+x,y,-z
1/2-x,y,z
x,-y,z
loop_
_atom_site_type_symbol
_atom_site_label
_atom_site_fract_x
_atom_site_fract_y
_atom_site_fract_z
Si Si1 0.147285 0.832339 0.574491
Si Si2 0.848405 0.336079 0.883365
Si Si3 0.604090 0.835619 0.003125
Si Si4 0.999158 0.332644 0.208673
Si Si5 0.351085 0.835654 0.858825
Si Si6 0.148800 0.665038 0.449121
Si Si7 0.496842 0.333949 0.647534
O O1 0.250000 0.802890 0.591355
O O2 0.122030 0.762329 0.507973
O O3 0.087315 0.761163 0.628070
O O4 0.126706 0.000000 0.570604
O O5 0.750000 0.321200 0.853753
O O6 0.871170 0.500000 0.898687
O O7 0.849386 0.251855 0.948428
O O8 0.918940 0.274232 0.833253
O O9 0.631768 0.000000 0.994264
O O10 0.500000 0.812131 0.000000
O O11 0.638266 0.777309 0.070141
O O12 0.984666 0.500000 0.198039
O O13 0.909188 0.254358 0.189401
O O14 0.020916 0.297845 0.280793
O O15 0.250000 0.819538 0.836640
O O16 0.383095 0.000000 0.856573
O O17 0.250000 0.694933 0.427536
O O18 0.136454 0.500000 0.469270
O O19 0.084157 0.706581 0.392187
O O20 0.471270 0.500000 0.638644
#
# Coordination Sequence:
#
# PCOD8209791 Si02
#       7
#     8   8   8   8   8   8   8
#     4  10  21  36  55  81 111 141 174 216 266 314
#     4  10  21  36  55  80 109 141 176 217 268 321
#     4  10  19  34  58  82 105 135 174 222 271 319
#     4  10  22  38  54  76 108 143 179 220 262 310
#     4  10  21  37  56  78 105 138 177 221 269 319
#     4   9  18  34  57  83 109 138 174 216 261 311
#     4  10  21  36  55  79 107 142 181 218 260 310
#
# _framework density 18.727855000000002
#
# number of rings (size 3 to 8) (size 9 to 14) (size 15 to 20)
#    0.000    2.143    1.429    1.286    0.000    6.857 
#    0.000    5.714    0.000    0.000    0.000    4.000 
#    0.000    0.000    0.000    0.000    0.000    0.000 
#
# Total GULP energy -694587.063044 kJ/mol
# GULP energy per Si atom -12403.340412 kJ/mol
# Density = 1.868523 g / cm^3
# Si number density = 18.727855 Si / 1000 Ang^3
#
#
#
# Elastic Constant Matrix: (Units=GPa)
#
#
# Indices 1 2 3 4 5 6 
#
# 1 88.5341 36.0593 41.2949 0.0000 0.0000 0.0000
# 2 36.0593 58.7911 40.4860 0.0000 0.0000 0.0000
# 3 41.2949 40.4860 94.8587 0.0000 0.0000 0.0000
# 4 0.0000 0.0000 0.0000 13.8999 0.0000 0.0000
# 5 0.0000 0.0000 0.0000 0.0000 17.5559 0.0000
# 6 0.0000 0.0000 0.0000 0.0000 0.0000 25.0517
#
#
#
# Elastic Compliance Matrix: (Units=1/GPa)
#
#
# Indices 1 2 3 4 5 6 
#
# 1 0.016033 -0.007120 -0.003941 0.000000 0.000000 0.000000
# 2 -0.007120 0.027252 -0.008531 0.000000 0.000000 0.000000
# 3 -0.003941 -0.008531 0.015899 0.000000 0.000000 0.000000
# 4 0.000000 0.000000 0.000000 0.071943 0.000000 0.000000
# 5 0.000000 0.000000 0.000000 0.000000 0.056961 0.000000
# 6 0.000000 0.000000 0.000000 0.000000 0.000000 0.039917
#
#
# Mechanical properties :
#
#
# Convention : Reuss Voigt Hill
#
# Bulk Modulus (GPa) = 50.00304 53.09603 51.54953
# Shear Modulus (GPa) = 18.25778 19.59108 18.92443
#
# Velocity S-wave (km/s) = 3.12573 3.23784 3.18228
# Velocity P-wave (km/s) = 6.30751 6.51085 6.40998
#
# Compressibility (1/GPa) = 0.01999878
#
# Stress axis : x y z
#
# Youngs Moduli (GPa) = 62.37072 36.69511 62.89764
#
# Poissons Ratio (x) = 0.26127 0.24787
# Poissons Ratio (y) = 0.44408 0.53661
# Poissons Ratio (z) = 0.24579 0.31306
#
# Static dielectric constant tensor:
#      x y z
#    x 3.564590 0.000000 0.000000 
#    y 0.000000 3.388270 0.000000 
#    z 0.000000 0.000000 3.373930 
# 
# 
# High freq. dielectric constant tensor:
#      x y z
#    x 1.739250 0.000000 0.000000 
#    y 0.000000 1.718520 0.000000 
#    z 0.000000 0.000000 1.720690 
# 
# From -- ./inp_files/33311.got.cif
#   From: 2010.03.12/outbox.cif.g09.slc.cpg/sg51_17_cif.got.tgz:33311.got - 2010.04.16 13:43:02.
