data_PCOD8209430
_publ_section_title
;
Structure prediction by ZEFSAII (Michael W. Deem and Ramdas Pophale) SiO2 
 PCOD8209430
Probable space group: P M M A
;
_chemical_formula_sum "Si O2"
_cell_formula_units_Z 64
_cell_length_a 31.127884
_cell_length_b 9.191417
_cell_length_c 12.066279
_cell_angle_alpha 90.000000
_cell_angle_beta 90.000000
_cell_angle_gamma 90.000000
_cell_volume 3452.275388
_symmetry_space_group_name_H-M "P M M A"
_symmetry_group_IT_number 51
_symmetry_cell_setting 'orthorhombic'
loop_
_space_group_symop_operation_xyz
x,y,z
1/2-x,-y,z
1/2+x,-y,-z
-x,y,-z
-x,-y,-z
1/2+x,y,-z
1/2-x,y,z
x,-y,z
loop_
_atom_site_type_symbol
_atom_site_label
_atom_site_fract_x
_atom_site_fract_y
_atom_site_fract_z
Si Si1 0.105977 0.170244 0.849199
Si Si2 0.520729 0.335838 0.114593
Si Si3 0.297645 0.327126 0.475926
Si Si4 0.373655 0.326917 0.633475
Si Si5 0.131338 0.829869 0.095036
Si Si6 0.564304 0.664448 0.758996
Si Si7 0.452096 0.327266 0.483419
Si Si8 0.700229 0.665884 0.773009
O O1 0.057349 0.225149 0.850982
O O2 0.131747 0.252744 0.752677
O O3 0.105900 0.000000 0.823919
O O4 0.128796 0.207227 0.965118
O O5 0.539404 0.500000 0.101283
O O6 0.485806 0.332196 0.211266
O O7 0.500000 0.282791 0.000000
O O8 0.250000 0.269314 0.510321
O O9 0.296794 0.500000 0.475513
O O10 0.333879 0.268912 0.559497
O O11 0.308959 0.275580 0.351274
O O12 0.372021 0.500000 0.646964
O O13 0.419025 0.277288 0.579083
O O14 0.090607 0.764001 0.157786
O O15 0.175422 0.764566 0.139745
O O16 0.130733 0.000000 0.116542
O O17 0.582344 0.500000 0.767957
O O18 0.567908 0.724412 0.633787
O O19 0.500000 0.260300 0.500000
O O20 0.455757 0.500000 0.481527
O O21 0.750000 0.678653 0.802245
O O22 0.684353 0.500000 0.784326
#
# Coordination Sequence:
#
# PCOD8209430 Si02
#       8
#     8   8   8   8   8   8   8   8
#     4  11  24  38  51  71 107 151 185 218 264 315
#     4  10  19  33  55  81 103 133 181 229 267 309
#     4   8  15  31  57  87 111 131 165 218 277 328
#     4  10  19  33  55  78 103 139 181 224 267 316
#     4  11  23  36  51  75 108 144 178 213 259 315
#     4  10  19  33  56  81 105 134 173 223 270 314
#     4   9  17  30  50  77 106 135 170 216 273 327
#     4   9  18  35  61  88 110 133 166 213 268 324
#
# _framework density 18.538498000000001
#
# number of rings (size 3 to 8) (size 9 to 14) (size 15 to 20)
#    0.000    2.250    1.250    3.000    0.000    6.500 
#    0.000    3.125    0.000    4.875    0.000    0.000 
#    0.000    0.000    0.000    0.000    0.000    0.000 
#
# Total GULP energy -793591.612478 kJ/mol
# GULP energy per Si atom -12399.868945 kJ/mol
# Density = 1.849630 g / cm^3
# Si number density = 18.538498 Si / 1000 Ang^3
#
#
#
# Elastic Constant Matrix: (Units=GPa)
#
#
# Indices 1 2 3 4 5 6 
#
# 1 112.6011 40.7340 63.2344 0.0000 0.0000 0.0000
# 2 40.7340 59.1170 56.0065 0.0000 0.0000 0.0000
# 3 63.2344 56.0065 137.2294 0.0000 0.0000 0.0000
# 4 0.0000 0.0000 0.0000 17.3949 0.0000 0.0000
# 5 0.0000 0.0000 0.0000 0.0000 30.2529 0.0000
# 6 0.0000 0.0000 0.0000 0.0000 0.0000 12.2327
#
#
#
# Elastic Compliance Matrix: (Units=1/GPa)
#
#
# Indices 1 2 3 4 5 6 
#
# 1 0.012934 -0.005324 -0.003787 0.000000 0.000000 0.000000
# 2 -0.005324 0.029771 -0.009697 0.000000 0.000000 0.000000
# 3 -0.003787 -0.009697 0.012989 0.000000 0.000000 0.000000
# 4 0.000000 0.000000 0.000000 0.057488 0.000000 0.000000
# 5 0.000000 0.000000 0.000000 0.000000 0.033055 0.000000
# 6 0.000000 0.000000 0.000000 0.000000 0.000000 0.081748
#
#
# Mechanical properties :
#
#
# Convention : Reuss Voigt Hill
#
# Bulk Modulus (GPa) = 55.31502 69.87747 62.59624
# Shear Modulus (GPa) = 18.40764 21.90761 20.15763
#
# Velocity S-wave (km/s) = 3.15452 3.44137 3.30106
# Velocity P-wave (km/s) = 6.57044 7.31886 6.95472
#
# Compressibility (1/GPa) = 0.01807827
#
# Stress axis : x y z
#
# Youngs Moduli (GPa) = 77.31841 33.58997 76.98561
#
# Poissons Ratio (x) = 0.17884 0.29152
# Poissons Ratio (y) = 0.41166 0.74651
# Poissons Ratio (z) = 0.29278 0.32571
#
# Static dielectric constant tensor:
#      x y z
#    x 3.488400 0.000000 0.000000 
#    y 0.000000 3.088710 0.000000 
#    z 0.000000 0.000000 3.580740 
# 
# 
# High freq. dielectric constant tensor:
#      x y z
#    x 1.718310 0.000000 0.000000 
#    y 0.000000 1.682130 0.000000 
#    z 0.000000 0.000000 1.728230 
# 
# From -- ./inp_files/19637.got.cif
#   From: 2010.03.12/outbox.cif.g09.slc.cpg/sg51_10_cif.got.tgz:19637.got - 2010.04.16 13:43:02.
