data_PCOD8209452
_publ_section_title
;
Structure prediction by ZEFSAII (Michael W. Deem and Ramdas Pophale) SiO2 
 PCOD8209452
Probable space group: P M M A
;
_chemical_formula_sum "Si O2"
_cell_formula_units_Z 48
_cell_length_a 15.621538
_cell_length_b 8.799534
_cell_length_c 18.031807
_cell_angle_alpha 90.000000
_cell_angle_beta 90.000000
_cell_angle_gamma 90.000000
_cell_volume 2478.692848
_symmetry_space_group_name_H-M "P M M A"
_symmetry_group_IT_number 51
_symmetry_cell_setting 'orthorhombic'
loop_
_space_group_symop_operation_xyz
x,y,z
1/2-x,-y,z
1/2+x,-y,-z
-x,y,-z
-x,-y,-z
1/2+x,y,-z
1/2-x,y,z
x,-y,z
loop_
_atom_site_type_symbol
_atom_site_label
_atom_site_fract_x
_atom_site_fract_y
_atom_site_fract_z
Si Si1 0.411953 0.179624 0.538588
Si Si2 0.250000 0.818587 0.791975
Si Si3 0.413728 0.180713 0.211608
Si Si4 0.750000 0.679152 0.541039
Si Si5 0.750000 0.818717 0.040328
Si Si6 0.083786 0.180545 0.707020
Si Si7 0.417386 0.180872 0.042674
Si Si8 0.750000 0.679445 0.711222
O O1 0.500000 0.229176 0.500000
O O2 0.334173 0.256985 0.497079
O O3 0.414252 0.239491 0.622843
O O4 0.398433 0.000000 0.534994
O O5 0.250000 0.756598 0.875816
O O6 0.333704 0.754872 0.750200
O O7 0.250000 0.000000 0.791473
O O8 0.498428 0.240518 0.253077
O O9 0.418577 0.237829 0.127076
O O10 0.332956 0.254267 0.250053
O O11 0.405028 0.000000 0.216138
O O12 0.750000 0.500000 0.533276
O O13 0.750000 0.732015 0.626093
O O14 0.750000 0.000000 0.040316
O O15 0.833167 0.755327 0.997999
O O16 0.084788 0.000000 0.708871
O O17 0.418175 0.000000 0.040169
O O18 0.500000 0.246263 0.000000
O O19 0.750000 0.500000 0.719205
#
# Coordination Sequence:
#
# PCOD8209452 Si02
#       8
#     8   4   8   4   4   8   8   4
#     4  10  20  35  56  80 105 134 172 220 268 316
#     4   9  15  24  40  66 104 141 166 198 250 307
#     4  10  19  33  55  80 105 137 177 216 256 309
#     4  11  24  39  55  77 106 141 178 218 268 321
#     4   9  15  22  34  58  96 137 166 192 238 293
#     4   9  17  29  48  75 103 132 168 210 257 307
#     4   9  16  26  43  72 107 135 163 205 252 295
#     4  11  24  39  53  73 104 139 174 218 268 311
#
# _framework density 19.365044999999999
#
# number of rings (size 3 to 8) (size 9 to 14) (size 15 to 20)
#    0.000    2.333    0.000    3.500    0.000    9.667 
#    0.000    0.833    0.000    0.500    0.000    0.000 
#    0.000    4.000    0.000    0.000    0.000    0.000 
#
# Total GULP energy -595271.333411 kJ/mol
# GULP energy per Si atom -12401.486113 kJ/mol
# Density = 1.932097 g / cm^3
# Si number density = 19.365045 Si / 1000 Ang^3
#
#
#
# Elastic Constant Matrix: (Units=GPa)
#
#
# Indices 1 2 3 4 5 6 
#
# 1 224.0025 29.4563 129.2798 0.0000 0.0000 0.0000
# 2 29.4563 19.5230 30.8265 0.0000 0.0000 0.0000
# 3 129.2798 30.8265 223.4720 0.0000 0.0000 0.0000
# 4 0.0000 0.0000 0.0000 11.9007 0.0000 0.0000
# 5 0.0000 0.0000 0.0000 0.0000 49.7395 0.0000
# 6 0.0000 0.0000 0.0000 0.0000 0.0000 -0.4443
#
#
#
# Elastic Compliance Matrix: (Units=1/GPa)
#
#
# Indices 1 2 3 4 5 6 
#
# 1 0.007124 -0.005422 -0.003373 0.000000 0.000000 0.000000
# 2 -0.005422 0.069612 -0.006466 0.000000 0.000000 0.000000
# 3 -0.003373 -0.006466 0.007318 0.000000 0.000000 0.000000
# 4 0.000000 0.000000 0.000000 0.084029 0.000000 0.000000
# 5 0.000000 0.000000 0.000000 0.000000 0.020105 0.000000
# 6 0.000000 0.000000 0.000000 0.000000 0.000000 -2.250572
#
#
# Mechanical properties :
#
#
# Convention : Reuss Voigt Hill
#
# Bulk Modulus (GPa) = 18.68058 94.01365 56.34712
# Shear Modulus (GPa) = -2.48260 30.73484 14.12612
#
# Velocity S-wave (km/s) = -1.13348 3.98820 2.70379
# Velocity P-wave (km/s) = 2.82036 8.35830 6.23761
#
# Compressibility (1/GPa) = 0.05353152
#
# Stress axis : x y z
#
# Youngs Moduli (GPa) = 140.36684 14.36535 136.64476
#
# Poissons Ratio (x) = 0.07790 0.46096
# Poissons Ratio (y) = 0.76113 0.88349
# Poissons Ratio (z) = 0.47351 0.09288
#
# Static dielectric constant tensor:
#      x y z
#    x 3.596310 0.000000 0.000000 
#    y 0.000000 2.905020 0.000000 
#    z 0.000000 0.000000 3.878380 
# 
# 
# High freq. dielectric constant tensor:
#      x y z
#    x 1.776520 0.000000 0.000000 
#    y 0.000000 1.687630 0.000000 
#    z 0.000000 0.000000 1.776870 
# 
# From -- ./inp_files/29680.got.cif
#   From: 2010.03.12/outbox.cif.g09.slc.cpg/sg51_15_cif.got.tgz:29680.got - 2010.04.16 13:43:02.
