data_PCOD8209275
_publ_section_title
;
Structure prediction by ZEFSAII (Michael W. Deem and Ramdas Pophale) SiO2 
 PCOD8209275
Probable space group: P M M A
;
_chemical_formula_sum "Si O2"
_cell_formula_units_Z 64
_cell_length_a 9.564274
_cell_length_b 18.524105
_cell_length_c 19.647895
_cell_angle_alpha 90.000000
_cell_angle_beta 90.000000
_cell_angle_gamma 90.000000
_cell_volume 3481.010009
_symmetry_space_group_name_H-M "P M M A"
_symmetry_group_IT_number 51
_symmetry_cell_setting 'orthorhombic'
loop_
_space_group_symop_operation_xyz
x,y,z
1/2-x,-y,z
1/2+x,-y,-z
-x,y,-z
-x,-y,-z
1/2+x,y,-z
1/2-x,y,z
x,-y,z
loop_
_atom_site_type_symbol
_atom_site_label
_atom_site_fract_x
_atom_site_fract_y
_atom_site_fract_z
Si Si1 0.913878 0.083278 0.066999
Si Si2 0.405040 0.084212 0.440689
Si Si3 0.410489 0.842852 0.659671
Si Si4 0.088145 0.705034 0.567484
Si Si5 0.913902 0.186182 0.187011
Si Si6 0.916584 0.346470 0.196608
Si Si7 0.416077 0.581295 0.666335
Si Si8 0.905207 0.585132 0.059372
O O1 0.750000 0.096729 0.052948
O O2 0.972863 0.132910 0.128690
O O3 0.941051 0.000000 0.087018
O O4 0.000000 0.104843 0.000000
O O5 0.500000 0.120057 0.500000
O O6 0.250000 0.119745 0.441681
O O7 0.484249 0.098003 0.370368
O O8 0.389344 0.000000 0.453249
O O9 0.250000 0.866606 0.647600
O O10 0.438758 0.765516 0.624990
O O11 0.448910 0.843884 0.738674
O O12 0.250000 0.702957 0.546390
O O13 0.040276 0.629054 0.600982
O O14 0.000000 0.720640 0.500000
O O15 0.750000 0.191594 0.176363
O O16 0.978723 0.266553 0.183214
O O17 0.750000 0.342970 0.203899
O O18 0.978777 0.382496 0.265029
O O19 0.965733 0.394815 0.133111
O O20 0.250000 0.579236 0.672697
O O21 0.475794 0.500000 0.657673
O O22 0.750000 0.617901 0.050786
O O23 0.901267 0.500000 0.052651
O O24 0.000000 0.619380 0.000000
#
# Coordination Sequence:
#
# PCOD8209275 Si02
#       8
#     8   8   8   8   8   8   8   8
#     4   9  18  33  52  74 101 133 168 205 247 295
#     4  10  21  36  53  75 103 134 169 208 250 300
#     4  10  19  33  53  76 103 134 168 210 258 306
#     4  10  20  33  50  74 101 130 166 207 254 304
#     4   9  17  30  50  74 100 129 165 209 250 292
#     4   9  15  27  47  71  97 125 162 209 251 290
#     4   9  16  28  48  72  97 127 166 211 255 298
#     4   9  17  28  44  68  96 126 160 198 243 295
#
# _framework density 18.385469000000001
#
# number of rings (size 3 to 8) (size 9 to 14) (size 15 to 20)
#    0.000    2.625    1.250    1.125    0.000    5.000 
#    0.000    1.875    0.000    3.000    0.000    0.000 
#    0.000    0.000    0.000    0.000    0.000    0.000 
#
# Total GULP energy -793351.551250 kJ/mol
# GULP energy per Si atom -12396.117988 kJ/mol
# Density = 1.834362 g / cm^3
# Si number density = 18.385469 Si / 1000 Ang^3
#
#
#
# Elastic Constant Matrix: (Units=GPa)
#
#
# Indices 1 2 3 4 5 6 
#
# 1 60.5006 21.4809 50.6273 0.0000 0.0000 0.0000
# 2 21.4809 59.2087 40.6479 0.0000 0.0000 0.0000
# 3 50.6273 40.6479 130.4787 0.0000 0.0000 0.0000
# 4 0.0000 0.0000 0.0000 33.8051 0.0000 0.0000
# 5 0.0000 0.0000 0.0000 0.0000 23.9164 0.0000
# 6 0.0000 0.0000 0.0000 0.0000 0.0000 12.8291
#
#
#
# Elastic Compliance Matrix: (Units=1/GPa)
#
#
# Indices 1 2 3 4 5 6 
#
# 1 0.024903 -0.003054 -0.008711 0.000000 0.000000 0.000000
# 2 -0.003054 0.021859 -0.005625 0.000000 0.000000 0.000000
# 3 -0.008711 -0.005625 0.012796 0.000000 0.000000 0.000000
# 4 0.000000 0.000000 0.000000 0.029581 0.000000 0.000000
# 5 0.000000 0.000000 0.000000 0.000000 0.041812 0.000000
# 6 0.000000 0.000000 0.000000 0.000000 0.000000 0.077948
#
#
# Mechanical properties :
#
#
# Convention : Reuss Voigt Hill
#
# Bulk Modulus (GPa) = 40.35847 52.85558 46.60703
# Shear Modulus (GPa) = 19.84613 23.27224 21.55918
#
# Velocity S-wave (km/s) = 3.28906 3.56166 3.42807
# Velocity P-wave (km/s) = 6.03513 6.76202 6.40889
#
# Compressibility (1/GPa) = 0.02477794
#
# Stress axis : x y z
#
# Youngs Moduli (GPa) = 40.15636 45.74799 78.14782
#
# Poissons Ratio (x) = 0.13973 0.68075
# Poissons Ratio (y) = 0.12265 0.43955
# Poissons Ratio (z) = 0.34980 0.25731
#
# Static dielectric constant tensor:
#      x y z
#    x 3.132950 0.000000 0.000000 
#    y 0.000000 3.470480 0.000000 
#    z 0.000000 0.000000 3.513380 
# 
# 
# High freq. dielectric constant tensor:
#      x y z
#    x 1.664960 0.000000 0.000000 
#    y 0.000000 1.712860 0.000000 
#    z 0.000000 0.000000 1.720330 
# 
# From -- ./inp_files/28449.got.cif
#   From: 2010.03.12/outbox.cif.g09.slc.cpg/sg51_15_cif.got.tgz:28449.got - 2010.04.16 13:43:02.
