data_PCOD8209236
_publ_section_title
;
Structure prediction by ZEFSAII (Michael W. Deem and Ramdas Pophale) SiO2 
 PCOD8209236
Probable space group: P M M A
;
_chemical_formula_sum "Si O2"
_cell_formula_units_Z 64
_cell_length_a 19.486755
_cell_length_b 8.951064
_cell_length_c 19.762162
_cell_angle_alpha 90.000000
_cell_angle_beta 90.000000
_cell_angle_gamma 90.000000
_cell_volume 3447.058409
_symmetry_space_group_name_H-M "P M M A"
_symmetry_group_IT_number 51
_symmetry_cell_setting 'orthorhombic'
loop_
_space_group_symop_operation_xyz
x,y,z
1/2-x,-y,z
1/2+x,-y,-z
-x,y,-z
-x,-y,-z
1/2+x,y,-z
1/2-x,y,z
x,-y,z
loop_
_atom_site_type_symbol
_atom_site_label
_atom_site_fract_x
_atom_site_fract_y
_atom_site_fract_z
Si Si1 0.329754 0.827401 0.108789
Si Si2 0.673688 0.829194 0.272040
Si Si3 0.564113 0.673656 0.795352
Si Si4 0.828423 0.327816 0.030340
Si Si5 0.576266 0.666090 0.529541
Si Si6 0.893012 0.676097 0.386084
Si Si7 0.586749 0.672114 0.160725
Si Si8 0.034307 0.176420 0.344159
O O1 0.250000 0.801335 0.125152
O O2 0.372196 0.729914 0.161307
O O3 0.346816 0.774653 0.033114
O O4 0.350497 0.000000 0.115443
O O5 0.750000 0.809985 0.242155
O O6 0.670095 0.733998 0.341371
O O7 0.619146 0.773231 0.218259
O O8 0.656899 0.000000 0.289187
O O9 0.573454 0.500000 0.778715
O O10 0.494695 0.700868 0.838634
O O11 0.565103 0.762829 0.725314
O O12 0.750000 0.300699 0.054738
O O13 0.839168 0.500000 0.009505
O O14 0.881170 0.280395 0.089045
O O15 0.500000 0.664961 0.500000
O O16 0.596789 0.500000 0.554182
O O17 0.622240 0.717049 0.464923
O O18 0.583888 0.777039 0.593062
O O19 0.904329 0.500000 0.378070
O O20 0.959767 0.755605 0.355719
O O21 0.604620 0.500000 0.176532
O O22 0.029716 0.000000 0.340763
#
# Coordination Sequence:
#
# PCOD8209236 Si02
#       8
#     8   8   8   8   8   8   8   8
#     4  10  22  40  60  82 108 140 179 224 280 340
#     4  11  23  35  50  76 111 151 191 233 282 333
#     4  11  22  36  57  83 113 147 183 227 277 328
#     4   9  18  35  58  81 107 143 187 229 268 319
#     4   8  16  30  49  73 102 136 177 222 266 318
#     4  10  19  33  52  74 103 142 186 229 271 320
#     4  10  21  36  56  81 110 146 187 230 274 325
#     4  11  20  31  51  80 112 142 175 222 277 326
#
# _framework density 18.566554
#
# number of rings (size 3 to 8) (size 9 to 14) (size 15 to 20)
#    0.000    2.000    1.250    3.750    0.000    6.500 
#    0.000    3.750    0.000    0.750    0.000    3.500 
#    0.000    0.000    0.000    0.000    0.000    0.000 
#
# Total GULP energy -793584.962656 kJ/mol
# GULP energy per Si atom -12399.765042 kJ/mol
# Density = 1.852430 g / cm^3
# Si number density = 18.566554 Si / 1000 Ang^3
#
#
#
# Elastic Constant Matrix: (Units=GPa)
#
#
# Indices 1 2 3 4 5 6 
#
# 1 60.6194 39.1344 46.1272 0.0000 0.0000 0.0000
# 2 39.1344 109.1113 55.3152 0.0000 0.0000 0.0000
# 3 46.1272 55.3152 113.1237 0.0000 0.0000 0.0000
# 4 0.0000 0.0000 0.0000 13.3827 0.0000 0.0000
# 5 0.0000 0.0000 0.0000 0.0000 21.4108 0.0000
# 6 0.0000 0.0000 0.0000 0.0000 0.0000 24.1164
#
#
#
# Elastic Compliance Matrix: (Units=1/GPa)
#
#
# Indices 1 2 3 4 5 6 
#
# 1 0.026000 -0.005253 -0.008033 0.000000 0.000000 0.000000
# 2 -0.005253 0.013247 -0.004336 0.000000 0.000000 0.000000
# 3 -0.008033 -0.004336 0.014236 0.000000 0.000000 0.000000
# 4 0.000000 0.000000 0.000000 0.074723 0.000000 0.000000
# 5 0.000000 0.000000 0.000000 0.000000 0.046705 0.000000
# 6 0.000000 0.000000 0.000000 0.000000 0.000000 0.041466
#
#
# Mechanical properties :
#
#
# Convention : Reuss Voigt Hill
#
# Bulk Modulus (GPa) = 54.82669 62.66756 58.74712
# Shear Modulus (GPa) = 19.40240 21.26715 20.33477
#
# Velocity S-wave (km/s) = 3.23618 3.38813 3.31303
# Velocity P-wave (km/s) = 6.59983 7.00943 6.80771
#
# Compressibility (1/GPa) = 0.01823929
#
# Stress axis : x y z
#
# Youngs Moduli (GPa) = 38.46120 75.48920 70.24664
#
# Poissons Ratio (x) = 0.39653 0.56431
# Poissons Ratio (y) = 0.20203 0.30456
# Poissons Ratio (z) = 0.30897 0.32729
#
# Static dielectric constant tensor:
#      x y z
#    x 3.255680 0.000000 0.000000 
#    y 0.000000 3.468560 0.000000 
#    z 0.000000 0.000000 3.700900 
# 
# 
# High freq. dielectric constant tensor:
#      x y z
#    x 1.690490 0.000000 0.000000 
#    y 0.000000 1.727260 0.000000 
#    z 0.000000 0.000000 1.728090 
# 
# From -- ./inp_files/30682.got.cif
#   From: 2010.03.12/outbox.cif.g09.slc.cpg/sg51_16_cif.got.tgz:30682.got - 2010.04.16 13:43:02.
