data_PCOD8209861
_publ_section_title
;
Structure prediction by ZEFSAII (Michael W. Deem and Ramdas Pophale) SiO2 
 PCOD8209861
Probable space group: P M M A
;
_chemical_formula_sum "Si O2"
_cell_formula_units_Z 56
_cell_length_a 13.423310
_cell_length_b 14.035340
_cell_length_c 11.606589
_cell_angle_alpha 90.000000
_cell_angle_beta 90.000000
_cell_angle_gamma 90.000000
_cell_volume 2186.689722
_symmetry_space_group_name_H-M "P M M A"
_symmetry_group_IT_number 51
_symmetry_cell_setting 'orthorhombic'
loop_
_space_group_symop_operation_xyz
x,y,z
1/2-x,-y,z
1/2+x,-y,-z
-x,y,-z
-x,-y,-z
1/2+x,y,-z
1/2-x,y,z
x,-y,z
loop_
_atom_site_type_symbol
_atom_site_label
_atom_site_fract_x
_atom_site_fract_y
_atom_site_fract_z
Si Si1 0.635658 0.210863 0.146933
Si Si2 0.864137 0.393414 0.013652
Si Si3 0.946884 0.392256 0.768219
Si Si4 0.988524 0.888530 0.700422
Si Si5 0.639410 0.891076 0.925704
Si Si6 0.863556 0.742986 0.587433
Si Si7 0.863329 0.608132 0.377787
O O1 0.750000 0.183597 0.161852
O O2 0.618463 0.322768 0.121130
O O3 0.586256 0.173070 0.265969
O O4 0.588399 0.157576 0.036336
O O5 0.750000 0.385932 0.968908
O O6 0.886148 0.500000 0.062344
O O7 0.062181 0.371126 0.094392
O O8 0.911552 0.500000 0.742820
O O9 0.060706 0.375086 0.726809
O O10 0.874611 0.319986 0.702555
O O11 0.917392 0.873675 0.808618
O O12 0.932859 0.838223 0.592581
O O13 0.011061 0.000000 0.673656
O O14 0.750000 0.848146 0.907540
O O15 0.643829 0.000000 0.959257
O O16 0.750000 0.776869 0.575319
O O17 0.896097 0.678512 0.479677
O O18 0.750000 0.631029 0.334417
O O19 0.869056 0.500000 0.424929
#
# Coordination Sequence:
#
# PCOD8209861 Si02
#       7
#     8   8   8   8   8   8   8
#     4  10  20  36  59  85 117 161 212 263 315 373
#     4   9  18  33  56  89 126 164 209 259 311 373
#     4  10  19  34  61  94 126 162 206 257 314 378
#     4  11  23  38  58  86 120 160 212 271 324 375
#     4   9  17  30  50  76 104 137 185 249 313 364
#     4  11  22  36  58  89 124 162 209 266 323 378
#     4   9  19  37  63  96 131 166 206 254 310 377
#
# _framework density 25.609484999999999
#
# number of rings (size 3 to 8) (size 9 to 14) (size 15 to 20)
#    0.000    2.143    0.000    3.429    0.000    6.571 
#    0.000    2.143    0.000    8.571    0.000    0.000 
#    0.000    0.000    0.000    0.000    0.000    0.000 
#
# Total GULP energy -694314.368799 kJ/mol
# GULP energy per Si atom -12398.470871 kJ/mol
# Density = 2.555120 g / cm^3
# Si number density = 25.609485 Si / 1000 Ang^3
#
#
#
# Elastic Constant Matrix: (Units=GPa)
#
#
# Indices 1 2 3 4 5 6 
#
# 1 114.9434 58.3747 30.5454 0.0000 0.0000 0.0000
# 2 58.3747 144.8859 56.5525 0.0000 0.0000 0.0000
# 3 30.5454 56.5525 66.6053 0.0000 0.0000 0.0000
# 4 0.0000 0.0000 0.0000 34.9277 0.0000 0.0000
# 5 0.0000 0.0000 0.0000 0.0000 29.8987 0.0000
# 6 0.0000 0.0000 0.0000 0.0000 0.0000 32.3150
#
#
#
# Elastic Compliance Matrix: (Units=1/GPa)
#
#
# Indices 1 2 3 4 5 6 
#
# 1 0.011102 -0.003718 -0.001935 0.000000 0.000000 0.000000
# 2 -0.003718 0.011568 -0.008117 0.000000 0.000000 0.000000
# 3 -0.001935 -0.008117 0.022793 0.000000 0.000000 0.000000
# 4 0.000000 0.000000 0.000000 0.028631 0.000000 0.000000
# 5 0.000000 0.000000 0.000000 0.000000 0.033446 0.000000
# 6 0.000000 0.000000 0.000000 0.000000 0.000000 0.030945
#
#
# Mechanical properties :
#
#
# Convention : Reuss Voigt Hill
#
# Bulk Modulus (GPa) = 55.79135 68.59775 62.19455
# Shear Modulus (GPa) = 29.06969 31.49241 30.28105
#
# Velocity S-wave (km/s) = 3.37280 3.51054 3.44236
# Velocity P-wave (km/s) = 6.08280 6.57845 6.33547
#
# Compressibility (1/GPa) = 0.01792393
#
# Stress axis : x y z
#
# Youngs Moduli (GPa) = 90.07184 86.44309 43.87272
#
# Poissons Ratio (x) = 0.32139 0.08488
# Poissons Ratio (y) = 0.33488 0.35613
# Poissons Ratio (z) = 0.17427 0.70168
#
# Static dielectric constant tensor:
#      x y z
#    x 4.934710 0.000000 0.000000 
#    y 0.000000 4.801710 0.000000 
#    z 0.000000 0.000000 4.343430 
# 
# 
# High freq. dielectric constant tensor:
#      x y z
#    x 2.038760 0.000000 0.000000 
#    y 0.000000 2.027120 0.000000 
#    z 0.000000 0.000000 2.010860 
# 
# From -- ./inp_files/16630.got.cif
#   From: 2010.03.12/outbox.cif.g09.slc.cpg/sg51_9_cif.got.tgz:16630.got - 2010.04.16 13:43:02.
