data_PCOD8209931
_publ_section_title
;
Structure prediction by ZEFSAII (Michael W. Deem and Ramdas Pophale) SiO2 
 PCOD8209931
Probable space group: P M M A
;
_chemical_formula_sum "Si O2"
_cell_formula_units_Z 40
_cell_length_a 25.636113
_cell_length_b 8.658130
_cell_length_c 9.217033
_cell_angle_alpha 90.000000
_cell_angle_beta 90.000000
_cell_angle_gamma 90.000000
_cell_volume 2045.820010
_symmetry_space_group_name_H-M "P M M A"
_symmetry_group_IT_number 51
_symmetry_cell_setting 'orthorhombic'
loop_
_space_group_symop_operation_xyz
x,y,z
1/2-x,-y,z
1/2+x,-y,-z
-x,y,-z
-x,-y,-z
1/2+x,y,-z
1/2-x,y,z
x,-y,z
loop_
_atom_site_type_symbol
_atom_site_label
_atom_site_fract_x
_atom_site_fract_y
_atom_site_fract_z
Si Si1 0.057065 0.182251 0.839256
Si Si2 0.348077 0.816182 0.648564
Si Si3 0.750000 0.182634 0.164849
Si Si4 0.439783 0.817016 0.165175
Si Si5 0.250000 0.817124 0.160487
Si Si6 0.345902 0.319059 0.332648
O O1 0.098486 0.244413 0.722531
O O2 0.998864 0.230129 0.791452
O O3 0.060517 0.000000 0.848390
O O4 0.070822 0.241669 0.001030
O O5 0.301192 0.760514 0.751192
O O6 0.340792 0.732535 0.497414
O O7 0.348179 0.000000 0.624866
O O8 0.750000 0.000000 0.155586
O O9 0.750000 0.251503 0.002556
O O10 0.402453 0.727535 0.274062
O O11 0.430727 0.000000 0.181078
O O12 0.198242 0.763080 0.239845
O O13 0.250000 0.000000 0.158067
O O14 0.337614 0.500000 0.321231
#
# Coordination Sequence:
#
# PCOD8209931 Si02
#       6
#     8   8   4   8   4   8
#     4   8  16  32  59  87 109 138 191 245 278 316
#     4  10  19  35  57  83 112 146 184 227 274 325
#     4   9  19  35  62  90 106 127 176 233 280 328
#     4   9  17  35  60  84 108 143 188 237 282 324
#     4  11  22  41  66  86 104 137 182 231 278 328
#     4  12  25  38  52  81 119 151 181 221 271 332
#
# _framework density 19.552064000000001
#
# number of rings (size 3 to 8) (size 9 to 14) (size 15 to 20)
#    0.000    2.200    0.000    5.100    0.000    4.800 
#    0.000   12.000    0.000    0.000    0.000    0.000 
#    0.000    0.000    0.000    0.000    0.000    0.000 
#
# Total GULP energy -496006.088105 kJ/mol
# GULP energy per Si atom -12400.152203 kJ/mol
# Density = 1.950756 g / cm^3
# Si number density = 19.552064 Si / 1000 Ang^3
#
#
#
# Elastic Constant Matrix: (Units=GPa)
#
#
# Indices 1 2 3 4 5 6 
#
# 1 150.1040 31.2996 88.1416 0.0000 0.0000 0.0000
# 2 31.2996 57.5690 36.1502 0.0000 0.0000 0.0000
# 3 88.1416 36.1502 161.7985 0.0000 0.0000 0.0000
# 4 0.0000 0.0000 0.0000 -13.2325 0.0000 0.0000
# 5 0.0000 0.0000 0.0000 0.0000 67.1248 0.0000
# 6 0.0000 0.0000 0.0000 0.0000 0.0000 5.3709
#
#
#
# Elastic Compliance Matrix: (Units=1/GPa)
#
#
# Indices 1 2 3 4 5 6 
#
# 1 0.010064 -0.002360 -0.004955 0.000000 0.000000 0.000000
# 2 -0.002360 0.020759 -0.003352 0.000000 0.000000 0.000000
# 3 -0.004955 -0.003352 0.009629 0.000000 0.000000 0.000000
# 4 0.000000 0.000000 0.000000 -0.075572 0.000000 0.000000
# 5 0.000000 0.000000 0.000000 0.000000 0.014898 0.000000
# 6 0.000000 0.000000 0.000000 0.000000 0.000000 0.186188
#
#
# Mechanical properties :
#
#
# Convention : Reuss Voigt Hill
#
# Bulk Modulus (GPa) = 52.31124 75.62826 63.96975
# Shear Modulus (GPa) = 25.81675 26.11132 25.96404
#
# Velocity S-wave (km/s) = 3.63769 3.65838 3.64805
# Velocity P-wave (km/s) = 6.66758 7.52392 7.10866
#
# Compressibility (1/GPa) = 0.01911635
#
# Stress axis : x y z
#
# Youngs Moduli (GPa) = 99.36598 48.17250 103.85427
#
# Poissons Ratio (x) = 0.11369 0.51461
# Poissons Ratio (y) = 0.23451 0.34816
# Poissons Ratio (z) = 0.49237 0.16149
#
# Static dielectric constant tensor:
#      x y z
#    x 4.069920 0.000000 0.000000 
#    y 0.000000 3.168170 0.000000 
#    z 0.000000 0.000000 3.762430 
# 
# 
# High freq. dielectric constant tensor:
#      x y z
#    x 1.780540 0.000000 0.000000 
#    y 0.000000 1.721000 0.000000 
#    z 0.000000 0.000000 1.770790 
# 
# From -- ./inp_files/11458.got.cif
#   From: 2010.03.12/outbox.cif.g09.slc.cpg/sg51_6_cif.got.tgz:11458.got - 2010.04.16 13:43:02.
