data_PCOD8209427
_publ_section_title
;
Structure prediction by ZEFSAII (Michael W. Deem and Ramdas Pophale) SiO2 
 PCOD8209427
Probable space group: P M M A
;
_chemical_formula_sum "Si O2"
_cell_formula_units_Z 56
_cell_length_a 17.929597
_cell_length_b 9.120568
_cell_length_c 19.217490
_cell_angle_alpha 90.000000
_cell_angle_beta 90.000000
_cell_angle_gamma 90.000000
_cell_volume 3142.599793
_symmetry_space_group_name_H-M "P M M A"
_symmetry_group_IT_number 51
_symmetry_cell_setting 'orthorhombic'
loop_
_space_group_symop_operation_xyz
x,y,z
1/2-x,-y,z
1/2+x,-y,-z
-x,y,-z
-x,-y,-z
1/2+x,y,-z
1/2-x,y,z
x,-y,z
loop_
_atom_site_type_symbol
_atom_site_label
_atom_site_fract_x
_atom_site_fract_y
_atom_site_fract_z
Si Si1 0.904634 0.826469 0.570919
Si Si2 0.392659 0.831770 0.728692
Si Si3 0.163411 0.668599 0.302596
Si Si4 0.982492 0.673269 0.077888
Si Si5 0.948497 0.830104 0.796238
Si Si6 0.927096 0.172906 0.419188
Si Si7 0.168306 0.670782 0.854125
O O1 0.849911 0.740500 0.621974
O O2 0.883771 0.786312 0.490465
O O3 0.988466 0.767069 0.582500
O O4 0.896767 0.000000 0.585134
O O5 0.478684 0.809424 0.749178
O O6 0.382855 0.772195 0.649415
O O7 0.338374 0.742393 0.778384
O O8 0.368758 0.000000 0.735113
O O9 0.250000 0.681559 0.284317
O O10 0.137243 0.500000 0.304343
O O11 0.119894 0.753523 0.242246
O O12 0.993244 0.500000 0.087208
O O13 0.039688 0.754571 0.128910
O O14 0.897300 0.723908 0.094318
O O15 0.000000 0.724348 0.000000
O O16 0.929394 0.000000 0.807995
O O17 0.936171 0.000000 0.414857
O O18 0.250000 0.710665 0.885560
O O19 0.160421 0.500000 0.841647
#
# Coordination Sequence:
#
# PCOD8209427 Si02
#       7
#     8   8   8   8   8   8   8
#     4   9  16  30  51  71  94 127 168 214 259 307
#     4   9  16  29  50  75  99 126 163 207 252 296
#     4  11  23  36  49  69 102 140 176 218 265 313
#     4   9  18  34  56  80 107 138 170 206 249 301
#     4  10  19  33  55  78 100 129 169 214 255 301
#     4   8  14  27  49  74  97 122 161 213 259 302
#     4   9  18  32  49  72 102 135 168 201 243 298
#
# _framework density 17.819641000000001
#
# number of rings (size 3 to 8) (size 9 to 14) (size 15 to 20)
#    0.000    2.714    1.429    1.714    0.000    2.286 
#    0.000    3.571    0.000    6.857    0.000    0.000 
#    0.000    0.000    0.000    0.000    0.000    0.000 
#
# Total GULP energy -694145.011068 kJ/mol
# GULP energy per Si atom -12395.446626 kJ/mol
# Density = 1.777908 g / cm^3
# Si number density = 17.819641 Si / 1000 Ang^3
#
#
#
# Elastic Constant Matrix: (Units=GPa)
#
#
# Indices 1 2 3 4 5 6 
#
# 1 75.0043 35.1494 50.8145 0.0000 0.0000 0.0000
# 2 35.1494 59.5979 45.3111 0.0000 0.0000 0.0000
# 3 50.8145 45.3111 155.0149 0.0000 0.0000 0.0000
# 4 0.0000 0.0000 0.0000 25.8761 0.0000 0.0000
# 5 0.0000 0.0000 0.0000 0.0000 20.4144 0.0000
# 6 0.0000 0.0000 0.0000 0.0000 0.0000 20.4789
#
#
#
# Elastic Compliance Matrix: (Units=1/GPa)
#
#
# Indices 1 2 3 4 5 6 
#
# 1 0.020218 -0.008853 -0.004040 0.000000 0.000000 0.000000
# 2 -0.008853 0.025450 -0.004537 0.000000 0.000000 0.000000
# 3 -0.004040 -0.004537 0.009101 0.000000 0.000000 0.000000
# 4 0.000000 0.000000 0.000000 0.038646 0.000000 0.000000
# 5 0.000000 0.000000 0.000000 0.000000 0.048985 0.000000
# 6 0.000000 0.000000 0.000000 0.000000 0.000000 0.048831
#
#
# Mechanical properties :
#
#
# Convention : Reuss Voigt Hill
#
# Bulk Modulus (GPa) = 50.22607 61.35190 55.78898
# Shear Modulus (GPa) = 21.48442 23.91004 22.69723
#
# Velocity S-wave (km/s) = 3.47603 3.66701 3.57279
# Velocity P-wave (km/s) = 6.66013 7.24109 6.95668
#
# Compressibility (1/GPa) = 0.01990998
#
# Stress axis : x y z
#
# Youngs Moduli (GPa) = 49.46025 39.29326 109.87228
#
# Poissons Ratio (x) = 0.34785 0.44388
# Poissons Ratio (y) = 0.43786 0.49849
# Poissons Ratio (z) = 0.19982 0.17827
#
# Static dielectric constant tensor:
#      x y z
#    x 3.184250 0.000000 0.000000 
#    y 0.000000 3.174250 0.000000 
#    z 0.000000 0.000000 3.547080 
# 
# 
# High freq. dielectric constant tensor:
#      x y z
#    x 1.668220 0.000000 0.000000 
#    y 0.000000 1.673450 0.000000 
#    z 0.000000 0.000000 1.691960 
# 
# From -- ./inp_files/33412.got.cif
#   From: 2010.03.12/outbox.cif.g09.slc.cpg/sg51_17_cif.got.tgz:33412.got - 2010.04.16 13:43:02.
