data_PCOD8209903
_publ_section_title
;
Structure prediction by ZEFSAII (Michael W. Deem and Ramdas Pophale) SiO2 
 PCOD8209903
Probable space group: P M M A
;
_chemical_formula_sum "Si O2"
_cell_formula_units_Z 48
_cell_length_a 15.378276
_cell_length_b 8.404610
_cell_length_c 18.843517
_cell_angle_alpha 90.000000
_cell_angle_beta 90.000000
_cell_angle_gamma 90.000000
_cell_volume 2435.494654
_symmetry_space_group_name_H-M "P M M A"
_symmetry_group_IT_number 51
_symmetry_cell_setting 'orthorhombic'
loop_
_space_group_symop_operation_xyz
x,y,z
1/2-x,-y,z
1/2+x,-y,-z
-x,y,-z
-x,-y,-z
1/2+x,y,-z
1/2-x,y,z
x,-y,z
loop_
_atom_site_type_symbol
_atom_site_label
_atom_site_fract_x
_atom_site_fract_y
_atom_site_fract_z
Si Si1 0.250000 0.318352 0.574083
Si Si2 0.250000 0.813642 0.420467
Si Si3 0.088653 0.811615 0.169625
Si Si4 0.250000 0.188908 0.916614
Si Si5 0.402590 0.685732 0.822648
Si Si6 0.750000 0.188258 0.920906
Si Si7 0.592967 0.812320 0.670053
Si Si8 0.100731 0.813643 0.668964
O O1 0.250000 0.500000 0.550243
O O2 0.250000 0.213041 0.503801
O O3 0.335098 0.283810 0.619593
O O4 0.335973 0.737647 0.383604
O O5 0.250000 0.000000 0.404727
O O6 0.163384 0.746184 0.117543
O O7 0.116699 0.764617 0.249509
O O8 0.998795 0.726060 0.149171
O O9 0.074037 0.000000 0.162716
O O10 0.164016 0.261727 0.882749
O O11 0.250000 0.000000 0.908688
O O12 0.250000 0.243792 0.998233
O O13 0.393394 0.500000 0.806625
O O14 0.379337 0.781699 0.751341
O O15 0.750000 0.000000 0.913014
O O16 0.496322 0.751384 0.650477
O O17 0.591689 0.000000 0.662592
O O18 0.113253 0.000000 0.654049
#
# Coordination Sequence:
#
# PCOD8209903 Si02
#       8
#     4   4   8   4   8   4   8   8
#     4  12  25  38  51  77 113 148 179 218 270 324
#     4  10  19  35  56  81 110 143 177 214 260 320
#     4   9  17  35  60  86 110 140 183 232 275 318
#     4  11  22  37  55  79 109 147 188 231 276 322
#     4  11  22  37  56  82 112 145 180 223 275 333
#     4   9  19  34  58  85 110 142 188 235 272 312
#     4   8  16  31  58  86 106 131 174 223 266 310
#     4  10  20  38  61  83 104 137 182 229 271 317
#
# _framework density 19.708521000000001
#
# number of rings (size 3 to 8) (size 9 to 14) (size 15 to 20)
#    0.000    2.167    0.000    5.000    0.000    3.333 
#    0.000   12.917    0.000    0.000    0.000    0.000 
#    0.000    0.000    0.000    0.000    0.000    0.000 
#
# Total GULP energy -595240.819050 kJ/mol
# GULP energy per Si atom -12400.850397 kJ/mol
# Density = 1.966366 g / cm^3
# Si number density = 19.708521 Si / 1000 Ang^3
#
#
#
# Elastic Constant Matrix: (Units=GPa)
#
#
# Indices 1 2 3 4 5 6 
#
# 1 154.9836 16.1975 92.0474 0.0000 0.0000 0.0000
# 2 16.1975 42.2933 1.5413 0.0000 0.0000 0.0000
# 3 92.0474 1.5413 117.2396 0.0000 0.0000 0.0000
# 4 0.0000 0.0000 0.0000 7.9516 0.0000 0.0000
# 5 0.0000 0.0000 0.0000 0.0000 224.6979 0.0000
# 6 0.0000 0.0000 0.0000 0.0000 0.0000 3.0069
#
#
#
# Elastic Compliance Matrix: (Units=1/GPa)
#
#
# Indices 1 2 3 4 5 6 
#
# 1 0.012920 -0.004580 -0.010083 0.000000 0.000000 0.000000
# 2 -0.004580 0.025280 0.003264 0.000000 0.000000 0.000000
# 3 -0.010083 0.003264 0.016403 0.000000 0.000000 0.000000
# 4 0.000000 0.000000 0.000000 0.125761 0.000000 0.000000
# 5 0.000000 0.000000 0.000000 0.000000 0.004450 0.000000
# 6 0.000000 0.000000 0.000000 0.000000 0.000000 0.332569
#
#
# Mechanical properties :
#
#
# Convention : Reuss Voigt Hill
#
# Bulk Modulus (GPa) = 31.44375 59.34320 45.39348
# Shear Modulus (GPa) = 9.07797 60.77997 34.92897
#
# Velocity S-wave (km/s) = 2.14851 5.55935 4.21441
# Velocity P-wave (km/s) = 4.70572 8.44892 6.83843
#
# Compressibility (1/GPa) = 0.03180282
#
# Stress axis : x y z
#
# Youngs Moduli (GPa) = 77.40169 39.55748 60.96369
#
# Poissons Ratio (x) = 0.18119 0.61471
# Poissons Ratio (y) = 0.35454 -0.19898
# Poissons Ratio (z) = 0.78046 -0.12911
#
# Static dielectric constant tensor:
#      x y z
#    x 3.949250 0.000000 0.000000 
#    y 0.000000 3.283960 0.000000 
#    z 0.000000 0.000000 3.525260 
# 
# 
# High freq. dielectric constant tensor:
#      x y z
#    x 1.786290 0.000000 0.000000 
#    y 0.000000 1.741710 0.000000 
#    z 0.000000 0.000000 1.761830 
# 
# From -- ./inp_files/29674.got.cif
#   From: 2010.03.12/outbox.cif.g09.slc.cpg/sg51_15_cif.got.tgz:29674.got - 2010.04.16 13:43:02.
