data_PCOD8209736
_publ_section_title
;
Structure prediction by ZEFSAII (Michael W. Deem and Ramdas Pophale) SiO2 
 PCOD8209736
Probable space group: P M M A
;
_chemical_formula_sum "Si O2"
_cell_formula_units_Z 48
_cell_length_a 14.997850
_cell_length_b 15.366943
_cell_length_c 10.724614
_cell_angle_alpha 90.000000
_cell_angle_beta 90.000000
_cell_angle_gamma 90.000000
_cell_volume 2471.713651
_symmetry_space_group_name_H-M "P M M A"
_symmetry_group_IT_number 51
_symmetry_cell_setting 'orthorhombic'
loop_
_space_group_symop_operation_xyz
x,y,z
1/2-x,-y,z
1/2+x,-y,-z
-x,y,-z
-x,-y,-z
1/2+x,y,-z
1/2-x,y,z
x,-y,z
loop_
_atom_site_type_symbol
_atom_site_label
_atom_site_fract_x
_atom_site_fract_y
_atom_site_fract_z
Si Si1 0.952089 0.598233 0.868806
Si Si2 0.513828 0.098958 0.856953
Si Si3 0.351672 0.751151 0.506837
Si Si4 0.436790 0.403908 0.619546
Si Si5 0.147009 0.900919 0.679995
Si Si6 0.145024 0.754461 0.230973
O O1 0.912135 0.500000 0.865641
O O2 0.874298 0.669560 0.854125
O O3 0.018901 0.611414 0.753533
O O4 0.000000 0.615520 0.000000
O O5 0.417427 0.117559 0.796142
O O6 0.592901 0.160336 0.811579
O O7 0.544366 0.000000 0.831127
O O8 0.500000 0.118612 0.000000
O O9 0.250000 0.767235 0.480310
O O10 0.362740 0.669963 0.600649
O O11 0.389039 0.839372 0.568891
O O12 0.393294 0.734397 0.370316
O O13 0.500000 0.394314 0.500000
O O14 0.392832 0.500000 0.617726
O O15 0.250000 0.879258 0.717905
O O16 0.139175 0.000000 0.633067
O O17 0.250000 0.773726 0.224026
#
# Coordination Sequence:
#
# PCOD8209736 Si02
#       6
#     8   8   8   8   8   8
#     4  10  21  38  59  84 114 150 193 241 289 339
#     4  10  22  39  58  81 111 149 191 235 283 340
#     4  10  21  35  54  82 114 146 185 237 286 338
#     4  10  19  34  57  81 108 147 191 232 280 337
#     4   9  19  36  58  83 110 144 187 236 291 343
#     4  11  23  37  56  84 116 152 191 232 283 344
#
# _framework density 19.419726000000001
#
# number of rings (size 3 to 8) (size 9 to 14) (size 15 to 20)
#    0.000    2.000    1.667    1.500    0.000    2.333 
#    0.000    9.167    0.000    3.000    0.000    0.000 
#    0.000    0.000    0.000    0.000    0.000    0.000 
#
# Total GULP energy -594917.301610 kJ/mol
# GULP energy per Si atom -12394.110450 kJ/mol
# Density = 1.937553 g / cm^3
# Si number density = 19.419726 Si / 1000 Ang^3
#
#
#
# Elastic Constant Matrix: (Units=GPa)
#
#
# Indices 1 2 3 4 5 6 
#
# 1 73.7572 59.3951 46.7102 0.0000 0.0000 0.0000
# 2 59.3951 139.9078 64.1114 0.0000 0.0000 0.0000
# 3 46.7102 64.1114 137.1052 0.0000 0.0000 0.0000
# 4 0.0000 0.0000 0.0000 32.2009 0.0000 0.0000
# 5 0.0000 0.0000 0.0000 0.0000 24.0684 0.0000
# 6 0.0000 0.0000 0.0000 0.0000 0.0000 23.2886
#
#
#
# Elastic Compliance Matrix: (Units=1/GPa)
#
#
# Indices 1 2 3 4 5 6 
#
# 1 0.022215 -0.007589 -0.004020 0.000000 0.000000 0.000000
# 2 -0.007589 0.011689 -0.002881 0.000000 0.000000 0.000000
# 3 -0.004020 -0.002881 0.010010 0.000000 0.000000 0.000000
# 4 0.000000 0.000000 0.000000 0.031055 0.000000 0.000000
# 5 0.000000 0.000000 0.000000 0.000000 0.041548 0.000000
# 6 0.000000 0.000000 0.000000 0.000000 0.000000 0.042939
#
#
# Mechanical properties :
#
#
# Convention : Reuss Voigt Hill
#
# Bulk Modulus (GPa) = 66.95273 76.80041 71.87657
# Shear Modulus (GPa) = 25.85133 27.94850 26.89991
#
# Velocity S-wave (km/s) = 3.65250 3.79777 3.72585
# Velocity P-wave (km/s) = 7.23459 7.67230 7.45666
#
# Compressibility (1/GPa) = 0.01493591
#
# Stress axis : x y z
#
# Youngs Moduli (GPa) = 45.01504 85.54883 99.89905
#
# Poissons Ratio (x) = 0.64922 0.40157
# Poissons Ratio (y) = 0.34161 0.28776
# Poissons Ratio (z) = 0.18095 0.24643
#
# Static dielectric constant tensor:
#      x y z
#    x 3.264590 0.000000 0.000000 
#    y 0.000000 3.857940 0.000000 
#    z 0.000000 0.000000 3.844150 
# 
# 
# High freq. dielectric constant tensor:
#      x y z
#    x 1.732540 0.000000 0.000000 
#    y 0.000000 1.775940 0.000000 
#    z 0.000000 0.000000 1.761520 
# 
# From -- ./inp_files/16444.got.cif
#   From: 2010.03.12/outbox.cif.g09.slc.cpg/sg51_9_cif.got.tgz:16444.got - 2010.04.16 13:43:02.
