data_PCOD8209070
_publ_section_title
;
Structure prediction by ZEFSAII (Michael W. Deem and Ramdas Pophale) SiO2 
 PCOD8209070
Probable space group: P M M A
;
_chemical_formula_sum "Si O2"
_cell_formula_units_Z 64
_cell_length_a 14.498466
_cell_length_b 9.044515
_cell_length_c 25.012899
_cell_angle_alpha 90.000000
_cell_angle_beta 90.000000
_cell_angle_gamma 90.000000
_cell_volume 3279.981297
_symmetry_space_group_name_H-M "P M M A"
_symmetry_group_IT_number 51
_symmetry_cell_setting 'orthorhombic'
loop_
_space_group_symop_operation_xyz
x,y,z
1/2-x,-y,z
1/2+x,-y,-z
-x,y,-z
-x,-y,-z
1/2+x,y,-z
1/2-x,y,z
x,-y,z
loop_
_atom_site_type_symbol
_atom_site_label
_atom_site_fract_x
_atom_site_fract_y
_atom_site_fract_z
Si Si1 0.472205 0.674219 0.374595
Si Si2 0.645153 0.825977 0.413101
Si Si3 0.903733 0.171685 0.018721
Si Si4 0.649915 0.831909 0.905411
Si Si5 0.354703 0.675857 0.274061
Si Si6 0.644900 0.330951 0.523002
Si Si7 0.146680 0.174493 0.865177
Si Si8 0.474245 0.674229 0.173976
O O1 0.487030 0.500000 0.369703
O O2 0.572752 0.750939 0.372443
O O3 0.408874 0.733358 0.326259
O O4 0.421169 0.718828 0.429183
O O5 0.750000 0.781186 0.396927
O O6 0.623178 0.771732 0.472826
O O7 0.631736 0.000000 0.410965
O O8 0.866110 0.239018 0.074298
O O9 0.918675 0.000000 0.030815
O O10 0.835813 0.197689 0.968757
O O11 0.000000 0.244522 0.000000
O O12 0.750000 0.806637 0.878586
O O13 0.575798 0.721179 0.880745
O O14 0.614959 0.000000 0.896032
O O15 0.250000 0.739881 0.273235
O O16 0.349806 0.500000 0.274060
O O17 0.411966 0.733374 0.222907
O O18 0.750000 0.313047 0.542775
O O19 0.624965 0.500000 0.505989
O O20 0.250000 0.214259 0.846297
O O21 0.075528 0.252892 0.824648
O O22 0.130203 0.000000 0.862751
O O23 0.485971 0.500000 0.176281
#
# Coordination Sequence:
#
# PCOD8209070 Si02
#       8
#     8   8   8   8   8   8   8   8
#     4  10  19  33  56  81 102 132 178 227 267 303
#     4  10  21  35  50  73 110 151 180 206 252 313
#     4   9  15  28  52  78 104 134 172 218 260 306
#     4  10  19  32  53  79 105 135 174 217 259 308
#     4   9  19  37  59  81 105 135 172 215 265 318
#     4   9  17  30  51  80 110 138 173 218 262 307
#     4  10  20  36  58  80 104 138 180 222 264 312
#     4  11  22  36  55  78 108 141 174 214 265 322
#
# _framework density 19.512308000000001
#
# number of rings (size 3 to 8) (size 9 to 14) (size 15 to 20)
#    0.000    2.250    1.250    2.250    0.000    6.750 
#    0.000    3.125    0.000    7.875    0.000    0.000 
#    0.000    0.000    0.000    0.000    0.000    0.000 
#
# Total GULP energy -793374.218567 kJ/mol
# GULP energy per Si atom -12396.472165 kJ/mol
# Density = 1.946790 g / cm^3
# Si number density = 19.512308 Si / 1000 Ang^3
#
#
#
# Elastic Constant Matrix: (Units=GPa)
#
#
# Indices 1 2 3 4 5 6 
#
# 1 171.0883 47.3901 69.7518 0.0000 0.0000 0.0000
# 2 47.3901 44.4297 28.8144 0.0000 0.0000 0.0000
# 3 69.7518 28.8144 83.1344 0.0000 0.0000 0.0000
# 4 0.0000 0.0000 0.0000 4.1916 0.0000 0.0000
# 5 0.0000 0.0000 0.0000 0.0000 33.6728 0.0000
# 6 0.0000 0.0000 0.0000 0.0000 0.0000 28.5790
#
#
#
# Elastic Compliance Matrix: (Units=1/GPa)
#
#
# Indices 1 2 3 4 5 6 
#
# 1 0.010318 -0.006954 -0.006247 0.000000 0.000000 0.000000
# 2 -0.006954 0.033721 -0.005853 0.000000 0.000000 0.000000
# 3 -0.006247 -0.005853 0.019298 0.000000 0.000000 0.000000
# 4 0.000000 0.000000 0.000000 0.238574 0.000000 0.000000
# 5 0.000000 0.000000 0.000000 0.000000 0.029698 0.000000
# 6 0.000000 0.000000 0.000000 0.000000 0.000000 0.034991
#
#
# Mechanical properties :
#
#
# Convention : Reuss Voigt Hill
#
# Bulk Modulus (GPa) = 39.63590 65.61833 52.62711
# Shear Modulus (GPa) = 12.10311 23.46841 17.78576
#
# Velocity S-wave (km/s) = 2.49325 3.47183 3.02241
# Velocity P-wave (km/s) = 5.35217 7.05505 6.26177
#
# Compressibility (1/GPa) = 0.02522966
#
# Stress axis : x y z
#
# Youngs Moduli (GPa) = 96.91872 29.65523 51.81763
#
# Poissons Ratio (x) = 0.20623 0.32369
# Poissons Ratio (y) = 0.67399 0.30329
# Poissons Ratio (z) = 0.60542 0.17357
#
# Static dielectric constant tensor:
#      x y z
#    x 3.855040 0.000000 0.000000 
#    y 0.000000 3.158380 0.000000 
#    z 0.000000 0.000000 3.476900 
# 
# 
# High freq. dielectric constant tensor:
#      x y z
#    x 1.780470 0.000000 0.000000 
#    y 0.000000 1.718240 0.000000 
#    z 0.000000 0.000000 1.740810 
# 
# From -- ./inp_files/35841.got.cif
#   From: 2010.03.12/outbox.cif.g09.slc.cpg/sg51_18_cif.got.tgz:35841.got - 2010.04.16 13:43:02.
