data_PCOD8209195
_publ_section_title
;
Structure prediction by ZEFSAII (Michael W. Deem and Ramdas Pophale) SiO2 
 PCOD8209195
Probable space group: P M M A
;
_chemical_formula_sum "Si O2"
_cell_formula_units_Z 52
_cell_length_a 8.901181
_cell_length_b 18.394802
_cell_length_c 18.618867
_cell_angle_alpha 90.000000
_cell_angle_beta 90.000000
_cell_angle_gamma 90.000000
_cell_volume 3048.568791
_symmetry_space_group_name_H-M "P M M A"
_symmetry_group_IT_number 51
_symmetry_cell_setting 'orthorhombic'
loop_
_space_group_symop_operation_xyz
x,y,z
1/2-x,-y,z
1/2+x,-y,-z
-x,y,-z
-x,-y,-z
1/2+x,y,-z
1/2-x,y,z
x,-y,z
loop_
_atom_site_type_symbol
_atom_site_label
_atom_site_fract_x
_atom_site_fract_y
_atom_site_fract_z
Si Si1 0.573126 0.713705 0.211549
Si Si2 0.426513 0.658379 0.078161
Si Si3 0.920791 0.500000 0.925656
Si Si4 0.077937 0.417118 0.285687
Si Si5 0.424629 0.915317 0.574571
Si Si6 0.428859 0.202969 0.334732
Si Si7 0.420214 0.661254 0.426809
O O1 0.750000 0.726179 0.208908
O O2 0.505509 0.715888 0.131007
O O3 0.536417 0.635498 0.245661
O O4 0.496414 0.778382 0.256683
O O5 0.250000 0.675103 0.072270
O O6 0.456618 0.576989 0.113474
O O7 0.500000 0.665145 0.000000
O O8 0.750000 0.500000 0.947866
O O9 0.000000 0.500000 0.000000
O O10 0.250000 0.398286 0.262561
O O11 0.038617 0.500000 0.266192
O O12 0.061372 0.405442 0.371336
O O13 0.500000 0.891302 0.500000
O O14 0.250000 0.894930 0.570863
O O15 0.504540 0.873578 0.639681
O O16 0.450383 0.000000 0.589445
O O17 0.250000 0.199311 0.328345
O O18 0.483449 0.264948 0.390579
O O19 0.500000 0.640237 0.500000
O O20 0.250000 0.675457 0.447691
#
# Coordination Sequence:
#
# PCOD8209195 Si02
#       7
#     8   8   4   8   8   8   8
#     4  11  22  34  49  71  96 125 161 203 250 301
#     4  10  19  33  50  71  96 126 161 200 248 299
#     4   8  16  28  44  64  88 118 151 190 239 292
#     4   9  19  35  49  61  84 119 158 200 248 298
#     4  10  20  33  51  78 110 141 171 204 243 289
#     4  10  20  35  52  70  96 131 168 204 244 291
#     4   9  18  30  45  65  86 114 152 195 242 288
#
# _framework density 17.057183999999999
#
# number of rings (size 3 to 8) (size 9 to 14) (size 15 to 20)
#    0.000    2.308    0.000    4.154    1.077    6.462 
#    0.000    0.000    0.000    0.000    0.000    0.000 
#    0.000    0.615    0.000    2.308    0.000    3.538 
#
# Total GULP energy -644614.214562 kJ/mol
# GULP energy per Si atom -12396.427203 kJ/mol
# Density = 1.701836 g / cm^3
# Si number density = 17.057184 Si / 1000 Ang^3
#
#
#
# Elastic Constant Matrix: (Units=GPa)
#
#
# Indices 1 2 3 4 5 6 
#
# 1 103.4379 37.4479 50.1817 0.0000 0.0000 0.0000
# 2 37.4479 62.5262 34.4403 0.0000 0.0000 0.0000
# 3 50.1817 34.4403 90.8633 0.0000 0.0000 0.0000
# 4 0.0000 0.0000 0.0000 25.2204 0.0000 0.0000
# 5 0.0000 0.0000 0.0000 0.0000 31.9831 0.0000
# 6 0.0000 0.0000 0.0000 0.0000 0.0000 24.1723
#
#
#
# Elastic Compliance Matrix: (Units=1/GPa)
#
#
# Indices 1 2 3 4 5 6 
#
# 1 0.014522 -0.005409 -0.005970 0.000000 0.000000 0.000000
# 2 -0.005409 0.022228 -0.005438 0.000000 0.000000 0.000000
# 3 -0.005970 -0.005438 0.016364 0.000000 0.000000 0.000000
# 4 0.000000 0.000000 0.000000 0.039650 0.000000 0.000000
# 5 0.000000 0.000000 0.000000 0.000000 0.031266 0.000000
# 6 0.000000 0.000000 0.000000 0.000000 0.000000 0.041370
#
#
# Mechanical properties :
#
#
# Convention : Reuss Voigt Hill
#
# Bulk Modulus (GPa) = 51.33465 55.66303 53.49884
# Shear Modulus (GPa) = 24.32756 25.25901 24.79328
#
# Velocity S-wave (km/s) = 3.78065 3.85235 3.81667
# Velocity P-wave (km/s) = 7.01560 7.24510 7.13128
#
# Compressibility (1/GPa) = 0.01948002
#
# Stress axis : x y z
#
# Youngs Moduli (GPa) = 68.85999 44.98792 61.11058
#
# Poissons Ratio (x) = 0.24335 0.36483
# Poissons Ratio (y) = 0.37248 0.33231
# Poissons Ratio (z) = 0.41109 0.24464
#
# Static dielectric constant tensor:
#      x y z
#    x 3.184470 0.000000 0.000000 
#    y 0.000000 2.926570 0.000000 
#    z 0.000000 0.000000 3.146540 
# 
# 
# High freq. dielectric constant tensor:
#      x y z
#    x 1.666180 0.000000 0.000000 
#    y 0.000000 1.623260 0.000000 
#    z 0.000000 0.000000 1.654250 
# 
# From -- ./inp_files/27982.got.cif
#   From: 2010.03.12/outbox.cif.g09.slc.cpg/sg51_14_cif.got.tgz:27982.got - 2010.04.16 13:43:02.
