data_PCOD8209567
_publ_section_title
;
Structure prediction by ZEFSAII (Michael W. Deem and Ramdas Pophale) SiO2 
 PCOD8209567
Probable space group: P M M A
;
_chemical_formula_sum "Si O2"
_cell_formula_units_Z 48
_cell_length_a 9.807728
_cell_length_b 14.844864
_cell_length_c 17.394098
_cell_angle_alpha 90.000000
_cell_angle_beta 90.000000
_cell_angle_gamma 90.000000
_cell_volume 2532.483058
_symmetry_space_group_name_H-M "P M M A"
_symmetry_group_IT_number 51
_symmetry_cell_setting 'orthorhombic'
loop_
_space_group_symop_operation_xyz
x,y,z
1/2-x,-y,z
1/2+x,-y,-z
-x,y,-z
-x,-y,-z
1/2+x,y,-z
1/2-x,y,z
x,-y,z
loop_
_atom_site_type_symbol
_atom_site_label
_atom_site_fract_x
_atom_site_fract_y
_atom_site_fract_z
Si Si1 0.500000 0.657580 0.000000
Si Si2 0.089163 0.396534 0.576103
Si Si3 0.034091 0.897652 0.249057
Si Si4 0.750000 0.898942 0.176643
Si Si5 0.250000 0.900365 0.120516
Si Si6 0.750000 0.220287 0.026956
Si Si7 0.908298 0.289822 0.695597
Si Si8 0.595175 0.400424 0.841362
O O1 0.619822 0.719251 0.028046
O O2 0.524558 0.598152 0.924419
O O3 0.250000 0.370024 0.564239
O O4 0.080375 0.500000 0.604052
O O5 0.000000 0.383418 0.500000
O O6 0.016194 0.331920 0.637057
O O7 0.876906 0.881293 0.231920
O O8 0.115840 0.883280 0.170488
O O9 0.080884 0.819444 0.308215
O O10 0.061269 0.000000 0.281399
O O11 0.750000 0.000000 0.144595
O O12 0.750000 0.837908 0.102877
O O13 0.250000 0.835864 0.049821
O O14 0.250000 0.000000 0.086304
O O15 0.750000 0.318005 0.678078
O O16 0.955941 0.326679 0.779526
O O17 0.750000 0.376940 0.859643
O O18 0.576497 0.500000 0.804864
#
# Coordination Sequence:
#
# PCOD8209567 Si02
#       8
#     4   8   8   4   4   4   8   8
#     4  12  23  36  51  72 104 148 193 246 302 352
#     4  10  22  41  65  97 133 162 190 230 284 343
#     4  10  21  36  55  80 114 151 192 242 297 355
#     4  10  21  34  48  73 106 143 189 249 310 355
#     4  10  19  34  52  73 104 143 191 245 300 357
#     4  12  21  32  51  72  98 136 190 244 304 364
#     4  11  21  36  63  90 116 155 201 246 293 349
#     4  10  21  38  55  75 105 147 199 247 297 354
#
# _framework density 18.95373
#
# number of rings (size 3 to 8) (size 9 to 14) (size 15 to 20)
#    0.000    1.500    1.667    4.500    1.167    1.667 
#    1.500    3.333    0.000    0.500    0.000    0.000 
#    0.000    0.000    0.000    0.000    0.000    0.000 
#
# Total GULP energy -594914.892285 kJ/mol
# GULP energy per Si atom -12394.060256 kJ/mol
# Density = 1.891059 g / cm^3
# Si number density = 18.953730 Si / 1000 Ang^3
#
#
#
# Elastic Constant Matrix: (Units=GPa)
#
#
# Indices 1 2 3 4 5 6 
#
# 1 117.4347 35.1428 35.8594 0.0000 0.0000 0.0000
# 2 35.1428 111.7158 48.3207 0.0000 0.0000 0.0000
# 3 35.8594 48.3207 78.9654 0.0000 0.0000 0.0000
# 4 0.0000 0.0000 0.0000 30.3152 0.0000 0.0000
# 5 0.0000 0.0000 0.0000 0.0000 29.3551 0.0000
# 6 0.0000 0.0000 0.0000 0.0000 0.0000 25.6398
#
#
#
# Elastic Compliance Matrix: (Units=1/GPa)
#
#
# Indices 1 2 3 4 5 6 
#
# 1 0.010098 -0.001623 -0.003593 0.000000 0.000000 0.000000
# 2 -0.001623 0.012434 -0.006872 0.000000 0.000000 0.000000
# 3 -0.003593 -0.006872 0.018500 0.000000 0.000000 0.000000
# 4 0.000000 0.000000 0.000000 0.032987 0.000000 0.000000
# 5 0.000000 0.000000 0.000000 0.000000 0.034066 0.000000
# 6 0.000000 0.000000 0.000000 0.000000 0.000000 0.039002
#
#
# Mechanical properties :
#
#
# Convention : Reuss Voigt Hill
#
# Bulk Modulus (GPa) = 59.31893 60.75128 60.03511
# Shear Modulus (GPa) = 28.26772 29.64822 28.95797
#
# Velocity S-wave (km/s) = 3.86606 3.95934 3.91298
# Velocity P-wave (km/s) = 7.16193 7.28175 7.22209
#
# Compressibility (1/GPa) = 0.01685802
#
# Stress axis : x y z
#
# Youngs Moduli (GPa) = 99.02941 80.42481 54.05313
#
# Poissons Ratio (x) = 0.13049 0.19420
# Poissons Ratio (y) = 0.16068 0.37144
# Poissons Ratio (z) = 0.35579 0.55266
#
# Static dielectric constant tensor:
#      x y z
#    x 3.768230 0.000000 0.000000 
#    y 0.000000 3.504610 0.000000 
#    z 0.000000 0.000000 3.184930 
# 
# 
# High freq. dielectric constant tensor:
#      x y z
#    x 1.749910 0.000000 0.000000 
#    y 0.000000 1.748860 0.000000 
#    z 0.000000 0.000000 1.701650 
# 
# From -- ./inp_files/27716.got.cif
#   From: 2010.03.12/outbox.cif.g09.slc.cpg/sg51_14_cif.got.tgz:27716.got - 2010.04.16 13:43:02.
