data_PCOD8209256
_publ_section_title
;
Structure prediction by ZEFSAII (Michael W. Deem and Ramdas Pophale) SiO2 
 PCOD8209256
Probable space group: P M M A
;
_chemical_formula_sum "Si O2"
_cell_formula_units_Z 64
_cell_length_a 14.303997
_cell_length_b 9.285756
_cell_length_c 28.337089
_cell_angle_alpha 90.000000
_cell_angle_beta 90.000000
_cell_angle_gamma 90.000000
_cell_volume 3763.829243
_symmetry_space_group_name_H-M "P M M A"
_symmetry_group_IT_number 51
_symmetry_cell_setting 'orthorhombic'
loop_
_space_group_symop_operation_xyz
x,y,z
1/2-x,-y,z
1/2+x,-y,-z
-x,y,-z
-x,-y,-z
1/2+x,y,-z
1/2-x,y,z
x,-y,z
loop_
_atom_site_type_symbol
_atom_site_label
_atom_site_fract_x
_atom_site_fract_y
_atom_site_fract_z
Si Si1 0.034848 0.828678 0.570972
Si Si2 0.853591 0.829393 0.341181
Si Si3 0.857297 0.833016 0.881716
Si Si4 0.147983 0.660050 0.926152
Si Si5 0.354470 0.828741 0.479858
Si Si6 0.978033 0.672046 0.158261
Si Si7 0.107185 0.161300 0.013175
Si Si8 0.858998 0.832549 0.234613
O O1 0.071582 0.766532 0.621100
O O2 0.106256 0.775666 0.530364
O O3 0.928474 0.775194 0.560252
O O4 0.034488 0.000000 0.571561
O O5 0.750000 0.766783 0.352019
O O6 0.884034 0.788619 0.288267
O O7 0.848593 0.000000 0.345746
O O8 0.750000 0.811978 0.866969
O O9 0.873764 0.774382 0.934935
O O10 0.918370 0.739101 0.845209
O O11 0.887706 0.000000 0.878435
O O12 0.250000 0.656915 0.901756
O O13 0.114110 0.500000 0.939601
O O14 0.076355 0.727101 0.888547
O O15 0.160175 0.747882 0.974091
O O16 0.250000 0.764627 0.470983
O O17 0.349055 0.000000 0.479413
O O18 0.982201 0.500000 0.161778
O O19 0.924696 0.732513 0.203381
O O20 0.147541 0.000000 0.011733
O O21 0.000000 0.166593 0.000000
O O22 0.750000 0.801818 0.224103
O O23 0.881534 0.000000 0.224981
#
# Coordination Sequence:
#
# PCOD8209256 Si02
#       8
#     8   8   8   8   8   8   8   8
#     4   8  12  17  27  44  68 102 142 181 220 262
#     4   8  13  22  37  56  77 104 142 185 224 266
#     4  10  21  37  55  74  97 125 158 194 228 265
#     4  10  21  34  48  69  97 126 152 180 219 269
#     4   8  12  16  23  40  69 104 140 176 216 266
#     4  11  22  35  52  72  97 124 153 190 233 282
#     4  10  19  33  53  74  97 123 153 186 219 260
#     4   9  18  32  50  71  93 119 153 193 238 286
#
# _framework density 17.003959999999999
#
# number of rings (size 3 to 8) (size 9 to 14) (size 15 to 20)
#    0.000    2.750    1.250    3.000    0.000    4.500 
#    0.000    0.000    0.000    0.750    0.000    3.500 
#    0.000    0.000    0.000    2.250    0.000    7.000 
#
# Total GULP energy -793166.420996 kJ/mol
# GULP energy per Si atom -12393.225328 kJ/mol
# Density = 1.696526 g / cm^3
# Si number density = 17.003960 Si / 1000 Ang^3
#
#
#
# Elastic Constant Matrix: (Units=GPa)
#
#
# Indices 1 2 3 4 5 6 
#
# 1 126.1583 32.9605 65.6967 0.0000 0.0000 0.0000
# 2 32.9605 39.9813 35.6057 0.0000 0.0000 0.0000
# 3 65.6967 35.6057 112.8680 0.0000 0.0000 0.0000
# 4 0.0000 0.0000 0.0000 4.7485 0.0000 0.0000
# 5 0.0000 0.0000 0.0000 0.0000 28.8781 0.0000
# 6 0.0000 0.0000 0.0000 0.0000 0.0000 13.1527
#
#
#
# Elastic Compliance Matrix: (Units=1/GPa)
#
#
# Indices 1 2 3 4 5 6 
#
# 1 0.012090 -0.005146 -0.005414 0.000000 0.000000 0.000000
# 2 -0.005146 0.036974 -0.008669 0.000000 0.000000 0.000000
# 3 -0.005414 -0.008669 0.014746 0.000000 0.000000 0.000000
# 4 0.000000 0.000000 0.000000 0.210595 0.000000 0.000000
# 5 0.000000 0.000000 0.000000 0.000000 0.034628 0.000000
# 6 0.000000 0.000000 0.000000 0.000000 0.000000 0.076030
#
#
# Mechanical properties :
#
#
# Convention : Reuss Voigt Hill
#
# Bulk Modulus (GPa) = 39.44304 60.83705 50.14004
# Shear Modulus (GPa) = 11.57486 19.00552 15.29019
#
# Velocity S-wave (km/s) = 2.61188 3.34685 3.00194
# Velocity P-wave (km/s) = 5.68706 7.12678 6.44723
#
# Compressibility (1/GPa) = 0.02535302
#
# Stress axis : x y z
#
# Youngs Moduli (GPa) = 82.71100 27.04621 67.81531
#
# Poissons Ratio (x) = 0.13917 0.36716
# Poissons Ratio (y) = 0.42560 0.58787
# Poissons Ratio (z) = 0.44780 0.23446
#
# Static dielectric constant tensor:
#      x y z
#    x 3.385510 0.000000 0.000000 
#    y 0.000000 2.780700 0.000000 
#    z 0.000000 0.000000 3.214570 
# 
# 
# High freq. dielectric constant tensor:
#      x y z
#    x 1.661400 0.000000 0.000000 
#    y 0.000000 1.610240 0.000000 
#    z 0.000000 0.000000 1.639400 
# 
# From -- ./inp_files/37803.got.cif
#   From: 2010.03.12/outbox.cif.g09.slc.cpg/sg51_19_cif.got.tgz:37803.got - 2010.04.16 13:43:02.
