data_PCOD8209705
_publ_section_title
;
Structure prediction by ZEFSAII (Michael W. Deem and Ramdas Pophale) SiO2 
 PCOD8209705
Probable space group: P M M A
;
_chemical_formula_sum "Si O2"
_cell_formula_units_Z 56
_cell_length_a 23.022515
_cell_length_b 8.793685
_cell_length_c 15.214434
_cell_angle_alpha 90.000000
_cell_angle_beta 90.000000
_cell_angle_gamma 90.000000
_cell_volume 3080.203924
_symmetry_space_group_name_H-M "P M M A"
_symmetry_group_IT_number 51
_symmetry_cell_setting 'orthorhombic'
loop_
_space_group_symop_operation_xyz
x,y,z
1/2-x,-y,z
1/2+x,-y,-z
-x,y,-z
-x,-y,-z
1/2+x,y,-z
1/2-x,y,z
x,-y,z
loop_
_atom_site_type_symbol
_atom_site_label
_atom_site_fract_x
_atom_site_fract_y
_atom_site_fract_z
Si Si1 0.142534 0.827048 0.336785
Si Si2 0.250000 0.819938 0.612292
Si Si3 0.065780 0.173340 0.502683
Si Si4 0.750000 0.323370 0.578936
Si Si5 0.568623 0.328976 0.010578
Si Si6 0.868173 0.321445 0.342385
Si Si7 0.941004 0.821597 0.187593
Si Si8 0.926137 0.178031 0.834157
O O1 0.089736 0.815230 0.404652
O O2 0.194008 0.715157 0.363067
O O3 0.117679 0.774795 0.242991
O O4 0.166060 0.000000 0.333158
O O5 0.250000 0.770755 0.510759
O O6 0.305902 0.759083 0.663895
O O7 0.250000 0.000000 0.614344
O O8 0.102933 0.281663 0.564727
O O9 0.000000 0.231866 0.500000
O O10 0.069032 0.000000 0.538569
O O11 0.750000 0.500000 0.554447
O O12 0.591403 0.500000 0.024690
O O13 0.586772 0.227943 0.094392
O O14 0.500000 0.323645 0.000000
O O15 0.596532 0.261458 0.921858
O O16 0.858588 0.500000 0.336571
O O17 0.908836 0.267194 0.264151
O O18 0.008531 0.773316 0.191995
O O19 0.932213 0.000000 0.201155
O O20 0.925209 0.000000 0.853216
#
# Coordination Sequence:
#
# PCOD8209705 Si02
#       8
#     8   4   8   4   8   8   8   8
#     4  10  20  35  56  78 106 144 185 227 268 320
#     4  12  24  42  62  77 100 143 192 232 272 326
#     4  10  20  35  55  79 109 147 184 219 265 325
#     4  12  24  38  56  79 106 139 184 234 278 324
#     4   9  17  30  50  79 114 148 179 221 274 327
#     4  12  24  37  55  82 112 142 180 231 281 326
#     4  10  19  34  56  82 112 148 185 223 268 330
#     4   9  18  33  55  83 111 145 187 225 266 325
#
# _framework density 18.180615
#
# number of rings (size 3 to 8) (size 9 to 14) (size 15 to 20)
#    0.000    1.714    1.429    4.286    0.000    5.429 
#    0.000    1.429    0.000    0.857    0.000    3.000 
#    0.000    0.000    0.000    0.000    0.000    0.000 
#
# Total GULP energy -694609.949721 kJ/mol
# GULP energy per Si atom -12403.749102 kJ/mol
# Density = 1.813924 g / cm^3
# Si number density = 18.180615 Si / 1000 Ang^3
#
#
#
# Elastic Constant Matrix: (Units=GPa)
#
#
# Indices 1 2 3 4 5 6 
#
# 1 56.2361 19.3292 -2.8046 0.0000 0.0000 0.0000
# 2 19.3292 97.7191 20.8556 0.0000 0.0000 0.0000
# 3 -2.8046 20.8556 73.7150 0.0000 0.0000 0.0000
# 4 0.0000 0.0000 0.0000 27.1662 0.0000 0.0000
# 5 0.0000 0.0000 0.0000 0.0000 13.7973 0.0000
# 6 0.0000 0.0000 0.0000 0.0000 0.0000 22.0461
#
#
#
# Elastic Compliance Matrix: (Units=1/GPa)
#
#
# Indices 1 2 3 4 5 6 
#
# 1 0.019335 -0.004237 0.001934 0.000000 0.000000 0.000000
# 2 -0.004237 0.011820 -0.003505 0.000000 0.000000 0.000000
# 3 0.001934 -0.003505 0.014631 0.000000 0.000000 0.000000
# 4 0.000000 0.000000 0.000000 0.036810 0.000000 0.000000
# 5 0.000000 0.000000 0.000000 0.000000 0.072478 0.000000
# 6 0.000000 0.000000 0.000000 0.000000 0.000000 0.045360
#
#
# Mechanical properties :
#
#
# Convention : Reuss Voigt Hill
#
# Bulk Modulus (GPa) = 29.26588 33.60341 31.43465
# Shear Modulus (GPa) = 22.37735 25.28791 23.83263
#
# Velocity S-wave (km/s) = 3.51213 3.73356 3.62454
# Velocity P-wave (km/s) = 5.70780 6.09173 5.90289
#
# Compressibility (1/GPa) = 0.03416948
#
# Stress axis : x y z
#
# Youngs Moduli (GPa) = 51.71935 84.60449 68.34768
#
# Poissons Ratio (x) = 0.35851 -0.13222
# Poissons Ratio (y) = 0.21916 0.23958
# Poissons Ratio (z) = -0.10005 0.29656
#
# Static dielectric constant tensor:
#      x y z
#    x 3.284100 0.000000 0.000000 
#    y 0.000000 3.421820 0.000000 
#    z 0.000000 0.000000 3.452420 
# 
# 
# High freq. dielectric constant tensor:
#      x y z
#    x 1.681920 0.000000 0.000000 
#    y 0.000000 1.708240 0.000000 
#    z 0.000000 0.000000 1.709250 
# 
# From -- ./inp_files/25905.got.cif
#   From: 2010.03.12/outbox.cif.g09.slc.cpg/sg51_13_cif.got.tgz:25905.got - 2010.04.16 13:43:02.
