data_PCOD8209160
_publ_section_title
;
Structure prediction by ZEFSAII (Michael W. Deem and Ramdas Pophale) SiO2 
 PCOD8209160
Probable space group: P M M A
;
_chemical_formula_sum "Si O2"
_cell_formula_units_Z 56
_cell_length_a 15.696227
_cell_length_b 9.353320
_cell_length_c 19.832879
_cell_angle_alpha 90.000000
_cell_angle_beta 90.000000
_cell_angle_gamma 90.000000
_cell_volume 2911.701338
_symmetry_space_group_name_H-M "P M M A"
_symmetry_group_IT_number 51
_symmetry_cell_setting 'orthorhombic'
loop_
_space_group_symop_operation_xyz
x,y,z
1/2-x,-y,z
1/2+x,-y,-z
-x,y,-z
-x,-y,-z
1/2+x,y,-z
1/2-x,y,z
x,-y,z
loop_
_atom_site_type_symbol
_atom_site_label
_atom_site_fract_x
_atom_site_fract_y
_atom_site_fract_z
Si Si1 0.884596 0.839197 0.276537
Si Si2 0.498928 0.669001 0.077379
Si Si3 0.750000 0.658486 0.507568
Si Si4 0.045702 0.665830 0.294439
Si Si5 0.750000 0.340432 0.349676
Si Si6 0.571916 0.330058 0.551192
Si Si7 0.843542 0.840756 0.127313
Si Si8 0.655272 0.666726 0.830699
O O1 0.834644 0.744620 0.330516
O O2 0.832768 0.842293 0.207599
O O3 0.974549 0.765537 0.261888
O O4 0.896572 0.000000 0.304939
O O5 0.501546 0.500000 0.085943
O O6 0.586321 0.727053 0.107233
O O7 0.415445 0.730809 0.116977
O O8 0.500000 0.717444 0.000000
O O9 0.750000 0.500000 0.540406
O O10 0.750000 0.644663 0.428509
O O11 0.836298 0.737667 0.531521
O O12 0.017939 0.500000 0.290866
O O13 0.057269 0.714823 0.371559
O O14 0.128597 0.692120 0.247530
O O15 0.750000 0.500000 0.317139
O O16 0.500000 0.267767 0.500000
O O17 0.573954 0.500000 0.542647
O O18 0.750000 0.798755 0.097888
O O19 0.869552 0.000000 0.102180
O O20 0.750000 0.735257 0.841882
O O21 0.661671 0.500000 0.845796
#
# Coordination Sequence:
#
# PCOD8209160 Si02
#       8
#     8   8   4   8   4   8   8   8
#     4  11  21  35  54  79 113 148 182 228 285 331
#     4  10  21  37  58  85 116 149 183 225 278 334
#     4   9  18  31  49  77 111 140 175 228 286 336
#     4  10  19  32  55  80 104 140 189 233 277 332
#     4  11  21  33  55  83 111 144 185 230 280 340
#     4   9  17  29  46  73 107 136 171 225 281 330
#     4  10  21  38  57  80 112 148 186 228 274 327
#     4   9  18  32  52  81 112 141 180 231 281 329
#
# _framework density 19.232741000000001
#
# number of rings (size 3 to 8) (size 9 to 14) (size 15 to 20)
#    0.000    2.143    2.143    1.500    1.000    4.000 
#    0.000    1.429    0.000    6.429    0.000    0.000 
#    0.000    0.000    0.000    0.000    0.000    0.000 
#
# Total GULP energy -694051.871559 kJ/mol
# GULP energy per Si atom -12393.783421 kJ/mol
# Density = 1.918897 g / cm^3
# Si number density = 19.232741 Si / 1000 Ang^3
#
#
#
# Elastic Constant Matrix: (Units=GPa)
#
#
# Indices 1 2 3 4 5 6 
#
# 1 159.8803 29.4746 53.6146 0.0000 0.0000 0.0000
# 2 29.4746 50.0447 17.4283 0.0000 0.0000 0.0000
# 3 53.6146 17.4283 107.8972 0.0000 0.0000 0.0000
# 4 0.0000 0.0000 0.0000 10.1596 0.0000 0.0000
# 5 0.0000 0.0000 0.0000 0.0000 22.6447 0.0000
# 6 0.0000 0.0000 0.0000 0.0000 0.0000 -2.9136
#
#
#
# Elastic Compliance Matrix: (Units=1/GPa)
#
#
# Indices 1 2 3 4 5 6 
#
# 1 0.008060 -0.003552 -0.003431 0.000000 0.000000 0.000000
# 2 -0.003552 0.022739 -0.001908 0.000000 0.000000 0.000000
# 3 -0.003431 -0.001908 0.011281 0.000000 0.000000 0.000000
# 4 0.000000 0.000000 0.000000 0.098429 0.000000 0.000000
# 5 0.000000 0.000000 0.000000 0.000000 0.044160 0.000000
# 6 0.000000 0.000000 0.000000 0.000000 0.000000 -0.343224
#
#
# Mechanical properties :
#
#
# Convention : Reuss Voigt Hill
#
# Bulk Modulus (GPa) = 41.15659 57.65079 49.40369
# Shear Modulus (GPa) = -37.68701 20.46513 -8.61094
#
# Velocity S-wave (km/s) = -4.43145 3.26556 -2.11824
# Velocity P-wave (km/s) = 2.17670 6.65274 4.44527
#
# Compressibility (1/GPa) = 0.02429745
#
# Stress axis : x y z
#
# Youngs Moduli (GPa) = 124.06594 43.97793 88.64216
#
# Poissons Ratio (x) = 0.15622 0.30417
# Poissons Ratio (y) = 0.44071 0.16911
# Poissons Ratio (z) = 0.42572 0.08390
#
# Static dielectric constant tensor:
#      x y z
#    x 3.785370 0.000000 0.000000 
#    y 0.000000 3.151520 0.000000 
#    z 0.000000 0.000000 3.539970 
# 
# 
# High freq. dielectric constant tensor:
#      x y z
#    x 1.762650 0.000000 0.000000 
#    y 0.000000 1.700380 0.000000 
#    z 0.000000 0.000000 1.745260 
# 
# From -- ./inp_files/33616.got.cif
#   From: 2010.03.12/outbox.cif.g09.slc.cpg/sg51_17_cif.got.tgz:33616.got - 2010.04.16 13:43:02.
