data_PCOD8209431
_publ_section_title
;
Structure prediction by ZEFSAII (Michael W. Deem and Ramdas Pophale) SiO2 
 PCOD8209431
Probable space group: P M M A
;
_chemical_formula_sum "Si O2"
_cell_formula_units_Z 64
_cell_length_a 25.601646
_cell_length_b 14.136995
_cell_length_c 9.065375
_cell_angle_alpha 90.000000
_cell_angle_beta 90.000000
_cell_angle_gamma 90.000000
_cell_volume 3281.034270
_symmetry_space_group_name_H-M "P M M A"
_symmetry_group_IT_number 51
_symmetry_cell_setting 'orthorhombic'
loop_
_space_group_symop_operation_xyz
x,y,z
1/2-x,-y,z
1/2+x,-y,-z
-x,y,-z
-x,-y,-z
1/2+x,y,-z
1/2-x,y,z
x,-y,z
loop_
_atom_site_type_symbol
_atom_site_label
_atom_site_fract_x
_atom_site_fract_y
_atom_site_fract_z
Si Si1 0.689819 0.787128 0.107231
Si Si2 0.191529 0.716121 0.352781
Si Si3 0.377829 0.772790 0.609502
Si Si4 0.658131 0.891829 0.821558
Si Si5 0.660197 0.390377 0.934619
Si Si6 0.043954 0.602042 0.119894
Si Si7 0.063450 0.105917 0.377579
Si Si8 0.510630 0.729135 0.344610
O O1 0.750000 0.816272 0.125783
O O2 0.661737 0.804939 0.263436
O O3 0.662357 0.856296 0.989604
O O4 0.687595 0.677254 0.054938
O O5 0.250000 0.695396 0.408528
O O6 0.152733 0.705721 0.492759
O O7 0.191310 0.821698 0.282932
O O8 0.176043 0.638289 0.231198
O O9 0.401851 0.859391 0.516699
O O10 0.427419 0.721134 0.689051
O O11 0.597772 0.886394 0.771777
O O12 0.679066 0.000000 0.807526
O O13 0.675860 0.500000 0.963357
O O14 0.598660 0.372146 0.955254
O O15 0.049268 0.500000 0.200322
O O16 0.027883 0.682374 0.230669
O O17 0.000000 0.595044 0.000000
O O18 0.009639 0.162779 0.355831
O O19 0.046269 0.000000 0.409819
O O20 0.500000 0.677556 0.500000
#
# Coordination Sequence:
#
# PCOD8209431 Si02
#       8
#     8   8   8   8   8   8   8   8
#     4  11  22  35  53  78 110 143 175 217 269 319
#     4  10  20  36  56  75 100 136 181 226 261 301
#     4  10  21  35  52  77 110 142 172 213 268 319
#     4   9  18  34  55  78 103 133 174 219 261 311
#     4  10  20  36  58  81 104 136 181 223 259 307
#     4  10  20  34  54  80 109 140 173 213 264 321
#     4   9  19  36  58  81 105 138 179 219 261 314
#     4  10  19  33  55  78 106 139 172 214 263 317
#
# _framework density 19.506046000000001
#
# number of rings (size 3 to 8) (size 9 to 14) (size 15 to 20)
#    0.000    2.125    0.000    5.625    0.000    5.000 
#    0.000    1.250    0.000    6.375    0.000    0.000 
#    0.000    0.000    0.000    0.000    0.000    0.000 
#
# Total GULP energy -793208.581674 kJ/mol
# GULP energy per Si atom -12393.884089 kJ/mol
# Density = 1.946165 g / cm^3
# Si number density = 19.506046 Si / 1000 Ang^3
#
#
#
# Elastic Constant Matrix: (Units=GPa)
#
#
# Indices 1 2 3 4 5 6 
#
# 1 111.8799 15.3533 30.7476 0.0000 0.0000 0.0000
# 2 15.3533 86.8301 18.8136 0.0000 0.0000 0.0000
# 3 30.7476 18.8136 82.4989 0.0000 0.0000 0.0000
# 4 0.0000 0.0000 0.0000 15.3960 0.0000 0.0000
# 5 0.0000 0.0000 0.0000 0.0000 29.7659 0.0000
# 6 0.0000 0.0000 0.0000 0.0000 0.0000 29.5677
#
#
#
# Elastic Compliance Matrix: (Units=1/GPa)
#
#
# Indices 1 2 3 4 5 6 
#
# 1 0.010042 -0.001015 -0.003511 0.000000 0.000000 0.000000
# 2 -0.001015 0.012218 -0.002408 0.000000 0.000000 0.000000
# 3 -0.003511 -0.002408 0.013979 0.000000 0.000000 0.000000
# 4 0.000000 0.000000 0.000000 0.064952 0.000000 0.000000
# 5 0.000000 0.000000 0.000000 0.000000 0.033596 0.000000
# 6 0.000000 0.000000 0.000000 0.000000 0.000000 0.033821
#
#
# Mechanical properties :
#
#
# Convention : Reuss Voigt Hill
#
# Bulk Modulus (GPa) = 44.70073 45.67090 45.18582
# Shear Modulus (GPa) = 26.32498 29.36552 27.84525
#
# Velocity S-wave (km/s) = 3.67765 3.88423 3.78235
# Velocity P-wave (km/s) = 6.40309 6.60158 6.50309
#
# Compressibility (1/GPa) = 0.02237100
#
# Stress axis : x y z
#
# Youngs Moduli (GPa) = 99.57719 81.84681 71.53470
#
# Poissons Ratio (x) = 0.08307 0.25119
# Poissons Ratio (y) = 0.10106 0.17226
# Poissons Ratio (z) = 0.34966 0.19709
#
# Static dielectric constant tensor:
#      x y z
#    x 3.699940 0.000000 0.000000 
#    y 0.000000 3.622910 0.000000 
#    z 0.000000 0.000000 3.346960 
# 
# 
# High freq. dielectric constant tensor:
#      x y z
#    x 1.774800 0.000000 0.000000 
#    y 0.000000 1.743810 0.000000 
#    z 0.000000 0.000000 1.746150 
# 
# From -- ./inp_files/11864.got.cif
#   From: 2010.03.12/outbox.cif.g09.slc.cpg/sg51_6_cif.got.tgz:11864.got - 2010.04.16 13:43:02.
