data_PCOD8209966
_publ_section_title
;
Structure prediction by ZEFSAII (Michael W. Deem and Ramdas Pophale) SiO2 
 PCOD8209966
Probable space group: P M M A
;
_chemical_formula_sum "Si O2"
_cell_formula_units_Z 48
_cell_length_a 18.503242
_cell_length_b 15.336247
_cell_length_c 9.238497
_cell_angle_alpha 90.000000
_cell_angle_beta 90.000000
_cell_angle_gamma 90.000000
_cell_volume 2621.610969
_symmetry_space_group_name_H-M "P M M A"
_symmetry_group_IT_number 51
_symmetry_cell_setting 'orthorhombic'
loop_
_space_group_symop_operation_xyz
x,y,z
1/2-x,-y,z
1/2+x,-y,-z
-x,y,-z
-x,-y,-z
1/2+x,y,-z
1/2-x,y,z
x,-y,z
loop_
_atom_site_type_symbol
_atom_site_label
_atom_site_fract_x
_atom_site_fract_y
_atom_site_fract_z
Si Si1 0.080651 0.699908 0.474012
Si Si2 0.335722 0.000000 0.662214
Si Si3 0.054286 0.169455 0.223582
Si Si4 0.609480 0.809394 0.243687
Si Si5 0.667634 0.249736 0.959362
Si Si6 0.568599 0.000000 0.602775
Si Si7 0.333993 0.597774 0.255417
O O1 0.081067 0.768475 0.347846
O O2 0.113499 0.751117 0.611171
O O3 0.129281 0.622005 0.409912
O O4 0.000000 0.663394 0.500000
O O5 0.364729 0.090021 0.734866
O O6 0.359310 0.000000 0.494109
O O7 0.250000 0.000000 0.672215
O O8 0.110075 0.177244 0.091229
O O9 0.971732 0.188461 0.180058
O O10 0.064073 0.075653 0.285064
O O11 0.659468 0.753856 0.133212
O O12 0.750000 0.225518 0.917319
O O13 0.645943 0.341949 0.884098
O O14 0.500000 0.000000 0.500000
O O15 0.250000 0.603721 0.287667
O O16 0.357973 0.500000 0.212856
#
# Coordination Sequence:
#
# PCOD8209966 Si02
#       7
#     8   4   8   8   8   4   8
#     4   9  18  33  58  83 107 139 180 232 273 328
#     4  12  24  33  53  85 119 147 179 235 280 311
#     4  10  19  35  59  77 105 151 194 223 268 337
#     4  11  20  37  56  81 114 150 185 226 283 330
#     4  10  22  37  54  80 113 147 187 233 279 334
#     4  12  18  37  57  80 107 145 194 233 269 324
#     4   9  19  37  58  79 107 145 184 225 280 344
#
# _framework density 18.309353000000002
#
# number of rings (size 3 to 8) (size 9 to 14) (size 15 to 20)
#    0.000    1.833    3.333    1.500    0.000    3.000 
#    0.000    3.333    0.000   15.000    0.000    0.000 
#    0.000    0.000    0.000    0.000    0.000    0.000 
#
# Total GULP energy -594705.704530 kJ/mol
# GULP energy per Si atom -12389.702178 kJ/mol
# Density = 1.826768 g / cm^3
# Si number density = 18.309353 Si / 1000 Ang^3
#
#
#
# Elastic Constant Matrix: (Units=GPa)
#
#
# Indices 1 2 3 4 5 6 
#
# 1 79.6812 41.0261 45.2367 0.0000 0.0000 0.0000
# 2 41.0261 103.4363 41.4615 0.0000 0.0000 0.0000
# 3 45.2367 41.4615 84.3078 0.0000 0.0000 0.0000
# 4 0.0000 0.0000 0.0000 29.9034 0.0000 0.0000
# 5 0.0000 0.0000 0.0000 0.0000 33.5815 0.0000
# 6 0.0000 0.0000 0.0000 0.0000 0.0000 22.5686
#
#
#
# Elastic Compliance Matrix: (Units=1/GPa)
#
#
# Indices 1 2 3 4 5 6 
#
# 1 0.019546 -0.004420 -0.008314 0.000000 0.000000 0.000000
# 2 -0.004420 0.013041 -0.004042 0.000000 0.000000 0.000000
# 3 -0.008314 -0.004042 0.018310 0.000000 0.000000 0.000000
# 4 0.000000 0.000000 0.000000 0.033441 0.000000 0.000000
# 5 0.000000 0.000000 0.000000 0.000000 0.029778 0.000000
# 6 0.000000 0.000000 0.000000 0.000000 0.000000 0.044309
#
#
# Mechanical properties :
#
#
# Convention : Reuss Voigt Hill
#
# Bulk Modulus (GPa) = 57.65213 58.09708 57.87460
# Shear Modulus (GPa) = 25.28340 26.52411 25.90375
#
# Velocity S-wave (km/s) = 3.72008 3.81026 3.76544
# Velocity P-wave (km/s) = 7.07164 7.15242 7.11215
#
# Compressibility (1/GPa) = 0.01734541
#
# Stress axis : x y z
#
# Youngs Moduli (GPa) = 51.16221 76.68137 54.61506
#
# Poissons Ratio (x) = 0.33892 0.45406
# Poissons Ratio (y) = 0.22613 0.22074
# Poissons Ratio (z) = 0.42536 0.30993
#
# Static dielectric constant tensor:
#      x y z
#    x 3.586970 0.000000 0.000000 
#    y 0.000000 3.393620 0.000000 
#    z 0.000000 0.000000 3.413270 
# 
# 
# High freq. dielectric constant tensor:
#      x y z
#    x 1.716100 0.000000 0.000000 
#    y 0.000000 1.698520 0.000000 
#    z 0.000000 0.000000 1.709430 
# 
# From -- ./inp_files/9703.got.cif
#   From: 2010.03.12/outbox.cif.g09.slc.cpg/sg51_5_cif.got.tgz:9703.got - 2010.04.16 13:43:02.
