data_PCOD8209156
_publ_section_title
;
Structure prediction by ZEFSAII (Michael W. Deem and Ramdas Pophale) SiO2 
 PCOD8209156
Probable space group: P M M A
;
_chemical_formula_sum "Si O2"
_cell_formula_units_Z 48
_cell_length_a 9.694976
_cell_length_b 9.002441
_cell_length_c 29.447291
_cell_angle_alpha 90.000000
_cell_angle_beta 90.000000
_cell_angle_gamma 90.000000
_cell_volume 2570.113899
_symmetry_space_group_name_H-M "P M M A"
_symmetry_group_IT_number 51
_symmetry_cell_setting 'orthorhombic'
loop_
_space_group_symop_operation_xyz
x,y,z
1/2-x,-y,z
1/2+x,-y,-z
-x,y,-z
-x,-y,-z
1/2+x,y,-z
1/2-x,y,z
x,-y,z
loop_
_atom_site_type_symbol
_atom_site_label
_atom_site_fract_x
_atom_site_fract_y
_atom_site_fract_z
Si Si1 0.913577 0.833155 0.282353
Si Si2 0.488222 0.170488 0.103939
Si Si3 0.250000 0.325465 0.050628
Si Si4 0.412092 0.326743 0.808002
Si Si5 0.908977 0.674607 0.373589
Si Si6 0.250000 0.835342 0.957984
Si Si7 0.908088 0.323539 0.541623
O O1 0.750000 0.836092 0.281593
O O2 0.966924 0.737693 0.239719
O O3 0.963293 0.756517 0.328660
O O4 0.973602 0.000000 0.279552
O O5 0.380789 0.261803 0.075413
O O6 0.505051 0.241687 0.153220
O O7 0.623937 0.187243 0.074966
O O8 0.442475 0.000000 0.109984
O O9 0.250000 0.500000 0.054535
O O10 0.250000 0.284070 0.997709
O O11 0.250000 0.296835 0.814182
O O12 0.447057 0.500000 0.810060
O O13 0.750000 0.716788 0.385724
O O14 0.920130 0.500000 0.364959
O O15 0.011859 0.727777 0.413169
O O16 0.250000 0.000000 0.980229
O O17 0.750000 0.261138 0.540535
O O18 0.902085 0.500000 0.538761
O O19 0.000000 0.260832 0.500000
#
# Coordination Sequence:
#
# PCOD8209156 Si02
#       7
#     8   8   4   8   8   4   8
#     4   9  17  29  48  74 103 135 173 216 262 314
#     4  11  22  39  61  84 112 148 187 228 276 334
#     4  12  26  40  56  82 116 150 186 230 281 330
#     4  10  19  32  54  84 114 140 175 225 276 324
#     4   9  16  27  45  70  99 129 165 211 261 308
#     4  10  22  40  62  86 110 144 188 230 275 332
#     4   9  16  26  43  69 101 135 170 210 258 310
#
# _framework density 18.676214999999999
#
# number of rings (size 3 to 8) (size 9 to 14) (size 15 to 20)
#    0.000    2.167    0.833    3.250    0.000    8.000 
#    0.000    0.000    1.833    1.000    0.000    0.000 
#    0.000    0.000    0.000    0.000    0.000    0.000 
#
# Total GULP energy -595152.363634 kJ/mol
# GULP energy per Si atom -12399.007576 kJ/mol
# Density = 1.863371 g / cm^3
# Si number density = 18.676215 Si / 1000 Ang^3
#
#
#
# Elastic Constant Matrix: (Units=GPa)
#
#
# Indices 1 2 3 4 5 6 
#
# 1 80.6848 29.3253 41.3291 0.0000 0.0000 0.0000
# 2 29.3253 100.8415 57.0308 0.0000 0.0000 0.0000
# 3 41.3291 57.0308 151.1411 0.0000 0.0000 0.0000
# 4 0.0000 0.0000 0.0000 14.1647 0.0000 0.0000
# 5 0.0000 0.0000 0.0000 0.0000 -0.9390 0.0000
# 6 0.0000 0.0000 0.0000 0.0000 0.0000 18.7848
#
#
#
# Elastic Compliance Matrix: (Units=1/GPa)
#
#
# Indices 1 2 3 4 5 6 
#
# 1 0.014924 -0.002583 -0.003106 0.000000 0.000000 0.000000
# 2 -0.002583 0.013054 -0.004219 0.000000 0.000000 0.000000
# 3 -0.003106 -0.004219 0.009058 0.000000 0.000000 0.000000
# 4 0.000000 0.000000 0.000000 0.070598 0.000000 0.000000
# 5 0.000000 0.000000 0.000000 0.000000 -1.064939 0.000000
# 6 0.000000 0.000000 0.000000 0.000000 0.000000 0.053235
#
#
# Mechanical properties :
#
#
# Convention : Reuss Voigt Hill
#
# Bulk Modulus (GPa) = 58.07813 65.33754 61.70784
# Shear Modulus (GPa) = -5.69143 20.06757 7.18807
#
# Velocity S-wave (km/s) = -1.74758 3.28151 1.96396
# Velocity P-wave (km/s) = 5.20508 7.02980 6.18510
#
# Compressibility (1/GPa) = 0.01721818
#
# Stress axis : x y z
#
# Youngs Moduli (GPa) = 67.00673 76.60468 110.40208
#
# Poissons Ratio (x) = 0.19789 0.34292
# Poissons Ratio (y) = 0.17310 0.46582
# Poissons Ratio (z) = 0.20813 0.32322
#
# Static dielectric constant tensor:
#      x y z
#    x 3.148000 0.000000 0.000000 
#    y 0.000000 3.397980 0.000000 
#    z 0.000000 0.000000 3.605200 
# 
# 
# High freq. dielectric constant tensor:
#      x y z
#    x 1.701600 0.000000 0.000000 
#    y 0.000000 1.713750 0.000000 
#    z 0.000000 0.000000 1.741270 
# 
# From -- ./inp_files/37142.got.cif
#   From: 2010.03.12/outbox.cif.g09.slc.cpg/sg51_19_cif.got.tgz:37142.got - 2010.04.16 13:43:02.
