data_PCOD8209503
_publ_section_title
;
Structure prediction by ZEFSAII (Michael W. Deem and Ramdas Pophale) SiO2 
 PCOD8209503
Probable space group: P M M A
;
_chemical_formula_sum "Si O2"
_cell_formula_units_Z 48
_cell_length_a 17.746796
_cell_length_b 14.123801
_cell_length_c 10.282482
_cell_angle_alpha 90.000000
_cell_angle_beta 90.000000
_cell_angle_gamma 90.000000
_cell_volume 2577.326890
_symmetry_space_group_name_H-M "P M M A"
_symmetry_group_IT_number 51
_symmetry_cell_setting 'orthorhombic'
loop_
_space_group_symop_operation_xyz
x,y,z
1/2-x,-y,z
1/2+x,-y,-z
-x,y,-z
-x,-y,-z
1/2+x,y,-z
1/2-x,y,z
x,-y,z
loop_
_atom_site_type_symbol
_atom_site_label
_atom_site_fract_x
_atom_site_fract_y
_atom_site_fract_z
Si Si1 0.162664 0.889944 0.751315
Si Si2 0.160377 0.603177 0.604430
Si Si3 0.339200 0.205988 0.487518
Si Si4 0.339435 0.108767 0.228455
Si Si5 0.411429 0.212686 0.987021
Si Si6 0.662159 0.607115 0.098908
O O1 0.250000 0.863350 0.774682
O O2 0.137591 0.862473 0.605791
O O3 0.148001 0.000000 0.773227
O O4 0.112159 0.831581 0.850136
O O5 0.250000 0.602849 0.601866
O O6 0.130477 0.500000 0.555988
O O7 0.128880 0.687513 0.513030
O O8 0.134865 0.621008 0.752583
O O9 0.250000 0.209303 0.475683
O O10 0.372509 0.164392 0.353855
O O11 0.250000 0.117200 0.219930
O O12 0.374166 0.152985 0.100636
O O13 0.364642 0.000000 0.239617
O O14 0.500000 0.208610 0.000000
O O15 0.383867 0.321560 0.993347
O O16 0.750000 0.631024 0.085635
O O17 0.645785 0.500000 0.052316
#
# Coordination Sequence:
#
# PCOD8209503 Si02
#       6
#     8   8   8   8   8   8
#     4  10  19  33  56  80 100 132 187 241 275 318
#     4   8  13  24  49  83 109 128 160 216 275 321
#     4   9  16  30  54  82 107 132 173 229 283 328
#     4  10  21  37  56  79 110 145 180 227 284 327
#     4  12  24  36  52  77 112 153 184 220 266 324
#     4   9  17  33  59  85 106 134 179 230 273 314
#
# _framework density 18.623947000000001
#
# number of rings (size 3 to 8) (size 9 to 14) (size 15 to 20)
#    0.000    2.333    1.667    3.500    0.000    5.000 
#    0.000    1.667    0.000    5.000    0.000    2.333 
#    0.000    0.000    0.000    0.000    0.000    0.000 
#
# Total GULP energy -595080.994396 kJ/mol
# GULP energy per Si atom -12397.520717 kJ/mol
# Density = 1.858156 g / cm^3
# Si number density = 18.623947 Si / 1000 Ang^3
#
#
#
# Elastic Constant Matrix: (Units=GPa)
#
#
# Indices 1 2 3 4 5 6 
#
# 1 -22.2284 37.8186 21.2188 0.0000 0.0000 0.0000
# 2 37.8186 146.5113 44.6020 0.0000 0.0000 0.0000
# 3 21.2188 44.6020 74.4155 0.0000 0.0000 0.0000
# 4 0.0000 0.0000 0.0000 35.8188 0.0000 0.0000
# 5 0.0000 0.0000 0.0000 0.0000 1.9743 0.0000
# 6 0.0000 0.0000 0.0000 0.0000 0.0000 8.9736
#
#
#
# Elastic Compliance Matrix: (Units=1/GPa)
#
#
# Indices 1 2 3 4 5 6 
#
# 1 -0.029816 0.006248 0.004757 0.000000 0.000000 0.000000
# 2 0.006248 0.007039 -0.006001 0.000000 0.000000 0.000000
# 3 0.004757 -0.006001 0.015678 0.000000 0.000000 0.000000
# 4 0.000000 0.000000 0.000000 0.027918 0.000000 0.000000
# 5 0.000000 0.000000 0.000000 0.000000 0.506501 0.000000
# 6 0.000000 0.000000 0.000000 0.000000 0.000000 0.111438
#
#
# Mechanical properties :
#
#
# Convention : Reuss Voigt Hill
#
# Bulk Modulus (GPa) = 343.63061 45.10859 194.36960
# Shear Modulus (GPa) = 7.94004 15.69061 11.81532
#
# Velocity S-wave (km/s) = 2.06703 2.90573 2.52149
# Velocity P-wave (km/s) = 13.80607 5.96079 10.63340
#
# Compressibility (1/GPa) = 0.00291010
#
# Stress axis : x y z
#
# Youngs Moduli (GPa) = -33.53886 142.05848 63.78215
#
# Poissons Ratio (x) = -0.88762 -0.30340
# Poissons Ratio (y) = 0.20956 0.38274
# Poissons Ratio (z) = 0.15954 0.85246
#
# Static dielectric constant tensor:
#      x y z
#    x 2.918230 0.000000 0.000000 
#    y 0.000000 3.914530 0.000000 
#    z 0.000000 0.000000 3.010350 
# 
# 
# High freq. dielectric constant tensor:
#      x y z
#    x 1.668820 0.000000 0.000000 
#    y 0.000000 1.747400 0.000000 
#    z 0.000000 0.000000 1.714010 
# 
# From -- ./inp_files/9613.got.cif
#   From: 2010.03.12/outbox.cif.g09.slc.cpg/sg51_5_cif.got.tgz:9613.got - 2010.04.16 13:43:02.
