data_PCOD8209850
_publ_section_title
;
Structure prediction by ZEFSAII (Michael W. Deem and Ramdas Pophale) SiO2 
 PCOD8209850
Probable space group: P M M A
;
_chemical_formula_sum "Si O2"
_cell_formula_units_Z 64
_cell_length_a 24.916069
_cell_length_b 8.619155
_cell_length_c 14.738342
_cell_angle_alpha 90.000000
_cell_angle_beta 90.000000
_cell_angle_gamma 90.000000
_cell_volume 3165.139426
_symmetry_space_group_name_H-M "P M M A"
_symmetry_group_IT_number 51
_symmetry_cell_setting 'orthorhombic'
loop_
_space_group_symop_operation_xyz
x,y,z
1/2-x,-y,z
1/2+x,-y,-z
-x,y,-z
-x,-y,-z
1/2+x,y,-z
1/2-x,y,z
x,-y,z
loop_
_atom_site_type_symbol
_atom_site_label
_atom_site_fract_x
_atom_site_fract_y
_atom_site_fract_z
Si Si1 0.907392 0.817966 0.708070
Si Si2 0.334591 0.176301 0.975543
Si Si3 0.546269 0.175300 0.063828
Si Si4 0.489070 0.321679 0.764908
Si Si5 0.188696 0.321905 0.783496
Si Si6 0.600256 0.818646 0.345720
Si Si7 0.190756 0.182230 0.172308
Si Si8 0.938402 0.682309 0.516745
O O1 0.957613 0.783107 0.774184
O O2 0.853764 0.752501 0.757956
O O3 0.918633 0.722201 0.617367
O O4 0.902796 0.000000 0.686777
O O5 0.398263 0.182623 0.988868
O O6 0.316047 0.271370 0.888111
O O7 0.314340 0.000000 0.961501
O O8 0.312359 0.250099 0.069409
O O9 0.549512 0.287621 0.150067
O O10 0.533380 0.000000 0.095869
O O11 0.500000 0.241454 0.000000
O O12 0.505723 0.500000 0.757767
O O13 0.453741 0.275098 0.678852
O O14 0.250000 0.297914 0.752032
O O15 0.171016 0.500000 0.776508
O O16 0.151784 0.225681 0.714378
O O17 0.604411 0.772226 0.451533
O O18 0.590830 0.000000 0.332268
O O19 0.250000 0.220082 0.211679
O O20 0.180283 0.000000 0.162671
O O21 0.932957 0.500000 0.500539
O O22 0.000000 0.737530 0.500000
#
# Coordination Sequence:
#
# PCOD8209850 Si02
#       8
#     8   8   8   8   8   8   8   8
#     4  11  22  38  63  92 121 159 204 252 303 363
#     4  10  19  34  60  88 117 159 208 253 294 349
#     4  10  20  34  53  82 119 160 205 251 300 358
#     4  12  23  36  56  85 123 161 195 244 307 366
#     4  11  24  41  61  88 125 165 203 250 306 361
#     4  12  24  40  64  91 120 156 200 250 300 361
#     4   9  19  37  61  90 122 158 204 255 300 343
#     4  11  23  40  64  92 124 159 195 246 306 370
#
# _framework density 20.220279000000001
#
# number of rings (size 3 to 8) (size 9 to 14) (size 15 to 20)
#    0.000    1.250    2.500    4.500    0.000    4.250 
#    0.000    3.125    0.000    5.250    0.000    0.000 
#    0.000    0.000    0.000    0.000    0.000    0.000 
#
# Total GULP energy -793571.152558 kJ/mol
# GULP energy per Si atom -12399.549259 kJ/mol
# Density = 2.017426 g / cm^3
# Si number density = 20.220279 Si / 1000 Ang^3
#
#
#
# Elastic Constant Matrix: (Units=GPa)
#
#
# Indices 1 2 3 4 5 6 
#
# 1 114.0856 23.8108 43.6421 0.0000 0.0000 0.0000
# 2 23.8108 72.1497 24.0536 0.0000 0.0000 0.0000
# 3 43.6421 24.0536 104.0477 0.0000 0.0000 0.0000
# 4 0.0000 0.0000 0.0000 8.4573 0.0000 0.0000
# 5 0.0000 0.0000 0.0000 0.0000 23.6666 0.0000
# 6 0.0000 0.0000 0.0000 0.0000 0.0000 22.6884
#
#
#
# Elastic Compliance Matrix: (Units=1/GPa)
#
#
# Indices 1 2 3 4 5 6 
#
# 1 0.010758 -0.002217 -0.004000 0.000000 0.000000 0.000000
# 2 -0.002217 0.015474 -0.002647 0.000000 0.000000 0.000000
# 3 -0.004000 -0.002647 0.011901 0.000000 0.000000 0.000000
# 4 0.000000 0.000000 0.000000 0.118241 0.000000 0.000000
# 5 0.000000 0.000000 0.000000 0.000000 0.042254 0.000000
# 6 0.000000 0.000000 0.000000 0.000000 0.000000 0.044075
#
#
# Mechanical properties :
#
#
# Convention : Reuss Voigt Hill
#
# Bulk Modulus (GPa) = 49.00845 52.58845 50.79845
# Shear Modulus (GPa) = 18.71027 24.21423 21.46225
#
# Velocity S-wave (km/s) = 3.04521 3.46428 3.26148
# Velocity P-wave (km/s) = 6.05428 6.48582 6.27376
#
# Compressibility (1/GPa) = 0.02040465
#
# Stress axis : x y z
#
# Youngs Moduli (GPa) = 92.95263 64.62317 84.02818
#
# Poissons Ratio (x) = 0.14326 0.33611
# Poissons Ratio (y) = 0.20607 0.22246
# Poissons Ratio (z) = 0.37181 0.17109
#
# Static dielectric constant tensor:
#      x y z
#    x 3.746700 0.000000 0.000000 
#    y 0.000000 3.460460 0.000000 
#    z 0.000000 0.000000 3.755470 
# 
# 
# High freq. dielectric constant tensor:
#      x y z
#    x 1.788940 0.000000 0.000000 
#    y 0.000000 1.774490 0.000000 
#    z 0.000000 0.000000 1.791760 
# 
# From -- ./inp_files/26186.got.cif
#   From: 2010.03.12/outbox.cif.g09.slc.cpg/sg51_14_cif.got.tgz:26186.got - 2010.04.16 13:43:02.
