data_PCOD8209283
_publ_section_title
;
Structure prediction by ZEFSAII (Michael W. Deem and Ramdas Pophale) SiO2 
 PCOD8209283
Probable space group: P M M A
;
_chemical_formula_sum "Si O2"
_cell_formula_units_Z 40
_cell_length_a 9.024272
_cell_length_b 25.461650
_cell_length_c 9.996432
_cell_angle_alpha 90.000000
_cell_angle_beta 90.000000
_cell_angle_gamma 90.000000
_cell_volume 2296.908722
_symmetry_space_group_name_H-M "P M M A"
_symmetry_group_IT_number 51
_symmetry_cell_setting 'orthorhombic'
loop_
_space_group_symop_operation_xyz
x,y,z
1/2-x,-y,z
1/2+x,-y,-z
-x,y,-z
-x,-y,-z
1/2+x,y,-z
1/2-x,y,z
x,-y,z
loop_
_atom_site_type_symbol
_atom_site_label
_atom_site_fract_x
_atom_site_fract_y
_atom_site_fract_z
Si Si1 0.918694 0.000000 0.637053
Si Si2 0.424097 0.814006 0.861949
Si Si3 0.077538 0.307394 0.864758
Si Si4 0.574813 0.886040 0.645231
Si Si5 0.920621 0.500000 0.361537
Si Si6 0.424221 0.386361 0.642878
O O1 0.954420 0.944551 0.710677
O O2 0.000000 0.000000 0.500000
O O3 0.750000 0.000000 0.594722
O O4 0.250000 0.826224 0.870446
O O5 0.456687 0.753108 0.832961
O O6 0.497587 0.844730 0.740870
O O7 0.500000 0.831847 0.000000
O O8 0.250000 0.317726 0.884407
O O9 0.013457 0.342424 0.743698
O O10 0.000000 0.325907 0.000000
O O11 0.500000 0.881442 0.500000
O O12 0.750000 0.874114 0.633467
O O13 0.750000 0.500000 0.396782
O O14 0.960476 0.555743 0.290668
O O15 0.000000 0.500000 0.500000
O O16 0.500000 0.378655 0.500000
O O17 0.250000 0.378831 0.620960
#
# Coordination Sequence:
#
# PCOD8209283 Si02
#       6
#     4   8   8   8   4   8
#     4   8  16  30  49  72  99 128 158 192 236 284
#     4  10  20  35  52  71  96 129 165 202 244 291
#     4   9  19  34  50  68  94 126 160 195 237 285
#     4  10  19  33  53  77 102 129 161 199 239 284
#     4   8  14  26  45  66  92 122 152 188 233 278
#     4   9  17  30  48  71  95 122 156 195 235 279
#
# _framework density 17.414711
#
# number of rings (size 3 to 8) (size 9 to 14) (size 15 to 20)
#    0.000    2.800    0.000    1.200    0.000    3.200 
#    0.000    3.000    0.000    0.000    0.000    0.000 
#    0.000    0.000    0.000    0.000    0.000    0.000 
#
# Total GULP energy -495534.109123 kJ/mol
# GULP energy per Si atom -12388.352728 kJ/mol
# Density = 1.737507 g / cm^3
# Si number density = 17.414711 Si / 1000 Ang^3
#
#
#
# Elastic Constant Matrix: (Units=GPa)
#
#
# Indices 1 2 3 4 5 6 
#
# 1 64.5967 50.2655 47.4824 0.0000 0.0000 0.0000
# 2 50.2655 119.9370 82.1858 0.0000 0.0000 0.0000
# 3 47.4824 82.1858 112.2154 0.0000 0.0000 0.0000
# 4 0.0000 0.0000 0.0000 3.2106 0.0000 0.0000
# 5 0.0000 0.0000 0.0000 0.0000 30.4414 0.0000
# 6 0.0000 0.0000 0.0000 0.0000 0.0000 22.8996
#
#
#
# Elastic Compliance Matrix: (Units=1/GPa)
#
#
# Indices 1 2 3 4 5 6 
#
# 1 0.024698 -0.006403 -0.005761 0.000000 0.000000 0.000000
# 2 -0.006403 0.018398 -0.010765 0.000000 0.000000 0.000000
# 3 -0.005761 -0.010765 0.019233 0.000000 0.000000 0.000000
# 4 0.000000 0.000000 0.000000 0.311464 0.000000 0.000000
# 5 0.000000 0.000000 0.000000 0.000000 0.032850 0.000000
# 6 0.000000 0.000000 0.000000 0.000000 0.000000 0.043669
#
#
# Mechanical properties :
#
#
# Convention : Reuss Voigt Hill
#
# Bulk Modulus (GPa) = 60.71364 72.95740 66.83552
# Shear Modulus (GPa) = 9.96690 19.09801 14.53246
#
# Velocity S-wave (km/s) = 2.39493 3.31518 2.89189
# Velocity P-wave (km/s) = 6.52585 7.52589 7.04364
#
# Compressibility (1/GPa) = 0.01647076
#
# Stress axis : x y z
#
# Youngs Moduli (GPa) = 40.48915 54.35365 51.99299
#
# Poissons Ratio (x) = 0.34804 0.29952
# Poissons Ratio (y) = 0.25926 0.55971
# Poissons Ratio (z) = 0.23325 0.58512
#
# Static dielectric constant tensor:
#      x y z
#    x 3.250110 0.000000 0.000000 
#    y 0.000000 4.031830 0.000000 
#    z 0.000000 0.000000 3.002130 
# 
# 
# High freq. dielectric constant tensor:
#      x y z
#    x 1.679630 0.000000 0.000000 
#    y 0.000000 1.691270 0.000000 
#    z 0.000000 0.000000 1.642660 
# 
# From -- ./inp_files/5512.got.cif
#   From: 2010.03.12/outbox.cif.g09.slc.cpg/sg51_3_cif.got.tgz:5512.got - 2010.04.16 13:43:02.
