data_PCOD8209131
_publ_section_title
;
Structure prediction by ZEFSAII (Michael W. Deem and Ramdas Pophale) SiO2 
 PCOD8209131
Probable space group: P M M A
;
_chemical_formula_sum "Si O2"
_cell_formula_units_Z 32
_cell_length_a 18.467470
_cell_length_b 9.111164
_cell_length_c 10.244391
_cell_angle_alpha 90.000000
_cell_angle_beta 90.000000
_cell_angle_gamma 90.000000
_cell_volume 1723.722744
_symmetry_space_group_name_H-M "P M M A"
_symmetry_group_IT_number 51
_symmetry_cell_setting 'orthorhombic'
loop_
_space_group_symop_operation_xyz
x,y,z
1/2-x,-y,z
1/2+x,-y,-z
-x,y,-z
-x,-y,-z
1/2+x,y,-z
1/2-x,y,z
x,-y,z
loop_
_atom_site_type_symbol
_atom_site_label
_atom_site_fract_x
_atom_site_fract_y
_atom_site_fract_z
Si Si1 0.414583 0.338607 0.016887
Si Si2 0.084678 0.326465 0.730991
Si Si3 0.333494 0.168324 0.510109
Si Si4 0.432741 0.171677 0.266945
O O1 0.383694 0.500000 0.053048
O O2 0.384671 0.285878 0.875738
O O3 0.500000 0.348951 0.000000
O O4 0.395330 0.226028 0.132283
O O5 0.073148 0.500000 0.718415
O O6 0.143855 0.271347 0.629246
O O7 0.008004 0.250794 0.702042
O O8 0.250000 0.196351 0.477801
O O9 0.378125 0.211591 0.382155
O O10 0.348341 0.000000 0.549464
O O11 0.447738 0.000000 0.254984
#
# Coordination Sequence:
#
# PCOD8209131 Si02
#       4
#     8   8   8   8
#     4   8  16  31  50  75 105 131 161 208 257 298
#     4  10  20  34  54  79 105 133 168 210 255 304
#     4  10  22  38  52  71 103 138 172 212 254 298
#     4  10  19  32  54  80 103 132 171 211 254 304
#
# _framework density 18.564471000000001
#
# number of rings (size 3 to 8) (size 9 to 14) (size 15 to 20)
#    0.000    2.500    0.000    3.750    0.000   11.000 
#    0.000    1.250    0.000    4.500    0.000    0.000 
#    0.000    0.000    0.000    0.000    0.000    0.000 
#
# Total GULP energy -396746.682597 kJ/mol
# GULP energy per Si atom -12398.333831 kJ/mol
# Density = 1.852222 g / cm^3
# Si number density = 18.564471 Si / 1000 Ang^3
#
#
#
# Elastic Constant Matrix: (Units=GPa)
#
#
# Indices 1 2 3 4 5 6 
#
# 1 47.7383 21.8408 29.4368 0.0000 0.0000 0.0000
# 2 21.8408 77.0127 50.8476 0.0000 0.0000 0.0000
# 3 29.4368 50.8476 125.8314 0.0000 0.0000 0.0000
# 4 0.0000 0.0000 0.0000 32.5052 0.0000 0.0000
# 5 0.0000 0.0000 0.0000 0.0000 4.0985 0.0000
# 6 0.0000 0.0000 0.0000 0.0000 0.0000 8.5880
#
#
#
# Elastic Compliance Matrix: (Units=1/GPa)
#
#
# Indices 1 2 3 4 5 6 
#
# 1 0.025575 -0.004505 -0.004163 0.000000 0.000000 0.000000
# 2 -0.004505 0.018503 -0.006423 0.000000 0.000000 0.000000
# 3 -0.004163 -0.006423 0.011517 0.000000 0.000000 0.000000
# 4 0.000000 0.000000 0.000000 0.030764 0.000000 0.000000
# 5 0.000000 0.000000 0.000000 0.000000 0.243990 0.000000
# 6 0.000000 0.000000 0.000000 0.000000 0.000000 0.116442
#
#
# Mechanical properties :
#
#
# Convention : Reuss Voigt Hill
#
# Bulk Modulus (GPa) = 39.34862 50.53697 44.94279
# Shear Modulus (GPa) = 10.29985 18.93549 14.61767
#
# Velocity S-wave (km/s) = 2.35801 3.19719 2.80911
# Velocity P-wave (km/s) = 5.35306 6.39616 5.89772
#
# Compressibility (1/GPa) = 0.02541385
#
# Stress axis : x y z
#
# Youngs Moduli (GPa) = 39.10017 54.04428 86.83149
#
# Poissons Ratio (x) = 0.24345 0.36146
# Poissons Ratio (y) = 0.17614 0.55774
# Poissons Ratio (z) = 0.16276 0.34714
#
# Static dielectric constant tensor:
#      x y z
#    x 3.057090 0.000000 0.000000 
#    y 0.000000 3.510950 0.000000 
#    z 0.000000 0.000000 3.970250 
# 
# 
# High freq. dielectric constant tensor:
#      x y z
#    x 1.681890 0.000000 0.000000 
#    y 0.000000 1.725650 0.000000 
#    z 0.000000 0.000000 1.737870 
# 
# From -- ./inp_files/10264.got.cif
#   From: 2010.03.12/outbox.cif.g09.slc.cpg/sg51_6_cif.got.tgz:10264.got - 2010.04.16 13:43:02.
