data_PCOD8209314
_publ_section_title
;
Structure prediction by ZEFSAII (Michael W. Deem and Ramdas Pophale) SiO2 
 PCOD8209314
Probable space group: P M M A
;
_chemical_formula_sum "Si O2"
_cell_formula_units_Z 40
_cell_length_a 8.773443
_cell_length_b 25.555059
_cell_length_c 9.411223
_cell_angle_alpha 90.000000
_cell_angle_beta 90.000000
_cell_angle_gamma 90.000000
_cell_volume 2110.051285
_symmetry_space_group_name_H-M "P M M A"
_symmetry_group_IT_number 51
_symmetry_cell_setting 'orthorhombic'
loop_
_space_group_symop_operation_xyz
x,y,z
1/2-x,-y,z
1/2+x,-y,-z
-x,y,-z
-x,-y,-z
1/2+x,y,-z
1/2-x,y,z
x,-y,z
loop_
_atom_site_type_symbol
_atom_site_label
_atom_site_fract_x
_atom_site_fract_y
_atom_site_fract_z
Si Si1 0.067859 0.500000 0.157573
Si Si2 0.929363 0.112402 0.654633
Si Si3 0.427597 0.314904 0.854203
Si Si4 0.429778 0.802923 0.853089
Si Si5 0.425862 0.000000 0.348802
Si Si6 0.430398 0.408466 0.656131
O O1 0.250000 0.500000 0.149376
O O2 0.009899 0.550378 0.241275
O O3 0.000000 0.500000 0.000000
O O4 0.750000 0.123688 0.648787
O O5 0.000000 0.111178 0.500000
O O6 0.011113 0.159248 0.732835
O O7 0.965386 0.055316 0.729963
O O8 0.250000 0.315015 0.883213
O O9 0.485437 0.256263 0.819052
O O10 0.469053 0.351512 0.720813
O O11 0.500000 0.336469 0.000000
O O12 0.250000 0.806393 0.862612
O O13 0.500000 0.822567 0.000000
O O14 0.500000 0.000000 0.500000
O O15 0.250000 0.000000 0.383842
O O16 0.500000 0.412483 0.500000
O O17 0.250000 0.419276 0.649251
#
# Coordination Sequence:
#
# PCOD8209314 Si02
#       6
#     4   8   8   8   4   8
#     4  12  25  42  63  88 116 150 188 228 271 324
#     4  10  19  33  53  78 105 138 177 222 270 323
#     4   9  20  37  58  81 108 142 183 224 269 323
#     4  10  20  36  55  79 109 143 180 223 271 323
#     4   8  16  30  49  72 101 134 174 218 266 320
#     4  11  23  40  60  86 117 150 185 227 274 321
#
# _framework density 18.956885
#
# number of rings (size 3 to 8) (size 9 to 14) (size 15 to 20)
#    0.000    2.000    0.000    3.600    0.000    5.600 
#    0.000    2.500    0.000    0.000    0.000    0.000 
#    0.000    0.000    0.000    0.000    0.000    0.000 
#
# Total GULP energy -495775.298911 kJ/mol
# GULP energy per Si atom -12394.382473 kJ/mol
# Density = 1.891374 g / cm^3
# Si number density = 18.956885 Si / 1000 Ang^3
#
#
#
# Elastic Constant Matrix: (Units=GPa)
#
#
# Indices 1 2 3 4 5 6 
#
# 1 90.1930 51.3030 48.5226 0.0000 0.0000 0.0000
# 2 51.3030 123.6608 70.0007 0.0000 0.0000 0.0000
# 3 48.5226 70.0007 121.4154 0.0000 0.0000 0.0000
# 4 0.0000 0.0000 0.0000 -12.0309 0.0000 0.0000
# 5 0.0000 0.0000 0.0000 0.0000 36.8485 0.0000
# 6 0.0000 0.0000 0.0000 0.0000 0.0000 28.2795
#
#
#
# Elastic Compliance Matrix: (Units=1/GPa)
#
#
# Indices 1 2 3 4 5 6 
#
# 1 0.015560 -0.004357 -0.003706 0.000000 0.000000 0.000000
# 2 -0.004357 0.013225 -0.005883 0.000000 0.000000 0.000000
# 3 -0.003706 -0.005883 0.013109 0.000000 0.000000 0.000000
# 4 0.000000 0.000000 0.000000 -0.083120 0.000000 0.000000
# 5 0.000000 0.000000 0.000000 0.000000 0.027138 0.000000
# 6 0.000000 0.000000 0.000000 0.000000 0.000000 0.035361
#
#
# Mechanical properties :
#
#
# Convention : Reuss Voigt Hill
#
# Bulk Modulus (GPa) = 71.42700 74.99130 73.20915
# Shear Modulus (GPa) = 92.87942 21.64895 57.26419
#
# Velocity S-wave (km/s) = 7.00724 3.38303 5.50211
# Velocity P-wave (km/s) = 10.16017 7.40976 8.89195
#
# Compressibility (1/GPa) = 0.01400031
#
# Stress axis : x y z
#
# Youngs Moduli (GPa) = 64.26874 75.61651 76.28236
#
# Poissons Ratio (x) = 0.32948 0.28271
# Poissons Ratio (y) = 0.28004 0.44878
# Poissons Ratio (z) = 0.23819 0.44486
#
# Static dielectric constant tensor:
#      x y z
#    x 3.618510 0.000000 0.000000 
#    y 0.000000 4.176830 0.000000 
#    z 0.000000 0.000000 3.930540 
# 
# 
# High freq. dielectric constant tensor:
#      x y z
#    x 1.748820 0.000000 0.000000 
#    y 0.000000 1.758780 0.000000 
#    z 0.000000 0.000000 1.719010 
# 
# From -- ./inp_files/5616.got.cif
#   From: 2010.03.12/outbox.cif.g09.slc.cpg/sg51_3_cif.got.tgz:5616.got - 2010.04.16 13:43:02.
