data_PCOD8209806
_publ_section_title
;
Structure prediction by ZEFSAII (Michael W. Deem and Ramdas Pophale) SiO2 
 PCOD8209806
Probable space group: P M M A
;
_chemical_formula_sum "Si O2"
_cell_formula_units_Z 64
_cell_length_a 18.141409
_cell_length_b 19.487007
_cell_length_c 9.690171
_cell_angle_alpha 90.000000
_cell_angle_beta 90.000000
_cell_angle_gamma 90.000000
_cell_volume 3425.686347
_symmetry_space_group_name_H-M "P M M A"
_symmetry_group_IT_number 51
_symmetry_cell_setting 'orthorhombic'
loop_
_space_group_symop_operation_xyz
x,y,z
1/2-x,-y,z
1/2+x,-y,-z
-x,y,-z
-x,-y,-z
1/2+x,y,-z
1/2-x,y,z
x,-y,z
loop_
_atom_site_type_symbol
_atom_site_label
_atom_site_fract_x
_atom_site_fract_y
_atom_site_fract_z
Si Si1 0.544609 0.424102 0.875719
Si Si2 0.406296 0.811302 0.120651
Si Si3 0.943331 0.422768 0.384926
Si Si4 0.663563 0.319048 0.245400
Si Si5 0.835100 0.921097 0.684715
Si Si6 0.425790 0.920867 0.576328
Si Si7 0.570202 0.812067 0.191853
Si Si8 0.167550 0.671639 0.077067
O O1 0.570373 0.500000 0.922001
O O2 0.490752 0.428140 0.750155
O O3 0.616505 0.380551 0.838892
O O4 0.500000 0.387493 0.000000
O O5 0.379087 0.875570 0.207391
O O6 0.485165 0.787618 0.182312
O O7 0.350794 0.747749 0.128765
O O8 0.406906 0.834464 0.961580
O O9 0.915588 0.500000 0.426587
O O10 0.873338 0.373595 0.352186
O O11 0.000000 0.392979 0.500000
O O12 0.750000 0.310248 0.285319
O O13 0.619938 0.247561 0.258906
O O14 0.656478 0.341817 0.086157
O O15 0.750000 0.903603 0.698424
O O16 0.858632 0.905473 0.527582
O O17 0.853040 0.000000 0.720760
O O18 0.500000 0.898023 0.500000
O O19 0.416800 0.878473 0.715441
O O20 0.428934 0.000000 0.620791
O O21 0.250000 0.655410 0.122252
#
# Coordination Sequence:
#
# PCOD8209806 Si02
#       8
#     8   8   8   8   8   8   8   8
#     4  10  19  34  58  84 110 143 187 232 275 330
#     4  10  20  35  57  85 114 150 191 228 281 337
#     4  10  21  38  59  83 112 149 188 229 279 334
#     4  10  21  37  57  83 114 147 187 233 280 334
#     4  10  21  38  59  83 114 149 185 230 285 342
#     4  10  20  37  58  82 111 146 188 232 278 329
#     4  10  21  35  58  85 113 150 188 237 280 327
#     4  10  20  34  56  84 115 147 184 234 281 328
#
# _framework density 18.682386000000001
#
# number of rings (size 3 to 8) (size 9 to 14) (size 15 to 20)
#    0.000    2.000    2.500    1.125    1.750    2.500 
#    2.250    3.125    0.000    3.750    0.000    0.000 
#    0.000    0.000    0.000    0.000    0.000    0.000 
#
# Total GULP energy -793438.152799 kJ/mol
# GULP energy per Si atom -12397.471137 kJ/mol
# Density = 1.863986 g / cm^3
# Si number density = 18.682386 Si / 1000 Ang^3
#
#
#
# Elastic Constant Matrix: (Units=GPa)
#
#
# Indices 1 2 3 4 5 6 
#
# 1 122.8306 57.9941 31.9437 0.0000 0.0000 0.0000
# 2 57.9941 86.6748 37.4481 0.0000 0.0000 0.0000
# 3 31.9437 37.4481 61.3219 0.0000 0.0000 0.0000
# 4 0.0000 0.0000 0.0000 30.0490 0.0000 0.0000
# 5 0.0000 0.0000 0.0000 0.0000 24.6583 0.0000
# 6 0.0000 0.0000 0.0000 0.0000 0.0000 28.6192
#
#
#
# Elastic Compliance Matrix: (Units=1/GPa)
#
#
# Indices 1 2 3 4 5 6 
#
# 1 0.012052 -0.007269 -0.001839 0.000000 0.000000 0.000000
# 2 -0.007269 0.020057 -0.008462 0.000000 0.000000 0.000000
# 3 -0.001839 -0.008462 0.022433 0.000000 0.000000 0.000000
# 4 0.000000 0.000000 0.000000 0.033279 0.000000 0.000000
# 5 0.000000 0.000000 0.000000 0.000000 0.040554 0.000000
# 6 0.000000 0.000000 0.000000 0.000000 0.000000 0.034942
#
#
# Mechanical properties :
#
#
# Convention : Reuss Voigt Hill
#
# Bulk Modulus (GPa) = 51.54148 58.39989 54.97068
# Shear Modulus (GPa) = 24.39934 26.22806 25.31370
#
# Velocity S-wave (km/s) = 3.61779 3.75092 3.68496
# Velocity P-wave (km/s) = 6.71561 7.07717 6.89876
#
# Compressibility (1/GPa) = 0.01940185
#
# Stress axis : x y z
#
# Youngs Moduli (GPa) = 82.97601 49.85723 44.57785
#
# Poissons Ratio (x) = 0.36243 0.08196
# Poissons Ratio (y) = 0.60318 0.37721
# Poissons Ratio (z) = 0.15257 0.42188
#
# Static dielectric constant tensor:
#      x y z
#    x 3.531050 0.000000 0.000000 
#    y 0.000000 3.476950 0.000000 
#    z 0.000000 0.000000 3.217700 
# 
# 
# High freq. dielectric constant tensor:
#      x y z
#    x 1.728890 0.000000 0.000000 
#    y 0.000000 1.723430 0.000000 
#    z 0.000000 0.000000 1.713490 
# 
# From -- ./inp_files/10056.got.cif
#   From: 2010.03.12/outbox.cif.g09.slc.cpg/sg51_6_cif.got.tgz:10056.got - 2010.04.16 13:43:02.
