data_PCOD8209682
_publ_section_title
;
Structure prediction by ZEFSAII (Michael W. Deem and Ramdas Pophale) SiO2 
 PCOD8209682
Probable space group: P M M A
;
_chemical_formula_sum "Si O2"
_cell_formula_units_Z 48
_cell_length_a 8.777575
_cell_length_b 30.704252
_cell_length_c 9.341839
_cell_angle_alpha 90.000000
_cell_angle_beta 90.000000
_cell_angle_gamma 90.000000
_cell_volume 2517.708517
_symmetry_space_group_name_H-M "P M M A"
_symmetry_group_IT_number 51
_symmetry_cell_setting 'orthorhombic'
loop_
_space_group_symop_operation_xyz
x,y,z
1/2-x,-y,z
1/2+x,-y,-z
-x,y,-z
-x,-y,-z
1/2+x,y,-z
1/2-x,y,z
x,-y,z
loop_
_atom_site_type_symbol
_atom_site_label
_atom_site_fract_x
_atom_site_fract_y
_atom_site_fract_z
Si Si1 0.429526 0.247103 0.351898
Si Si2 0.074734 0.000000 0.651138
Si Si3 0.069626 0.576599 0.156775
Si Si4 0.569913 0.830584 0.845148
Si Si5 0.070084 0.094342 0.657442
Si Si6 0.427982 0.344651 0.352503
Si Si7 0.068027 0.500000 0.658118
O O1 0.500000 0.230524 0.500000
O O2 0.250000 0.246022 0.369411
O O3 0.483902 0.214360 0.228683
O O4 0.487526 0.296003 0.314980
O O5 0.033586 0.953873 0.727130
O O6 0.000000 0.000000 0.500000
O O7 0.250000 0.000000 0.615991
O O8 0.250000 0.567830 0.150588
O O9 0.029853 0.624079 0.220571
O O10 0.990192 0.542118 0.259054
O O11 0.000000 0.572959 0.000000
O O12 0.750000 0.833768 0.854640
O O13 0.508936 0.871538 0.759463
O O14 0.500000 0.831066 0.000000
O O15 0.250000 0.103381 0.649208
O O16 0.000000 0.098670 0.500000
O O17 0.500000 0.362086 0.500000
O O18 0.250000 0.344392 0.379901
O O19 0.250000 0.500000 0.650472
O O20 0.000000 0.500000 0.500000
#
# Coordination Sequence:
#
# PCOD8209682 Si02
#       7
#     8   4   8   8   8   8   4
#     4   9  19  36  57  81 108 140 180 224 270 321
#     4   8  16  30  51  78 105 134 170 216 264 314
#     4  11  23  39  59  85 117 151 188 229 276 327
#     4  11  23  37  53  76 108 144 182 224 272 324
#     4  10  19  34  56  81 108 138 176 219 266 319
#     4   9  19  36  58  83 111 143 181 225 271 322
#     4  12  25  42  63  86 114 148 188 232 279 328
#
# _framework density 19.064957
#
# number of rings (size 3 to 8) (size 9 to 14) (size 15 to 20)
#    0.000    2.000    0.000    3.500    0.000    6.667 
#    0.000    0.417    0.000    0.000    0.000    0.000 
#    0.000    0.000    0.000    0.000    0.000    0.000 
#
# Total GULP energy -595032.048695 kJ/mol
# GULP energy per Si atom -12396.501014 kJ/mol
# Density = 1.902156 g / cm^3
# Si number density = 19.064957 Si / 1000 Ang^3
#
#
#
# Elastic Constant Matrix: (Units=GPa)
#
#
# Indices 1 2 3 4 5 6 
#
# 1 79.5043 60.4784 56.5222 0.0000 0.0000 0.0000
# 2 60.4784 146.9003 91.2794 0.0000 0.0000 0.0000
# 3 56.5222 91.2794 154.6432 0.0000 0.0000 0.0000
# 4 0.0000 0.0000 0.0000 23.3823 0.0000 0.0000
# 5 0.0000 0.0000 0.0000 0.0000 35.6369 0.0000
# 6 0.0000 0.0000 0.0000 0.0000 0.0000 22.1156
#
#
#
# Elastic Compliance Matrix: (Units=1/GPa)
#
#
# Indices 1 2 3 4 5 6 
#
# 1 0.019630 -0.005722 -0.003797 0.000000 0.000000 0.000000
# 2 -0.005722 0.012418 -0.005238 0.000000 0.000000 0.000000
# 3 -0.003797 -0.005238 0.010946 0.000000 0.000000 0.000000
# 4 0.000000 0.000000 0.000000 0.042767 0.000000 0.000000
# 5 0.000000 0.000000 0.000000 0.000000 0.028061 0.000000
# 6 0.000000 0.000000 0.000000 0.000000 0.000000 0.045217
#
#
# Mechanical properties :
#
#
# Convention : Reuss Voigt Hill
#
# Bulk Modulus (GPa) = 74.18928 88.62310 81.40619
# Shear Modulus (GPa) = 25.90009 27.74480 26.82245
#
# Velocity S-wave (km/s) = 3.68981 3.81895 3.75493
# Velocity P-wave (km/s) = 7.55985 8.12598 7.84802
#
# Compressibility (1/GPa) = 0.01347904
#
# Stress axis : x y z
#
# Youngs Moduli (GPa) = 50.94117 80.52707 91.35363
#
# Poissons Ratio (x) = 0.46080 0.34690
# Poissons Ratio (y) = 0.29150 0.47855
# Poissons Ratio (z) = 0.19344 0.42184
#
# Static dielectric constant tensor:
#      x y z
#    x 3.590570 0.000000 0.000000 
#    y 0.000000 4.307880 0.000000 
#    z 0.000000 0.000000 3.870880 
# 
# 
# High freq. dielectric constant tensor:
#      x y z
#    x 1.748890 0.000000 0.000000 
#    y 0.000000 1.764610 0.000000 
#    z 0.000000 0.000000 1.727080 
# 
# From -- ./inp_files/6113.got.cif
#   From: 2010.03.12/outbox.cif.g09.slc.cpg/sg51_4_cif.got.tgz:6113.got - 2010.04.16 13:43:02.
