data_PCOD8209552
_publ_section_title
;
Structure prediction by ZEFSAII (Michael W. Deem and Ramdas Pophale) SiO2 
 PCOD8209552
Probable space group: P M M A
;
_chemical_formula_sum "Si O2"
_cell_formula_units_Z 40
_cell_length_a 8.714463
_cell_length_b 15.395723
_cell_length_c 14.379947
_cell_angle_alpha 90.000000
_cell_angle_beta 90.000000
_cell_angle_gamma 90.000000
_cell_volume 1929.292182
_symmetry_space_group_name_H-M "P M M A"
_symmetry_group_IT_number 51
_symmetry_cell_setting 'orthorhombic'
loop_
_space_group_symop_operation_xyz
x,y,z
1/2-x,-y,z
1/2+x,-y,-z
-x,y,-z
-x,-y,-z
1/2+x,y,-z
1/2-x,y,z
x,-y,z
loop_
_atom_site_type_symbol
_atom_site_label
_atom_site_fract_x
_atom_site_fract_y
_atom_site_fract_z
Si Si1 0.574501 0.097242 0.290956
Si Si2 0.572688 0.161235 0.091785
Si Si3 0.929722 0.748677 0.600598
Si Si4 0.431369 0.651957 0.096201
Si Si5 0.074612 0.402603 0.718659
O O1 0.750000 0.120821 0.316442
O O2 0.552355 0.098586 0.179630
O O3 0.463674 0.165605 0.339539
O O4 0.533564 0.000000 0.325035
O O5 0.750000 0.183712 0.072776
O O6 0.481865 0.249316 0.112567
O O7 0.500000 0.115978 0.000000
O O8 0.750000 0.736749 0.591583
O O9 0.000000 0.761801 0.500000
O O10 0.995374 0.662511 0.647442
O O11 0.250000 0.644891 0.092755
O O12 0.493060 0.595842 0.181600
O O13 0.500000 0.614810 0.000000
O O14 0.250000 0.372715 0.731712
O O15 0.064068 0.500000 0.677247
#
# Coordination Sequence:
#
# PCOD8209552 Si02
#       5
#     8   8   8   8   8
#     4  10  22  41  65  93 128 169 212 260 313 370
#     4  10  19  33  57  87 126 169 212 257 305 363
#     4  12  26  45  70  95 124 162 205 259 319 378
#     4  11  21  35  59  90 127 170 213 257 307 366
#     4  11  24  43  67  95 128 165 207 258 313 373
#
# _framework density 20.732990999999998
#
# number of rings (size 3 to 8) (size 9 to 14) (size 15 to 20)
#    0.000    1.200    2.000    6.000    0.000    4.400 
#    0.000    0.000    0.000    0.000    0.000    0.000 
#    0.000    0.000    0.000    0.000    0.000    0.000 
#
# Total GULP energy -496122.106828 kJ/mol
# GULP energy per Si atom -12403.052671 kJ/mol
# Density = 2.068580 g / cm^3
# Si number density = 20.732991 Si / 1000 Ang^3
#
#
#
# Elastic Constant Matrix: (Units=GPa)
#
#
# Indices 1 2 3 4 5 6 
#
# 1 178.0891 45.3264 52.2639 0.0000 0.0000 0.0000
# 2 45.3264 95.4276 36.8298 0.0000 0.0000 0.0000
# 3 52.2639 36.8298 109.8492 0.0000 0.0000 0.0000
# 4 0.0000 0.0000 0.0000 6.6480 0.0000 0.0000
# 5 0.0000 0.0000 0.0000 0.0000 39.6882 0.0000
# 6 0.0000 0.0000 0.0000 0.0000 0.0000 16.7656
#
#
#
# Elastic Compliance Matrix: (Units=1/GPa)
#
#
# Indices 1 2 3 4 5 6 
#
# 1 0.006948 -0.002325 -0.002526 0.000000 0.000000 0.000000
# 2 -0.002325 0.012815 -0.003190 0.000000 0.000000 0.000000
# 3 -0.002526 -0.003190 0.011375 0.000000 0.000000 0.000000
# 4 0.000000 0.000000 0.000000 0.150422 0.000000 0.000000
# 5 0.000000 0.000000 0.000000 0.000000 0.025196 0.000000
# 6 0.000000 0.000000 0.000000 0.000000 0.000000 0.059646
#
#
# Mechanical properties :
#
#
# Convention : Reuss Voigt Hill
#
# Bulk Modulus (GPa) = 66.42484 72.46737 69.44610
# Shear Modulus (GPa) = 17.39104 29.21673 23.30388
#
# Velocity S-wave (km/s) = 2.89936 3.75799 3.35625
# Velocity P-wave (km/s) = 6.58150 7.33884 6.97046
#
# Compressibility (1/GPa) = 0.01505461
#
# Stress axis : x y z
#
# Youngs Moduli (GPa) = 143.91822 78.03431 87.91278
#
# Poissons Ratio (x) = 0.18146 0.22209
# Poissons Ratio (y) = 0.33466 0.28046
# Poissons Ratio (z) = 0.36357 0.24894
#
# Static dielectric constant tensor:
#      x y z
#    x 3.850890 0.000000 0.000000 
#    y 0.000000 3.590470 0.000000 
#    z 0.000000 0.000000 3.933050 
# 
# 
# High freq. dielectric constant tensor:
#      x y z
#    x 1.822600 0.000000 0.000000 
#    y 0.000000 1.805860 0.000000 
#    z 0.000000 0.000000 1.813500 
# 
# From -- ./inp_files/20492.got.cif
#   From: 2010.03.12/outbox.cif.g09.slc.cpg/sg51_11_cif.got.tgz:20492.got - 2010.04.16 13:43:02.
