data_PCOD8209755
_publ_section_title
;
Structure prediction by ZEFSAII (Michael W. Deem and Ramdas Pophale) SiO2 
 PCOD8209755
Probable space group: P M M A
;
_chemical_formula_sum "Si O2"
_cell_formula_units_Z 48
_cell_length_a 8.785732
_cell_length_b 10.337573
_cell_length_c 28.072871
_cell_angle_alpha 90.000000
_cell_angle_beta 90.000000
_cell_angle_gamma 90.000000
_cell_volume 2549.666459
_symmetry_space_group_name_H-M "P M M A"
_symmetry_group_IT_number 51
_symmetry_cell_setting 'orthorhombic'
loop_
_space_group_symop_operation_xyz
x,y,z
1/2-x,-y,z
1/2+x,-y,-z
-x,y,-z
-x,-y,-z
1/2+x,y,-z
1/2-x,y,z
x,-y,z
loop_
_atom_site_type_symbol
_atom_site_label
_atom_site_fract_x
_atom_site_fract_y
_atom_site_fract_z
Si Si1 0.927983 0.150153 0.050020
Si Si2 0.071374 0.000000 0.803239
Si Si3 0.072323 0.750773 0.358894
Si Si4 0.069201 0.241236 0.143696
Si Si5 0.431086 0.500000 0.302852
Si Si6 0.569457 0.500000 0.804422
Si Si7 0.570818 0.147403 0.450847
Si Si8 0.925707 0.000000 0.703359
O O1 0.750000 0.179130 0.048573
O O2 0.006624 0.237231 0.090096
O O3 0.961470 0.000000 0.061366
O O4 0.000000 0.191135 0.000000
O O5 0.997943 0.873932 0.825621
O O6 0.250000 0.000000 0.813934
O O7 0.039134 0.000000 0.747435
O O8 0.250000 0.738725 0.370009
O O9 0.010061 0.626298 0.330645
O O10 0.985562 0.760117 0.408779
O O11 0.035732 0.875039 0.327370
O O12 0.250000 0.230216 0.142976
O O13 0.011934 0.373936 0.167523
O O14 0.250000 0.500000 0.300141
O O15 0.498188 0.500000 0.249208
O O16 0.750000 0.500000 0.801741
O O17 0.500000 0.198787 0.500000
O O18 0.750000 0.155972 0.454992
O O19 0.516275 0.000000 0.441084
O O20 0.750000 0.000000 0.720633
#
# Coordination Sequence:
#
# PCOD8209755 Si02
#       8
#     8   4   8   8   4   4   8   4
#     4  10  20  35  57  86 120 152 189 235 286 342
#     4  12  24  36  53  82 117 150 190 240 287 338
#     4  10  19  34  57  83 110 143 185 229 278 333
#     4  11  21  37  61  86 114 150 193 239 289 342
#     4   9  18  34  56  81 112 147 184 229 278 329
#     4   9  20  38  60  85 114 151 196 239 284 341
#     4  10  20  34  55  82 113 145 180 227 279 332
#     4  10  20  34  55  80 107 144 189 236 281 332
#
# _framework density 18.825993
#
# number of rings (size 3 to 8) (size 9 to 14) (size 15 to 20)
#    0.000    1.833    1.667    3.250    0.000    4.667 
#    0.000    2.917    0.000    2.000    0.000    0.000 
#    0.000    0.000    0.000    0.000    0.000    0.000 
#
# Total GULP energy -595402.354141 kJ/mol
# GULP energy per Si atom -12404.215711 kJ/mol
# Density = 1.878314 g / cm^3
# Si number density = 18.825993 Si / 1000 Ang^3
#
#
#
# Elastic Constant Matrix: (Units=GPa)
#
#
# Indices 1 2 3 4 5 6 
#
# 1 74.1886 40.2498 57.2643 0.0000 0.0000 0.0000
# 2 40.2498 146.2287 85.4121 0.0000 0.0000 0.0000
# 3 57.2643 85.4121 179.4530 0.0000 0.0000 0.0000
# 4 0.0000 0.0000 0.0000 23.3741 0.0000 0.0000
# 5 0.0000 0.0000 0.0000 0.0000 37.4877 0.0000
# 6 0.0000 0.0000 0.0000 0.0000 0.0000 19.1507
#
#
#
# Elastic Compliance Matrix: (Units=1/GPa)
#
#
# Indices 1 2 3 4 5 6 
#
# 1 0.018411 -0.002266 -0.004796 0.000000 0.000000 0.000000
# 2 -0.002266 0.009751 -0.003918 0.000000 0.000000 0.000000
# 3 -0.004796 -0.003918 0.008968 0.000000 0.000000 0.000000
# 4 0.000000 0.000000 0.000000 0.042782 0.000000 0.000000
# 5 0.000000 0.000000 0.000000 0.000000 0.026675 0.000000
# 6 0.000000 0.000000 0.000000 0.000000 0.000000 0.052217
#
#
# Mechanical properties :
#
#
# Convention : Reuss Voigt Hill
#
# Bulk Modulus (GPa) = 65.92515 85.08029 75.50272
# Shear Modulus (GPa) = 26.90754 30.46543 28.68649
#
# Velocity S-wave (km/s) = 3.78468 4.02713 3.90778
# Velocity P-wave (km/s) = 7.36156 8.18015 7.78162
#
# Compressibility (1/GPa) = 0.01516872
#
# Stress axis : x y z
#
# Youngs Moduli (GPa) = 54.31589 102.55622 111.51023
#
# Poissons Ratio (x) = 0.23240 0.53485
# Poissons Ratio (y) = 0.12308 0.43688
# Poissons Ratio (z) = 0.26052 0.40180
#
# Static dielectric constant tensor:
#      x y z
#    x 3.344210 0.000000 0.000000 
#    y 0.000000 3.564400 0.000000 
#    z 0.000000 0.000000 3.619650 
# 
# 
# High freq. dielectric constant tensor:
#      x y z
#    x 1.719290 0.000000 0.000000 
#    y 0.000000 1.718560 0.000000 
#    z 0.000000 0.000000 1.748910 
# 
# From -- ./inp_files/37275.got.cif
#   From: 2010.03.12/outbox.cif.g09.slc.cpg/sg51_19_cif.got.tgz:37275.got - 2010.04.16 13:43:02.
