data_PCOD8209622
_publ_section_title
;
Structure prediction by ZEFSAII (Michael W. Deem and Ramdas Pophale) SiO2 
 PCOD8209622
Probable space group: P M M A
;
_chemical_formula_sum "Si O2"
_cell_formula_units_Z 64
_cell_length_a 8.671728
_cell_length_b 19.871359
_cell_length_c 19.971463
_cell_angle_alpha 90.000000
_cell_angle_beta 90.000000
_cell_angle_gamma 90.000000
_cell_volume 3441.462937
_symmetry_space_group_name_H-M "P M M A"
_symmetry_group_IT_number 51
_symmetry_cell_setting 'orthorhombic'
loop_
_space_group_symop_operation_xyz
x,y,z
1/2-x,-y,z
1/2+x,-y,-z
-x,y,-z
-x,-y,-z
1/2+x,y,-z
1/2-x,y,z
x,-y,z
loop_
_atom_site_type_symbol
_atom_site_label
_atom_site_fract_x
_atom_site_fract_y
_atom_site_fract_z
Si Si1 0.072853 0.261284 0.796084
Si Si2 0.566934 0.786980 0.431860
Si Si3 0.430578 0.927749 0.105600
Si Si4 0.067054 0.072646 0.615359
Si Si5 0.567410 0.316685 0.668986
Si Si6 0.929253 0.578559 0.429166
Si Si7 0.426908 0.891387 0.761397
Si Si8 0.566522 0.782580 0.931343
O O1 0.250000 0.282115 0.805680
O O2 0.054746 0.188722 0.762525
O O3 0.992363 0.314641 0.745852
O O4 0.992471 0.261765 0.869030
O O5 0.500000 0.755365 0.500000
O O6 0.750000 0.780272 0.430128
O O7 0.508196 0.864700 0.428706
O O8 0.499405 0.747709 0.369228
O O9 0.250000 0.925391 0.095225
O O10 0.467665 0.926919 0.183940
O O11 0.500763 0.859860 0.072619
O O12 0.493659 0.000000 0.076198
O O13 0.250000 0.074071 0.615686
O O14 0.009698 0.081942 0.691090
O O15 0.006179 0.000000 0.587928
O O16 0.750000 0.314689 0.668740
O O17 0.510220 0.384242 0.632601
O O18 0.750000 0.597679 0.430143
O O19 0.957841 0.500000 0.417683
O O20 0.000000 0.601999 0.500000
O O21 0.250000 0.912123 0.774234
O O22 0.750000 0.781025 0.931476
O O23 0.500000 0.751214 0.000000
#
# Coordination Sequence:
#
# PCOD8209622 Si02
#       8
#     8   8   8   8   8   8   8   8
#     4  10  19  34  55  78 102 133 173 220 268 316
#     4  11  22  37  52  71  98 131 173 222 272 326
#     4   9  18  30  43  63  92 123 158 206 262 322
#     4   9  17  30  48  67  89 120 161 214 273 329
#     4  12  23  36  57  83 111 144 181 223 266 314
#     4  10  21  38  60  87 121 158 192 225 264 313
#     4   9  16  29  48  68  89 118 159 208 263 324
#     4  10  20  34  50  71 100 135 172 216 270 329
#
# _framework density 18.596743
#
# number of rings (size 3 to 8) (size 9 to 14) (size 15 to 20)
#    0.000    2.000    1.250    3.375    0.000    3.000 
#    0.000    0.000    0.000    1.875    0.000    0.000 
#    0.000    0.500    0.000    1.875    0.000    2.875 
#
# Total GULP energy -793294.024339 kJ/mol
# GULP energy per Si atom -12395.219130 kJ/mol
# Density = 1.855442 g / cm^3
# Si number density = 18.596743 Si / 1000 Ang^3
#
#
#
# Elastic Constant Matrix: (Units=GPa)
#
#
# Indices 1 2 3 4 5 6 
#
# 1 92.8058 29.5147 45.4600 0.0000 0.0000 0.0000
# 2 29.5147 64.8234 37.8484 0.0000 0.0000 0.0000
# 3 45.4600 37.8484 126.5801 0.0000 0.0000 0.0000
# 4 0.0000 0.0000 0.0000 8.0785 0.0000 0.0000
# 5 0.0000 0.0000 0.0000 0.0000 30.9407 0.0000
# 6 0.0000 0.0000 0.0000 0.0000 0.0000 16.6337
#
#
#
# Elastic Compliance Matrix: (Units=1/GPa)
#
#
# Indices 1 2 3 4 5 6 
#
# 1 0.013939 -0.004148 -0.003766 0.000000 0.000000 0.000000
# 2 -0.004148 0.019924 -0.004468 0.000000 0.000000 0.000000
# 3 -0.003766 -0.004468 0.010588 0.000000 0.000000 0.000000
# 4 0.000000 0.000000 0.000000 0.123785 0.000000 0.000000
# 5 0.000000 0.000000 0.000000 0.000000 0.032320 0.000000
# 6 0.000000 0.000000 0.000000 0.000000 0.000000 0.060119
#
#
# Mechanical properties :
#
#
# Convention : Reuss Voigt Hill
#
# Bulk Modulus (GPa) = 50.79117 56.65061 53.72089
# Shear Modulus (GPa) = 17.12329 22.55634 19.83982
#
# Velocity S-wave (km/s) = 3.03771 3.48648 3.26980
# Velocity P-wave (km/s) = 6.29879 6.83638 6.57308
#
# Compressibility (1/GPa) = 0.01968846
#
# Stress axis : x y z
#
# Youngs Moduli (GPa) = 71.74145 50.19176 94.44244
#
# Poissons Ratio (x) = 0.20818 0.35565
# Poissons Ratio (y) = 0.29757 0.42194
# Poissons Ratio (z) = 0.27017 0.22424
#
# Static dielectric constant tensor:
#      x y z
#    x 3.321720 0.000000 0.000000 
#    y 0.000000 3.343060 0.000000 
#    z 0.000000 0.000000 3.415270 
# 
# 
# High freq. dielectric constant tensor:
#      x y z
#    x 1.716350 0.000000 0.000000 
#    y 0.000000 1.688700 0.000000 
#    z 0.000000 0.000000 1.719210 
# 
# From -- ./inp_files/32679.got.cif
#   From: 2010.03.12/outbox.cif.g09.slc.cpg/sg51_17_cif.got.tgz:32679.got - 2010.04.16 13:43:02.
