data_PCOD8209822
_publ_section_title
;
Structure prediction by ZEFSAII (Michael W. Deem and Ramdas Pophale) SiO2 
 PCOD8209822
Probable space group: P M M A
;
_chemical_formula_sum "Si O2"
_cell_formula_units_Z 64
_cell_length_a 30.725588
_cell_length_b 8.962928
_cell_length_c 11.948272
_cell_angle_alpha 90.000000
_cell_angle_beta 90.000000
_cell_angle_gamma 90.000000
_cell_volume 3290.449358
_symmetry_space_group_name_H-M "P M M A"
_symmetry_group_IT_number 51
_symmetry_cell_setting 'orthorhombic'
loop_
_space_group_symop_operation_xyz
x,y,z
1/2-x,-y,z
1/2+x,-y,-z
-x,y,-z
-x,-y,-z
1/2+x,y,-z
1/2-x,y,z
x,-y,z
loop_
_atom_site_type_symbol
_atom_site_label
_atom_site_fract_x
_atom_site_fract_y
_atom_site_fract_z
Si Si1 0.373737 0.176091 0.858183
Si Si2 0.584208 0.329698 0.504834
Si Si3 0.049283 0.674151 0.255512
Si Si4 0.673883 0.823962 0.496011
Si Si5 0.622496 0.176797 0.886928
Si Si6 0.298858 0.670468 0.721624
Si Si7 0.701822 0.822723 0.739897
Si Si8 0.951057 0.670175 0.267017
O O1 0.330838 0.246219 0.805314
O O2 0.417074 0.223457 0.793889
O O3 0.368985 0.000000 0.850140
O O4 0.376491 0.231762 0.985681
O O5 0.601244 0.500000 0.514430
O O6 0.559885 0.279616 0.617309
O O7 0.623721 0.218535 0.482284
O O8 0.551288 0.313197 0.401226
O O9 0.057358 0.500000 0.237117
O O10 0.079006 0.763285 0.169785
O O11 0.999425 0.717117 0.229685
O O12 0.701553 0.744511 0.400318
O O13 0.691389 0.765969 0.615126
O O14 0.679391 0.000000 0.482809
O O15 0.665494 0.241401 0.824656
O O16 0.621510 0.000000 0.878361
O O17 0.250000 0.680783 0.770421
O O18 0.314496 0.500000 0.710256
O O19 0.750000 0.765633 0.775280
O O20 0.700435 0.000000 0.741779
O O21 0.940975 0.500000 0.232019
#
# Coordination Sequence:
#
# PCOD8209822 Si02
#       8
#     8   8   8   8   8   8   8   8
#     4  11  24  40  60  85 114 152 198 246 291 339
#     4  10  19  34  58  86 118 152 188 234 291 349
#     4  10  21  37  60  88 116 152 195 237 287 349
#     4  11  20  33  59  90 120 151 187 232 285 345
#     4  10  22  40  59  82 114 152 195 244 294 340
#     4  11  24  41  61  86 119 156 191 233 288 346
#     4   9  18  34  57  84 114 148 185 229 283 340
#     4  10  21  38  60  85 117 155 192 236 290 347
#
# _framework density 19.450230999999999
#
# number of rings (size 3 to 8) (size 9 to 14) (size 15 to 20)
#    0.000    1.750    2.500    1.875    0.000    5.500 
#    0.000    3.750    0.000    3.375    0.000    0.000 
#    0.000    0.000    0.000    0.000    0.000    0.000 
#
# Total GULP energy -793754.633608 kJ/mol
# GULP energy per Si atom -12402.416150 kJ/mol
# Density = 1.940596 g / cm^3
# Si number density = 19.450231 Si / 1000 Ang^3
#
#
#
# Elastic Constant Matrix: (Units=GPa)
#
#
# Indices 1 2 3 4 5 6 
#
# 1 129.2190 33.0397 58.5268 0.0000 0.0000 0.0000
# 2 33.0397 57.7499 43.5107 0.0000 0.0000 0.0000
# 3 58.5268 43.5107 145.0671 0.0000 0.0000 0.0000
# 4 0.0000 0.0000 0.0000 24.4866 0.0000 0.0000
# 5 0.0000 0.0000 0.0000 0.0000 10.1662 0.0000
# 6 0.0000 0.0000 0.0000 0.0000 0.0000 22.0735
#
#
#
# Elastic Compliance Matrix: (Units=1/GPa)
#
#
# Indices 1 2 3 4 5 6 
#
# 1 0.009976 -0.003456 -0.002988 0.000000 0.000000 0.000000
# 2 -0.003456 0.023569 -0.005675 0.000000 0.000000 0.000000
# 3 -0.002988 -0.005675 0.009801 0.000000 0.000000 0.000000
# 4 0.000000 0.000000 0.000000 0.040839 0.000000 0.000000
# 5 0.000000 0.000000 0.000000 0.000000 0.098365 0.000000
# 6 0.000000 0.000000 0.000000 0.000000 0.000000 0.045303
#
#
# Mechanical properties :
#
#
# Convention : Reuss Voigt Hill
#
# Bulk Modulus (GPa) = 52.33460 66.91005 59.62233
# Shear Modulus (GPa) = 19.34536 24.47584 21.91060
#
# Velocity S-wave (km/s) = 3.15716 3.55122 3.35997
# Velocity P-wave (km/s) = 6.34473 7.16172 6.76557
#
# Compressibility (1/GPa) = 0.01910782
#
# Stress axis : x y z
#
# Youngs Moduli (GPa) = 100.24195 42.42880 102.03039
#
# Poissons Ratio (x) = 0.14663 0.30488
# Poissons Ratio (y) = 0.34643 0.57901
# Poissons Ratio (z) = 0.29954 0.24078
#
# Static dielectric constant tensor:
#      x y z
#    x 3.653990 0.000000 0.000000 
#    y 0.000000 3.401390 0.000000 
#    z 0.000000 0.000000 3.676740 
# 
# 
# High freq. dielectric constant tensor:
#      x y z
#    x 1.768740 0.000000 0.000000 
#    y 0.000000 1.741760 0.000000 
#    z 0.000000 0.000000 1.758480 
# 
# From -- ./inp_files/19613.got.cif
#   From: 2010.03.12/outbox.cif.g09.slc.cpg/sg51_10_cif.got.tgz:19613.got - 2010.04.16 13:43:02.
