data_PCOD8209006
_publ_section_title
;
Structure prediction by ZEFSAII (Michael W. Deem and Ramdas Pophale) SiO2 
 PCOD8209006
Probable space group: P M M A
;
_chemical_formula_sum "Si O2"
_cell_formula_units_Z 64
_cell_length_a 9.011465
_cell_length_b 28.533677
_cell_length_c 13.755576
_cell_angle_alpha 90.000000
_cell_angle_beta 90.000000
_cell_angle_gamma 90.000000
_cell_volume 3536.974443
_symmetry_space_group_name_H-M "P M M A"
_symmetry_group_IT_number 51
_symmetry_cell_setting 'orthorhombic'
loop_
_space_group_symop_operation_xyz
x,y,z
1/2-x,-y,z
1/2+x,-y,-z
-x,y,-z
-x,-y,-z
1/2+x,y,-z
1/2-x,y,z
x,-y,z
loop_
_atom_site_type_symbol
_atom_site_label
_atom_site_fract_x
_atom_site_fract_y
_atom_site_fract_z
Si Si1 0.412217 0.055251 0.410027
Si Si2 0.576191 0.552841 0.599547
Si Si3 0.924728 0.221956 0.224881
Si Si4 0.423925 0.272166 0.396116
Si Si5 0.425956 0.948575 0.198244
Si Si6 0.426126 0.854799 0.100542
Si Si7 0.422580 0.686322 0.897119
Si Si8 0.578458 0.637375 0.729281
O O1 0.500000 0.078420 0.500000
O O2 0.250000 0.078673 0.411903
O O3 0.490485 0.064732 0.305318
O O4 0.398844 0.000000 0.425891
O O5 0.500000 0.568546 0.500000
O O6 0.750000 0.557226 0.581259
O O7 0.529713 0.500000 0.628973
O O8 0.526623 0.587532 0.685690
O O9 0.750000 0.213264 0.237720
O O10 0.957774 0.263086 0.148125
O O11 0.997445 0.233705 0.328256
O O12 0.005402 0.175630 0.186735
O O13 0.500000 0.269904 0.500000
O O14 0.250000 0.260712 0.404620
O O15 0.452002 0.323490 0.352111
O O16 0.250000 0.951376 0.210630
O O17 0.470168 0.909028 0.120652
O O18 0.485936 0.000000 0.164360
O O19 0.250000 0.847120 0.095029
O O20 0.500000 0.839217 0.000000
O O21 0.250000 0.677987 0.912053
O O22 0.483240 0.646158 0.825697
O O23 0.500000 0.682195 0.000000
O O24 0.750000 0.637068 0.759969
#
# Coordination Sequence:
#
# PCOD8209006 Si02
#       8
#     8   8   8   8   8   8   8   8
#     4   8  13  24  44  68  92 118 148 182 221 265
#     4   9  17  29  46  70 101 137 174 211 252 298
#     4  10  21  37  55  76 102 132 167 205 248 299
#     4  10  19  32  52  78 108 140 172 207 250 299
#     4   8  16  32  52  73  99 131 164 197 237 288
#     4  11  22  36  55  76  99 129 165 205 251 300
#     4  10  20  33  52  75  98 126 162 208 258 307
#     4   9  18  31  48  72 103 137 172 212 255 299
#
# _framework density 18.094560999999999
#
# number of rings (size 3 to 8) (size 9 to 14) (size 15 to 20)
#    0.000    2.625    0.000    3.000    0.000    3.750 
#    0.000    1.875    0.000    4.500    0.000    0.000 
#    0.000    0.000    0.000    0.000    0.000    0.000 
#
# Total GULP energy -793472.481979 kJ/mol
# GULP energy per Si atom -12398.007531 kJ/mol
# Density = 1.805338 g / cm^3
# Si number density = 18.094561 Si / 1000 Ang^3
#
#
#
# Elastic Constant Matrix: (Units=GPa)
#
#
# Indices 1 2 3 4 5 6 
#
# 1 86.6698 41.9714 60.0118 0.0000 0.0000 0.0000
# 2 41.9714 85.6525 47.9013 0.0000 0.0000 0.0000
# 3 60.0118 47.9013 125.9955 0.0000 0.0000 0.0000
# 4 0.0000 0.0000 0.0000 23.7092 0.0000 0.0000
# 5 0.0000 0.0000 0.0000 0.0000 34.6337 0.0000
# 6 0.0000 0.0000 0.0000 0.0000 0.0000 20.1132
#
#
#
# Elastic Compliance Matrix: (Units=1/GPa)
#
#
# Indices 1 2 3 4 5 6 
#
# 1 0.018995 -0.005395 -0.006996 0.000000 0.000000 0.000000
# 2 -0.005395 0.016360 -0.003650 0.000000 0.000000 0.000000
# 3 -0.006996 -0.003650 0.012657 0.000000 0.000000 0.000000
# 4 0.000000 0.000000 0.000000 0.042178 0.000000 0.000000
# 5 0.000000 0.000000 0.000000 0.000000 0.028874 0.000000
# 6 0.000000 0.000000 0.000000 0.000000 0.000000 0.049718
#
#
# Mechanical properties :
#
#
# Convention : Reuss Voigt Hill
#
# Bulk Modulus (GPa) = 62.77888 66.45410 64.61649
# Shear Modulus (GPa) = 24.25127 25.58678 24.91902
#
# Velocity S-wave (km/s) = 3.66492 3.76448 3.71503
# Velocity P-wave (km/s) = 7.25803 7.46330 7.36138
#
# Compressibility (1/GPa) = 0.01592892
#
# Stress axis : x y z
#
# Youngs Moduli (GPa) = 52.64505 61.12392 79.00910
#
# Poissons Ratio (x) = 0.32979 0.55276
# Poissons Ratio (y) = 0.28404 0.28839
# Poissons Ratio (z) = 0.36831 0.22311
#
# Static dielectric constant tensor:
#      x y z
#    x 3.411030 0.000000 0.000000 
#    y 0.000000 3.356980 0.000000 
#    z 0.000000 0.000000 3.338550 
# 
# 
# High freq. dielectric constant tensor:
#      x y z
#    x 1.695450 0.000000 0.000000 
#    y 0.000000 1.682890 0.000000 
#    z 0.000000 0.000000 1.701380 
# 
# From -- ./inp_files/14804.got.cif
#   From: 2010.03.12/outbox.cif.g09.slc.cpg/sg51_8_cif.got.tgz:14804.got - 2010.04.16 13:43:02.
