data_PCOD8209573
_publ_section_title
;
Structure prediction by ZEFSAII (Michael W. Deem and Ramdas Pophale) SiO2 
 PCOD8209573
Probable space group: P M M A
;
_chemical_formula_sum "Si O2"
_cell_formula_units_Z 64
_cell_length_a 19.818834
_cell_length_b 18.344112
_cell_length_c 9.543762
_cell_angle_alpha 90.000000
_cell_angle_beta 90.000000
_cell_angle_gamma 90.000000
_cell_volume 3469.719716
_symmetry_space_group_name_H-M "P M M A"
_symmetry_group_IT_number 51
_symmetry_cell_setting 'orthorhombic'
loop_
_space_group_symop_operation_xyz
x,y,z
1/2-x,-y,z
1/2+x,-y,-z
-x,y,-z
-x,-y,-z
1/2+x,y,-z
1/2-x,y,z
x,-y,z
loop_
_atom_site_type_symbol
_atom_site_label
_atom_site_fract_x
_atom_site_fract_y
_atom_site_fract_z
Si Si1 0.062068 0.085628 0.087356
Si Si2 0.532125 0.417799 0.149835
Si Si3 0.542526 0.679251 0.632405
Si Si4 0.675696 0.331523 0.487348
Si Si5 0.827762 0.084806 0.130165
Si Si6 0.444553 0.152935 0.390554
Si Si7 0.327155 0.170959 0.593968
Si Si8 0.822811 0.585016 0.216779
O O1 0.059789 0.108986 0.247783
O O2 0.055328 0.000000 0.088028
O O3 0.130697 0.109179 0.007513
O O4 0.000000 0.120112 0.000000
O O5 0.532563 0.500000 0.215145
O O6 0.485111 0.363362 0.235234
O O7 0.609377 0.386928 0.138772
O O8 0.500000 0.420644 0.000000
O O9 0.500000 0.651913 0.500000
O O10 0.621405 0.660040 0.610849
O O11 0.534315 0.765406 0.652403
O O12 0.750000 0.329806 0.557667
O O13 0.663703 0.258260 0.394645
O O14 0.668429 0.398593 0.381437
O O15 0.750000 0.099923 0.094898
O O16 0.851823 0.133410 0.262157
O O17 0.840611 0.000000 0.167849
O O18 0.500000 0.121613 0.500000
O O19 0.371881 0.144485 0.463633
O O20 0.250000 0.148347 0.562729
O O21 0.750000 0.619512 0.164656
O O22 0.817330 0.500000 0.194269
#
# Coordination Sequence:
#
# PCOD8209573 Si02
#       8
#     8   8   8   8   8   8   8   8
#     4  10  21  36  52  73 102 136 171 213 264 314
#     4  10  21  36  53  78 109 139 173 215 264 312
#     4  10  19  34  52  76 102 133 172 214 260 307
#     4   9  17  31  51  75 105 135 171 215 256 302
#     4   9  18  34  55  78 104 134 172 217 263 315
#     4  10  21  34  51  76 104 135 174 218 261 310
#     4   9  18  33  53  75 104 138 170 212 261 308
#     4   9  17  31  53  78 103 134 172 211 251 302
#
# _framework density 18.445294000000001
#
# number of rings (size 3 to 8) (size 9 to 14) (size 15 to 20)
#    0.000    2.500    1.250    0.750    0.000    2.500 
#    2.250    0.625    0.000    0.750    0.000    0.000 
#    0.000    0.000    0.000    0.000    0.000    0.000 
#
# Total GULP energy -793191.731436 kJ/mol
# GULP energy per Si atom -12393.620804 kJ/mol
# Density = 1.840331 g / cm^3
# Si number density = 18.445294 Si / 1000 Ang^3
#
#
#
# Elastic Constant Matrix: (Units=GPa)
#
#
# Indices 1 2 3 4 5 6 
#
# 1 147.9869 34.4244 64.2810 0.0000 0.0000 0.0000
# 2 34.4244 27.8917 29.1377 0.0000 0.0000 0.0000
# 3 64.2810 29.1377 104.9745 0.0000 0.0000 0.0000
# 4 0.0000 0.0000 0.0000 28.5419 0.0000 0.0000
# 5 0.0000 0.0000 0.0000 0.0000 30.1954 0.0000
# 6 0.0000 0.0000 0.0000 0.0000 0.0000 29.6510
#
#
#
# Elastic Compliance Matrix: (Units=1/GPa)
#
#
# Indices 1 2 3 4 5 6 
#
# 1 0.010555 -0.008838 -0.004010 0.000000 0.000000 0.000000
# 2 -0.008838 0.057895 -0.010658 0.000000 0.000000 0.000000
# 3 -0.004010 -0.010658 0.014940 0.000000 0.000000 0.000000
# 4 0.000000 0.000000 0.000000 0.035036 0.000000 0.000000
# 5 0.000000 0.000000 0.000000 0.000000 0.033118 0.000000
# 6 0.000000 0.000000 0.000000 0.000000 0.000000 0.033726
#
#
# Mechanical properties :
#
#
# Convention : Reuss Voigt Hill
#
# Bulk Modulus (GPa) = 27.48921 59.61547 43.55234
# Shear Modulus (GPa) = 20.45758 27.87834 24.16796
#
# Velocity S-wave (km/s) = 3.33392 3.89190 3.62367
# Velocity P-wave (km/s) = 5.45486 7.25163 6.41645
#
# Compressibility (1/GPa) = 0.03637791
#
# Stress axis : x y z
#
# Youngs Moduli (GPa) = 94.74040 17.27265 66.93368
#
# Poissons Ratio (x) = 0.15265 0.26842
# Poissons Ratio (y) = 0.83731 0.71338
# Poissons Ratio (z) = 0.37994 0.18409
#
# Static dielectric constant tensor:
#      x y z
#    x 3.927430 0.000000 0.000000 
#    y 0.000000 3.340190 0.000000 
#    z 0.000000 0.000000 3.248920 
# 
# 
# High freq. dielectric constant tensor:
#      x y z
#    x 1.740620 0.000000 0.000000 
#    y 0.000000 1.701770 0.000000 
#    z 0.000000 0.000000 1.686060 
# 
# From -- ./inp_files/11204.got.cif
#   From: 2010.03.12/outbox.cif.g09.slc.cpg/sg51_6_cif.got.tgz:11204.got - 2010.04.16 13:43:02.
