data_PCOD8209266
_publ_section_title
;
Structure prediction by ZEFSAII (Michael W. Deem and Ramdas Pophale) SiO2 
 PCOD8209266
Probable space group: P M M A
;
_chemical_formula_sum "Si O2"
_cell_formula_units_Z 64
_cell_length_a 17.316563
_cell_length_b 8.948241
_cell_length_c 22.753293
_cell_angle_alpha 90.000000
_cell_angle_beta 90.000000
_cell_angle_gamma 90.000000
_cell_volume 3525.685982
_symmetry_space_group_name_H-M "P M M A"
_symmetry_group_IT_number 51
_symmetry_cell_setting 'orthorhombic'
loop_
_space_group_symop_operation_xyz
x,y,z
1/2-x,-y,z
1/2+x,-y,-z
-x,y,-z
-x,-y,-z
1/2+x,y,-z
1/2-x,y,z
x,-y,z
loop_
_atom_site_type_symbol
_atom_site_label
_atom_site_fract_x
_atom_site_fract_y
_atom_site_fract_z
Si Si1 0.162129 0.326391 0.555906
Si Si2 0.018896 0.324189 0.635585
Si Si3 0.162853 0.329798 0.815082
Si Si4 0.523388 0.823955 0.239960
Si Si5 0.443587 0.672871 0.133880
Si Si6 0.597123 0.669285 0.062837
Si Si7 0.161485 0.826074 0.047297
Si Si8 0.925927 0.166801 0.540648
O O1 0.250000 0.291209 0.576427
O O2 0.151129 0.500000 0.541123
O O3 0.102169 0.280195 0.607347
O O4 0.144875 0.236678 0.496004
O O5 0.013346 0.500000 0.646122
O O6 0.007560 0.238857 0.696022
O O7 0.947237 0.272209 0.595383
O O8 0.250000 0.305503 0.793921
O O9 0.134722 0.500000 0.802826
O O10 0.110405 0.217686 0.778402
O O11 0.157320 0.298553 0.884644
O O12 0.461914 0.755282 0.194721
O O13 0.513699 0.000000 0.240248
O O14 0.431313 0.500000 0.148309
O O15 0.511542 0.698331 0.086838
O O16 0.366575 0.740373 0.105502
O O17 0.605695 0.500000 0.039290
O O18 0.612984 0.780802 0.009905
O O19 0.250000 0.782727 0.036535
O O20 0.149646 0.000000 0.058436
O O21 0.000000 0.158477 0.500000
O O22 0.902895 0.000000 0.561941
#
# Coordination Sequence:
#
# PCOD8209266 Si02
#       8
#     8   8   8   8   8   8   8   8
#     4   9  18  32  51  77 108 140 172 207 248 294
#     4  10  19  33  53  75 101 137 179 215 247 294
#     4   9  18  33  51  71 100 138 176 212 251 301
#     4  11  22  35  52  75 103 134 171 216 262 305
#     4  10  21  38  57  75  98 133 176 216 255 305
#     4   9  18  33  53  76 100 130 170 211 251 303
#     4  11  23  35  50  77 108 133 161 205 262 317
#     4   9  17  30  49  74 103 134 168 207 250 292
#
# _framework density 18.152495999999999
#
# number of rings (size 3 to 8) (size 9 to 14) (size 15 to 20)
#    0.000    2.250    0.000    4.125    0.000    8.500 
#    0.000    1.250    0.000    0.750    0.000    0.000 
#    0.000    0.000    0.000    0.000    0.000    0.000 
#
# Total GULP energy -793681.615892 kJ/mol
# GULP energy per Si atom -12401.275248 kJ/mol
# Density = 1.811118 g / cm^3
# Si number density = 18.152496 Si / 1000 Ang^3
#
#
#
# Elastic Constant Matrix: (Units=GPa)
#
#
# Indices 1 2 3 4 5 6 
#
# 1 36.5819 31.6603 32.3388 0.0000 0.0000 0.0000
# 2 31.6603 116.1502 60.2020 0.0000 0.0000 0.0000
# 3 32.3388 60.2020 109.9102 0.0000 0.0000 0.0000
# 4 0.0000 0.0000 0.0000 31.0019 0.0000 0.0000
# 5 0.0000 0.0000 0.0000 0.0000 11.8657 0.0000
# 6 0.0000 0.0000 0.0000 0.0000 0.0000 24.1011
#
#
#
# Elastic Compliance Matrix: (Units=1/GPa)
#
#
# Indices 1 2 3 4 5 6 
#
# 1 0.040440 -0.006781 -0.008184 0.000000 0.000000 0.000000
# 2 -0.006781 0.013160 -0.005213 0.000000 0.000000 0.000000
# 3 -0.008184 -0.005213 0.014362 0.000000 0.000000 0.000000
# 4 0.000000 0.000000 0.000000 0.032256 0.000000 0.000000
# 5 0.000000 0.000000 0.000000 0.000000 0.084277 0.000000
# 6 0.000000 0.000000 0.000000 0.000000 0.000000 0.041492
#
#
# Mechanical properties :
#
#
# Convention : Reuss Voigt Hill
#
# Bulk Modulus (GPa) = 36.22583 56.78272 46.50428
# Shear Modulus (GPa) = 18.14592 22.62315 20.38453
#
# Velocity S-wave (km/s) = 3.16514 3.53410 3.35470
# Velocity P-wave (km/s) = 5.77557 6.92835 6.37806
#
# Compressibility (1/GPa) = 0.02760461
#
# Stress axis : x y z
#
# Youngs Moduli (GPa) = 24.72826 75.98856 69.62949
#
# Poissons Ratio (x) = 0.51528 0.56987
# Poissons Ratio (y) = 0.16768 0.36298
# Poissons Ratio (z) = 0.20238 0.39613
#
# Static dielectric constant tensor:
#      x y z
#    x 3.326750 0.000000 0.000000 
#    y 0.000000 3.425640 0.000000 
#    z 0.000000 0.000000 3.277960 
# 
# 
# High freq. dielectric constant tensor:
#      x y z
#    x 1.684590 0.000000 0.000000 
#    y 0.000000 1.710030 0.000000 
#    z 0.000000 0.000000 1.693620 
# 
# From -- ./inp_files/33780.got.cif
#   From: 2010.03.12/outbox.cif.g09.slc.cpg/sg51_17_cif.got.tgz:33780.got - 2010.04.16 13:43:02.
