data_PCOD8209414
_publ_section_title
;
Structure prediction by ZEFSAII (Michael W. Deem and Ramdas Pophale) SiO2 
 PCOD8209414
Probable space group: P M M A
;
_chemical_formula_sum "Si O2"
_cell_formula_units_Z 48
_cell_length_a 9.203415
_cell_length_b 28.950341
_cell_length_c 9.421236
_cell_angle_alpha 90.000000
_cell_angle_beta 90.000000
_cell_angle_gamma 90.000000
_cell_volume 2510.212987
_symmetry_space_group_name_H-M "P M M A"
_symmetry_group_IT_number 51
_symmetry_cell_setting 'orthorhombic'
loop_
_space_group_symop_operation_xyz
x,y,z
1/2-x,-y,z
1/2+x,-y,-z
-x,y,-z
-x,-y,-z
1/2+x,y,-z
1/2-x,y,z
x,-y,z
loop_
_atom_site_type_symbol
_atom_site_label
_atom_site_fract_x
_atom_site_fract_y
_atom_site_fract_z
Si Si1 0.250000 0.551022 0.661855
Si Si2 0.501277 0.384157 0.332754
Si Si3 0.080290 0.054097 0.854362
Si Si4 0.927547 0.875983 0.653550
Si Si5 0.082049 0.697279 0.856396
Si Si6 0.578625 0.803832 0.147972
Si Si7 0.250000 0.448139 0.324740
O O1 0.250000 0.500000 0.730327
O O2 0.122217 0.581408 0.719804
O O3 0.250000 0.545819 0.493102
O O4 0.500000 0.375495 0.500000
O O5 0.510435 0.333535 0.265826
O O6 0.375153 0.415232 0.271441
O O7 0.250000 0.070106 0.859426
O O8 0.989229 0.078542 0.730727
O O9 0.070934 0.000000 0.824253
O O10 0.000000 0.067537 0.000000
O O11 0.750000 0.875952 0.647638
O O12 0.000000 0.875592 0.500000
O O13 0.989804 0.831183 0.733156
O O14 0.250000 0.684948 0.876265
O O15 0.061502 0.750329 0.811890
O O16 0.000000 0.685728 0.000000
O O17 0.750000 0.817867 0.140990
O O18 0.500000 0.815229 0.000000
O O19 0.250000 0.500000 0.257290
#
# Coordination Sequence:
#
# PCOD8209414 Si02
#       7
#     4   8   8   8   8   8   4
#     4   9  16  30  53  77 107 141 181 229 276 329
#     4  10  19  33  54  82 109 142 183 230 281 331
#     4  10  21  39  64  93 125 165 211 255 298 349
#     4  12  25  41  61  89 124 161 200 247 304 356
#     4  10  22  39  59  83 112 147 186 230 283 342
#     4  10  21  40  63  86 113 150 196 243 291 353
#     4   9  18  30  49  81 111 139 181 229 278 333
#
# _framework density 19.121883
#
# number of rings (size 3 to 8) (size 9 to 14) (size 15 to 20)
#    0.000    1.833    0.833    3.500    1.167    4.667 
#    0.000    0.000    0.000    3.000    0.000    0.000 
#    0.000    0.000    0.000    0.000    0.000    0.000 
#
# Total GULP energy -594664.650366 kJ/mol
# GULP energy per Si atom -12388.846883 kJ/mol
# Density = 1.907836 g / cm^3
# Si number density = 19.121883 Si / 1000 Ang^3
#
#
#
# Elastic Constant Matrix: (Units=GPa)
#
#
# Indices 1 2 3 4 5 6 
#
# 1 185.0472 64.6228 65.1194 0.0000 0.0000 0.0000
# 2 64.6228 127.6034 66.5530 0.0000 0.0000 0.0000
# 3 65.1194 66.5530 109.6202 0.0000 0.0000 0.0000
# 4 0.0000 0.0000 0.0000 28.1509 0.0000 0.0000
# 5 0.0000 0.0000 0.0000 0.0000 37.1612 0.0000
# 6 0.0000 0.0000 0.0000 0.0000 0.0000 39.1620
#
#
#
# Elastic Compliance Matrix: (Units=1/GPa)
#
#
# Indices 1 2 3 4 5 6 
#
# 1 0.007187 -0.002068 -0.003014 0.000000 0.000000 0.000000
# 2 -0.002068 0.012063 -0.006096 0.000000 0.000000 0.000000
# 3 -0.003014 -0.006096 0.014614 0.000000 0.000000 0.000000
# 4 0.000000 0.000000 0.000000 0.035523 0.000000 0.000000
# 5 0.000000 0.000000 0.000000 0.000000 0.026910 0.000000
# 6 0.000000 0.000000 0.000000 0.000000 0.000000 0.025535
#
#
# Mechanical properties :
#
#
# Convention : Reuss Voigt Hill
#
# Bulk Modulus (GPa) = 86.88710 90.54014 88.71362
# Shear Modulus (GPa) = 33.77888 35.95985 34.86936
#
# Velocity S-wave (km/s) = 4.20754 4.34125 4.27492
# Velocity P-wave (km/s) = 8.31515 8.51941 8.41790
#
# Compressibility (1/GPa) = 0.01150919
#
# Stress axis : x y z
#
# Youngs Moduli (GPa) = 139.14556 82.89747 68.42974
#
# Poissons Ratio (x) = 0.17140 0.20624
# Poissons Ratio (y) = 0.28771 0.41711
# Poissons Ratio (z) = 0.41937 0.50530
#
# Static dielectric constant tensor:
#      x y z
#    x 3.834490 0.000000 0.000000 
#    y 0.000000 3.669100 0.000000 
#    z 0.000000 0.000000 3.241160 
# 
# 
# High freq. dielectric constant tensor:
#      x y z
#    x 1.767360 0.000000 0.000000 
#    y 0.000000 1.762270 0.000000 
#    z 0.000000 0.000000 1.716720 
# 
# From -- ./inp_files/6281.got.cif
#   From: 2010.03.12/outbox.cif.g09.slc.cpg/sg51_4_cif.got.tgz:6281.got - 2010.04.16 13:43:02.
