data_PCOD8209678
_publ_section_title
;
Structure prediction by ZEFSAII (Michael W. Deem and Ramdas Pophale) SiO2 
 PCOD8209678
Probable space group: P M M A
;
_chemical_formula_sum "Si O2"
_cell_formula_units_Z 48
_cell_length_a 9.010161
_cell_length_b 30.944747
_cell_length_c 9.600041
_cell_angle_alpha 90.000000
_cell_angle_beta 90.000000
_cell_angle_gamma 90.000000
_cell_volume 2676.656096
_symmetry_space_group_name_H-M "P M M A"
_symmetry_group_IT_number 51
_symmetry_cell_setting 'orthorhombic'
loop_
_space_group_symop_operation_xyz
x,y,z
1/2-x,-y,z
1/2+x,-y,-z
-x,y,-z
-x,-y,-z
1/2+x,y,-z
1/2-x,y,z
x,-y,z
loop_
_atom_site_type_symbol
_atom_site_label
_atom_site_fract_x
_atom_site_fract_y
_atom_site_fract_z
Si Si1 0.074374 0.405911 0.152173
Si Si2 0.418219 0.500000 0.141960
Si Si3 0.074949 0.164372 0.858090
Si Si4 0.425984 0.336608 0.650444
Si Si5 0.924363 0.093066 0.351896
Si Si6 0.922703 0.738070 0.141498
Si Si7 0.578635 0.000000 0.354744
O O1 0.250000 0.395459 0.140208
O O2 0.046431 0.454332 0.217755
O O3 0.995265 0.375297 0.261789
O O4 0.000000 0.400578 0.000000
O O5 0.250000 0.500000 0.096393
O O6 0.500000 0.500000 0.000000
O O7 0.250000 0.160131 0.875270
O O8 0.012350 0.131517 0.742862
O O9 0.027585 0.213286 0.818739
O O10 0.000000 0.149784 0.000000
O O11 0.500000 0.334712 0.500000
O O12 0.250000 0.343357 0.635607
O O13 0.466027 0.292159 0.729366
O O14 0.750000 0.098908 0.373267
O O15 0.000000 0.097268 0.500000
O O16 0.961121 0.045825 0.279630
O O17 0.750000 0.735778 0.109295
O O18 0.000000 0.721739 0.000000
O O19 0.500000 0.000000 0.500000
O O20 0.750000 0.000000 0.390548
#
# Coordination Sequence:
#
# PCOD8209678 Si02
#       7
#     8   4   8   8   8   8   4
#     4  10  19  34  56  81 107 136 170 207 246 292
#     4   8  16  30  51  78 105 132 166 206 244 284
#     4   9  18  33  50  70  96 126 158 196 240 290
#     4  11  23  37  52  74 103 134 167 207 252 298
#     4   9  17  29  47  69  94 123 159 198 238 283
#     4   9  19  35  54  73  95 125 163 201 241 290
#     4   8  14  26  43  64  90 122 156 194 235 278
#
# _framework density 17.932821000000001
#
# number of rings (size 3 to 8) (size 9 to 14) (size 15 to 20)
#    0.000    2.667    0.000    1.500    0.000    4.667 
#    0.000    0.833    0.000    0.000    0.000    0.000 
#    0.000    0.000    0.000    0.000    0.000    0.000 
#
# Total GULP energy -594682.088286 kJ/mol
# GULP energy per Si atom -12389.210173 kJ/mol
# Density = 1.789201 g / cm^3
# Si number density = 17.932821 Si / 1000 Ang^3
#
#
#
# Elastic Constant Matrix: (Units=GPa)
#
#
# Indices 1 2 3 4 5 6 
#
# 1 55.7777 54.3436 47.9104 0.0000 0.0000 0.0000
# 2 54.3436 155.9675 92.3579 0.0000 0.0000 0.0000
# 3 47.9104 92.3579 123.4960 0.0000 0.0000 0.0000
# 4 0.0000 0.0000 0.0000 14.6795 0.0000 0.0000
# 5 0.0000 0.0000 0.0000 0.0000 30.4054 0.0000
# 6 0.0000 0.0000 0.0000 0.0000 0.0000 29.0379
#
#
#
# Elastic Compliance Matrix: (Units=1/GPa)
#
#
# Indices 1 2 3 4 5 6 
#
# 1 0.030078 -0.006408 -0.006876 0.000000 0.000000 0.000000
# 2 -0.006408 0.012873 -0.007141 0.000000 0.000000 0.000000
# 3 -0.006876 -0.007141 0.016106 0.000000 0.000000 0.000000
# 4 0.000000 0.000000 0.000000 0.068122 0.000000 0.000000
# 5 0.000000 0.000000 0.000000 0.000000 0.032889 0.000000
# 6 0.000000 0.000000 0.000000 0.000000 0.000000 0.034438
#
#
# Mechanical properties :
#
#
# Convention : Reuss Voigt Hill
#
# Bulk Modulus (GPa) = 54.92863 80.49611 67.71237
# Shear Modulus (GPa) = 20.71022 24.19984 22.45503
#
# Velocity S-wave (km/s) = 3.40204 3.67750 3.54245
# Velocity P-wave (km/s) = 6.79180 7.93833 7.38734
#
# Compressibility (1/GPa) = 0.01820544
#
# Stress axis : x y z
#
# Youngs Moduli (GPa) = 33.24656 77.68082 62.08911
#
# Poissons Ratio (x) = 0.49779 0.42696
# Poissons Ratio (y) = 0.21305 0.44340
# Poissons Ratio (z) = 0.22862 0.55474
#
# Static dielectric constant tensor:
#      x y z
#    x 3.350660 0.000000 0.000000 
#    y 0.000000 3.993620 0.000000 
#    z 0.000000 0.000000 3.083470 
# 
# 
# High freq. dielectric constant tensor:
#      x y z
#    x 1.697750 0.000000 0.000000 
#    y 0.000000 1.720230 0.000000 
#    z 0.000000 0.000000 1.661700 
# 
# From -- ./inp_files/6150.got.cif
#   From: 2010.03.12/outbox.cif.g09.slc.cpg/sg51_4_cif.got.tgz:6150.got - 2010.04.16 13:43:02.
