data_PCOD8209178
_publ_section_title
;
Structure prediction by ZEFSAII (Michael W. Deem and Ramdas Pophale) SiO2 
 PCOD8209178
Probable space group: P M M A
;
_chemical_formula_sum "Si O2"
_cell_formula_units_Z 64
_cell_length_a 9.048330
_cell_length_b 31.222307
_cell_length_c 14.404024
_cell_angle_alpha 90.000000
_cell_angle_beta 90.000000
_cell_angle_gamma 90.000000
_cell_volume 4069.277033
_symmetry_space_group_name_H-M "P M M A"
_symmetry_group_IT_number 51
_symmetry_cell_setting 'orthorhombic'
loop_
_space_group_symop_operation_xyz
x,y,z
1/2-x,-y,z
1/2+x,-y,-z
-x,y,-z
-x,-y,-z
1/2+x,y,-z
1/2-x,y,z
x,-y,z
loop_
_atom_site_type_symbol
_atom_site_label
_atom_site_fract_x
_atom_site_fract_y
_atom_site_fract_z
Si Si1 0.423059 0.862331 0.598318
Si Si2 0.922562 0.045198 0.402202
Si Si3 0.921673 0.452176 0.406902
Si Si4 0.577150 0.371679 0.290607
Si Si5 0.423657 0.220359 0.708637
Si Si6 0.578641 0.246069 0.089924
Si Si7 0.573527 0.296449 0.600123
Si Si8 0.077726 0.656249 0.909414
O O1 0.500000 0.854590 0.500000
O O2 0.250000 0.859282 0.578957
O O3 0.466081 0.909011 0.644421
O O4 0.471814 0.825900 0.670235
O O5 0.750000 0.045644 0.421490
O O6 0.000000 0.044042 0.500000
O O7 0.964040 0.000000 0.348205
O O8 0.750000 0.452223 0.429672
O O9 0.975975 0.500000 0.378922
O O10 0.958128 0.419877 0.323330
O O11 0.000000 0.435815 0.500000
O O12 0.750000 0.359429 0.303683
O O13 0.478288 0.339578 0.349929
O O14 0.532007 0.369805 0.182532
O O15 0.250000 0.230607 0.692709
O O16 0.461497 0.219528 0.817931
O O17 0.521506 0.255854 0.658917
O O18 0.750000 0.244470 0.068474
O O19 0.525208 0.294861 0.105480
O O20 0.500000 0.225511 0.000000
O O21 0.500000 0.293683 0.500000
O O22 0.750000 0.296303 0.590559
O O23 0.250000 0.653400 0.927655
O O24 0.000000 0.635982 0.000000
#
# Coordination Sequence:
#
# PCOD8209178 Si02
#       8
#     8   8   8   8   8   8   8   8
#     4   9  17  27  41  59  83 117 150 179 215 259
#     4   8  13  22  36  55  78 105 140 180 217 253
#     4   9  18  32  51  73  95 120 149 181 219 262
#     4  10  19  34  52  70  94 120 150 186 223 261
#     4  10  19  33  47  62  88 119 150 183 222 264
#     4   9  17  30  47  64  85 111 143 183 224 264
#     4  12  24  34  46  65  91 122 155 185 217 257
#     4   9  17  30  48  68  90 116 145 182 224 263
#
# _framework density 15.727608999999999
#
# number of rings (size 3 to 8) (size 9 to 14) (size 15 to 20)
#    0.000    2.500    1.250    1.875    0.000    4.000 
#    0.000    0.000    0.000    0.375    0.000    0.000 
#    0.000    0.500    0.000    0.375    0.000    1.000 
#
# Total GULP energy -793073.719966 kJ/mol
# GULP energy per Si atom -12391.776874 kJ/mol
# Density = 1.569181 g / cm^3
# Si number density = 15.727609 Si / 1000 Ang^3
#
#
#
# Elastic Constant Matrix: (Units=GPa)
#
#
# Indices 1 2 3 4 5 6 
#
# 1 45.0837 31.9047 36.5024 0.0000 0.0000 0.0000
# 2 31.9047 112.3792 59.5268 0.0000 0.0000 0.0000
# 3 36.5024 59.5268 115.0922 0.0000 0.0000 0.0000
# 4 0.0000 0.0000 0.0000 6.9663 0.0000 0.0000
# 5 0.0000 0.0000 0.0000 0.0000 24.7781 0.0000
# 6 0.0000 0.0000 0.0000 0.0000 0.0000 11.2888
#
#
#
# Elastic Compliance Matrix: (Units=1/GPa)
#
#
# Indices 1 2 3 4 5 6 
#
# 1 0.031819 -0.005080 -0.007465 0.000000 0.000000 0.000000
# 2 -0.005080 0.013067 -0.005147 0.000000 0.000000 0.000000
# 3 -0.007465 -0.005147 0.013718 0.000000 0.000000 0.000000
# 4 0.000000 0.000000 0.000000 0.143549 0.000000 0.000000
# 5 0.000000 0.000000 0.000000 0.000000 0.040358 0.000000
# 6 0.000000 0.000000 0.000000 0.000000 0.000000 0.088583
#
#
# Mechanical properties :
#
#
# Convention : Reuss Voigt Hill
#
# Bulk Modulus (GPa) = 43.06301 58.71365 50.88833
# Shear Modulus (GPa) = 13.36117 18.24806 15.80461
#
# Velocity S-wave (km/s) = 2.91784 3.40995 3.17345
# Velocity P-wave (km/s) = 6.22830 7.27436 6.77156
#
# Compressibility (1/GPa) = 0.02322178
#
# Stress axis : x y z
#
# Youngs Moduli (GPa) = 31.42734 76.52803 72.89486
#
# Poissons Ratio (x) = 0.38874 0.54413
# Poissons Ratio (y) = 0.15964 0.37522
# Poissons Ratio (z) = 0.23459 0.39392
#
# Static dielectric constant tensor:
#      x y z
#    x 2.983930 0.000000 0.000000 
#    y 0.000000 3.442980 0.000000 
#    z 0.000000 0.000000 2.961000 
# 
# 
# High freq. dielectric constant tensor:
#      x y z
#    x 1.602630 0.000000 0.000000 
#    y 0.000000 1.599140 0.000000 
#    z 0.000000 0.000000 1.581800 
# 
# From -- ./inp_files/22620.got.cif
#   From: 2010.03.12/outbox.cif.g09.slc.cpg/sg51_12_cif.got.tgz:22620.got - 2010.04.16 13:43:02.
