data_PCOD8209077
_publ_section_title
;
Structure prediction by ZEFSAII (Michael W. Deem and Ramdas Pophale) SiO2 
 PCOD8209077
Probable space group: P M M A
;
_chemical_formula_sum "Si O2"
_cell_formula_units_Z 48
_cell_length_a 8.896238
_cell_length_b 30.509747
_cell_length_c 9.612238
_cell_angle_alpha 90.000000
_cell_angle_beta 90.000000
_cell_angle_gamma 90.000000
_cell_volume 2608.972580
_symmetry_space_group_name_H-M "P M M A"
_symmetry_group_IT_number 51
_symmetry_cell_setting 'orthorhombic'
loop_
_space_group_symop_operation_xyz
x,y,z
1/2-x,-y,z
1/2+x,-y,-z
-x,y,-z
-x,-y,-z
1/2+x,y,-z
1/2-x,y,z
x,-y,z
loop_
_atom_site_type_symbol
_atom_site_label
_atom_site_fract_x
_atom_site_fract_y
_atom_site_fract_z
Si Si1 0.423666 0.288421 0.646006
Si Si2 0.073077 0.617196 0.650657
Si Si3 0.424653 0.550609 0.143975
Si Si4 0.576210 0.051652 0.642950
Si Si5 0.073247 0.193539 0.650349
Si Si6 0.571083 0.884131 0.151120
O O1 0.500000 0.290990 0.500000
O O2 0.250000 0.286583 0.613029
O O3 0.459900 0.334712 0.723846
O O4 0.470424 0.241824 0.715977
O O5 0.250000 0.608351 0.638620
O O6 0.000000 0.615785 0.500000
O O7 0.998654 0.578969 0.737017
O O8 0.250000 0.561405 0.133169
O O9 0.454563 0.500000 0.180176
O O10 0.500000 0.563985 0.000000
O O11 0.500000 0.068056 0.500000
O O12 0.750000 0.065914 0.640693
O O13 0.491380 0.072691 0.773590
O O14 0.557733 0.000000 0.660104
O O15 0.250000 0.188709 0.628661
O O16 0.015853 0.157834 0.760215
O O17 0.000000 0.185706 0.500000
O O18 0.750000 0.887105 0.138513
O O19 0.500000 0.880227 0.000000
#
# Coordination Sequence:
#
# PCOD8209077 Si02
#       6
#     8   8   8   8   8   8
#     4   8  15  29  49  74 103 133 167 208 254 303
#     4  10  19  32  53  79 107 137 170 212 258 305
#     4  10  21  37  55  74  99 133 172 213 258 310
#     4  10  21  38  60  84 109 138 174 216 260 309
#     4   9  18  33  54  78 103 134 173 214 256 305
#     4  11  23  37  54  77 108 144 179 218 263 310
#
# _framework density 18.398047999999999
#
# number of rings (size 3 to 8) (size 9 to 14) (size 15 to 20)
#    0.000    2.333    0.000    2.500    0.000    6.000 
#    0.000    0.833    0.000    2.000    0.000    0.000 
#    0.000    0.000    0.000    0.000    0.000    0.000 
#
# Total GULP energy -594812.273935 kJ/mol
# GULP energy per Si atom -12391.922374 kJ/mol
# Density = 1.835617 g / cm^3
# Si number density = 18.398048 Si / 1000 Ang^3
#
#
#
# Elastic Constant Matrix: (Units=GPa)
#
#
# Indices 1 2 3 4 5 6 
#
# 1 84.9632 52.3758 51.2966 0.0000 0.0000 0.0000
# 2 52.3758 99.5579 65.5575 0.0000 0.0000 0.0000
# 3 51.2966 65.5575 113.1300 0.0000 0.0000 0.0000
# 4 0.0000 0.0000 0.0000 5.3628 0.0000 0.0000
# 5 0.0000 0.0000 0.0000 0.0000 33.5326 0.0000
# 6 0.0000 0.0000 0.0000 0.0000 0.0000 -16.5740
#
#
#
# Elastic Compliance Matrix: (Units=1/GPa)
#
#
# Indices 1 2 3 4 5 6 
#
# 1 0.018737 -0.006893 -0.004501 0.000000 0.000000 0.000000
# 2 -0.006893 0.018778 -0.007756 0.000000 0.000000 0.000000
# 3 -0.004501 -0.007756 0.015375 0.000000 0.000000 0.000000
# 4 0.000000 0.000000 0.000000 0.186470 0.000000 0.000000
# 5 0.000000 0.000000 0.000000 0.000000 0.029822 0.000000
# 6 0.000000 0.000000 0.000000 0.000000 0.000000 -0.060336
#
#
# Mechanical properties :
#
#
# Convention : Reuss Voigt Hill
#
# Bulk Modulus (GPa) = 68.54603 70.67897 69.61250
# Shear Modulus (GPa) = 19.84050 13.02569 16.43310
#
# Velocity S-wave (km/s) = 3.28747 2.66370 2.99188
# Velocity P-wave (km/s) = 7.19361 6.92534 7.06075
#
# Compressibility (1/GPa) = 0.01458874
#
# Stress axis : x y z
#
# Youngs Moduli (GPa) = 53.37118 53.25384 65.04037
#
# Poissons Ratio (x) = 0.36708 0.29277
# Poissons Ratio (y) = 0.36789 0.50446
# Poissons Ratio (z) = 0.24025 0.41304
#
# Static dielectric constant tensor:
#      x y z
#    x 3.558430 0.000000 0.000000 
#    y 0.000000 4.023700 0.000000 
#    z 0.000000 0.000000 3.119990 
# 
# 
# High freq. dielectric constant tensor:
#      x y z
#    x 1.725750 0.000000 0.000000 
#    y 0.000000 1.736830 0.000000 
#    z 0.000000 0.000000 1.682630 
# 
# From -- ./inp_files/5968.got.cif
#   From: 2010.03.12/outbox.cif.g09.slc.cpg/sg51_3_cif.got.tgz:5968.got - 2010.04.16 13:43:02.
