data_PCOD8209354
_publ_section_title
;
Structure prediction by ZEFSAII (Michael W. Deem and Ramdas Pophale) SiO2 
 PCOD8209354
Probable space group: P M M A
;
_chemical_formula_sum "Si O2"
_cell_formula_units_Z 48
_cell_length_a 9.144635
_cell_length_b 20.394230
_cell_length_c 14.438985
_cell_angle_alpha 90.000000
_cell_angle_beta 90.000000
_cell_angle_gamma 90.000000
_cell_volume 2692.838784
_symmetry_space_group_name_H-M "P M M A"
_symmetry_group_IT_number 51
_symmetry_cell_setting 'orthorhombic'
loop_
_space_group_symop_operation_xyz
x,y,z
1/2-x,-y,z
1/2+x,-y,-z
-x,y,-z
-x,-y,-z
1/2+x,y,-z
1/2-x,y,z
x,-y,z
loop_
_atom_site_type_symbol
_atom_site_label
_atom_site_fract_x
_atom_site_fract_y
_atom_site_fract_z
Si Si1 0.079119 0.804155 0.210264
Si Si2 0.416295 0.426673 0.769867
Si Si3 0.418643 0.234007 0.410975
Si Si4 0.078491 0.385592 0.408335
Si Si5 0.080326 0.926638 0.091981
Si Si6 0.923053 0.691077 0.098379
O O1 0.250000 0.785427 0.197459
O O2 0.035412 0.804447 0.318295
O O3 0.043504 0.877173 0.174946
O O4 0.981209 0.752748 0.155481
O O5 0.250000 0.411261 0.739075
O O6 0.429690 0.500000 0.811561
O O7 0.519496 0.423179 0.680787
O O8 0.466175 0.375520 0.848201
O O9 0.500000 0.203879 0.500000
O O10 0.250000 0.225881 0.432881
O O11 0.461532 0.309490 0.395604
O O12 0.250000 0.398255 0.417622
O O13 0.000000 0.413594 0.500000
O O14 0.250000 0.925750 0.068066
O O15 0.028867 0.000000 0.120544
O O16 0.000000 0.901967 0.000000
O O17 0.750000 0.698292 0.084642
O O18 0.000000 0.688812 0.000000
#
# Coordination Sequence:
#
# PCOD8209354 Si02
#       6
#     8   8   8   8   8   8
#     4  10  19  34  55  79 107 136 172 214 255 301
#     4  10  22  39  55  73 100 134 172 214 260 310
#     4   9  18  31  50  76 104 133 166 208 253 301
#     4  10  19  33  54  78 104 133 168 210 259 311
#     4   9  18  32  51  76 107 141 174 209 252 301
#     4  11  23  37  55  77 102 132 170 214 260 307
#
# _framework density 17.825054999999999
#
# number of rings (size 3 to 8) (size 9 to 14) (size 15 to 20)
#    0.000    2.167    1.667    1.500    0.000    5.000 
#    0.000    0.000    0.000    0.500    0.000    0.000 
#    0.000    0.000    0.000    0.000    0.000    0.000 
#
# Total GULP energy -595272.687195 kJ/mol
# GULP energy per Si atom -12401.514317 kJ/mol
# Density = 1.778448 g / cm^3
# Si number density = 17.825055 Si / 1000 Ang^3
#
#
#
# Elastic Constant Matrix: (Units=GPa)
#
#
# Indices 1 2 3 4 5 6 
#
# 1 64.5792 38.8853 52.6958 0.0000 0.0000 0.0000
# 2 38.8853 95.4682 65.0927 0.0000 0.0000 0.0000
# 3 52.6958 65.0927 142.3491 0.0000 0.0000 0.0000
# 4 0.0000 0.0000 0.0000 21.0975 0.0000 0.0000
# 5 0.0000 0.0000 0.0000 0.0000 32.3866 0.0000
# 6 0.0000 0.0000 0.0000 0.0000 0.0000 20.1584
#
#
#
# Elastic Compliance Matrix: (Units=1/GPa)
#
#
# Indices 1 2 3 4 5 6 
#
# 1 0.023956 -0.005392 -0.006403 0.000000 0.000000 0.000000
# 2 -0.005392 0.016434 -0.005519 0.000000 0.000000 0.000000
# 3 -0.006403 -0.005519 0.011919 0.000000 0.000000 0.000000
# 4 0.000000 0.000000 0.000000 0.047399 0.000000 0.000000
# 5 0.000000 0.000000 0.000000 0.000000 0.030877 0.000000
# 6 0.000000 0.000000 0.000000 0.000000 0.000000 0.049607
#
#
# Mechanical properties :
#
#
# Convention : Reuss Voigt Hill
#
# Bulk Modulus (GPa) = 56.55535 68.41601 62.48568
# Shear Modulus (GPa) = 22.65397 24.44337 23.54867
#
# Velocity S-wave (km/s) = 3.56884 3.70711 3.63864
# Velocity P-wave (km/s) = 6.98420 7.53584 7.26526
#
# Compressibility (1/GPa) = 0.01768179
#
# Stress axis : x y z
#
# Youngs Moduli (GPa) = 41.74311 60.85055 83.90218
#
# Poissons Ratio (x) = 0.32812 0.53719
# Poissons Ratio (y) = 0.22509 0.46302
# Poissons Ratio (z) = 0.26726 0.33581
#
# Static dielectric constant tensor:
#      x y z
#    x 3.327220 0.000000 0.000000 
#    y 0.000000 3.334760 0.000000 
#    z 0.000000 0.000000 3.394980 
# 
# 
# High freq. dielectric constant tensor:
#      x y z
#    x 1.692590 0.000000 0.000000 
#    y 0.000000 1.676280 0.000000 
#    z 0.000000 0.000000 1.690460 
# 
# From -- ./inp_files/14414.got.cif
#   From: 2010.03.12/outbox.cif.g09.slc.cpg/sg51_8_cif.got.tgz:14414.got - 2010.04.16 13:43:02.
