data_PCOD8209321
_publ_section_title
;
Structure prediction by ZEFSAII (Michael W. Deem and Ramdas Pophale) SiO2 
 PCOD8209321
Probable space group: P M M A
;
_chemical_formula_sum "Si O2"
_cell_formula_units_Z 64
_cell_length_a 23.849674
_cell_length_b 9.045022
_cell_length_c 14.823173
_cell_angle_alpha 90.000000
_cell_angle_beta 90.000000
_cell_angle_gamma 90.000000
_cell_volume 3197.667124
_symmetry_space_group_name_H-M "P M M A"
_symmetry_group_IT_number 51
_symmetry_cell_setting 'orthorhombic'
loop_
_space_group_symop_operation_xyz
x,y,z
1/2-x,-y,z
1/2+x,-y,-z
-x,y,-z
-x,-y,-z
1/2+x,y,-z
1/2-x,y,z
x,-y,z
loop_
_atom_site_type_symbol
_atom_site_label
_atom_site_fract_x
_atom_site_fract_y
_atom_site_fract_z
Si Si1 0.999678 0.672824 0.211811
Si Si2 0.690884 0.831352 0.279809
Si Si3 0.126755 0.330932 0.192447
Si Si4 0.030057 0.674539 0.588919
Si Si5 0.184702 0.328441 0.004542
Si Si6 0.394342 0.824354 0.862020
Si Si7 0.687353 0.175224 0.648766
Si Si8 0.361065 0.831945 0.538642
O O1 0.985481 0.500000 0.207940
O O2 0.996092 0.731105 0.315962
O O3 0.956353 0.754913 0.144852
O O4 0.061626 0.706939 0.173224
O O5 0.750000 0.754162 0.251581
O O6 0.638139 0.762909 0.227024
O O7 0.688057 0.824630 0.387824
O O8 0.692875 0.000000 0.247011
O O9 0.131866 0.500000 0.224828
O O10 0.147746 0.227029 0.271701
O O11 0.165718 0.300860 0.106849
O O12 0.026315 0.500000 0.586099
O O13 0.093201 0.726277 0.581874
O O14 0.000000 0.742621 0.500000
O O15 0.250000 0.279144 0.993718
O O16 0.177701 0.500000 0.978314
O O17 0.142351 0.230614 0.946071
O O18 0.401415 0.000000 0.867916
O O19 0.750000 0.240185 0.660661
O O20 0.661574 0.233672 0.554932
O O21 0.689623 0.000000 0.646870
O O22 0.383549 0.000000 0.527457
#
# Coordination Sequence:
#
# PCOD8209321 Si02
#       8
#     8   8   8   8   8   8   8   8
#     4  10  21  38  59  84 118 156 196 244 294 344
#     4   9  17  31  52  78 109 145 184 225 272 331
#     4  10  22  41  64  86 112 154 201 243 292 351
#     4  10  20  34  53  78 112 153 195 241 288 334
#     4  10  22  41  64  89 116 148 190 241 297 355
#     4  11  22  37  60  88 119 154 194 237 286 346
#     4  10  21  36  56  85 119 153 191 242 300 349
#     4  10  19  33  53  79 111 149 191 234 283 343
#
# _framework density 20.014589999999998
#
# number of rings (size 3 to 8) (size 9 to 14) (size 15 to 20)
#    0.000    2.000    1.250    2.250    0.000    6.250 
#    0.000    2.500    0.000    1.875    0.000    0.000 
#    0.000    0.000    0.000    0.000    0.000    0.000 
#
# Total GULP energy -793321.760190 kJ/mol
# GULP energy per Si atom -12395.652503 kJ/mol
# Density = 1.996904 g / cm^3
# Si number density = 20.014590 Si / 1000 Ang^3
#
#
#
# Elastic Constant Matrix: (Units=GPa)
#
#
# Indices 1 2 3 4 5 6 
#
# 1 109.4956 23.4800 28.6750 0.0000 0.0000 0.0000
# 2 23.4800 26.7771 25.8564 0.0000 0.0000 0.0000
# 3 28.6750 25.8564 80.0472 0.0000 0.0000 0.0000
# 4 0.0000 0.0000 0.0000 26.7970 0.0000 0.0000
# 5 0.0000 0.0000 0.0000 0.0000 34.4202 0.0000
# 6 0.0000 0.0000 0.0000 0.0000 0.0000 24.3260
#
#
#
# Elastic Compliance Matrix: (Units=1/GPa)
#
#
# Indices 1 2 3 4 5 6 
#
# 1 0.011331 -0.008744 -0.001235 0.000000 0.000000 0.000000
# 2 -0.008744 0.061021 -0.016578 0.000000 0.000000 0.000000
# 3 -0.001235 -0.016578 0.018290 0.000000 0.000000 0.000000
# 4 0.000000 0.000000 0.000000 0.037318 0.000000 0.000000
# 5 0.000000 0.000000 0.000000 0.000000 0.029053 0.000000
# 6 0.000000 0.000000 0.000000 0.000000 0.000000 0.041108
#
#
# Mechanical properties :
#
#
# Convention : Reuss Voigt Hill
#
# Bulk Modulus (GPa) = 26.64655 41.37141 34.00898
# Shear Modulus (GPa) = 18.95784 26.32922 22.64353
#
# Velocity S-wave (km/s) = 3.08100 3.63092 3.36721
# Velocity P-wave (km/s) = 5.09894 6.18818 5.66978
#
# Compressibility (1/GPa) = 0.03752831
#
# Stress axis : x y z
#
# Youngs Moduli (GPa) = 88.25260 16.38790 54.67459
#
# Poissons Ratio (x) = 0.14329 0.06751
# Poissons Ratio (y) = 0.77164 0.90642
# Poissons Ratio (z) = 0.10898 0.27168
#
# Static dielectric constant tensor:
#      x y z
#    x 3.775390 0.000000 0.000000 
#    y 0.000000 3.360890 0.000000 
#    z 0.000000 0.000000 3.728260 
# 
# 
# High freq. dielectric constant tensor:
#      x y z
#    x 1.793870 0.000000 0.000000 
#    y 0.000000 1.753080 0.000000 
#    z 0.000000 0.000000 1.785690 
# 
# From -- ./inp_files/26245.got.cif
#   From: 2010.03.12/outbox.cif.g09.slc.cpg/sg51_14_cif.got.tgz:26245.got - 2010.04.16 13:43:02.
