data_PCOD8209973
_publ_section_title
;
Structure prediction by ZEFSAII (Michael W. Deem and Ramdas Pophale) SiO2 
 PCOD8209973
Probable space group: P M M A
;
_chemical_formula_sum "Si O2"
_cell_formula_units_Z 48
_cell_length_a 19.788457
_cell_length_b 9.366233
_cell_length_c 13.506010
_cell_angle_alpha 90.000000
_cell_angle_beta 90.000000
_cell_angle_gamma 90.000000
_cell_volume 2503.248449
_symmetry_space_group_name_H-M "P M M A"
_symmetry_group_IT_number 51
_symmetry_cell_setting 'orthorhombic'
loop_
_space_group_symop_operation_xyz
x,y,z
1/2-x,-y,z
1/2+x,-y,-z
-x,y,-z
-x,-y,-z
1/2+x,y,-z
1/2-x,y,z
x,-y,z
loop_
_atom_site_type_symbol
_atom_site_label
_atom_site_fract_x
_atom_site_fract_y
_atom_site_fract_z
Si Si1 0.878999 0.835681 0.749250
Si Si2 0.750000 0.330698 0.458353
Si Si3 0.927449 0.166233 0.966647
Si Si4 0.869543 0.332208 0.320875
Si Si5 0.327815 0.337627 0.898649
Si Si6 0.503096 0.834324 0.386982
Si Si7 0.750000 0.329672 0.685054
O O1 0.917344 0.801725 0.851124
O O2 0.930524 0.802265 0.660664
O O3 0.815460 0.731717 0.739627
O O4 0.854415 0.000000 0.745888
O O5 0.750000 0.500000 0.451010
O O6 0.817259 0.273390 0.403611
O O7 0.750000 0.277283 0.571188
O O8 0.923585 0.000000 0.990931
O O9 0.868920 0.238875 0.028349
O O10 0.000000 0.228238 0.000000
O O11 0.881423 0.500000 0.333503
O O12 0.838988 0.293145 0.214683
O O13 0.940750 0.254704 0.329937
O O14 0.250000 0.316923 0.925933
O O15 0.351035 0.500000 0.915210
O O16 0.500000 0.783436 0.500000
O O17 0.522340 0.000000 0.377716
O O18 0.750000 0.500000 0.693878
#
# Coordination Sequence:
#
# PCOD8209973 Si02
#       7
#     8   4   8   8   8   8   4
#     4  10  22  40  59  81 116 155 186 229 288 340
#     4   9  18  35  56  81 114 152 189 229 282 337
#     4  10  22  40  61  83 111 150 192 231 278 340
#     4  10  19  35  59  83 114 152 188 231 286 343
#     4  10  21  37  58  86 117 148 186 237 290 335
#     4  10  21  37  58  85 116 150 191 239 286 333
#     4  11  23  37  58  85 112 146 193 237 270 329
#
# _framework density 19.175084999999999
#
# number of rings (size 3 to 8) (size 9 to 14) (size 15 to 20)
#    0.000    2.000    0.833    2.250    1.167    4.333 
#    0.000    1.250    0.000    0.000    0.000    0.000 
#    0.000    0.000    0.000    0.000    0.000    0.000 
#
# Total GULP energy -595424.686385 kJ/mol
# GULP energy per Si atom -12404.680966 kJ/mol
# Density = 1.913144 g / cm^3
# Si number density = 19.175085 Si / 1000 Ang^3
#
#
#
# Elastic Constant Matrix: (Units=GPa)
#
#
# Indices 1 2 3 4 5 6 
#
# 1 111.2026 45.7519 53.0877 0.0000 0.0000 0.0000
# 2 45.7519 52.4045 43.3600 0.0000 0.0000 0.0000
# 3 53.0877 43.3600 114.2864 0.0000 0.0000 0.0000
# 4 0.0000 0.0000 0.0000 30.0303 0.0000 0.0000
# 5 0.0000 0.0000 0.0000 0.0000 38.7704 0.0000
# 6 0.0000 0.0000 0.0000 0.0000 0.0000 20.9644
#
#
#
# Elastic Compliance Matrix: (Units=1/GPa)
#
#
# Indices 1 2 3 4 5 6 
#
# 1 0.014641 -0.010429 -0.002844 0.000000 0.000000 0.000000
# 2 -0.010429 0.035243 -0.008526 0.000000 0.000000 0.000000
# 3 -0.002844 -0.008526 0.013306 0.000000 0.000000 0.000000
# 4 0.000000 0.000000 0.000000 0.033300 0.000000 0.000000
# 5 0.000000 0.000000 0.000000 0.000000 0.025793 0.000000
# 6 0.000000 0.000000 0.000000 0.000000 0.000000 0.047700
#
#
# Mechanical properties :
#
#
# Convention : Reuss Voigt Hill
#
# Bulk Modulus (GPa) = 51.04644 62.47698 56.76171
# Shear Modulus (GPa) = 22.71567 26.99926 24.85746
#
# Velocity S-wave (km/s) = 3.44560 3.75645 3.60438
# Velocity P-wave (km/s) = 6.51986 7.17410 6.85479
#
# Compressibility (1/GPa) = 0.01959000
#
# Stress axis : x y z
#
# Youngs Moduli (GPa) = 68.29970 28.37483 75.15380
#
# Poissons Ratio (x) = 0.29593 0.21376
# Poissons Ratio (y) = 0.71232 0.64079
# Poissons Ratio (z) = 0.19426 0.24193
#
# Static dielectric constant tensor:
#      x y z
#    x 3.558760 0.000000 0.000000 
#    y 0.000000 3.329930 0.000000 
#    z 0.000000 0.000000 3.661240 
# 
# 
# High freq. dielectric constant tensor:
#      x y z
#    x 1.756030 0.000000 0.000000 
#    y 0.000000 1.729520 0.000000 
#    z 0.000000 0.000000 1.759070 
# 
# From -- ./inp_files/24922.got.cif
#   From: 2010.03.12/outbox.cif.g09.slc.cpg/sg51_13_cif.got.tgz:24922.got - 2010.04.16 13:43:02.
