data_PCOD8209871
_publ_section_title
;
Structure prediction by ZEFSAII (Michael W. Deem and Ramdas Pophale) SiO2 
 PCOD8209871
Probable space group: P M M A
;
_chemical_formula_sum "Si O2"
_cell_formula_units_Z 48
_cell_length_a 9.232628
_cell_length_b 14.848471
_cell_length_c 19.780408
_cell_angle_alpha 90.000000
_cell_angle_beta 90.000000
_cell_angle_gamma 90.000000
_cell_volume 2711.704225
_symmetry_space_group_name_H-M "P M M A"
_symmetry_group_IT_number 51
_symmetry_cell_setting 'orthorhombic'
loop_
_space_group_symop_operation_xyz
x,y,z
1/2-x,-y,z
1/2+x,-y,-z
-x,y,-z
-x,-y,-z
1/2+x,y,-z
1/2-x,y,z
x,-y,z
loop_
_atom_site_type_symbol
_atom_site_label
_atom_site_fract_x
_atom_site_fract_y
_atom_site_fract_z
Si Si1 0.080185 0.603383 0.566257
Si Si2 0.410963 0.101618 0.292575
Si Si3 0.581026 0.676243 0.158129
Si Si4 0.581418 0.500000 0.072326
Si Si5 0.419954 0.000000 0.930987
Si Si6 0.918693 0.723624 0.310228
Si Si7 0.911456 0.152073 0.862356
O O1 0.250000 0.615706 0.554987
O O2 0.037950 0.500000 0.578890
O O3 0.024510 0.657300 0.631598
O O4 0.000000 0.641251 0.500000
O O5 0.250000 0.107023 0.324442
O O6 0.510957 0.178671 0.324449
O O7 0.399363 0.123396 0.214313
O O8 0.474008 0.000000 0.303851
O O9 0.750000 0.700720 0.147235
O O10 0.540687 0.584237 0.120022
O O11 0.545302 0.675528 0.238550
O O12 0.474351 0.748813 0.125073
O O13 0.750000 0.500000 0.054228
O O14 0.500000 0.500000 0.000000
O O15 0.468315 0.088818 0.893320
O O16 0.250000 0.000000 0.940502
O O17 0.500000 0.000000 0.000000
O O18 0.750000 0.741089 0.316321
O O19 0.750000 0.145079 0.895406
#
# Coordination Sequence:
#
# PCOD8209871 Si02
#       7
#     8   8   8   4   4   8   8
#     4   9  18  32  51  76 108 143 174 210 258 310
#     4   9  17  31  51  74 103 135 165 204 257 307
#     4   9  19  35  54  78 102 134 177 220 263 310
#     4  10  22  38  56  74 101 136 174 216 263 316
#     4  12  24  36  52  74 100 132 169 210 259 318
#     4   9  18  31  51  79 105 133 174 218 257 299
#     4  10  19  35  54  74 102 133 165 210 261 313
#
# _framework density 17.701046000000002
#
# number of rings (size 3 to 8) (size 9 to 14) (size 15 to 20)
#    0.000    2.500    0.833    1.250    1.167    3.000 
#    0.000    1.667    0.000    0.500    0.000    0.000 
#    0.000    0.000    0.000    0.000    0.000    0.000 
#
# Total GULP energy -594875.964636 kJ/mol
# GULP energy per Si atom -12393.249263 kJ/mol
# Density = 1.766076 g / cm^3
# Si number density = 17.701046 Si / 1000 Ang^3
#
#
#
# Elastic Constant Matrix: (Units=GPa)
#
#
# Indices 1 2 3 4 5 6 
#
# 1 85.4975 57.5954 41.1426 0.0000 0.0000 0.0000
# 2 57.5954 144.8573 66.3576 0.0000 0.0000 0.0000
# 3 41.1426 66.3576 77.8378 0.0000 0.0000 0.0000
# 4 0.0000 0.0000 0.0000 30.3687 0.0000 0.0000
# 5 0.0000 0.0000 0.0000 0.0000 26.4393 0.0000
# 6 0.0000 0.0000 0.0000 0.0000 0.0000 29.9746
#
#
#
# Elastic Compliance Matrix: (Units=1/GPa)
#
#
# Indices 1 2 3 4 5 6 
#
# 1 0.017240 -0.004398 -0.005363 0.000000 0.000000 0.000000
# 2 -0.004398 0.012449 -0.008288 0.000000 0.000000 0.000000
# 3 -0.005363 -0.008288 0.022748 0.000000 0.000000 0.000000
# 4 0.000000 0.000000 0.000000 0.032929 0.000000 0.000000
# 5 0.000000 0.000000 0.000000 0.000000 0.037822 0.000000
# 6 0.000000 0.000000 0.000000 0.000000 0.000000 0.033362
#
#
# Mechanical properties :
#
#
# Convention : Reuss Voigt Hill
#
# Bulk Modulus (GPa) = 61.20724 70.93152 66.06938
# Shear Modulus (GPa) = 25.24074 26.89632 26.06853
#
# Velocity S-wave (km/s) = 3.78027 3.90227 3.84176
# Velocity P-wave (km/s) = 7.32852 7.77577 7.55546
#
# Compressibility (1/GPa) = 0.01633794
#
# Stress axis : x y z
#
# Youngs Moduli (GPa) = 58.00600 80.33094 43.96038
#
# Poissons Ratio (x) = 0.35326 0.23577
# Poissons Ratio (y) = 0.25509 0.36435
# Poissons Ratio (z) = 0.31110 0.66579
#
# Static dielectric constant tensor:
#      x y z
#    x 3.397370 0.000000 0.000000 
#    y 0.000000 3.404770 0.000000 
#    z 0.000000 0.000000 3.157430 
# 
# 
# High freq. dielectric constant tensor:
#      x y z
#    x 1.685260 0.000000 0.000000 
#    y 0.000000 1.690720 0.000000 
#    z 0.000000 0.000000 1.663360 
# 
# From -- ./inp_files/27648.got.cif
#   From: 2010.03.12/outbox.cif.g09.slc.cpg/sg51_14_cif.got.tgz:27648.got - 2010.04.16 13:43:02.
