data_PCOD8209392
_publ_section_title
;
Structure prediction by ZEFSAII (Michael W. Deem and Ramdas Pophale) SiO2 
 PCOD8209392
Probable space group: P M M A
;
_chemical_formula_sum "Si O2"
_cell_formula_units_Z 52
_cell_length_a 8.933838
_cell_length_b 22.662238
_cell_length_c 14.265635
_cell_angle_alpha 90.000000
_cell_angle_beta 90.000000
_cell_angle_gamma 90.000000
_cell_volume 2888.231347
_symmetry_space_group_name_H-M "P M M A"
_symmetry_group_IT_number 51
_symmetry_cell_setting 'orthorhombic'
loop_
_space_group_symop_operation_xyz
x,y,z
1/2-x,-y,z
1/2+x,-y,-z
-x,y,-z
-x,-y,-z
1/2+x,y,-z
1/2-x,y,z
x,-y,z
loop_
_atom_site_type_symbol
_atom_site_label
_atom_site_fract_x
_atom_site_fract_y
_atom_site_fract_z
Si Si1 0.574287 0.726439 0.400043
Si Si2 0.925600 0.500000 0.601060
Si Si3 0.926504 0.838846 0.276225
Si Si4 0.423056 0.069058 0.403300
Si Si5 0.073940 0.381369 0.295519
Si Si6 0.427162 0.208270 0.095625
Si Si7 0.575969 0.343549 0.906313
O O1 0.500000 0.733625 0.500000
O O2 0.750000 0.719793 0.413548
O O3 0.530155 0.783521 0.340571
O O4 0.514947 0.668788 0.348924
O O5 0.750000 0.500000 0.584373
O O6 0.976113 0.443366 0.660628
O O7 0.000000 0.500000 0.500000
O O8 0.750000 0.845261 0.263378
O O9 0.993032 0.898212 0.319666
O O10 0.003879 0.831579 0.176424
O O11 0.500000 0.088158 0.500000
O O12 0.250000 0.087972 0.407808
O O13 0.441834 0.000000 0.384501
O O14 0.250000 0.369231 0.307722
O O15 0.030531 0.381459 0.185203
O O16 0.250000 0.200246 0.092594
O O17 0.474524 0.276263 0.112282
O O18 0.500000 0.185053 0.000000
O O19 0.750000 0.346886 0.925954
O O20 0.500000 0.369701 0.000000
#
# Coordination Sequence:
#
# PCOD8209392 Si02
#       7
#     8   4   8   8   8   8   8
#     4  11  23  35  51  77 108 140 175 221 271 322
#     4  10  22  38  57  76 102 138 183 226 267 326
#     4  11  22  35  54  82 112 144 183 225 273 326
#     4  10  21  37  57  81 111 149 190 229 271 322
#     4  10  20  37  56  77 104 140 179 221 271 323
#     4  10  19  33  54  80 111 145 180 222 272 329
#     4   9  18  32  53  78 106 139 173 215 268 322
#
# _framework density 18.004097000000002
#
# number of rings (size 3 to 8) (size 9 to 14) (size 15 to 20)
#    0.000    1.846    1.538    2.769    0.000    7.077 
#    0.000    0.385    0.000    0.462    0.000    0.000 
#    0.000    0.000    0.000    0.000    0.000    0.000 
#
# Total GULP energy -645000.362773 kJ/mol
# GULP energy per Si atom -12403.853130 kJ/mol
# Density = 1.796312 g / cm^3
# Si number density = 18.004097 Si / 1000 Ang^3
#
#
#
# Elastic Constant Matrix: (Units=GPa)
#
#
# Indices 1 2 3 4 5 6 
#
# 1 76.4633 41.3215 61.2968 0.0000 0.0000 0.0000
# 2 41.3215 75.1632 59.8428 0.0000 0.0000 0.0000
# 3 61.2968 59.8428 170.7864 0.0000 0.0000 0.0000
# 4 0.0000 0.0000 0.0000 42.0146 0.0000 0.0000
# 5 0.0000 0.0000 0.0000 0.0000 38.0200 0.0000
# 6 0.0000 0.0000 0.0000 0.0000 0.0000 22.5128
#
#
#
# Elastic Compliance Matrix: (Units=1/GPa)
#
#
# Indices 1 2 3 4 5 6 
#
# 1 0.021187 -0.007758 -0.004886 0.000000 0.000000 0.000000
# 2 -0.007758 0.021293 -0.004676 0.000000 0.000000 0.000000
# 3 -0.004886 -0.004676 0.009248 0.000000 0.000000 0.000000
# 4 0.000000 0.000000 0.000000 0.023801 0.000000 0.000000
# 5 0.000000 0.000000 0.000000 0.000000 0.026302 0.000000
# 6 0.000000 0.000000 0.000000 0.000000 0.000000 0.044419
#
#
# Mechanical properties :
#
#
# Convention : Reuss Voigt Hill
#
# Bulk Modulus (GPa) = 58.52450 71.92613 65.22531
# Shear Modulus (GPa) = 26.79725 31.17293 28.98509
#
# Velocity S-wave (km/s) = 3.86216 4.16557 4.01673
# Velocity P-wave (km/s) = 7.24328 7.94811 7.60387
#
# Compressibility (1/GPa) = 0.01708686
#
# Stress axis : x y z
#
# Youngs Moduli (GPa) = 47.19766 46.96475 108.13689
#
# Poissons Ratio (x) = 0.36434 0.52837
# Poissons Ratio (y) = 0.36615 0.50570
# Poissons Ratio (z) = 0.23061 0.21963
#
# Static dielectric constant tensor:
#      x y z
#    x 3.388560 0.000000 0.000000 
#    y 0.000000 3.249580 0.000000 
#    z 0.000000 0.000000 3.360200 
# 
# 
# High freq. dielectric constant tensor:
#      x y z
#    x 1.705920 0.000000 0.000000 
#    y 0.000000 1.678880 0.000000 
#    z 0.000000 0.000000 1.709180 
# 
# From -- ./inp_files/21502.got.cif
#   From: 2010.03.12/outbox.cif.g09.slc.cpg/sg51_11_cif.got.tgz:21502.got - 2010.04.16 13:43:02.
