data_PCOD8209257
_publ_section_title
;
Structure prediction by ZEFSAII (Michael W. Deem and Ramdas Pophale) SiO2 
 PCOD8209257
Probable space group: P M M A
;
_chemical_formula_sum "Si O2"
_cell_formula_units_Z 64
_cell_length_a 19.387368
_cell_length_b 9.206416
_cell_length_c 20.226503
_cell_angle_alpha 90.000000
_cell_angle_beta 90.000000
_cell_angle_gamma 90.000000
_cell_volume 3610.191606
_symmetry_space_group_name_H-M "P M M A"
_symmetry_group_IT_number 51
_symmetry_cell_setting 'orthorhombic'
loop_
_space_group_symop_operation_xyz
x,y,z
1/2-x,-y,z
1/2+x,-y,-z
-x,y,-z
-x,-y,-z
1/2+x,y,-z
1/2-x,y,z
x,-y,z
loop_
_atom_site_type_symbol
_atom_site_label
_atom_site_fract_x
_atom_site_fract_y
_atom_site_fract_z
Si Si1 0.548101 0.828110 0.093118
Si Si2 0.329546 0.170994 0.654375
Si Si3 0.590015 0.829797 0.734437
Si Si4 0.831914 0.663576 0.475418
Si Si5 0.064470 0.171129 0.762033
Si Si6 0.100826 0.171523 0.043807
Si Si7 0.829824 0.830892 0.603886
Si Si8 0.671108 0.667409 0.847587
O O1 0.571819 0.761865 0.163805
O O2 0.470839 0.776825 0.076812
O O3 0.545830 0.000000 0.097550
O O4 0.599991 0.782971 0.033897
O O5 0.250000 0.209236 0.669213
O O6 0.357651 0.250094 0.588893
O O7 0.374748 0.232079 0.715435
O O8 0.339787 0.000000 0.643341
O O9 0.509449 0.789091 0.730581
O O10 0.625572 0.780862 0.666485
O O11 0.623567 0.745096 0.794462
O O12 0.601265 0.000000 0.747836
O O13 0.750000 0.664878 0.476468
O O14 0.861101 0.500000 0.473526
O O15 0.859049 0.742775 0.541269
O O16 0.073060 0.000000 0.766978
O O17 0.161196 0.258389 0.080644
O O18 0.112850 0.000000 0.051876
O O19 0.750000 0.794351 0.618572
O O20 0.839635 0.000000 0.588238
O O21 0.750000 0.686279 0.825913
O O22 0.649875 0.500000 0.852252
#
# Coordination Sequence:
#
# PCOD8209257 Si02
#       8
#     8   8   8   8   8   8   8   8
#     4   8  14  27  51  78  99 120 156 208 253 288
#     4   9  17  30  50  74  98 125 158 200 250 300
#     4  10  19  33  53  74  97 131 171 208 247 295
#     4   9  17  30  49  70  93 126 165 200 239 292
#     4   9  16  29  51  77 102 127 159 204 252 296
#     4   9  16  30  53  75  95 126 167 207 246 290
#     4   9  17  29  47  72  97 121 158 206 247 288
#     4  11  23  35  47  69 105 141 170 207 251 293
#
# _framework density 17.727591
#
# number of rings (size 3 to 8) (size 9 to 14) (size 15 to 20)
#    0.000    2.750    1.250    1.875    0.000    3.500 
#    0.000    4.375    0.000    6.000    0.000    1.750 
#    0.000    0.000    0.000    0.000    0.000    0.000 
#
# Total GULP energy -793401.608340 kJ/mol
# GULP energy per Si atom -12396.900130 kJ/mol
# Density = 1.768724 g / cm^3
# Si number density = 17.727591 Si / 1000 Ang^3
#
#
#
# Elastic Constant Matrix: (Units=GPa)
#
#
# Indices 1 2 3 4 5 6 
#
# 1 68.9410 29.5236 58.8917 0.0000 0.0000 0.0000
# 2 29.5236 53.8862 45.9680 0.0000 0.0000 0.0000
# 3 58.8917 45.9680 167.1837 0.0000 0.0000 0.0000
# 4 0.0000 0.0000 0.0000 6.7038 0.0000 0.0000
# 5 0.0000 0.0000 0.0000 0.0000 32.0329 0.0000
# 6 0.0000 0.0000 0.0000 0.0000 0.0000 13.3488
#
#
#
# Elastic Compliance Matrix: (Units=1/GPa)
#
#
# Indices 1 2 3 4 5 6 
#
# 1 0.022786 -0.007364 -0.006002 0.000000 0.000000 0.000000
# 2 -0.007364 0.026624 -0.004726 0.000000 0.000000 0.000000
# 3 -0.006002 -0.004726 0.009395 0.000000 0.000000 0.000000
# 4 0.000000 0.000000 0.000000 0.149170 0.000000 0.000000
# 5 0.000000 0.000000 0.000000 0.000000 0.031218 0.000000
# 6 0.000000 0.000000 0.000000 0.000000 0.000000 0.074913
#
#
# Mechanical properties :
#
#
# Convention : Reuss Voigt Hill
#
# Bulk Modulus (GPa) = 44.20759 62.08639 53.14699
# Shear Modulus (GPa) = 13.97309 20.79225 17.38267
#
# Velocity S-wave (km/s) = 2.81056 3.42844 3.13476
# Velocity P-wave (km/s) = 5.96017 7.12536 6.56865
#
# Compressibility (1/GPa) = 0.02262055
#
# Stress axis : x y z
#
# Youngs Moduli (GPa) = 43.88737 37.55965 106.43887
#
# Poissons Ratio (x) = 0.27660 0.63880
# Poissons Ratio (y) = 0.32320 0.50307
# Poissons Ratio (z) = 0.26339 0.17752
#
# Static dielectric constant tensor:
#      x y z
#    x 3.137320 0.000000 0.000000 
#    y 0.000000 3.052510 0.000000 
#    z 0.000000 0.000000 3.743760 
# 
# 
# High freq. dielectric constant tensor:
#      x y z
#    x 1.659140 0.000000 0.000000 
#    y 0.000000 1.655330 0.000000 
#    z 0.000000 0.000000 1.700470 
# 
# From -- ./inp_files/34095.got.cif
#   From: 2010.03.12/outbox.cif.g09.slc.cpg/sg51_18_cif.got.tgz:34095.got - 2010.04.16 13:43:02.
