data_PCOD8209176
_publ_section_title
;
Structure prediction by ZEFSAII (Michael W. Deem and Ramdas Pophale) SiO2 
 PCOD8209176
Probable space group: P M M A
;
_chemical_formula_sum "Si O2"
_cell_formula_units_Z 64
_cell_length_a 17.417570
_cell_length_b 14.250210
_cell_length_c 12.877817
_cell_angle_alpha 90.000000
_cell_angle_beta 90.000000
_cell_angle_gamma 90.000000
_cell_volume 3196.326079
_symmetry_space_group_name_H-M "P M M A"
_symmetry_group_IT_number 51
_symmetry_cell_setting 'orthorhombic'
loop_
_space_group_symop_operation_xyz
x,y,z
1/2-x,-y,z
1/2+x,-y,-z
-x,y,-z
-x,-y,-z
1/2+x,y,-z
1/2-x,y,z
x,-y,z
loop_
_atom_site_type_symbol
_atom_site_label
_atom_site_fract_x
_atom_site_fract_y
_atom_site_fract_z
Si Si1 0.543572 0.606460 0.894806
Si Si2 0.661476 0.890885 0.706350
Si Si3 0.394612 0.605046 0.775459
Si Si4 0.160312 0.766906 0.098019
Si Si5 0.841468 0.106464 0.325284
Si Si6 0.159972 0.394238 0.546574
Si Si7 0.089641 0.214112 0.480908
Si Si8 0.162527 0.214266 0.870681
O O1 0.574048 0.500000 0.904441
O O2 0.484798 0.617443 0.798964
O O3 0.615407 0.672770 0.870959
O O4 0.500000 0.636449 0.000000
O O5 0.750000 0.874463 0.673739
O O6 0.644360 0.848003 0.819091
O O7 0.605936 0.843159 0.623269
O O8 0.641388 0.000000 0.711803
O O9 0.366800 0.500000 0.804427
O O10 0.382320 0.625408 0.654847
O O11 0.345113 0.675579 0.845076
O O12 0.250000 0.740280 0.091910
O O13 0.129484 0.804598 0.986130
O O14 0.750000 0.112278 0.325357
O O15 0.870679 0.163321 0.423159
O O16 0.877228 0.151457 0.219372
O O17 0.870766 0.000000 0.333065
O O18 0.250000 0.377777 0.562307
O O19 0.143514 0.500000 0.506140
O O20 0.125237 0.318738 0.466492
O O21 0.000000 0.220681 0.500000
O O22 0.250000 0.183774 0.871902
#
# Coordination Sequence:
#
# PCOD8209176 Si02
#       8
#     8   8   8   8   8   8   8   8
#     4  10  20  35  55  83 122 164 202 243 297 356
#     4  10  23  44  66  85 114 163 214 254 300 364
#     4  10  19  32  56  87 118 155 191 235 300 364
#     4  10  22  38  60  88 121 163 209 249 294 361
#     4  10  21  38  61  87 116 151 195 254 317 363
#     4  10  21  39  64  93 122 153 194 244 301 364
#     4  12  25  39  62  91 123 159 199 250 302 360
#     4  10  19  33  56  89 121 148 189 247 304 359
#
# _framework density 20.022988000000002
#
# number of rings (size 3 to 8) (size 9 to 14) (size 15 to 20)
#    0.000    1.750    2.500    1.875    1.750    3.750 
#    0.000    4.375    0.000    1.125    0.000    0.000 
#    0.000    0.000    0.000    0.000    0.000    0.000 
#
# Total GULP energy -793606.112399 kJ/mol
# GULP energy per Si atom -12400.095506 kJ/mol
# Density = 1.997742 g / cm^3
# Si number density = 20.022988 Si / 1000 Ang^3
#
#
#
# Elastic Constant Matrix: (Units=GPa)
#
#
# Indices 1 2 3 4 5 6 
#
# 1 46.9235 40.6835 15.0972 0.0000 0.0000 0.0000
# 2 40.6835 142.8614 55.9313 0.0000 0.0000 0.0000
# 3 15.0972 55.9313 87.2358 0.0000 0.0000 0.0000
# 4 0.0000 0.0000 0.0000 29.2638 0.0000 0.0000
# 5 0.0000 0.0000 0.0000 0.0000 4.3550 0.0000
# 6 0.0000 0.0000 0.0000 0.0000 0.0000 16.9370
#
#
#
# Elastic Compliance Matrix: (Units=1/GPa)
#
#
# Indices 1 2 3 4 5 6 
#
# 1 0.028307 -0.008202 0.000360 0.000000 0.000000 0.000000
# 2 -0.008202 0.011722 -0.006096 0.000000 0.000000 0.000000
# 3 0.000360 -0.006096 0.015310 0.000000 0.000000 0.000000
# 4 0.000000 0.000000 0.000000 0.034172 0.000000 0.000000
# 5 0.000000 0.000000 0.000000 0.000000 0.229621 0.000000
# 6 0.000000 0.000000 0.000000 0.000000 0.000000 0.059042
#
#
# Mechanical properties :
#
#
# Convention : Reuss Voigt Hill
#
# Bulk Modulus (GPa) = 36.41424 55.60498 46.00961
# Shear Modulus (GPa) = 12.04226 21.13173 16.58699
#
# Velocity S-wave (km/s) = 2.45505 3.25218 2.88131
# Velocity P-wave (km/s) = 5.12465 6.47557 5.83931
#
# Compressibility (1/GPa) = 0.02746178
#
# Stress axis : x y z
#
# Youngs Moduli (GPa) = 35.32723 85.30787 65.31884
#
# Poissons Ratio (x) = 0.69969 -0.02351
# Poissons Ratio (y) = 0.28975 0.39820
# Poissons Ratio (z) = -0.01271 0.52006
#
# Static dielectric constant tensor:
#      x y z
#    x 3.835890 0.000000 0.000000 
#    y 0.000000 3.859670 0.000000 
#    z 0.000000 0.000000 3.770420 
# 
# 
# High freq. dielectric constant tensor:
#      x y z
#    x 1.763630 0.000000 0.000000 
#    y 0.000000 1.788140 0.000000 
#    z 0.000000 0.000000 1.780760 
# 
# From -- ./inp_files/17610.got.cif
#   From: 2010.03.12/outbox.cif.g09.slc.cpg/sg51_9_cif.got.tgz:17610.got - 2010.04.16 13:43:02.
