data_PCOD8209155
_publ_section_title
;
Structure prediction by ZEFSAII (Michael W. Deem and Ramdas Pophale) SiO2 
 PCOD8209155
Probable space group: P M M A
;
_chemical_formula_sum "Si O2"
_cell_formula_units_Z 64
_cell_length_a 23.634683
_cell_length_b 14.211042
_cell_length_c 9.699847
_cell_angle_alpha 90.000000
_cell_angle_beta 90.000000
_cell_angle_gamma 90.000000
_cell_volume 3257.921297
_symmetry_space_group_name_H-M "P M M A"
_symmetry_group_IT_number 51
_symmetry_cell_setting 'orthorhombic'
loop_
_space_group_symop_operation_xyz
x,y,z
1/2-x,-y,z
1/2+x,-y,-z
-x,y,-z
-x,-y,-z
1/2+x,y,-z
1/2-x,y,z
x,-y,z
loop_
_atom_site_type_symbol
_atom_site_label
_atom_site_fract_x
_atom_site_fract_y
_atom_site_fract_z
Si Si1 0.911820 0.715432 0.752306
Si Si2 0.882297 0.285419 0.067785
Si Si3 0.096979 0.104030 0.793198
Si Si4 0.479124 0.108738 0.347374
Si Si5 0.685713 0.298812 0.551140
Si Si6 0.015061 0.394822 0.839941
Si Si7 0.315727 0.395714 0.732044
Si Si8 0.687753 0.896571 0.440291
O O1 0.929165 0.821550 0.705279
O O2 0.861147 0.670681 0.662379
O O3 0.967292 0.650318 0.741886
O O4 0.888891 0.702584 0.906506
O O5 0.883737 0.173656 0.087340
O O6 0.929114 0.331778 0.169507
O O7 0.826521 0.335528 0.128099
O O8 0.136959 0.120860 0.663457
O O9 0.031732 0.120277 0.755158
O O10 0.105504 0.000000 0.853493
O O11 0.500000 0.136953 0.500000
O O12 0.457020 0.000000 0.347167
O O13 0.750000 0.333472 0.588374
O O14 0.664789 0.339083 0.404360
O O15 0.684681 0.184963 0.553678
O O16 0.026427 0.500000 0.785845
O O17 0.000000 0.395857 0.000000
O O18 0.250000 0.409964 0.722003
O O19 0.344334 0.500000 0.738110
O O20 0.750000 0.890295 0.366935
O O21 0.680639 0.000000 0.509622
#
# Coordination Sequence:
#
# PCOD8209155 Si02
#       8
#     8   8   8   8   8   8   8   8
#     4  11  23  36  59  87 120 152 191 242 297 349
#     4  11  21  37  58  87 119 152 192 238 294 352
#     4  10  19  32  54  83 116 153 195 237 282 341
#     4  10  21  36  56  84 121 162 202 243 288 345
#     4  10  21  38  59  86 116 149 191 240 287 344
#     4   9  19  36  55  77 109 149 189 230 284 344
#     4  10  22  41  64  87 114 153 198 242 292 352
#     4   9  17  32  56  83 111 148 194 239 282 333
#
# _framework density 19.644427
#
# number of rings (size 3 to 8) (size 9 to 14) (size 15 to 20)
#    0.000    2.000    2.500    1.125    0.000    3.500 
#    0.000    1.250    0.000    3.375    0.000    1.750 
#    0.000    0.000    0.000    0.000    0.000    0.000 
#
# Total GULP energy -793065.695033 kJ/mol
# GULP energy per Si atom -12391.651485 kJ/mol
# Density = 1.959972 g / cm^3
# Si number density = 19.644427 Si / 1000 Ang^3
#
#
#
# Elastic Constant Matrix: (Units=GPa)
#
#
# Indices 1 2 3 4 5 6 
#
# 1 66.1046 13.3899 28.6373 0.0000 0.0000 0.0000
# 2 13.3899 108.8853 36.8535 0.0000 0.0000 0.0000
# 3 28.6373 36.8535 83.5727 0.0000 0.0000 0.0000
# 4 0.0000 0.0000 0.0000 17.0011 0.0000 0.0000
# 5 0.0000 0.0000 0.0000 0.0000 30.3615 0.0000
# 6 0.0000 0.0000 0.0000 0.0000 0.0000 23.7857
#
#
#
# Elastic Compliance Matrix: (Units=1/GPa)
#
#
# Indices 1 2 3 4 5 6 
#
# 1 0.017767 -0.000146 -0.006024 0.000000 0.000000 0.000000
# 2 -0.000146 0.010796 -0.004711 0.000000 0.000000 0.000000
# 3 -0.006024 -0.004711 0.016107 0.000000 0.000000 0.000000
# 4 0.000000 0.000000 0.000000 0.058820 0.000000 0.000000
# 5 0.000000 0.000000 0.000000 0.000000 0.032936 0.000000
# 6 0.000000 0.000000 0.000000 0.000000 0.000000 0.042042
#
#
# Mechanical properties :
#
#
# Convention : Reuss Voigt Hill
#
# Bulk Modulus (GPa) = 43.65087 46.25822 44.95454
# Shear Modulus (GPa) = 24.05401 26.20846 25.13123
#
# Velocity S-wave (km/s) = 3.50304 3.65655 3.58062
# Velocity P-wave (km/s) = 6.21534 6.43631 6.32679
#
# Compressibility (1/GPa) = 0.02290905
#
# Stress axis : x y z
#
# Youngs Moduli (GPa) = 56.28536 92.62348 62.08457
#
# Poissons Ratio (x) = 0.01353 0.37397
# Poissons Ratio (y) = 0.00822 0.29247
# Poissons Ratio (z) = 0.33904 0.43634
#
# Static dielectric constant tensor:
#      x y z
#    x 3.721950 0.000000 0.000000 
#    y 0.000000 3.940540 0.000000 
#    z 0.000000 0.000000 3.191770 
# 
# 
# High freq. dielectric constant tensor:
#      x y z
#    x 1.770090 0.000000 0.000000 
#    y 0.000000 1.778900 0.000000 
#    z 0.000000 0.000000 1.725430 
# 
# From -- ./inp_files/11899.got.cif
#   From: 2010.03.12/outbox.cif.g09.slc.cpg/sg51_6_cif.got.tgz:11899.got - 2010.04.16 13:43:02.
