data_PCOD8209524
_publ_section_title
;
Structure prediction by ZEFSAII (Michael W. Deem and Ramdas Pophale) SiO2 
 PCOD8209524
Probable space group: P M M A
;
_chemical_formula_sum "Si O2"
_cell_formula_units_Z 44
_cell_length_a 19.727994
_cell_length_b 15.640747
_cell_length_c 7.445712
_cell_angle_alpha 90.000000
_cell_angle_beta 90.000000
_cell_angle_gamma 90.000000
_cell_volume 2297.453086
_symmetry_space_group_name_H-M "P M M A"
_symmetry_group_IT_number 51
_symmetry_cell_setting 'orthorhombic'
loop_
_space_group_symop_operation_xyz
x,y,z
1/2-x,-y,z
1/2+x,-y,-z
-x,y,-z
-x,-y,-z
1/2+x,y,-z
1/2-x,y,z
x,-y,z
loop_
_atom_site_type_symbol
_atom_site_label
_atom_site_fract_x
_atom_site_fract_y
_atom_site_fract_z
Si Si1 0.955903 0.599300 0.323980
Si Si2 0.578632 0.000000 0.567946
Si Si3 0.000000 0.710435 0.000000
Si Si4 0.674168 0.851283 0.602012
Si Si5 0.370363 0.178367 0.999625
Si Si6 0.579226 0.000000 0.987118
Si Si7 0.174926 0.291970 0.676092
O O1 0.953626 0.500000 0.276011
O O2 0.878652 0.631541 0.334241
O O3 0.000000 0.617074 0.500000
O O4 0.993250 0.650208 0.169783
O O5 0.500000 0.000000 0.500000
O O6 0.618160 0.085929 0.510330
O O7 0.592168 0.000000 0.777756
O O8 0.938250 0.771541 0.955521
O O9 0.750000 0.887445 0.565014
O O10 0.669572 0.833531 0.814727
O O11 0.663110 0.761890 0.503331
O O12 0.388301 0.083984 0.920659
O O13 0.329228 0.230994 0.851235
O O14 0.500000 0.000000 0.000000
O O15 0.250000 0.333008 0.677588
#
# Coordination Sequence:
#
# PCOD8209524 Si02
#       7
#     8   4   4   8   8   4   8
#     4  10  21  37  58  83 111 140 177 224 278 337
#     4  10  23  33  53  77 104 142 182 229 270 312
#     4  10  19  33  56  84 110 142 178 223 271 322
#     4  10  21  37  53  75 108 145 183 222 270 323
#     4  10  20  34  55  79 112 146 185 227 267 321
#     4  10  20  33  49  79 112 143 181 226 274 309
#     4  10  22  37  57  81 107 144 184 226 278 330
#
# _framework density 19.151641999999999
#
# number of rings (size 3 to 8) (size 9 to 14) (size 15 to 20)
#    0.000    2.000    0.909    2.182    2.545    2.545 
#    0.000    2.273    0.000    0.000    0.000    5.091 
#    0.000    0.000    0.000    0.000    0.000    0.000 
#
# Total GULP energy -545358.830457 kJ/mol
# GULP energy per Si atom -12394.518874 kJ/mol
# Density = 1.910805 g / cm^3
# Si number density = 19.151642 Si / 1000 Ang^3
#
#
#
# Elastic Constant Matrix: (Units=GPa)
#
#
# Indices 1 2 3 4 5 6 
#
# 1 116.6940 54.1692 20.4383 0.0000 0.0000 0.0000
# 2 54.1692 115.1146 30.8721 0.0000 0.0000 0.0000
# 3 20.4383 30.8721 51.5172 0.0000 0.0000 0.0000
# 4 0.0000 0.0000 0.0000 19.8664 0.0000 0.0000
# 5 0.0000 0.0000 0.0000 0.0000 26.9779 0.0000
# 6 0.0000 0.0000 0.0000 0.0000 0.0000 8.7399
#
#
#
# Elastic Compliance Matrix: (Units=1/GPa)
#
#
# Indices 1 2 3 4 5 6 
#
# 1 0.011062 -0.004800 -0.001512 0.000000 0.000000 0.000000
# 2 -0.004800 0.012433 -0.005546 0.000000 0.000000 0.000000
# 3 -0.001512 -0.005546 0.023335 0.000000 0.000000 0.000000
# 4 0.000000 0.000000 0.000000 0.050336 0.000000 0.000000
# 5 0.000000 0.000000 0.000000 0.000000 0.037067 0.000000
# 6 0.000000 0.000000 0.000000 0.000000 0.000000 0.114418
#
#
# Mechanical properties :
#
#
# Convention : Reuss Voigt Hill
#
# Bulk Modulus (GPa) = 43.26597 54.92056 49.09326
# Shear Modulus (GPa) = 17.85243 22.97326 20.41285
#
# Velocity S-wave (km/s) = 3.05644 3.46720 3.26828
# Velocity P-wave (km/s) = 5.92420 6.69086 6.31917
#
# Compressibility (1/GPa) = 0.02311285
#
# Stress axis : x y z
#
# Youngs Moduli (GPa) = 90.39566 80.42977 42.85467
#
# Poissons Ratio (x) = 0.38607 0.06481
# Poissons Ratio (y) = 0.43390 0.23769
# Poissons Ratio (z) = 0.13671 0.44609
#
# Static dielectric constant tensor:
#      x y z
#    x 3.524430 0.000000 0.000000 
#    y 0.000000 3.525030 0.000000 
#    z 0.000000 0.000000 3.477430 
# 
# 
# High freq. dielectric constant tensor:
#      x y z
#    x 1.754540 0.000000 0.000000 
#    y 0.000000 1.738850 0.000000 
#    z 0.000000 0.000000 1.749740 
# 
# From -- ./inp_files/9539.got.cif
#   From: 2010.03.12/outbox.cif.g09.slc.cpg/sg51_5_cif.got.tgz:9539.got - 2010.04.16 13:43:02.
