data_PCOD8209005
_publ_section_title
;
Structure prediction by ZEFSAII (Michael W. Deem and Ramdas Pophale) SiO2 
 PCOD8209005
Probable space group: P M M A
;
_chemical_formula_sum "Si O2"
_cell_formula_units_Z 56
_cell_length_a 8.987969
_cell_length_b 22.287183
_cell_length_c 14.873781
_cell_angle_alpha 90.000000
_cell_angle_beta 90.000000
_cell_angle_gamma 90.000000
_cell_volume 2979.463899
_symmetry_space_group_name_H-M "P M M A"
_symmetry_group_IT_number 51
_symmetry_cell_setting 'orthorhombic'
loop_
_space_group_symop_operation_xyz
x,y,z
1/2-x,-y,z
1/2+x,-y,-z
-x,y,-z
-x,-y,-z
1/2+x,y,-z
1/2-x,y,z
x,-y,z
loop_
_atom_site_type_symbol
_atom_site_label
_atom_site_fract_x
_atom_site_fract_y
_atom_site_fract_z
Si Si1 0.421912 0.739656 0.088775
Si Si2 0.573431 0.397436 0.907386
Si Si3 0.924460 0.842212 0.777478
Si Si4 0.923166 0.069791 0.091548
Si Si5 0.426066 0.653515 0.407957
Si Si6 0.078774 0.567210 0.731868
Si Si7 0.075682 0.208862 0.409396
O O1 0.250000 0.743295 0.067385
O O2 0.469100 0.671906 0.110740
O O3 0.466899 0.780506 0.172782
O O4 0.500000 0.764998 0.000000
O O5 0.750000 0.408427 0.909600
O O6 0.497537 0.435355 0.829174
O O7 0.500000 0.419432 0.000000
O O8 0.750000 0.855964 0.785333
O O9 0.973354 0.833282 0.673814
O O10 0.012925 0.897140 0.820954
O O11 0.750000 0.083532 0.082475
O O12 0.957075 0.000000 0.105959
O O13 0.000000 0.093199 0.000000
O O14 0.500000 0.630939 0.500000
O O15 0.250000 0.645114 0.413824
O O16 0.487956 0.613338 0.328360
O O17 0.471209 0.722499 0.389427
O O18 0.250000 0.588081 0.739365
O O19 0.069139 0.500000 0.691203
O O20 0.250000 0.205275 0.424367
O O21 0.000000 0.184296 0.500000
#
# Coordination Sequence:
#
# PCOD8209005 Si02
#       7
#     8   8   8   8   8   8   8
#     4   9  18  31  48  74 105 133 163 204 254 309
#     4  10  20  36  56  76 102 136 172 212 261 315
#     4  10  19  32  52  78 108 139 173 214 259 306
#     4  10  21  36  53  76 108 145 184 222 258 300
#     4  10  20  37  60  83 108 137 169 208 260 318
#     4  11  24  39  54  75 102 133 174 220 262 309
#     4   9  19  35  55  81 110 138 170 212 260 312
#
# _framework density 18.795328000000001
#
# number of rings (size 3 to 8) (size 9 to 14) (size 15 to 20)
#    0.000    2.143    0.000    3.000    0.000    8.286 
#    0.000    1.429    0.000    0.429    0.000    0.000 
#    0.000    0.000    0.000    0.000    0.000    0.000 
#
# Total GULP energy -694536.158893 kJ/mol
# GULP energy per Si atom -12402.431409 kJ/mol
# Density = 1.875255 g / cm^3
# Si number density = 18.795328 Si / 1000 Ang^3
#
#
#
# Elastic Constant Matrix: (Units=GPa)
#
#
# Indices 1 2 3 4 5 6 
#
# 1 83.8502 36.4663 55.5017 0.0000 0.0000 0.0000
# 2 36.4663 63.6690 50.5311 0.0000 0.0000 0.0000
# 3 55.5017 50.5311 144.7527 0.0000 0.0000 0.0000
# 4 0.0000 0.0000 0.0000 74.1183 0.0000 0.0000
# 5 0.0000 0.0000 0.0000 0.0000 38.7955 0.0000
# 6 0.0000 0.0000 0.0000 0.0000 0.0000 25.3710
#
#
#
# Elastic Compliance Matrix: (Units=1/GPa)
#
#
# Indices 1 2 3 4 5 6 
#
# 1 0.017786 -0.006604 -0.004514 0.000000 0.000000 0.000000
# 2 -0.006604 0.024178 -0.005908 0.000000 0.000000 0.000000
# 3 -0.004514 -0.005908 0.010702 0.000000 0.000000 0.000000
# 4 0.000000 0.000000 0.000000 0.013492 0.000000 0.000000
# 5 0.000000 0.000000 0.000000 0.000000 0.025776 0.000000
# 6 0.000000 0.000000 0.000000 0.000000 0.000000 0.039415
#
#
# Mechanical properties :
#
#
# Convention : Reuss Voigt Hill
#
# Bulk Modulus (GPa) = 53.72674 64.14113 58.93393
# Shear Modulus (GPa) = 29.13661 37.64181 33.38921
#
# Velocity S-wave (km/s) = 3.94154 4.48003 4.21938
# Velocity P-wave (km/s) = 7.02577 7.80776 7.42707
#
# Compressibility (1/GPa) = 0.01861271
#
# Stress axis : x y z
#
# Youngs Moduli (GPa) = 56.22318 41.36060 93.44472
#
# Poissons Ratio (x) = 0.27316 0.42183
# Poissons Ratio (y) = 0.37132 0.55205
# Poissons Ratio (z) = 0.25380 0.24435
#
# Static dielectric constant tensor:
#      x y z
#    x 3.463770 0.000000 0.000000 
#    y 0.000000 3.355530 0.000000 
#    z 0.000000 0.000000 3.818520 
# 
# 
# High freq. dielectric constant tensor:
#      x y z
#    x 1.735070 0.000000 0.000000 
#    y 0.000000 1.714690 0.000000 
#    z 0.000000 0.000000 1.731780 
# 
# From -- ./inp_files/21752.got.cif
#   From: 2010.03.12/outbox.cif.g09.slc.cpg/sg51_11_cif.got.tgz:21752.got - 2010.04.16 13:43:02.
