data_PCOD8209712
_publ_section_title
;
Structure prediction by ZEFSAII (Michael W. Deem and Ramdas Pophale) SiO2 
 PCOD8209712
Probable space group: P M M A
;
_chemical_formula_sum "Si O2"
_cell_formula_units_Z 64
_cell_length_a 8.930552
_cell_length_b 24.355710
_cell_length_c 14.924551
_cell_angle_alpha 90.000000
_cell_angle_beta 90.000000
_cell_angle_gamma 90.000000
_cell_volume 3246.238113
_symmetry_space_group_name_H-M "P M M A"
_symmetry_group_IT_number 51
_symmetry_cell_setting 'orthorhombic'
loop_
_space_group_symop_operation_xyz
x,y,z
1/2-x,-y,z
1/2+x,-y,-z
-x,y,-z
-x,-y,-z
1/2+x,y,-z
1/2-x,y,z
x,-y,z
loop_
_atom_site_type_symbol
_atom_site_label
_atom_site_fract_x
_atom_site_fract_y
_atom_site_fract_z
Si Si1 0.573345 0.561202 0.780316
Si Si2 0.585829 0.417248 0.584727
Si Si3 0.929142 0.338750 0.901980
Si Si4 0.425825 0.257824 0.766094
Si Si5 0.075004 0.130965 0.744207
Si Si6 0.416732 0.289038 0.414017
Si Si7 0.925557 0.938182 0.594682
Si Si8 0.925942 0.062307 0.088632
O O1 0.750000 0.569876 0.773043
O O2 0.531713 0.500000 0.815195
O O3 0.505127 0.569814 0.680228
O O4 0.512280 0.606589 0.849933
O O5 0.500000 0.443658 0.500000
O O6 0.750000 0.444436 0.585967
O O7 0.600821 0.352967 0.569281
O O8 0.750000 0.336649 0.909179
O O9 0.986558 0.285447 0.848541
O O10 0.000000 0.339180 0.000000
O O11 0.250000 0.269613 0.776515
O O12 0.462557 0.193629 0.765314
O O13 0.482829 0.281869 0.673076
O O14 0.250000 0.121409 0.726638
O O15 0.015096 0.096968 0.828395
O O16 0.985937 0.109042 0.659205
O O17 0.500000 0.261879 0.500000
O O18 0.250000 0.262890 0.402879
O O19 0.750000 0.930824 0.583759
O O20 0.000000 0.927429 0.500000
O O21 0.965245 0.000000 0.629243
O O22 0.750000 0.067009 0.077731
O O23 0.979288 0.000000 0.103502
O O24 0.000000 0.087420 0.000000
#
# Coordination Sequence:
#
# PCOD8209712 Si02
#       8
#     8   8   8   8   8   8   8   8
#     4   9  18  35  59  85 116 152 189 234 289 349
#     4   9  17  31  52  81 113 148 185 221 269 330
#     4  11  23  42  64  86 112 149 193 241 299 358
#     4  11  23  39  59  85 115 151 194 242 291 347
#     4  10  22  38  57  83 115 150 192 238 289 342
#     4  10  19  34  56  83 112 149 190 231 279 334
#     4  10  21  37  59  87 119 158 202 245 292 345
#     4   9  18  34  56  80 107 139 174 218 272 329
#
# _framework density 19.715126999999999
#
# number of rings (size 3 to 8) (size 9 to 14) (size 15 to 20)
#    0.000    2.125    1.250    1.875    0.000    4.750 
#    0.000    2.500    0.000    2.625    0.000    0.000 
#    0.000    0.000    0.000    0.000    0.000    0.000 
#
# Total GULP energy -793489.284688 kJ/mol
# GULP energy per Si atom -12398.270073 kJ/mol
# Density = 1.967025 g / cm^3
# Si number density = 19.715127 Si / 1000 Ang^3
#
#
#
# Elastic Constant Matrix: (Units=GPa)
#
#
# Indices 1 2 3 4 5 6 
#
# 1 75.3984 47.6219 57.1189 0.0000 0.0000 0.0000
# 2 47.6219 99.8344 67.5060 0.0000 0.0000 0.0000
# 3 57.1189 67.5060 167.9244 0.0000 0.0000 0.0000
# 4 0.0000 0.0000 0.0000 12.5488 0.0000 0.0000
# 5 0.0000 0.0000 0.0000 0.0000 37.6383 0.0000
# 6 0.0000 0.0000 0.0000 0.0000 0.0000 10.6944
#
#
#
# Elastic Compliance Matrix: (Units=1/GPa)
#
#
# Indices 1 2 3 4 5 6 
#
# 1 0.021006 -0.007126 -0.004281 0.000000 0.000000 0.000000
# 2 -0.007126 0.016173 -0.004078 0.000000 0.000000 0.000000
# 3 -0.004281 -0.004078 0.009050 0.000000 0.000000 0.000000
# 4 0.000000 0.000000 0.000000 0.079689 0.000000 0.000000
# 5 0.000000 0.000000 0.000000 0.000000 0.026569 0.000000
# 6 0.000000 0.000000 0.000000 0.000000 0.000000 0.093507
#
#
# Mechanical properties :
#
#
# Convention : Reuss Voigt Hill
#
# Bulk Modulus (GPa) = 65.52498 76.40564 70.96531
# Shear Modulus (GPa) = 17.72736 23.57033 20.64884
#
# Velocity S-wave (km/s) = 3.00188 3.46142 3.23981
# Velocity P-wave (km/s) = 6.73224 7.40366 7.07592
#
# Compressibility (1/GPa) = 0.01526135
#
# Stress axis : x y z
#
# Youngs Moduli (GPa) = 47.60459 61.83174 110.49239
#
# Poissons Ratio (x) = 0.44060 0.47298
# Poissons Ratio (y) = 0.33922 0.45056
# Poissons Ratio (z) = 0.20378 0.25214
#
# Static dielectric constant tensor:
#      x y z
#    x 3.618670 0.000000 0.000000 
#    y 0.000000 3.734070 0.000000 
#    z 0.000000 0.000000 3.583620 
# 
# 
# High freq. dielectric constant tensor:
#      x y z
#    x 1.757420 0.000000 0.000000 
#    y 0.000000 1.765560 0.000000 
#    z 0.000000 0.000000 1.775260 
# 
# From -- ./inp_files/22408.got.cif
#   From: 2010.03.12/outbox.cif.g09.slc.cpg/sg51_12_cif.got.tgz:22408.got - 2010.04.16 13:43:02.
