data_PCOD8209933
_publ_section_title
;
Structure prediction by ZEFSAII (Michael W. Deem and Ramdas Pophale) SiO2 
 PCOD8209933
Probable space group: P M M A
;
_chemical_formula_sum "Si O2"
_cell_formula_units_Z 48
_cell_length_a 34.403508
_cell_length_b 7.772581
_cell_length_c 8.958573
_cell_angle_alpha 90.000000
_cell_angle_beta 90.000000
_cell_angle_gamma 90.000000
_cell_volume 2395.558726
_symmetry_space_group_name_H-M "P M M A"
_symmetry_group_IT_number 51
_symmetry_cell_setting 'orthorhombic'
loop_
_space_group_symop_operation_xyz
x,y,z
1/2-x,-y,z
1/2+x,-y,-z
-x,y,-z
-x,-y,-z
1/2+x,y,-z
1/2-x,y,z
x,-y,z
loop_
_atom_site_type_symbol
_atom_site_label
_atom_site_fract_x
_atom_site_fract_y
_atom_site_fract_z
Si Si1 0.250000 0.296484 0.818559
Si Si2 0.456923 0.500000 0.822052
Si Si3 0.750000 0.704195 0.840882
Si Si4 0.901264 0.801670 0.176580
Si Si5 0.173085 0.305514 0.314848
Si Si6 0.043480 0.500000 0.176087
Si Si7 0.325357 0.803650 0.641426
Si Si8 0.903141 0.191061 0.830708
O O1 0.250000 0.500000 0.805729
O O2 0.212253 0.220431 0.741716
O O3 0.250000 0.233144 0.989021
O O4 0.435294 0.326144 0.767746
O O5 0.500315 0.500000 0.753088
O O6 0.459555 0.500000 0.999230
O O7 0.750000 0.500000 0.826746
O O8 0.711700 0.777268 0.758546
O O9 0.862576 0.746815 0.263130
O O10 0.913382 0.000000 0.208128
O O11 0.892606 0.770743 0.002363
O O12 0.167162 0.500000 0.257416
O O13 0.177494 0.309459 0.493093
O O14 0.136029 0.195967 0.265347
O O15 0.065967 0.329274 0.231497
O O16 0.329085 0.000000 0.591119
O O17 0.921326 0.000000 0.813758
#
# Coordination Sequence:
#
# PCOD8209933 Si02
#       8
#     4   4   4   8   8   4   8   8
#     4  11  22  37  58  82 108 147 190 233 283 327
#     4   9  18  32  59  82 119 144 185 227 290 333
#     4   9  21  37  56  82 112 144 187 238 279 327
#     4   9  20  35  56  84 114 149 190 233 281 338
#     4  11  21  36  57  83 113 149 192 233 279 334
#     4   9  18  34  53  90 113 148 181 233 278 349
#     4  11  23  38  54  80 115 149 188 234 281 332
#     4  10  19  35  57  83 115 150 187 233 284 333
#
# _framework density 20.037078999999999
#
# number of rings (size 3 to 8) (size 9 to 14) (size 15 to 20)
#    0.000    2.000    0.833    2.750    2.333    1.333 
#    0.000    7.083    0.000    2.000    0.000    3.500 
#    0.000    0.000    0.000    0.000    0.000    0.000 
#
# Total GULP energy -595311.699201 kJ/mol
# GULP energy per Si atom -12402.327067 kJ/mol
# Density = 1.999147 g / cm^3
# Si number density = 20.037079 Si / 1000 Ang^3
#
#
#
# Elastic Constant Matrix: (Units=GPa)
#
#
# Indices 1 2 3 4 5 6 
#
# 1 180.4190 59.6524 52.1405 0.0000 0.0000 0.0000
# 2 59.6524 98.1172 23.1108 0.0000 0.0000 0.0000
# 3 52.1405 23.1108 86.1314 0.0000 0.0000 0.0000
# 4 0.0000 0.0000 0.0000 21.1677 0.0000 0.0000
# 5 0.0000 0.0000 0.0000 0.0000 0.5265 0.0000
# 6 0.0000 0.0000 0.0000 0.0000 0.0000 23.3025
#
#
#
# Elastic Compliance Matrix: (Units=1/GPa)
#
#
# Indices 1 2 3 4 5 6 
#
# 1 0.007926 -0.003937 -0.003741 0.000000 0.000000 0.000000
# 2 -0.003937 0.012835 -0.001061 0.000000 0.000000 0.000000
# 3 -0.003741 -0.001061 0.014160 0.000000 0.000000 0.000000
# 4 0.000000 0.000000 0.000000 0.047242 0.000000 0.000000
# 5 0.000000 0.000000 0.000000 0.000000 1.899304 0.000000
# 6 0.000000 0.000000 0.000000 0.000000 0.000000 0.042914
#
#
# Mechanical properties :
#
#
# Convention : Reuss Voigt Hill
#
# Bulk Modulus (GPa) = 57.33205 70.49721 63.91463
# Shear Modulus (GPa) = 2.44180 24.31693 13.37936
#
# Velocity S-wave (km/s) = 1.10512 3.48745 2.58685
# Velocity P-wave (km/s) = 5.50486 7.17469 6.39452
#
# Compressibility (1/GPa) = 0.01744225
#
# Stress axis : x y z
#
# Youngs Moduli (GPa) = 126.17125 77.90904 70.62323
#
# Poissons Ratio (x) = 0.30675 0.26423
# Poissons Ratio (y) = 0.49678 0.07490
# Poissons Ratio (z) = 0.47206 0.08262
#
# Static dielectric constant tensor:
#      x y z
#    x 3.765950 0.000000 0.000000 
#    y 0.000000 3.680730 0.000000 
#    z 0.000000 0.000000 3.383430 
# 
# 
# High freq. dielectric constant tensor:
#      x y z
#    x 1.779480 0.000000 0.000000 
#    y 0.000000 1.789330 0.000000 
#    z 0.000000 0.000000 1.760810 
# 
# From -- ./inp_files/13001.got.cif
#   From: 2010.03.12/outbox.cif.g09.slc.cpg/sg51_7_cif.got.tgz:13001.got - 2010.04.16 13:43:02.
