data_PCOD8209817
_publ_section_title
;
Structure prediction by ZEFSAII (Michael W. Deem and Ramdas Pophale) SiO2 
 PCOD8209817
Probable space group: P M M A
;
_chemical_formula_sum "Si O2"
_cell_formula_units_Z 64
_cell_length_a 15.339799
_cell_length_b 9.214204
_cell_length_c 23.737370
_cell_angle_alpha 90.000000
_cell_angle_beta 90.000000
_cell_angle_gamma 90.000000
_cell_volume 3355.135711
_symmetry_space_group_name_H-M "P M M A"
_symmetry_group_IT_number 51
_symmetry_cell_setting 'orthorhombic'
loop_
_space_group_symop_operation_xyz
x,y,z
1/2-x,-y,z
1/2+x,-y,-z
-x,y,-z
-x,-y,-z
1/2+x,y,-z
1/2-x,y,z
x,-y,z
loop_
_atom_site_type_symbol
_atom_site_label
_atom_site_fract_x
_atom_site_fract_y
_atom_site_fract_z
Si Si1 0.399221 0.330512 0.997955
Si Si2 0.346758 0.832513 0.106290
Si Si3 0.849110 0.331762 0.125443
Si Si4 0.503633 0.829415 0.684250
Si Si5 0.651383 0.330115 0.374639
Si Si6 0.000444 0.169773 0.813918
Si Si7 0.847923 0.331638 0.616837
Si Si8 0.903212 0.328652 0.495843
O O1 0.383033 0.500000 0.006686
O O2 0.349131 0.249821 0.047320
O O3 0.500000 0.288718 0.000000
O O4 0.361064 0.276564 0.938485
O O5 0.250000 0.811182 0.132475
O O6 0.418418 0.770654 0.149906
O O7 0.366004 0.000000 0.093997
O O8 0.750000 0.305001 0.144709
O O9 0.875026 0.500000 0.128780
O O10 0.910733 0.245991 0.167674
O O11 0.413317 0.757844 0.665203
O O12 0.518556 0.792750 0.749418
O O13 0.585949 0.765434 0.651676
O O14 0.498538 0.000000 0.672733
O O15 0.750000 0.301330 0.354180
O O16 0.627790 0.500000 0.370576
O O17 0.642635 0.272253 0.438931
O O18 0.013315 0.000000 0.823153
O O19 0.750000 0.306412 0.639494
O O20 0.875697 0.500000 0.622666
O O21 0.849828 0.283012 0.551322
O O22 0.908669 0.500000 0.491917
O O23 0.000000 0.261378 0.500000
#
# Coordination Sequence:
#
# PCOD8209817 Si02
#       8
#     8   8   8   8   8   8   8   8
#     4  10  19  34  58  86 116 147 174 212 274 338
#     4  10  21  37  58  83 109 141 184 230 272 319
#     4  10  21  37  58  85 115 145 179 223 275 330
#     4  11  24  40  57  79 112 153 192 233 282 333
#     4  10  20  36  60  87 113 145 186 231 281 336
#     4  10  23  41  58  77 106 148 193 234 273 319
#     4  10  20  36  60  88 115 144 184 233 279 330
#     4   9  15  29  57  87 114 143 178 226 280 333
#
# _framework density 19.075233000000001
#
# number of rings (size 3 to 8) (size 9 to 14) (size 15 to 20)
#    0.000    2.000    2.500    1.125    0.000    5.750 
#    0.000    5.000    0.000    1.500    0.000    0.000 
#    0.000    0.000    0.000    0.000    0.000    0.000 
#
# Total GULP energy -793655.677371 kJ/mol
# GULP energy per Si atom -12400.869959 kJ/mol
# Density = 1.903182 g / cm^3
# Si number density = 19.075233 Si / 1000 Ang^3
#
#
#
# Elastic Constant Matrix: (Units=GPa)
#
#
# Indices 1 2 3 4 5 6 
#
# 1 114.1713 41.0272 37.8974 0.0000 0.0000 0.0000
# 2 41.0272 51.9052 42.3145 0.0000 0.0000 0.0000
# 3 37.8974 42.3145 83.5086 0.0000 0.0000 0.0000
# 4 0.0000 0.0000 0.0000 27.0687 0.0000 0.0000
# 5 0.0000 0.0000 0.0000 0.0000 9.1746 0.0000
# 6 0.0000 0.0000 0.0000 0.0000 0.0000 26.3228
#
#
#
# Elastic Compliance Matrix: (Units=1/GPa)
#
#
# Indices 1 2 3 4 5 6 
#
# 1 0.012294 -0.008808 -0.001116 0.000000 0.000000 0.000000
# 2 -0.008808 0.039135 -0.015833 0.000000 0.000000 0.000000
# 3 -0.001116 -0.015833 0.020504 0.000000 0.000000 0.000000
# 4 0.000000 0.000000 0.000000 0.036943 0.000000 0.000000
# 5 0.000000 0.000000 0.000000 0.000000 0.108997 0.000000
# 6 0.000000 0.000000 0.000000 0.000000 0.000000 0.037990
#
#
# Mechanical properties :
#
#
# Convention : Reuss Voigt Hill
#
# Bulk Modulus (GPa) = 48.97288 54.67369 51.82329
# Shear Modulus (GPa) = 15.91422 21.06961 18.49191
#
# Velocity S-wave (km/s) = 2.89154 3.32709 3.11693
# Velocity P-wave (km/s) = 6.07266 6.59422 6.33881
#
# Compressibility (1/GPa) = 0.02041946
#
# Stress axis : x y z
#
# Youngs Moduli (GPa) = 81.33812 25.55243 48.77040
#
# Poissons Ratio (x) = 0.22506 0.05445
# Poissons Ratio (y) = 0.71639 0.77219
# Poissons Ratio (z) = 0.09081 0.40457
#
# Static dielectric constant tensor:
#      x y z
#    x 3.629440 0.000000 0.000000 
#    y 0.000000 3.258110 0.000000 
#    z 0.000000 0.000000 3.532730 
# 
# 
# High freq. dielectric constant tensor:
#      x y z
#    x 1.756890 0.000000 0.000000 
#    y 0.000000 1.715720 0.000000 
#    z 0.000000 0.000000 1.740090 
# 
# From -- ./inp_files/35787.got.cif
#   From: 2010.03.12/outbox.cif.g09.slc.cpg/sg51_18_cif.got.tgz:35787.got - 2010.04.16 13:43:02.
