data_PCOD8209715
_publ_section_title
;
Structure prediction by ZEFSAII (Michael W. Deem and Ramdas Pophale) SiO2 
 PCOD8209715
Probable space group: P M M A
;
_chemical_formula_sum "Si O2"
_cell_formula_units_Z 48
_cell_length_a 20.690673
_cell_length_b 8.820695
_cell_length_c 14.028618
_cell_angle_alpha 90.000000
_cell_angle_beta 90.000000
_cell_angle_gamma 90.000000
_cell_volume 2560.308582
_symmetry_space_group_name_H-M "P M M A"
_symmetry_group_IT_number 51
_symmetry_cell_setting 'orthorhombic'
loop_
_space_group_symop_operation_xyz
x,y,z
1/2-x,-y,z
1/2+x,-y,-z
-x,y,-z
-x,-y,-z
1/2+x,y,-z
1/2-x,y,z
x,-y,z
loop_
_atom_site_type_symbol
_atom_site_label
_atom_site_fract_x
_atom_site_fract_y
_atom_site_fract_z
Si Si1 0.124785 0.320640 0.214745
Si Si2 0.629041 0.321008 0.212742
Si Si3 0.000285 0.680083 0.893605
Si Si4 0.750000 0.680276 0.899390
Si Si5 0.926115 0.176928 0.606681
Si Si6 0.926305 0.177794 0.390625
Si Si7 0.250000 0.179589 0.891647
O O1 0.124442 0.500000 0.217259
O O2 0.062036 0.254343 0.160818
O O3 0.187902 0.262325 0.159414
O O4 0.123444 0.261527 0.323149
O O5 0.640476 0.500000 0.204866
O O6 0.564982 0.265713 0.158208
O O7 0.621317 0.272749 0.322834
O O8 0.688033 0.234926 0.165653
O O9 0.996553 0.500000 0.896050
O O10 0.000000 0.747134 0.000000
O O11 0.750000 0.500000 0.912833
O O12 0.750000 0.753580 0.002781
O O13 0.905390 0.214856 0.498734
O O14 0.999715 0.231179 0.625136
O O15 0.921123 0.000000 0.625984
O O16 0.919250 0.000000 0.369181
O O17 0.250000 0.000000 0.897694
#
# Coordination Sequence:
#
# PCOD8209715 Si02
#       7
#     8   8   8   4   8   8   4
#     4  10  19  34  56  84 113 147 190 237 286 332
#     4  11  21  36  59  85 112 146 189 238 287 336
#     4   9  17  30  51  79 109 138 177 231 285 333
#     4  10  22  40  61  82 113 154 191 230 280 338
#     4   9  18  33  55  82 116 154 187 229 284 342
#     4   9  18  34  55  82 116 152 189 231 285 339
#     4  12  26  42  59  80 113 154 191 230 280 344
#
# _framework density 18.747738999999999
#
# number of rings (size 3 to 8) (size 9 to 14) (size 15 to 20)
#    0.000    2.167    1.667    3.250    0.000    4.000 
#    0.000    2.500    0.000    6.500    0.000    0.000 
#    0.000    0.000    0.000    0.000    0.000    0.000 
#
# Total GULP energy -595250.516971 kJ/mol
# GULP energy per Si atom -12401.052437 kJ/mol
# Density = 1.870507 g / cm^3
# Si number density = 18.747739 Si / 1000 Ang^3
#
#
#
# Elastic Constant Matrix: (Units=GPa)
#
#
# Indices 1 2 3 4 5 6 
#
# 1 134.5814 33.1039 72.6431 0.0000 0.0000 0.0000
# 2 33.1039 37.5855 34.4263 0.0000 0.0000 0.0000
# 3 72.6431 34.4263 152.9553 0.0000 0.0000 0.0000
# 4 0.0000 0.0000 0.0000 32.7182 0.0000 0.0000
# 5 0.0000 0.0000 0.0000 0.0000 33.4385 0.0000
# 6 0.0000 0.0000 0.0000 0.0000 0.0000 9.6697
#
#
#
# Elastic Compliance Matrix: (Units=1/GPa)
#
#
# Indices 1 2 3 4 5 6 
#
# 1 0.011029 -0.006193 -0.003844 0.000000 0.000000 0.000000
# 2 -0.006193 0.036993 -0.005385 0.000000 0.000000 0.000000
# 3 -0.003844 -0.005385 0.009576 0.000000 0.000000 0.000000
# 4 0.000000 0.000000 0.000000 0.030564 0.000000 0.000000
# 5 0.000000 0.000000 0.000000 0.000000 0.029906 0.000000
# 6 0.000000 0.000000 0.000000 0.000000 0.000000 0.103415
#
#
# Mechanical properties :
#
#
# Convention : Reuss Voigt Hill
#
# Bulk Modulus (GPa) = 37.37841 67.27433 52.32637
# Shear Modulus (GPa) = 19.13926 27.49520 23.31723
#
# Velocity S-wave (km/s) = 3.19859 3.83376 3.53049
# Velocity P-wave (km/s) = 5.79846 7.45378 6.67761
#
# Compressibility (1/GPa) = 0.02675341
#
# Stress axis : x y z
#
# Youngs Moduli (GPa) = 90.67355 27.03238 104.43299
#
# Poissons Ratio (x) = 0.16740 0.40144
# Poissons Ratio (y) = 0.56151 0.56237
# Poissons Ratio (z) = 0.34855 0.14557
#
# Static dielectric constant tensor:
#      x y z
#    x 3.493860 0.000000 0.000000 
#    y 0.000000 3.141480 0.000000 
#    z 0.000000 0.000000 3.612450 
# 
# 
# High freq. dielectric constant tensor:
#      x y z
#    x 1.716770 0.000000 0.000000 
#    y 0.000000 1.706090 0.000000 
#    z 0.000000 0.000000 1.744940 
# 
# From -- ./inp_files/24992.got.cif
#   From: 2010.03.12/outbox.cif.g09.slc.cpg/sg51_13_cif.got.tgz:24992.got - 2010.04.16 13:43:02.
