data_PCOD8209044
_publ_section_title
;
Structure prediction by ZEFSAII (Michael W. Deem and Ramdas Pophale) SiO2 
 PCOD8209044
Probable space group: P M M A
;
_chemical_formula_sum "Si O2"
_cell_formula_units_Z 48
_cell_length_a 16.397480
_cell_length_b 14.352970
_cell_length_c 10.252416
_cell_angle_alpha 90.000000
_cell_angle_beta 90.000000
_cell_angle_gamma 90.000000
_cell_volume 2412.932132
_symmetry_space_group_name_H-M "P M M A"
_symmetry_group_IT_number 51
_symmetry_cell_setting 'orthorhombic'
loop_
_space_group_symop_operation_xyz
x,y,z
1/2-x,-y,z
1/2+x,-y,-z
-x,y,-z
-x,-y,-z
1/2+x,y,-z
1/2-x,y,z
x,-y,z
loop_
_atom_site_type_symbol
_atom_site_label
_atom_site_fract_x
_atom_site_fract_y
_atom_site_fract_z
Si Si1 0.155362 0.898286 0.796797
Si Si2 0.155236 0.603833 0.683807
Si Si3 0.346315 0.212735 0.553686
Si Si4 0.346013 0.109225 0.297610
Si Si5 0.406190 0.203331 0.041815
Si Si6 0.593655 0.600612 0.031907
O O1 0.250000 0.909497 0.767586
O O2 0.115307 0.840612 0.678246
O O3 0.113415 0.000000 0.801974
O O4 0.146306 0.848774 0.934381
O O5 0.250000 0.617448 0.721153
O O6 0.138519 0.500000 0.628645
O O7 0.129878 0.677977 0.571313
O O8 0.104048 0.622639 0.814628
O O9 0.250000 0.200156 0.550931
O O10 0.380478 0.167192 0.421365
O O11 0.250000 0.125323 0.275036
O O12 0.395796 0.149691 0.176535
O O13 0.365032 0.000000 0.316923
O O14 0.500000 0.203226 0.000000
O O15 0.372848 0.310714 0.050326
O O16 0.636918 0.500000 0.998659
O O17 0.500000 0.588675 0.000000
#
# Coordination Sequence:
#
# PCOD8209044 Si02
#       6
#     8   8   8   8   8   8
#     4  10  19  32  53  77 100 133 181 224 258 314
#     4   9  16  28  52  84 110 134 172 225 276 317
#     4   9  17  32  53  77 104 136 174 215 261 315
#     4  10  21  37  56  78 108 145 179 214 263 321
#     4  11  22  35  53  78 107 141 175 224 271 311
#     4   9  18  33  53  76 105 142 179 215 261 319
#
# _framework density 19.892810000000001
#
# number of rings (size 3 to 8) (size 9 to 14) (size 15 to 20)
#    0.000    2.333    1.667    1.500    0.000    5.333 
#    0.000    1.667    0.000    3.000    0.000    5.833 
#    0.000    0.000    0.000    0.000    0.000    0.000 
#
# Total GULP energy -594822.001817 kJ/mol
# GULP energy per Si atom -12392.125038 kJ/mol
# Density = 1.984753 g / cm^3
# Si number density = 19.892810 Si / 1000 Ang^3
#
#
#
# Elastic Constant Matrix: (Units=GPa)
#
#
# Indices 1 2 3 4 5 6 
#
# 1 24.4926 27.7591 24.4173 0.0000 0.0000 0.0000
# 2 27.7591 191.6989 82.7936 0.0000 0.0000 0.0000
# 3 24.4173 82.7936 146.1914 0.0000 0.0000 0.0000
# 4 0.0000 0.0000 0.0000 36.3566 0.0000 0.0000
# 5 0.0000 0.0000 0.0000 0.0000 18.1013 0.0000
# 6 0.0000 0.0000 0.0000 0.0000 0.0000 16.5632
#
#
#
# Elastic Compliance Matrix: (Units=1/GPa)
#
#
# Indices 1 2 3 4 5 6 
#
# 1 0.052427 -0.005043 -0.005900 0.000000 0.000000 0.000000
# 2 -0.005043 0.007391 -0.003343 0.000000 0.000000 0.000000
# 3 -0.005900 -0.003343 0.009719 0.000000 0.000000 0.000000
# 4 0.000000 0.000000 0.000000 0.027505 0.000000 0.000000
# 5 0.000000 0.000000 0.000000 0.000000 0.055245 0.000000
# 6 0.000000 0.000000 0.000000 0.000000 0.000000 0.060375
#
#
# Mechanical properties :
#
#
# Convention : Reuss Voigt Hill
#
# Bulk Modulus (GPa) = 24.41227 70.25812 47.33519
# Shear Modulus (GPa) = 19.61630 29.36506 24.49068
#
# Velocity S-wave (km/s) = 3.14363 3.84626 3.51256
# Velocity P-wave (km/s) = 5.04729 7.42428 6.34803
#
# Compressibility (1/GPa) = 0.04096301
#
# Stress axis : x y z
#
# Youngs Moduli (GPa) = 19.07419 135.30346 102.88863
#
# Poissons Ratio (x) = 0.68240 0.60706
# Poissons Ratio (y) = 0.09620 0.34399
# Poissons Ratio (z) = 0.11254 0.45236
#
# Static dielectric constant tensor:
#      x y z
#    x 3.208820 0.000000 0.000000 
#    y 0.000000 4.368100 0.000000 
#    z 0.000000 0.000000 3.537860 
# 
# 
# High freq. dielectric constant tensor:
#      x y z
#    x 1.735420 0.000000 0.000000 
#    y 0.000000 1.805970 0.000000 
#    z 0.000000 0.000000 1.758100 
# 
# From -- ./inp_files/9581.got.cif
#   From: 2010.03.12/outbox.cif.g09.slc.cpg/sg51_5_cif.got.tgz:9581.got - 2010.04.16 13:43:02.
