data_PCOD8209204
_publ_section_title
;
Structure prediction by ZEFSAII (Michael W. Deem and Ramdas Pophale) SiO2 
 PCOD8209204
Probable space group: P M M A
;
_chemical_formula_sum "Si O2"
_cell_formula_units_Z 44
_cell_length_a 9.413818
_cell_length_b 18.015577
_cell_length_c 14.420861
_cell_angle_alpha 90.000000
_cell_angle_beta 90.000000
_cell_angle_gamma 90.000000
_cell_volume 2445.711157
_symmetry_space_group_name_H-M "P M M A"
_symmetry_group_IT_number 51
_symmetry_cell_setting 'orthorhombic'
loop_
_space_group_symop_operation_xyz
x,y,z
1/2-x,-y,z
1/2+x,-y,-z
-x,y,-z
-x,-y,-z
1/2+x,y,-z
1/2-x,y,z
x,-y,z
loop_
_atom_site_type_symbol
_atom_site_label
_atom_site_fract_x
_atom_site_fract_y
_atom_site_fract_z
Si Si1 0.918088 0.142738 0.711153
Si Si2 0.418892 0.715969 0.404814
Si Si3 0.913014 0.647652 0.912231
Si Si4 0.580751 0.000000 0.596773
Si Si5 0.412986 0.822682 0.088248
Si Si6 0.918641 0.417301 0.721125
O O1 0.750000 0.144895 0.716188
O O2 0.971148 0.217006 0.660495
O O3 0.970828 0.071331 0.654641
O O4 0.974079 0.139935 0.817413
O O5 0.500000 0.725089 0.500000
O O6 0.250000 0.718181 0.421471
O O7 0.470160 0.638977 0.358384
O O8 0.750000 0.625870 0.928355
O O9 0.931192 0.735106 0.898920
O O10 0.976897 0.607903 0.821278
O O11 0.000000 0.618007 0.000000
O O12 0.500000 0.000000 0.500000
O O13 0.750000 0.000000 0.579676
O O14 0.250000 0.844475 0.071188
O O15 0.500000 0.852682 0.000000
O O16 0.750000 0.414458 0.725923
O O17 0.974338 0.500000 0.697424
#
# Coordination Sequence:
#
# PCOD8209204 Si02
#       6
#     8   8   8   4   8   8
#     4   9  17  32  53  73  97 129 161 191 233 289
#     4  10  19  33  51  70  92 122 160 199 237 282
#     4   9  16  28  47  69  93 122 156 193 232 277
#     4  10  20  34  53  76 100 128 161 200 241 282
#     4   9  16  29  49  72  96 125 159 193 230 277
#     4   9  17  30  48  68  92 125 161 193 232 286
#
# _framework density 17.990677999999999
#
# number of rings (size 3 to 8) (size 9 to 14) (size 15 to 20)
#    0.000    2.727    1.818    0.545    0.000    0.727 
#    0.000    3.182    0.000    1.091    0.000    0.000 
#    0.000    0.000    0.000    0.000    0.000    0.000 
#
# Total GULP energy -545488.339439 kJ/mol
# GULP energy per Si atom -12397.462260 kJ/mol
# Density = 1.794973 g / cm^3
# Si number density = 17.990678 Si / 1000 Ang^3
#
#
#
# Elastic Constant Matrix: (Units=GPa)
#
#
# Indices 1 2 3 4 5 6 
#
# 1 35.8570 25.0648 45.9341 0.0000 0.0000 0.0000
# 2 25.0648 103.2771 71.9050 0.0000 0.0000 0.0000
# 3 45.9341 71.9050 182.6385 0.0000 0.0000 0.0000
# 4 0.0000 0.0000 0.0000 25.2062 0.0000 0.0000
# 5 0.0000 0.0000 0.0000 0.0000 33.4913 0.0000
# 6 0.0000 0.0000 0.0000 0.0000 0.0000 7.5417
#
#
#
# Elastic Compliance Matrix: (Units=1/GPa)
#
#
# Indices 1 2 3 4 5 6 
#
# 1 0.042275 -0.003936 -0.009083 0.000000 0.000000 0.000000
# 2 -0.003936 0.013706 -0.004406 0.000000 0.000000 0.000000
# 3 -0.009083 -0.004406 0.009494 0.000000 0.000000 0.000000
# 4 0.000000 0.000000 0.000000 0.039673 0.000000 0.000000
# 5 0.000000 0.000000 0.000000 0.000000 0.029858 0.000000
# 6 0.000000 0.000000 0.000000 0.000000 0.000000 0.132596
#
#
# Mechanical properties :
#
#
# Convention : Reuss Voigt Hill
#
# Bulk Modulus (GPa) = 32.65273 67.50893 50.08083
# Shear Modulus (GPa) = 15.99180 25.17242 20.58211
#
# Velocity S-wave (km/s) = 2.98467 3.74464 3.38604
# Velocity P-wave (km/s) = 5.48332 7.50348 6.57150
#
# Compressibility (1/GPa) = 0.03062531
#
# Stress axis : x y z
#
# Youngs Moduli (GPa) = 23.65448 72.96313 105.32755
#
# Poissons Ratio (x) = 0.28721 0.95665
# Poissons Ratio (y) = 0.09311 0.46406
# Poissons Ratio (z) = 0.21484 0.32147
#
# Static dielectric constant tensor:
#      x y z
#    x 2.890820 0.000000 0.000000 
#    y 0.000000 3.506990 0.000000 
#    z 0.000000 0.000000 3.521890 
# 
# 
# High freq. dielectric constant tensor:
#      x y z
#    x 1.649000 0.000000 0.000000 
#    y 0.000000 1.691490 0.000000 
#    z 0.000000 0.000000 1.711710 
# 
# From -- ./inp_files/15472.got.cif
#   From: 2010.03.12/outbox.cif.g09.slc.cpg/sg51_8_cif.got.tgz:15472.got - 2010.04.16 13:43:02.
