data_PCOD8209425
_publ_section_title
;
Structure prediction by ZEFSAII (Michael W. Deem and Ramdas Pophale) SiO2 
 PCOD8209425
Probable space group: P M M A
;
_chemical_formula_sum "Si O2"
_cell_formula_units_Z 56
_cell_length_a 14.172228
_cell_length_b 9.189153
_cell_length_c 22.788298
_cell_angle_alpha 90.000000
_cell_angle_beta 90.000000
_cell_angle_gamma 90.000000
_cell_volume 2967.737628
_symmetry_space_group_name_H-M "P M M A"
_symmetry_group_IT_number 51
_symmetry_cell_setting 'orthorhombic'
loop_
_space_group_symop_operation_xyz
x,y,z
1/2-x,-y,z
1/2+x,-y,-z
-x,y,-z
-x,-y,-z
1/2+x,y,-z
1/2-x,y,z
x,-y,z
loop_
_atom_site_type_symbol
_atom_site_label
_atom_site_fract_x
_atom_site_fract_y
_atom_site_fract_z
Si Si1 0.643544 0.831087 0.599155
Si Si2 0.358458 0.170567 0.090552
Si Si3 0.141685 0.333970 0.972668
Si Si4 0.476011 0.328743 0.858768
Si Si5 0.856275 0.672975 0.251573
Si Si6 0.140489 0.164878 0.536580
Si Si7 0.467659 0.671972 0.634339
O O1 0.750000 0.779390 0.612885
O O2 0.619014 0.802922 0.531189
O O3 0.572431 0.738842 0.639256
O O4 0.632285 0.000000 0.614416
O O5 0.250000 0.207520 0.105636
O O6 0.423489 0.246649 0.139709
O O7 0.377459 0.000000 0.090291
O O8 0.386140 0.232705 0.026885
O O9 0.250000 0.314307 0.954298
O O10 0.120337 0.500000 0.991339
O O11 0.080799 0.286843 0.917106
O O12 0.494338 0.500000 0.853488
O O13 0.416350 0.269769 0.803641
O O14 0.750000 0.737083 0.248964
O O15 0.851522 0.500000 0.250121
O O16 0.906400 0.728138 0.310766
O O17 0.250000 0.187810 0.550256
O O18 0.081434 0.277133 0.574709
O O19 0.109846 0.000000 0.552143
O O20 0.476498 0.500000 0.634016
#
# Coordination Sequence:
#
# PCOD8209425 Si02
#       7
#     8   8   8   8   8   8   8
#     4   9  19  36  55  74 100 137 177 214 254 302
#     4  10  21  35  50  72 105 139 165 198 252 308
#     4   9  17  30  51  79 105 129 164 208 249 294
#     4  10  19  33  55  77  97 130 174 213 247 287
#     4   9  19  36  55  76 104 135 166 203 250 303
#     4   9  18  33  53  76 103 137 175 212 252 303
#     4  11  21  32  51  79 108 137 168 208 260 310
#
# _framework density 18.869592000000001
#
# number of rings (size 3 to 8) (size 9 to 14) (size 15 to 20)
#    0.000    2.429    0.000    3.429    0.000    8.286 
#    0.000    3.571    0.000    7.286    0.000    0.000 
#    0.000    0.000    0.000    0.000    0.000    0.000 
#
# Total GULP energy -694498.881491 kJ/mol
# GULP energy per Si atom -12401.765741 kJ/mol
# Density = 1.882664 g / cm^3
# Si number density = 18.869592 Si / 1000 Ang^3
#
#
#
# Elastic Constant Matrix: (Units=GPa)
#
#
# Indices 1 2 3 4 5 6 
#
# 1 133.2037 54.3410 79.3397 0.0000 0.0000 0.0000
# 2 54.3410 60.7722 40.6003 0.0000 0.0000 0.0000
# 3 79.3397 40.6003 76.2864 0.0000 0.0000 0.0000
# 4 0.0000 0.0000 0.0000 1.5206 0.0000 0.0000
# 5 0.0000 0.0000 0.0000 0.0000 35.0352 0.0000
# 6 0.0000 0.0000 0.0000 0.0000 0.0000 32.4872
#
#
#
# Elastic Compliance Matrix: (Units=1/GPa)
#
#
# Indices 1 2 3 4 5 6 
#
# 1 0.021304 -0.006590 -0.018649 0.000000 0.000000 0.000000
# 2 -0.006590 0.027572 -0.007820 0.000000 0.000000 0.000000
# 3 -0.018649 -0.007820 0.036666 0.000000 0.000000 0.000000
# 4 0.000000 0.000000 0.000000 0.657655 0.000000 0.000000
# 5 0.000000 0.000000 0.000000 0.000000 0.028543 0.000000
# 6 0.000000 0.000000 0.000000 0.000000 0.000000 0.030781
#
#
# Mechanical properties :
#
#
# Convention : Reuss Voigt Hill
#
# Bulk Modulus (GPa) = 51.48537 68.75826 60.12182
# Shear Modulus (GPa) = 5.71355 20.20734 12.96045
#
# Velocity S-wave (km/s) = 1.74198 3.27600 2.62361
# Velocity P-wave (km/s) = 5.60268 7.12933 6.41161
#
# Compressibility (1/GPa) = 0.01942299
#
# Stress axis : x y z
#
# Youngs Moduli (GPa) = 46.94044 36.26842 27.27359
#
# Poissons Ratio (x) = 0.23902 0.50862
# Poissons Ratio (y) = 0.30936 0.21328
# Poissons Ratio (z) = 0.87538 0.28362
#
# Static dielectric constant tensor:
#      x y z
#    x 3.728520 0.000000 0.000000 
#    y 0.000000 3.214270 0.000000 
#    z 0.000000 0.000000 3.343040 
# 
# 
# High freq. dielectric constant tensor:
#      x y z
#    x 1.753400 0.000000 0.000000 
#    y 0.000000 1.710760 0.000000 
#    z 0.000000 0.000000 1.713670 
# 
# From -- ./inp_files/33350.got.cif
#   From: 2010.03.12/outbox.cif.g09.slc.cpg/sg51_17_cif.got.tgz:33350.got - 2010.04.16 13:43:02.
