data_PCOD8209675
_publ_section_title
;
Structure prediction by ZEFSAII (Michael W. Deem and Ramdas Pophale) SiO2 
 PCOD8209675
Probable space group: P M M A
;
_chemical_formula_sum "Si O2"
_cell_formula_units_Z 56
_cell_length_a 14.775258
_cell_length_b 17.252854
_cell_length_c 11.269167
_cell_angle_alpha 90.000000
_cell_angle_beta 90.000000
_cell_angle_gamma 90.000000
_cell_volume 2872.683865
_symmetry_space_group_name_H-M "P M M A"
_symmetry_group_IT_number 51
_symmetry_cell_setting 'orthorhombic'
loop_
_space_group_symop_operation_xyz
x,y,z
1/2-x,-y,z
1/2+x,-y,-z
-x,y,-z
-x,-y,-z
1/2+x,y,-z
1/2-x,y,z
x,-y,z
loop_
_atom_site_type_symbol
_atom_site_label
_atom_site_fract_x
_atom_site_fract_y
_atom_site_fract_z
Si Si1 0.353411 0.186466 0.429238
Si Si2 0.492124 0.588250 0.640773
Si Si3 0.151913 0.852134 0.817452
Si Si4 0.351223 0.717352 0.652447
Si Si5 0.406722 0.201284 0.058897
Si Si6 0.535049 0.910698 0.737683
Si Si7 0.849912 0.321593 0.759257
O O1 0.250000 0.153773 0.441969
O O2 0.389230 0.223542 0.552269
O O3 0.424624 0.120093 0.388111
O O4 0.355923 0.254663 0.335932
O O5 0.500000 0.598001 0.500000
O O6 0.470421 0.500000 0.674641
O O7 0.408426 0.641124 0.677189
O O8 0.579631 0.612773 0.717919
O O9 0.250000 0.888001 0.780839
O O10 0.144327 0.763569 0.774693
O O11 0.073521 0.902813 0.755301
O O12 0.151432 0.843528 0.959702
O O13 0.250000 0.691413 0.616414
O O14 0.415833 0.136914 0.159956
O O15 0.366791 0.281287 0.112422
O O16 0.500000 0.226293 0.000000
O O17 0.561272 0.000000 0.748839
O O18 0.750000 0.359770 0.761304
#
# Coordination Sequence:
#
# PCOD8209675 Si02
#       7
#     8   8   8   8   8   8   8
#     4   9  18  34  56  78 101 138 187 233 274 326
#     4  11  22  33  53  86 119 146 175 219 280 341
#     4  10  21  35  55  82 108 144 191 230 272 330
#     4  10  20  37  59  79 107 146 186 231 278 330
#     4   9  18  34  58  82 107 143 194 245 282 329
#     4  10  21  35  54  80 110 144 180 229 290 341
#     4  10  19  34  56  80 112 152 191 232 277 327
#
# _framework density 19.493966
#
# number of rings (size 3 to 8) (size 9 to 14) (size 15 to 20)
#    0.000    2.143    1.429    3.000    0.000    4.286 
#    0.000    2.857    0.000    6.429    0.000    4.000 
#    0.000    0.000    0.000    0.000    0.000    0.000 
#
# Total GULP energy -693974.539196 kJ/mol
# GULP energy per Si atom -12392.402486 kJ/mol
# Density = 1.944960 g / cm^3
# Si number density = 19.493966 Si / 1000 Ang^3
#
#
#
# Elastic Constant Matrix: (Units=GPa)
#
#
# Indices 1 2 3 4 5 6 
#
# 1 106.5751 56.5444 39.2192 0.0000 0.0000 0.0000
# 2 56.5444 100.2175 35.3656 0.0000 0.0000 0.0000
# 3 39.2192 35.3656 50.8212 0.0000 0.0000 0.0000
# 4 0.0000 0.0000 0.0000 14.6882 0.0000 0.0000
# 5 0.0000 0.0000 0.0000 0.0000 22.7544 0.0000
# 6 0.0000 0.0000 0.0000 0.0000 0.0000 11.7178
#
#
#
# Elastic Compliance Matrix: (Units=1/GPa)
#
#
# Indices 1 2 3 4 5 6 
#
# 1 0.015387 -0.005953 -0.007731 0.000000 0.000000 0.000000
# 2 -0.005953 0.015529 -0.006213 0.000000 0.000000 0.000000
# 3 -0.007731 -0.006213 0.029966 0.000000 0.000000 0.000000
# 4 0.000000 0.000000 0.000000 0.068082 0.000000 0.000000
# 5 0.000000 0.000000 0.000000 0.000000 0.043948 0.000000
# 6 0.000000 0.000000 0.000000 0.000000 0.000000 0.085340
#
#
# Mechanical properties :
#
#
# Convention : Reuss Voigt Hill
#
# Bulk Modulus (GPa) = 47.41945 57.76358 52.59151
# Shear Modulus (GPa) = 16.38937 18.26439 17.32688
#
# Velocity S-wave (km/s) = 2.90270 3.06424 2.98456
# Velocity P-wave (km/s) = 5.96760 6.49733 6.23809
#
# Compressibility (1/GPa) = 0.02108840
#
# Stress axis : x y z
#
# Youngs Moduli (GPa) = 64.99150 64.39361 33.37066
#
# Poissons Ratio (x) = 0.38334 0.25800
# Poissons Ratio (y) = 0.38690 0.20732
# Poissons Ratio (z) = 0.50247 0.40005
#
# Static dielectric constant tensor:
#      x y z
#    x 3.902650 0.000000 0.000000 
#    y 0.000000 3.253160 0.000000 
#    z 0.000000 0.000000 4.155100 
# 
# 
# High freq. dielectric constant tensor:
#      x y z
#    x 1.770960 0.000000 0.000000 
#    y 0.000000 1.722050 0.000000 
#    z 0.000000 0.000000 1.759550 
# 
# From -- ./inp_files/16603.got.cif
#   From: 2010.03.12/outbox.cif.g09.slc.cpg/sg51_9_cif.got.tgz:16603.got - 2010.04.16 13:43:02.
