data_PCOD8209226
_publ_section_title
;
Structure prediction by ZEFSAII (Michael W. Deem and Ramdas Pophale) SiO2 
 PCOD8209226
Probable space group: P M M A
;
_chemical_formula_sum "Si O2"
_cell_formula_units_Z 64
_cell_length_a 9.353710
_cell_length_b 25.444497
_cell_length_c 14.491801
_cell_angle_alpha 90.000000
_cell_angle_beta 90.000000
_cell_angle_gamma 90.000000
_cell_volume 3449.055102
_symmetry_space_group_name_H-M "P M M A"
_symmetry_group_IT_number 51
_symmetry_cell_setting 'orthorhombic'
loop_
_space_group_symop_operation_xyz
x,y,z
1/2-x,-y,z
1/2+x,-y,-z
-x,y,-z
-x,-y,-z
1/2+x,y,-z
1/2-x,y,z
x,-y,z
loop_
_atom_site_type_symbol
_atom_site_label
_atom_site_fract_x
_atom_site_fract_y
_atom_site_fract_z
Si Si1 0.580263 0.941408 0.278875
Si Si2 0.083194 0.351111 0.594894
Si Si3 0.085977 0.227253 0.911779
Si Si4 0.419927 0.847194 0.595434
Si Si5 0.411622 0.437430 0.086615
Si Si6 0.580513 0.252588 0.287605
Si Si7 0.914091 0.896699 0.087893
Si Si8 0.414468 0.439782 0.736440
O O1 0.750000 0.938715 0.274029
O O2 0.527495 0.901394 0.357551
O O3 0.521160 0.924390 0.178790
O O4 0.525654 0.000000 0.303425
O O5 0.250000 0.343488 0.573585
O O6 0.024827 0.303943 0.658927
O O7 0.052315 0.405987 0.645825
O O8 0.000000 0.350978 0.500000
O O9 0.250000 0.242642 0.927806
O O10 0.023497 0.253399 0.817972
O O11 0.067029 0.165237 0.899747
O O12 0.000000 0.248829 0.000000
O O13 0.500000 0.841048 0.500000
O O14 0.250000 0.846033 0.579400
O O15 0.472029 0.799430 0.659841
O O16 0.250000 0.415457 0.083989
O O17 0.411370 0.500000 0.082043
O O18 0.488088 0.418717 0.180237
O O19 0.500000 0.414432 0.000000
O O20 0.750000 0.251730 0.282527
O O21 0.750000 0.912202 0.072816
O O22 0.000000 0.918002 0.000000
O O23 0.250000 0.433274 0.767646
O O24 0.449980 0.500000 0.711569
#
# Coordination Sequence:
#
# PCOD8209226 Si02
#       8
#     8   8   8   8   8   8   8   8
#     4   9  17  30  48  69  95 129 165 196 234 291
#     4  10  21  36  54  75  99 129 165 209 256 299
#     4   9  16  29  50  74  98 126 158 192 233 283
#     4  10  19  33  52  72  93 123 163 204 245 289
#     4   9  16  27  47  75 104 135 171 209 248 292
#     4   9  17  33  55  74  97 129 163 197 240 296
#     4   9  16  28  47  70  95 125 159 193 231 280
#     4   9  18  33  51  72 101 136 171 206 249 302
#
# _framework density 18.555807999999999
#
# number of rings (size 3 to 8) (size 9 to 14) (size 15 to 20)
#    0.000    2.750    1.250    0.750    0.000    2.750 
#    0.000    2.500    0.000    2.250    0.000    0.000 
#    0.000    0.000    0.000    0.000    0.000    0.000 
#
# Total GULP energy -793518.154409 kJ/mol
# GULP energy per Si atom -12398.721163 kJ/mol
# Density = 1.851357 g / cm^3
# Si number density = 18.555808 Si / 1000 Ang^3
#
#
#
# Elastic Constant Matrix: (Units=GPa)
#
#
# Indices 1 2 3 4 5 6 
#
# 1 61.4404 30.8589 61.1781 0.0000 0.0000 0.0000
# 2 30.8589 85.7984 66.0016 0.0000 0.0000 0.0000
# 3 61.1781 66.0016 181.6697 0.0000 0.0000 0.0000
# 4 0.0000 0.0000 0.0000 26.8084 0.0000 0.0000
# 5 0.0000 0.0000 0.0000 0.0000 37.5289 0.0000
# 6 0.0000 0.0000 0.0000 0.0000 0.0000 9.5378
#
#
#
# Elastic Compliance Matrix: (Units=1/GPa)
#
#
# Indices 1 2 3 4 5 6 
#
# 1 0.025232 -0.003523 -0.007217 0.000000 0.000000 0.000000
# 2 -0.003523 0.016668 -0.004869 0.000000 0.000000 0.000000
# 3 -0.007217 -0.004869 0.009704 0.000000 0.000000 0.000000
# 4 0.000000 0.000000 0.000000 0.037302 0.000000 0.000000
# 5 0.000000 0.000000 0.000000 0.000000 0.026646 0.000000
# 6 0.000000 0.000000 0.000000 0.000000 0.000000 0.104847
#
#
# Mechanical properties :
#
#
# Convention : Reuss Voigt Hill
#
# Bulk Modulus (GPa) = 49.05592 71.66508 60.36050
# Shear Modulus (GPa) = 19.34901 26.16635 22.75768
#
# Velocity S-wave (km/s) = 3.23266 3.75926 3.50586
# Velocity P-wave (km/s) = 6.35829 7.58604 6.99913
#
# Compressibility (1/GPa) = 0.02038490
#
# Stress axis : x y z
#
# Youngs Moduli (GPa) = 39.63294 59.99488 103.05289
#
# Poissons Ratio (x) = 0.21138 0.74371
# Poissons Ratio (y) = 0.13964 0.50178
# Poissons Ratio (z) = 0.28602 0.29212
#
# Static dielectric constant tensor:
#      x y z
#    x 2.494780 0.000000 0.000000 
#    y 0.000000 3.430060 0.000000 
#    z 0.000000 0.000000 3.514170 
# 
# 
# High freq. dielectric constant tensor:
#      x y z
#    x 1.686520 0.000000 0.000000 
#    y 0.000000 1.708400 0.000000 
#    z 0.000000 0.000000 1.730070 
# 
# From -- ./inp_files/22272.got.cif
#   From: 2010.03.12/outbox.cif.g09.slc.cpg/sg51_12_cif.got.tgz:22272.got - 2010.04.16 13:43:02.
