data_PCOD8209018
_publ_section_title
;
Structure prediction by ZEFSAII (Michael W. Deem and Ramdas Pophale) SiO2 
 PCOD8209018
Probable space group: P M M A
;
_chemical_formula_sum "Si O2"
_cell_formula_units_Z 56
_cell_length_a 8.736854
_cell_length_b 20.250939
_cell_length_c 15.467758
_cell_angle_alpha 90.000000
_cell_angle_beta 90.000000
_cell_angle_gamma 90.000000
_cell_volume 2736.702649
_symmetry_space_group_name_H-M "P M M A"
_symmetry_group_IT_number 51
_symmetry_cell_setting 'orthorhombic'
loop_
_space_group_symop_operation_xyz
x,y,z
1/2-x,-y,z
1/2+x,-y,-z
-x,y,-z
-x,-y,-z
1/2+x,y,-z
1/2-x,y,z
x,-y,z
loop_
_atom_site_type_symbol
_atom_site_label
_atom_site_fract_x
_atom_site_fract_y
_atom_site_fract_z
Si Si1 0.926802 0.329086 0.590742
Si Si2 0.425472 0.425533 0.262250
Si Si3 0.428405 0.383463 0.912047
Si Si4 0.070397 0.895293 0.086260
Si Si5 0.928702 0.764328 0.130719
Si Si6 0.927908 0.796788 0.692682
Si Si7 0.428752 0.926741 0.732223
O O1 0.750000 0.346288 0.582813
O O2 0.997060 0.375391 0.666643
O O3 0.953125 0.251237 0.610874
O O4 0.000000 0.347439 0.500000
O O5 0.250000 0.406021 0.245071
O O6 0.441694 0.500000 0.297928
O O7 0.510938 0.421424 0.171316
O O8 0.250000 0.395421 0.916065
O O9 0.471975 0.306561 0.906410
O O10 0.500000 0.412802 0.000000
O O11 0.250000 0.908978 0.090433
O O12 0.034089 0.817252 0.081592
O O13 0.990910 0.925995 0.170151
O O14 0.000000 0.928783 0.000000
O O15 0.750000 0.781620 0.118751
O O16 0.970401 0.765860 0.231636
O O17 0.750000 0.799056 0.720274
O O18 0.985090 0.871752 0.673489
O O19 0.250000 0.909843 0.733805
O O20 0.458421 0.000000 0.693383
#
# Coordination Sequence:
#
# PCOD8209018 Si02
#       7
#     8   8   8   8   8   8   8
#     4  10  22  39  63  95 124 154 193 238 294 354
#     4  10  22  42  64  86 120 161 199 244 296 350
#     4  11  23  36  56  84 116 157 203 250 297 349
#     4  11  21  32  48  71 104 145 190 242 293 344
#     4  10  19  32  52  79 109 146 191 240 295 346
#     4  10  19  34  58  85 115 150 188 237 288 342
#     4  10  21  36  54  78 109 147 190 235 287 349
#
# _framework density 20.462579999999999
#
# number of rings (size 3 to 8) (size 9 to 14) (size 15 to 20)
#    0.000    1.714    1.429    5.143    0.000    6.857 
#    0.000    0.000    0.000    0.429    0.000    0.000 
#    0.000    0.000    0.000    0.000    0.000    0.000 
#
# Total GULP energy -694341.834301 kJ/mol
# GULP energy per Si atom -12398.961327 kJ/mol
# Density = 2.041601 g / cm^3
# Si number density = 20.462580 Si / 1000 Ang^3
#
#
#
# Elastic Constant Matrix: (Units=GPa)
#
#
# Indices 1 2 3 4 5 6 
#
# 1 71.6183 39.4342 23.0719 0.0000 0.0000 0.0000
# 2 39.4342 108.3109 41.3530 0.0000 0.0000 0.0000
# 3 23.0719 41.3530 101.4379 0.0000 0.0000 0.0000
# 4 0.0000 0.0000 0.0000 2.7492 0.0000 0.0000
# 5 0.0000 0.0000 0.0000 0.0000 31.9879 0.0000
# 6 0.0000 0.0000 0.0000 0.0000 0.0000 24.8652
#
#
#
# Elastic Compliance Matrix: (Units=1/GPa)
#
#
# Indices 1 2 3 4 5 6 
#
# 1 0.017696 -0.005810 -0.001656 0.000000 0.000000 0.000000
# 2 -0.005810 0.012842 -0.003914 0.000000 0.000000 0.000000
# 3 -0.001656 -0.003914 0.011831 0.000000 0.000000 0.000000
# 4 0.000000 0.000000 0.000000 0.363737 0.000000 0.000000
# 5 0.000000 0.000000 0.000000 0.000000 0.031262 0.000000
# 6 0.000000 0.000000 0.000000 0.000000 0.000000 0.040217
#
#
# Mechanical properties :
#
#
# Convention : Reuss Voigt Hill
#
# Bulk Modulus (GPa) = 51.00010 54.34282 52.67146
# Shear Modulus (GPa) = 9.86424 23.75433 16.80929
#
# Velocity S-wave (km/s) = 2.19797 3.41085 2.86923
# Velocity P-wave (km/s) = 5.60528 6.49050 6.06407
#
# Compressibility (1/GPa) = 0.01960781
#
# Stress axis : x y z
#
# Youngs Moduli (GPa) = 56.51077 77.86666 84.52715
#
# Poissons Ratio (x) = 0.45244 0.13999
# Poissons Ratio (y) = 0.32835 0.33083
# Poissons Ratio (z) = 0.09359 0.30476
#
# Static dielectric constant tensor:
#      x y z
#    x 3.683800 0.000000 0.000000 
#    y 0.000000 3.874520 0.000000 
#    z 0.000000 0.000000 3.472490 
# 
# 
# High freq. dielectric constant tensor:
#      x y z
#    x 1.802110 0.000000 0.000000 
#    y 0.000000 1.805600 0.000000 
#    z 0.000000 0.000000 1.771660 
# 
# From -- ./inp_files/21707.got.cif
#   From: 2010.03.12/outbox.cif.g09.slc.cpg/sg51_11_cif.got.tgz:21707.got - 2010.04.16 13:43:02.
