data_PCOD8209603
_publ_section_title
;
Structure prediction by ZEFSAII (Michael W. Deem and Ramdas Pophale) SiO2 
 PCOD8209603
Probable space group: P M M A
;
_chemical_formula_sum "Si O2"
_cell_formula_units_Z 64
_cell_length_a 19.711346
_cell_length_b 18.170284
_cell_length_c 9.912037
_cell_angle_alpha 90.000000
_cell_angle_beta 90.000000
_cell_angle_gamma 90.000000
_cell_volume 3550.102654
_symmetry_space_group_name_H-M "P M M A"
_symmetry_group_IT_number 51
_symmetry_cell_setting 'orthorhombic'
loop_
_space_group_symop_operation_xyz
x,y,z
1/2-x,-y,z
1/2+x,-y,-z
-x,y,-z
-x,-y,-z
1/2+x,y,-z
1/2-x,y,z
x,-y,z
loop_
_atom_site_type_symbol
_atom_site_label
_atom_site_fract_x
_atom_site_fract_y
_atom_site_fract_z
Si Si1 0.173856 0.695157 0.725577
Si Si2 0.827493 0.195708 0.035350
Si Si3 0.581608 0.584649 0.847920
Si Si4 0.563725 0.914289 0.407637
Si Si5 0.672418 0.199025 0.512083
Si Si6 0.670706 0.714734 0.773479
Si Si7 0.073800 0.583681 0.840947
Si Si8 0.060330 0.914114 0.904307
O O1 0.250000 0.664218 0.747403
O O2 0.158655 0.760441 0.828587
O O3 0.164253 0.728345 0.578090
O O4 0.120610 0.629972 0.741380
O O5 0.750000 0.170469 0.019683
O O6 0.871254 0.122215 0.041011
O O7 0.849784 0.247787 0.913415
O O8 0.593918 0.500000 0.803191
O O9 0.629493 0.638241 0.760660
O O10 0.503963 0.608432 0.823616
O O11 0.598811 0.593474 0.005809
O O12 0.500000 0.893241 0.500000
O O13 0.627575 0.868421 0.460504
O O14 0.545944 0.894709 0.252417
O O15 0.582639 0.000000 0.422418
O O16 0.750000 0.170690 0.510423
O O17 0.649936 0.226293 0.659686
O O18 0.750000 0.694852 0.764598
O O19 0.081438 0.500000 0.795194
O O20 0.070744 0.000000 0.924721
O O21 0.000000 0.884749 0.000000
#
# Coordination Sequence:
#
# PCOD8209603 Si02
#       8
#     8   8   8   8   8   8   8   8
#     4  10  19  34  54  77 106 137 176 224 269 316
#     4  10  20  35  56  82 108 140 184 228 273 321
#     4   9  18  33  53  78 108 141 178 220 268 324
#     4  10  22  39  58  81 110 145 184 223 268 328
#     4  10  22  39  56  79 111 145 183 225 269 322
#     4  10  21  36  54  80 111 142 179 225 273 322
#     4   9  18  32  52  80 109 138 177 223 269 319
#     4  10  22  38  57  83 113 144 179 225 276 322
#
# _framework density 18.027647999999999
#
# number of rings (size 3 to 8) (size 9 to 14) (size 15 to 20)
#    0.000    2.250    2.500    0.750    1.750    3.000 
#    0.000    3.125    0.000    6.000    0.000    0.000 
#    0.000    0.000    0.000    0.000    0.000    0.000 
#
# Total GULP energy -793670.061531 kJ/mol
# GULP energy per Si atom -12401.094711 kJ/mol
# Density = 1.798662 g / cm^3
# Si number density = 18.027648 Si / 1000 Ang^3
#
#
#
# Elastic Constant Matrix: (Units=GPa)
#
#
# Indices 1 2 3 4 5 6 
#
# 1 99.5996 65.0863 43.0349 0.0000 0.0000 0.0000
# 2 65.0863 75.3359 29.5264 0.0000 0.0000 0.0000
# 3 43.0349 29.5264 59.7990 0.0000 0.0000 0.0000
# 4 0.0000 0.0000 0.0000 19.3388 0.0000 0.0000
# 5 0.0000 0.0000 0.0000 0.0000 25.4301 0.0000
# 6 0.0000 0.0000 0.0000 0.0000 0.0000 41.2246
#
#
#
# Elastic Compliance Matrix: (Units=1/GPa)
#
#
# Indices 1 2 3 4 5 6 
#
# 1 0.027027 -0.019501 -0.009822 0.000000 0.000000 0.000000
# 2 -0.019501 0.030529 -0.001040 0.000000 0.000000 0.000000
# 3 -0.009822 -0.001040 0.024305 0.000000 0.000000 0.000000
# 4 0.000000 0.000000 0.000000 0.051709 0.000000 0.000000
# 5 0.000000 0.000000 0.000000 0.000000 0.039323 0.000000
# 6 0.000000 0.000000 0.000000 0.000000 0.000000 0.024257
#
#
# Mechanical properties :
#
#
# Convention : Reuss Voigt Hill
#
# Bulk Modulus (GPa) = 47.31333 56.66997 51.99165
# Shear Modulus (GPa) = 18.87346 23.67118 21.27232
#
# Velocity S-wave (km/s) = 3.23912 3.62753 3.43881
# Velocity P-wave (km/s) = 6.34752 7.00347 6.68355
#
# Compressibility (1/GPa) = 0.02113569
#
# Stress axis : x y z
#
# Youngs Moduli (GPa) = 36.99951 32.75542 41.14445
#
# Poissons Ratio (x) = 0.63876 0.40411
# Poissons Ratio (y) = 0.72152 0.04280
# Poissons Ratio (z) = 0.36340 0.03407
#
# Static dielectric constant tensor:
#      x y z
#    x 3.305840 0.000000 0.000000 
#    y 0.000000 3.158160 0.000000 
#    z 0.000000 0.000000 3.382820 
# 
# 
# High freq. dielectric constant tensor:
#      x y z
#    x 1.699090 0.000000 0.000000 
#    y 0.000000 1.691900 0.000000 
#    z 0.000000 0.000000 1.695380 
# 
# From -- ./inp_files/11887.got.cif
#   From: 2010.03.12/outbox.cif.g09.slc.cpg/sg51_6_cif.got.tgz:11887.got - 2010.04.16 13:43:02.
