data_PCOD8209918
_publ_section_title
;
Structure prediction by ZEFSAII (Michael W. Deem and Ramdas Pophale) SiO2 
 PCOD8209918
Probable space group: P M M A
;
_chemical_formula_sum "Si O2"
_cell_formula_units_Z 48
_cell_length_a 15.991464
_cell_length_b 9.000101
_cell_length_c 16.949828
_cell_angle_alpha 90.000000
_cell_angle_beta 90.000000
_cell_angle_gamma 90.000000
_cell_volume 2439.500455
_symmetry_space_group_name_H-M "P M M A"
_symmetry_group_IT_number 51
_symmetry_cell_setting 'orthorhombic'
loop_
_space_group_symop_operation_xyz
x,y,z
1/2-x,-y,z
1/2+x,-y,-z
-x,y,-z
-x,-y,-z
1/2+x,y,-z
1/2-x,y,z
x,-y,z
loop_
_atom_site_type_symbol
_atom_site_label
_atom_site_fract_x
_atom_site_fract_y
_atom_site_fract_z
Si Si1 0.585765 0.674947 0.840118
Si Si2 0.653226 0.827568 0.990773
Si Si3 0.583588 0.170821 0.159356
Si Si4 0.659431 0.172189 0.322051
Si Si5 0.156201 0.172913 0.306147
Si Si6 0.502024 0.177229 0.589121
O O1 0.594394 0.500000 0.837989
O O2 0.603149 0.731609 0.928016
O O3 0.493136 0.725001 0.817047
O O4 0.649997 0.743106 0.777162
O O5 0.750000 0.791724 0.981723
O O6 0.633652 0.000000 0.976058
O O7 0.624192 0.778338 0.077431
O O8 0.651417 0.192084 0.228004
O O9 0.552835 0.000000 0.155484
O O10 0.750000 0.242120 0.346729
O O11 0.580446 0.244400 0.367718
O O12 0.660529 0.000000 0.344767
O O13 0.250000 0.199510 0.340193
O O14 0.086935 0.233885 0.367990
O O15 0.140511 0.000000 0.289165
O O16 0.500000 0.237640 0.500000
O O17 0.501184 0.000000 0.591191
#
# Coordination Sequence:
#
# PCOD8209918 Si02
#       6
#     8   8   8   8   8   8
#     4  12  24  36  53  78 110 148 190 230 276 325
#     4  10  21  36  55  80 108 141 185 233 279 329
#     4  10  19  35  57  79 106 142 186 229 275 329
#     4   9  16  28  51  81 110 140 177 222 271 322
#     4  10  20  36  58  82 111 149 188 226 272 327
#     4   9  17  30  51  83 119 145 171 219 280 335
#
# _framework density 19.676159999999999
#
# number of rings (size 3 to 8) (size 9 to 14) (size 15 to 20)
#    0.000    2.000    1.667    3.000    0.000    8.000 
#    0.000    3.333    0.000    2.000    0.000    0.000 
#    0.000    0.000    0.000    0.000    0.000    0.000 
#
# Total GULP energy -595139.962160 kJ/mol
# GULP energy per Si atom -12398.749212 kJ/mol
# Density = 1.963138 g / cm^3
# Si number density = 19.676160 Si / 1000 Ang^3
#
#
#
# Elastic Constant Matrix: (Units=GPa)
#
#
# Indices 1 2 3 4 5 6 
#
# 1 149.2825 26.6143 56.4924 0.0000 0.0000 0.0000
# 2 26.6143 41.3495 18.8050 0.0000 0.0000 0.0000
# 3 56.4924 18.8050 128.9797 0.0000 0.0000 0.0000
# 4 0.0000 0.0000 0.0000 1.4181 0.0000 0.0000
# 5 0.0000 0.0000 0.0000 0.0000 24.5465 0.0000
# 6 0.0000 0.0000 0.0000 0.0000 0.0000 5.0268
#
#
#
# Elastic Compliance Matrix: (Units=1/GPa)
#
#
# Indices 1 2 3 4 5 6 
#
# 1 0.008636 -0.004111 -0.003183 0.000000 0.000000 0.000000
# 2 -0.004111 0.027858 -0.002261 0.000000 0.000000 0.000000
# 3 -0.003183 -0.002261 0.009477 0.000000 0.000000 0.000000
# 4 0.000000 0.000000 0.000000 0.705172 0.000000 0.000000
# 5 0.000000 0.000000 0.000000 0.000000 0.040739 0.000000
# 6 0.000000 0.000000 0.000000 0.000000 0.000000 0.198932
#
#
# Mechanical properties :
#
#
# Convention : Reuss Voigt Hill
#
# Bulk Modulus (GPa) = 37.22868 58.15945 47.69407
# Shear Modulus (GPa) = 4.90735 20.71163 12.80949
#
# Velocity S-wave (km/s) = 1.58097 3.24794 2.55427
# Velocity P-wave (km/s) = 4.72170 6.60969 5.74380
#
# Compressibility (1/GPa) = 0.02686101
#
# Stress axis : x y z
#
# Youngs Moduli (GPa) = 115.79106 35.89585 105.51789
#
# Poissons Ratio (x) = 0.14757 0.33589
# Poissons Ratio (y) = 0.47601 0.23859
# Poissons Ratio (z) = 0.36859 0.08116
#
# Static dielectric constant tensor:
#      x y z
#    x 3.852890 0.000000 0.000000 
#    y 0.000000 3.050600 0.000000 
#    z 0.000000 0.000000 3.672850 
# 
# 
# High freq. dielectric constant tensor:
#      x y z
#    x 1.784300 0.000000 0.000000 
#    y 0.000000 1.704790 0.000000 
#    z 0.000000 0.000000 1.769090 
# 
# From -- ./inp_files/29414.got.cif
#   From: 2010.03.12/outbox.cif.g09.slc.cpg/sg51_15_cif.got.tgz:29414.got - 2010.04.16 13:43:02.
