data_PCOD8209318
_publ_section_title
;
Structure prediction by ZEFSAII (Michael W. Deem and Ramdas Pophale) SiO2 
 PCOD8209318
Probable space group: P M M A
;
_chemical_formula_sum "Si O2"
_cell_formula_units_Z 52
_cell_length_a 9.151836
_cell_length_b 22.421175
_cell_length_c 14.201040
_cell_angle_alpha 90.000000
_cell_angle_beta 90.000000
_cell_angle_gamma 90.000000
_cell_volume 2913.981217
_symmetry_space_group_name_H-M "P M M A"
_symmetry_group_IT_number 51
_symmetry_cell_setting 'orthorhombic'
loop_
_space_group_symop_operation_xyz
x,y,z
1/2-x,-y,z
1/2+x,-y,-z
-x,y,-z
-x,-y,-z
1/2+x,y,-z
1/2-x,y,z
x,-y,z
loop_
_atom_site_type_symbol
_atom_site_label
_atom_site_fract_x
_atom_site_fract_y
_atom_site_fract_z
Si Si1 0.918114 0.396820 0.707376
Si Si2 0.919729 0.069402 0.404533
Si Si3 0.582005 0.722501 0.595639
Si Si4 0.920038 0.645863 0.908687
Si Si5 0.078511 0.781746 0.092278
Si Si6 0.576172 0.500000 0.399222
Si Si7 0.422677 0.836464 0.288281
O O1 0.750000 0.417106 0.691345
O O2 0.944189 0.331190 0.667344
O O3 0.956424 0.394707 0.818155
O O4 0.028070 0.441810 0.657726
O O5 0.750000 0.085497 0.414918
O O6 0.000000 0.089287 0.500000
O O7 0.990424 0.104424 0.317436
O O8 0.944323 0.000000 0.383922
O O9 0.500000 0.708719 0.500000
O O10 0.750000 0.729190 0.569545
O O11 0.525087 0.782688 0.644416
O O12 0.750000 0.644966 0.930325
O O13 0.972393 0.713668 0.889818
O O14 0.000000 0.618603 0.000000
O O15 0.250000 0.784819 0.075741
O O16 0.032459 0.821356 0.181547
O O17 0.000000 0.808263 0.000000
O O18 0.750000 0.500000 0.412443
O O19 0.500000 0.500000 0.500000
O O20 0.250000 0.847154 0.296977
#
# Coordination Sequence:
#
# PCOD8209318 Si02
#       7
#     8   8   8   8   8   4   8
#     4  10  20  38  59  78 106 143 178 217 266 316
#     4  10  21  36  53  75 105 142 183 223 263 312
#     4  10  20  33  50  75 106 136 169 213 263 314
#     4   9  17  32  55  81 110 141 173 213 264 317
#     4   9  17  31  51  78 110 142 173 212 262 317
#     4  12  26  42  59  80 105 138 183 226 264 316
#     4  10  19  33  53  78 109 140 174 217 266 317
#
# _framework density 17.845001
#
# number of rings (size 3 to 8) (size 9 to 14) (size 15 to 20)
#    0.000    2.154    1.538    2.077    0.000    5.846 
#    0.000    0.385    0.000    0.462    0.000    0.000 
#    0.000    0.000    0.000    0.000    0.000    0.000 
#
# Total GULP energy -644906.316426 kJ/mol
# GULP energy per Si atom -12402.044547 kJ/mol
# Density = 1.780439 g / cm^3
# Si number density = 17.845001 Si / 1000 Ang^3
#
#
#
# Elastic Constant Matrix: (Units=GPa)
#
#
# Indices 1 2 3 4 5 6 
#
# 1 77.4142 40.4209 62.2995 0.0000 0.0000 0.0000
# 2 40.4209 66.1869 42.6351 0.0000 0.0000 0.0000
# 3 62.2995 42.6351 141.8232 0.0000 0.0000 0.0000
# 4 0.0000 0.0000 0.0000 25.4839 0.0000 0.0000
# 5 0.0000 0.0000 0.0000 0.0000 35.4333 0.0000
# 6 0.0000 0.0000 0.0000 0.0000 0.0000 28.6169
#
#
#
# Elastic Compliance Matrix: (Units=1/GPa)
#
#
# Indices 1 2 3 4 5 6 
#
# 1 0.024254 -0.009858 -0.007691 0.000000 0.000000 0.000000
# 2 -0.009858 0.022744 -0.002507 0.000000 0.000000 0.000000
# 3 -0.007691 -0.002507 0.011183 0.000000 0.000000 0.000000
# 4 0.000000 0.000000 0.000000 0.039241 0.000000 0.000000
# 5 0.000000 0.000000 0.000000 0.000000 0.028222 0.000000
# 6 0.000000 0.000000 0.000000 0.000000 0.000000 0.034944
#
#
# Mechanical properties :
#
#
# Convention : Reuss Voigt Hill
#
# Bulk Modulus (GPa) = 55.34138 64.01503 59.67821
# Shear Modulus (GPa) = 24.18707 27.24474 25.71591
#
# Velocity S-wave (km/s) = 3.68557 3.91160 3.80026
# Velocity P-wave (km/s) = 7.01361 7.50676 7.26437
#
# Compressibility (1/GPa) = 0.01806966
#
# Stress axis : x y z
#
# Youngs Moduli (GPa) = 41.23064 43.96765 89.42185
#
# Poissons Ratio (x) = 0.43344 0.68770
# Poissons Ratio (y) = 0.40645 0.22417
# Poissons Ratio (z) = 0.31709 0.11022
#
# Static dielectric constant tensor:
#      x y z
#    x 3.240480 0.000000 0.000000 
#    y 0.000000 3.184970 0.000000 
#    z 0.000000 0.000000 3.433010 
# 
# 
# High freq. dielectric constant tensor:
#      x y z
#    x 1.685470 0.000000 0.000000 
#    y 0.000000 1.673950 0.000000 
#    z 0.000000 0.000000 1.698550 
# 
# From -- ./inp_files/21565.got.cif
#   From: 2010.03.12/outbox.cif.g09.slc.cpg/sg51_11_cif.got.tgz:21565.got - 2010.04.16 13:43:02.
