data_PCOD8209499
_publ_section_title
;
Structure prediction by ZEFSAII (Michael W. Deem and Ramdas Pophale) SiO2 
 PCOD8209499
Probable space group: P M M A
;
_chemical_formula_sum "Si O2"
_cell_formula_units_Z 48
_cell_length_a 19.001298
_cell_length_b 8.668472
_cell_length_c 14.869354
_cell_angle_alpha 90.000000
_cell_angle_beta 90.000000
_cell_angle_gamma 90.000000
_cell_volume 2449.164302
_symmetry_space_group_name_H-M "P M M A"
_symmetry_group_IT_number 51
_symmetry_cell_setting 'orthorhombic'
loop_
_space_group_symop_operation_xyz
x,y,z
1/2-x,-y,z
1/2+x,-y,-z
-x,y,-z
-x,-y,-z
1/2+x,y,-z
1/2-x,y,z
x,-y,z
loop_
_atom_site_type_symbol
_atom_site_label
_atom_site_fract_x
_atom_site_fract_y
_atom_site_fract_z
Si Si1 0.328619 0.177033 0.801323
Si Si2 0.403916 0.679961 0.954088
Si Si3 0.670256 0.683364 0.534124
Si Si4 0.432769 0.321238 0.312071
Si Si5 0.089819 0.678531 0.641575
Si Si6 0.456930 0.180315 0.123945
O O1 0.250000 0.205403 0.764784
O O2 0.337619 0.274707 0.892809
O O3 0.383683 0.226580 0.726375
O O4 0.342668 0.000000 0.825232
O O5 0.404033 0.500000 0.975630
O O6 0.472839 0.723669 0.896462
O O7 0.399900 0.772590 0.048143
O O8 0.750000 0.749085 0.534227
O O9 0.670690 0.500000 0.531653
O O10 0.629670 0.739077 0.623429
O O11 0.627794 0.744793 0.447305
O O12 0.422874 0.500000 0.286439
O O13 0.506053 0.297624 0.365477
O O14 0.427782 0.221515 0.221893
O O15 0.109244 0.500000 0.656470
O O16 0.473645 0.000000 0.118011
#
# Coordination Sequence:
#
# PCOD8209499 Si02
#       6
#     8   8   8   8   8   8
#     4  11  23  37  54  81 119 156 188 230 287 346
#     4  11  21  36  58  83 111 145 188 233 277 334
#     4   9  18  33  54  81 113 149 191 238 288 338
#     4  10  19  33  55  84 113 147 192 242 284 333
#     4  10  19  33  56  83 111 146 192 241 285 336
#     4  11  21  35  57  83 113 146 182 230 285 339
#
# _framework density 19.598521999999999
#
# number of rings (size 3 to 8) (size 9 to 14) (size 15 to 20)
#    0.000    1.667    1.667    5.500    0.000    4.000 
#    0.000    1.667    0.000    6.500    0.000    0.000 
#    0.000    0.000    0.000    0.000    0.000    0.000 
#
# Total GULP energy -595302.116201 kJ/mol
# GULP energy per Si atom -12402.127421 kJ/mol
# Density = 1.955392 g / cm^3
# Si number density = 19.598522 Si / 1000 Ang^3
#
#
#
# Elastic Constant Matrix: (Units=GPa)
#
#
# Indices 1 2 3 4 5 6 
#
# 1 88.6440 19.9683 49.1580 0.0000 0.0000 0.0000
# 2 19.9683 68.0392 23.7334 0.0000 0.0000 0.0000
# 3 49.1580 23.7334 135.3486 0.0000 0.0000 0.0000
# 4 0.0000 0.0000 0.0000 11.9211 0.0000 0.0000
# 5 0.0000 0.0000 0.0000 0.0000 27.7109 0.0000
# 6 0.0000 0.0000 0.0000 0.0000 0.0000 16.8657
#
#
#
# Elastic Compliance Matrix: (Units=1/GPa)
#
#
# Indices 1 2 3 4 5 6 
#
# 1 0.014540 -0.002583 -0.004828 0.000000 0.000000 0.000000
# 2 -0.002583 0.016114 -0.001887 0.000000 0.000000 0.000000
# 3 -0.004828 -0.001887 0.009473 0.000000 0.000000 0.000000
# 4 0.000000 0.000000 0.000000 0.083885 0.000000 0.000000
# 5 0.000000 0.000000 0.000000 0.000000 0.036087 0.000000
# 6 0.000000 0.000000 0.000000 0.000000 0.000000 0.059292
#
#
# Mechanical properties :
#
#
# Convention : Reuss Voigt Hill
#
# Bulk Modulus (GPa) = 46.44718 53.08347 49.76532
# Shear Modulus (GPa) = 20.39447 24.57768 22.48607
#
# Velocity S-wave (km/s) = 3.22935 3.54511 3.39091
# Velocity P-wave (km/s) = 6.13643 6.62581 6.38581
#
# Compressibility (1/GPa) = 0.02152983
#
# Stress axis : x y z
#
# Youngs Moduli (GPa) = 68.77394 62.05822 105.56545
#
# Poissons Ratio (x) = 0.16031 0.50967
# Poissons Ratio (y) = 0.17766 0.19924
# Poissons Ratio (z) = 0.33204 0.11713
#
# Static dielectric constant tensor:
#      x y z
#    x 3.590970 0.000000 0.000000 
#    y 0.000000 3.362570 0.000000 
#    z 0.000000 0.000000 3.748850 
# 
# 
# High freq. dielectric constant tensor:
#      x y z
#    x 1.748250 0.000000 0.000000 
#    y 0.000000 1.746390 0.000000 
#    z 0.000000 0.000000 1.772690 
# 
# From -- ./inp_files/24771.got.cif
#   From: 2010.03.12/outbox.cif.g09.slc.cpg/sg51_13_cif.got.tgz:24771.got - 2010.04.16 13:43:02.
