data_PCOD8209840
_publ_section_title
;
Structure prediction by ZEFSAII (Michael W. Deem and Ramdas Pophale) SiO2 
 PCOD8209840
Probable space group: P M M A
;
_chemical_formula_sum "Si O2"
_cell_formula_units_Z 38
_cell_length_a 23.339389
_cell_length_b 7.390088
_cell_length_c 11.780257
_cell_angle_alpha 90.000000
_cell_angle_beta 90.000000
_cell_angle_gamma 90.000000
_cell_volume 2031.860360
_symmetry_space_group_name_H-M "P M M A"
_symmetry_group_IT_number 51
_symmetry_cell_setting 'orthorhombic'
loop_
_space_group_symop_operation_xyz
x,y,z
1/2-x,-y,z
1/2+x,-y,-z
-x,y,-z
-x,-y,-z
1/2+x,y,-z
1/2-x,y,z
x,-y,z
loop_
_atom_site_type_symbol
_atom_site_label
_atom_site_fract_x
_atom_site_fract_y
_atom_site_fract_z
Si Si1 0.750000 0.000000 0.745346
Si Si2 0.128335 0.712044 0.535469
Si Si3 0.059257 0.291461 0.746538
Si Si4 0.939719 0.000000 0.064077
Si Si5 0.627141 0.000000 0.844383
Si Si6 0.250000 0.288575 0.448489
Si Si7 0.571006 0.708459 0.691868
O O1 0.695142 0.000000 0.826807
O O2 0.750000 0.820713 0.668399
O O3 0.117494 0.500000 0.538054
O O4 0.103599 0.789450 0.653343
O O5 0.195077 0.763593 0.524272
O O6 0.094414 0.789536 0.426739
O O7 0.071923 0.500000 0.777055
O O8 0.065340 0.179916 0.861258
O O9 0.996861 0.267984 0.692118
O O10 0.886515 0.000000 0.977833
O O11 0.000000 0.000000 0.000000
O O12 0.599149 0.819938 0.793097
O O13 0.250000 0.500000 0.415407
O O14 0.589428 0.500000 0.708388
#
# Coordination Sequence:
#
# PCOD8209840 Si02
#       7
#     2   8   8   4   4   4   8
#     4  12  24  38  60  80 112 154 188 232 286 334
#     4   9  18  34  57  89 120 145 181 228 286 349
#     4  10  21  37  59  86 117 152 185 230 290 344
#     4  12  24  40  56  80 112 150 202 242 268 321
#     4  12  24  39  55  84 112 147 201 235 276 328
#     4  10  20  36  59  87 117 147 184 229 278 350
#     4  10  19  34  59  87 118 146 176 232 294 345
#
# _framework density 18.702072999999999
#
# number of rings (size 3 to 8) (size 9 to 14) (size 15 to 20)
#    0.000    1.684    4.211    0.632    0.000    5.474 
#    0.000    3.158    0.000    0.000    0.000    0.000 
#    0.000    0.000    0.000    0.000    0.000    0.000 
#
# Total GULP energy -471255.437070 kJ/mol
# GULP energy per Si atom -12401.458870 kJ/mol
# Density = 1.865951 g / cm^3
# Si number density = 18.702073 Si / 1000 Ang^3
#
#
#
# Elastic Constant Matrix: (Units=GPa)
#
#
# Indices 1 2 3 4 5 6 
#
# 1 143.8062 42.7706 77.2316 0.0000 0.0000 0.0000
# 2 42.7706 88.9045 54.8480 0.0000 0.0000 0.0000
# 3 77.2316 54.8480 149.8564 0.0000 0.0000 0.0000
# 4 0.0000 0.0000 0.0000 26.3286 0.0000 0.0000
# 5 0.0000 0.0000 0.0000 0.0000 32.2370 0.0000
# 6 0.0000 0.0000 0.0000 0.0000 0.0000 5.3342
#
#
#
# Elastic Compliance Matrix: (Units=1/GPa)
#
#
# Indices 1 2 3 4 5 6 
#
# 1 0.009906 -0.002087 -0.004341 0.000000 0.000000 0.000000
# 2 -0.002087 0.014968 -0.004403 0.000000 0.000000 0.000000
# 3 -0.004341 -0.004403 0.010522 0.000000 0.000000 0.000000
# 4 0.000000 0.000000 0.000000 0.037982 0.000000 0.000000
# 5 0.000000 0.000000 0.000000 0.000000 0.031020 0.000000
# 6 0.000000 0.000000 0.000000 0.000000 0.000000 0.187471
#
#
# Mechanical properties :
#
#
# Convention : Reuss Voigt Hill
#
# Bulk Modulus (GPa) = 72.81449 81.36307 77.08878
# Shear Modulus (GPa) = 15.71784 26.62775 21.17280
#
# Velocity S-wave (km/s) = 2.90217 3.77740 3.36833
# Velocity P-wave (km/s) = 7.08862 7.91355 7.51242
#
# Compressibility (1/GPa) = 0.01373353
#
# Stress axis : x y z
#
# Youngs Moduli (GPa) = 100.94720 66.80739 95.04008
#
# Poissons Ratio (x) = 0.13945 0.41260
# Poissons Ratio (y) = 0.21072 0.41843
# Poissons Ratio (z) = 0.43825 0.29413
#
# Static dielectric constant tensor:
#      x y z
#    x 3.557630 0.000000 0.000000 
#    y 0.000000 3.533990 0.000000 
#    z 0.000000 0.000000 3.418750 
# 
# 
# High freq. dielectric constant tensor:
#      x y z
#    x 1.726380 0.000000 0.000000 
#    y 0.000000 1.733240 0.000000 
#    z 0.000000 0.000000 1.710310 
# 
# From -- ./inp_files/11487.got.cif
#   From: 2010.03.12/outbox.cif.g09.slc.cpg/sg51_6_cif.got.tgz:11487.got - 2010.04.16 13:43:02.
