data_PCOD8209522
_publ_section_title
;
Structure prediction by ZEFSAII (Michael W. Deem and Ramdas Pophale) SiO2 
 PCOD8209522
Probable space group: P M M A
;
_chemical_formula_sum "Si O2"
_cell_formula_units_Z 64
_cell_length_a 9.212924
_cell_length_b 25.069634
_cell_length_c 14.326710
_cell_angle_alpha 90.000000
_cell_angle_beta 90.000000
_cell_angle_gamma 90.000000
_cell_volume 3308.963314
_symmetry_space_group_name_H-M "P M M A"
_symmetry_group_IT_number 51
_symmetry_cell_setting 'orthorhombic'
loop_
_space_group_symop_operation_xyz
x,y,z
1/2-x,-y,z
1/2+x,-y,-z
-x,y,-z
-x,-y,-z
1/2+x,y,-z
1/2-x,y,z
x,-y,z
loop_
_atom_site_type_symbol
_atom_site_label
_atom_site_fract_x
_atom_site_fract_y
_atom_site_fract_z
Si Si1 0.418489 0.648216 0.593781
Si Si2 0.082760 0.246504 0.707774
Si Si3 0.090132 0.563251 0.085348
Si Si4 0.414853 0.059789 0.268917
Si Si5 0.079704 0.094975 0.908129
Si Si6 0.078822 0.844444 0.401819
Si Si7 0.583293 0.218334 0.088875
Si Si8 0.080134 0.438083 0.292382
O O1 0.500000 0.665288 0.500000
O O2 0.250000 0.638463 0.571758
O O3 0.442277 0.694919 0.667925
O O4 0.486442 0.594127 0.633373
O O5 0.250000 0.227591 0.695377
O O6 0.041528 0.249865 0.817122
O O7 0.977454 0.205365 0.657332
O O8 0.250000 0.587935 0.077332
O O9 0.098058 0.500000 0.074512
O O10 0.025337 0.576808 0.187559
O O11 0.000000 0.588791 0.000000
O O12 0.250000 0.072078 0.236546
O O13 0.520632 0.063869 0.181037
O O14 0.461502 0.100825 0.349393
O O15 0.428124 0.000000 0.310019
O O16 0.250000 0.084385 0.917918
O O17 0.040974 0.156914 0.894443
O O18 0.000000 0.072531 0.000000
O O19 0.250000 0.837790 0.417463
O O20 0.000000 0.845385 0.500000
O O21 0.750000 0.224401 0.063833
O O22 0.500000 0.242718 0.000000
O O23 0.250000 0.424323 0.302657
O O24 0.052734 0.500000 0.313180
#
# Coordination Sequence:
#
# PCOD8209522 Si02
#       8
#     8   8   8   8   8   8   8   8
#     4  11  24  40  60  84 113 147 187 236 287 337
#     4  10  21  40  62  86 116 147 184 232 280 330
#     4   8  14  26  47  76 108 143 182 223 266 314
#     4  10  22  39  56  79 113 149 189 236 282 335
#     4  10  19  33  56  83 113 149 188 231 279 333
#     4  11  23  38  60  85 109 143 187 233 286 341
#     4   9  18  33  56  85 116 147 182 225 272 328
#     4   9  19  37  59  83 115 153 192 234 280 332
#
# _framework density 19.341404000000001
#
# number of rings (size 3 to 8) (size 9 to 14) (size 15 to 20)
#    0.000    2.250    1.250    2.250    0.000    5.250 
#    0.000    1.875    0.000    3.000    0.000    0.000 
#    0.000    0.000    0.000    0.000    0.000    0.000 
#
# Total GULP energy -793654.047647 kJ/mol
# GULP energy per Si atom -12400.844494 kJ/mol
# Density = 1.929738 g / cm^3
# Si number density = 19.341404 Si / 1000 Ang^3
#
#
#
# Elastic Constant Matrix: (Units=GPa)
#
#
# Indices 1 2 3 4 5 6 
#
# 1 91.9042 43.7527 60.3015 0.0000 0.0000 0.0000
# 2 43.7527 73.8804 46.9851 0.0000 0.0000 0.0000
# 3 60.3015 46.9851 134.3719 0.0000 0.0000 0.0000
# 4 0.0000 0.0000 0.0000 14.8056 0.0000 0.0000
# 5 0.0000 0.0000 0.0000 0.0000 38.2642 0.0000
# 6 0.0000 0.0000 0.0000 0.0000 0.0000 20.4436
#
#
#
# Elastic Compliance Matrix: (Units=1/GPa)
#
#
# Indices 1 2 3 4 5 6 
#
# 1 0.017889 -0.007058 -0.005560 0.000000 0.000000 0.000000
# 2 -0.007058 0.020191 -0.003893 0.000000 0.000000 0.000000
# 3 -0.005560 -0.003893 0.011298 0.000000 0.000000 0.000000
# 4 0.000000 0.000000 0.000000 0.067542 0.000000 0.000000
# 5 0.000000 0.000000 0.000000 0.000000 0.026134 0.000000
# 6 0.000000 0.000000 0.000000 0.000000 0.000000 0.048915
#
#
# Mechanical properties :
#
#
# Convention : Reuss Voigt Hill
#
# Bulk Modulus (GPa) = 61.13691 66.91501 64.02596
# Shear Modulus (GPa) = 21.69728 24.64381 23.17055
#
# Velocity S-wave (km/s) = 3.35297 3.57339 3.46493
# Velocity P-wave (km/s) = 6.83139 7.19009 7.01303
#
# Compressibility (1/GPa) = 0.01635673
#
# Stress axis : x y z
#
# Youngs Moduli (GPa) = 55.89955 49.52743 88.50904
#
# Poissons Ratio (x) = 0.34957 0.49212
# Poissons Ratio (y) = 0.39455 0.34453
# Poissons Ratio (z) = 0.31081 0.19279
#
# Static dielectric constant tensor:
#      x y z
#    x 3.607530 0.000000 0.000000 
#    y 0.000000 3.308080 0.000000 
#    z 0.000000 0.000000 3.669810 
# 
# 
# High freq. dielectric constant tensor:
#      x y z
#    x 1.753710 0.000000 0.000000 
#    y 0.000000 1.733380 0.000000 
#    z 0.000000 0.000000 1.761870 
# 
# From -- ./inp_files/22202.got.cif
#   From: 2010.03.12/outbox.cif.g09.slc.cpg/sg51_12_cif.got.tgz:22202.got - 2010.04.16 13:43:02.
