data_PCOD8209423
_publ_section_title
;
Structure prediction by ZEFSAII (Michael W. Deem and Ramdas Pophale) SiO2 
 PCOD8209423
Probable space group: P M M A
;
_chemical_formula_sum "Si O2"
_cell_formula_units_Z 64
_cell_length_a 17.587489
_cell_length_b 14.185896
_cell_length_c 12.283034
_cell_angle_alpha 90.000000
_cell_angle_beta 90.000000
_cell_angle_gamma 90.000000
_cell_volume 3064.546845
_symmetry_space_group_name_H-M "P M M A"
_symmetry_group_IT_number 51
_symmetry_cell_setting 'orthorhombic'
loop_
_space_group_symop_operation_xyz
x,y,z
1/2-x,-y,z
1/2+x,-y,-z
-x,y,-z
-x,-y,-z
1/2+x,y,-z
1/2-x,y,z
x,-y,z
loop_
_atom_site_type_symbol
_atom_site_label
_atom_site_fract_x
_atom_site_fract_y
_atom_site_fract_z
Si Si1 0.661001 0.717185 0.156436
Si Si2 0.333643 0.137441 0.517682
Si Si3 0.913350 0.391014 0.967413
Si Si4 0.572622 0.103024 0.687328
Si Si5 0.587336 0.690083 0.731171
Si Si6 0.834844 0.646740 0.517310
Si Si7 0.569150 0.604257 0.323672
Si Si8 0.400719 0.897977 0.740300
O O1 0.750000 0.734440 0.164854
O O2 0.636474 0.642485 0.247717
O O3 0.618762 0.817380 0.172260
O O4 0.640319 0.675398 0.039012
O O5 0.250000 0.106743 0.475167
O O6 0.397239 0.098224 0.436212
O O7 0.338852 0.248742 0.528481
O O8 0.343374 0.099180 0.639067
O O9 0.891260 0.500000 0.984593
O O10 0.899759 0.362704 0.843415
O O11 0.000000 0.371773 0.000000
O O12 0.606229 0.197407 0.745322
O O13 0.482889 0.117670 0.687331
O O14 0.593394 0.000000 0.742027
O O15 0.644382 0.643120 0.644737
O O16 0.501919 0.674970 0.685471
O O17 0.750000 0.603876 0.503898
O O18 0.897638 0.591980 0.445780
O O19 0.544179 0.500000 0.282871
O O20 0.395972 0.000000 0.800103
#
# Coordination Sequence:
#
# PCOD8209423 Si02
#       8
#     8   8   8   8   8   8   8   8
#     4  12  25  42  64  94 128 159 204 270 327 372
#     4  10  19  33  54  86 128 170 211 260 314 373
#     4  11  23  43  68  90 117 161 215 266 317 376
#     4  10  20  35  58  89 124 167 215 257 308 378
#     4  11  22  41  66  91 126 167 216 263 313 380
#     4  10  22  38  58  90 134 172 202 251 318 383
#     4  12  23  39  64  92 122 163 208 259 321 387
#     4  11  21  36  60  89 125 170 214 258 316 383
#
# _framework density 20.884001999999999
#
# number of rings (size 3 to 8) (size 9 to 14) (size 15 to 20)
#    0.000    1.125    3.750    2.625    0.000    8.500 
#    0.000    0.625    0.000    2.250    0.000    0.000 
#    0.000    0.000    0.000    0.000    0.000    0.000 
#
# Total GULP energy -793401.493520 kJ/mol
# GULP energy per Si atom -12396.898336 kJ/mol
# Density = 2.083647 g / cm^3
# Si number density = 20.884002 Si / 1000 Ang^3
#
#
#
# Elastic Constant Matrix: (Units=GPa)
#
#
# Indices 1 2 3 4 5 6 
#
# 1 83.4499 21.8544 23.0467 0.0000 0.0000 0.0000
# 2 21.8544 136.3755 34.6315 0.0000 0.0000 0.0000
# 3 23.0467 34.6315 94.8004 0.0000 0.0000 0.0000
# 4 0.0000 0.0000 0.0000 18.7642 0.0000 0.0000
# 5 0.0000 0.0000 0.0000 0.0000 29.1872 0.0000
# 6 0.0000 0.0000 0.0000 0.0000 0.0000 2.9562
#
#
#
# Elastic Compliance Matrix: (Units=1/GPa)
#
#
# Indices 1 2 3 4 5 6 
#
# 1 0.013091 -0.001422 -0.002663 0.000000 0.000000 0.000000
# 2 -0.001422 0.008237 -0.002663 0.000000 0.000000 0.000000
# 3 -0.002663 -0.002663 0.012169 0.000000 0.000000 0.000000
# 4 0.000000 0.000000 0.000000 0.053293 0.000000 0.000000
# 5 0.000000 0.000000 0.000000 0.000000 0.034262 0.000000
# 6 0.000000 0.000000 0.000000 0.000000 0.000000 0.338277
#
#
# Mechanical properties :
#
#
# Convention : Reuss Voigt Hill
#
# Bulk Modulus (GPa) = 49.99898 52.63235 51.31567
# Shear Modulus (GPa) = 10.42771 25.85439 18.14105
#
# Velocity S-wave (km/s) = 2.23696 3.52234 2.95050
# Velocity P-wave (km/s) = 5.53762 6.46525 6.01933
#
# Compressibility (1/GPa) = 0.02000041
#
# Stress axis : x y z
#
# Youngs Moduli (GPa) = 76.38818 121.40556 82.17670
#
# Poissons Ratio (x) = 0.17258 0.21885
# Poissons Ratio (y) = 0.10859 0.21887
# Poissons Ratio (z) = 0.20344 0.32335
#
# Static dielectric constant tensor:
#      x y z
#    x 3.763230 0.000000 0.000000 
#    y 0.000000 4.140390 0.000000 
#    z 0.000000 0.000000 3.542730 
# 
# 
# High freq. dielectric constant tensor:
#      x y z
#    x 1.812590 0.000000 0.000000 
#    y 0.000000 1.837230 0.000000 
#    z 0.000000 0.000000 1.785160 
# 
# From -- ./inp_files/17512.got.cif
#   From: 2010.03.12/outbox.cif.g09.slc.cpg/sg51_9_cif.got.tgz:17512.got - 2010.04.16 13:43:02.
