data_PCOD8209203
_publ_section_title
;
Structure prediction by ZEFSAII (Michael W. Deem and Ramdas Pophale) SiO2 
 PCOD8209203
Probable space group: P M M A
;
_chemical_formula_sum "Si O2"
_cell_formula_units_Z 64
_cell_length_a 8.902169
_cell_length_b 31.025653
_cell_length_c 14.335537
_cell_angle_alpha 90.000000
_cell_angle_beta 90.000000
_cell_angle_gamma 90.000000
_cell_volume 3959.412334
_symmetry_space_group_name_H-M "P M M A"
_symmetry_group_IT_number 51
_symmetry_cell_setting 'orthorhombic'
loop_
_space_group_symop_operation_xyz
x,y,z
1/2-x,-y,z
1/2+x,-y,-z
-x,y,-z
-x,-y,-z
1/2+x,y,-z
1/2-x,y,z
x,-y,z
loop_
_atom_site_type_symbol
_atom_site_label
_atom_site_fract_x
_atom_site_fract_y
_atom_site_fract_z
Si Si1 0.428403 0.121955 0.291472
Si Si2 0.573676 0.717628 0.276937
Si Si3 0.927027 0.361396 0.399463
Si Si4 0.072613 0.799927 0.599368
Si Si5 0.074220 0.156089 0.093337
Si Si6 0.075079 0.949879 0.597288
Si Si7 0.072940 0.254604 0.094197
Si Si8 0.574300 0.454504 0.400422
O O1 0.250000 0.123956 0.303771
O O2 0.502312 0.157260 0.357763
O O3 0.475972 0.129215 0.183983
O O4 0.492610 0.075491 0.319862
O O5 0.750000 0.715328 0.257108
O O6 0.513460 0.675570 0.330957
O O7 0.531018 0.759861 0.335341
O O8 0.487051 0.717446 0.179614
O O9 0.750000 0.356305 0.413180
O O10 0.970254 0.408507 0.353527
O O11 0.000000 0.355130 0.500000
O O12 0.250000 0.806106 0.588323
O O13 0.000000 0.790467 0.500000
O O14 0.250000 0.153804 0.078087
O O15 0.020779 0.205185 0.108653
O O16 0.000000 0.136320 0.000000
O O17 0.250000 0.937770 0.593025
O O18 0.000000 0.936238 0.500000
O O19 0.049810 0.000000 0.618139
O O20 0.250000 0.258987 0.087495
O O21 0.000000 0.273219 0.000000
O O22 0.500000 0.455542 0.500000
O O23 0.750000 0.454023 0.417437
O O24 0.529913 0.500000 0.346939
#
# Coordination Sequence:
#
# PCOD8209203 Si02
#       8
#     8   8   8   8   8   8   8   8
#     4  11  21  35  53  75 100 125 158 194 233 276
#     4  10  20  32  45  64  91 125 159 192 231 275
#     4   9  17  28  41  60  88 122 160 196 232 277
#     4  11  22  33  46  65  93 128 162 194 228 266
#     4   9  19  33  51  74  97 122 152 191 233 274
#     4  10  21  37  56  78 102 129 160 194 234 277
#     4  10  19  33  51  70  92 119 154 194 235 277
#     4   8  13  22  37  56  79 110 149 193 236 275
#
# _framework density 16.164014999999999
#
# number of rings (size 3 to 8) (size 9 to 14) (size 15 to 20)
#    0.000    2.250    1.250    2.250    0.000    3.250 
#    0.000    0.000    0.000    0.375    0.000    0.000 
#    0.000    0.500    0.000    0.875    0.000    1.500 
#
# Total GULP energy -793300.578922 kJ/mol
# GULP energy per Si atom -12395.321546 kJ/mol
# Density = 1.612722 g / cm^3
# Si number density = 16.164015 Si / 1000 Ang^3
#
#
#
# Elastic Constant Matrix: (Units=GPa)
#
#
# Indices 1 2 3 4 5 6 
#
# 1 53.9682 32.2590 42.9163 0.0000 0.0000 0.0000
# 2 32.2590 98.3902 54.0848 0.0000 0.0000 0.0000
# 3 42.9163 54.0848 117.6305 0.0000 0.0000 0.0000
# 4 0.0000 0.0000 0.0000 10.2813 0.0000 0.0000
# 5 0.0000 0.0000 0.0000 0.0000 29.0364 0.0000
# 6 0.0000 0.0000 0.0000 0.0000 0.0000 14.7364
#
#
#
# Elastic Compliance Matrix: (Units=1/GPa)
#
#
# Indices 1 2 3 4 5 6 
#
# 1 0.027642 -0.004710 -0.007920 0.000000 0.000000 0.000000
# 2 -0.004710 0.014404 -0.004904 0.000000 0.000000 0.000000
# 3 -0.007920 -0.004904 0.013646 0.000000 0.000000 0.000000
# 4 0.000000 0.000000 0.000000 0.097264 0.000000 0.000000
# 5 0.000000 0.000000 0.000000 0.000000 0.034440 0.000000
# 6 0.000000 0.000000 0.000000 0.000000 0.000000 0.067859
#
#
# Mechanical properties :
#
#
# Convention : Reuss Voigt Hill
#
# Bulk Modulus (GPa) = 48.48633 58.72324 53.60479
# Shear Modulus (GPa) = 16.82389 20.19273 18.50831
#
# Velocity S-wave (km/s) = 3.22968 3.53829 3.38750
# Velocity P-wave (km/s) = 6.63094 7.28706 6.96673
#
# Compressibility (1/GPa) = 0.02062437
#
# Stress axis : x y z
#
# Youngs Moduli (GPa) = 36.17633 69.42684 73.28409
#
# Poissons Ratio (x) = 0.32698 0.58038
# Poissons Ratio (y) = 0.17038 0.35941
# Poissons Ratio (z) = 0.28650 0.34049
#
# Static dielectric constant tensor:
#      x y z
#    x 3.090130 0.000000 0.000000 
#    y 0.000000 3.399310 0.000000 
#    z 0.000000 0.000000 2.962200 
# 
# 
# High freq. dielectric constant tensor:
#      x y z
#    x 1.630300 0.000000 0.000000 
#    y 0.000000 1.617100 0.000000 
#    z 0.000000 0.000000 1.599410 
# 
# From -- ./inp_files/22559.got.cif
#   From: 2010.03.12/outbox.cif.g09.slc.cpg/sg51_12_cif.got.tgz:22559.got - 2010.04.16 13:43:02.
