data_PCOD8209055
_publ_section_title
;
Structure prediction by ZEFSAII (Michael W. Deem and Ramdas Pophale) SiO2 
 PCOD8209055
Probable space group: P M M A
;
_chemical_formula_sum "Si O2"
_cell_formula_units_Z 48
_cell_length_a 9.942506
_cell_length_b 28.938261
_cell_length_c 9.280983
_cell_angle_alpha 90.000000
_cell_angle_beta 90.000000
_cell_angle_gamma 90.000000
_cell_volume 2670.313604
_symmetry_space_group_name_H-M "P M M A"
_symmetry_group_IT_number 51
_symmetry_cell_setting 'orthorhombic'
loop_
_space_group_symop_operation_xyz
x,y,z
1/2-x,-y,z
1/2+x,-y,-z
-x,y,-z
-x,-y,-z
1/2+x,y,-z
1/2-x,y,z
x,-y,z
loop_
_atom_site_type_symbol
_atom_site_label
_atom_site_fract_x
_atom_site_fract_y
_atom_site_fract_z
Si Si1 0.250000 0.550856 0.662811
Si Si2 0.503846 0.390057 0.329716
Si Si3 0.095854 0.053110 0.870501
Si Si4 0.905152 0.871479 0.362710
Si Si5 0.092390 0.689245 0.864947
Si Si6 0.596479 0.795668 0.130672
Si Si7 0.250000 0.447327 0.320208
O O1 0.250000 0.500000 0.729675
O O2 0.122074 0.577041 0.722784
O O3 0.250000 0.548418 0.491169
O O4 0.500000 0.383537 0.500000
O O5 0.529125 0.339402 0.266318
O O6 0.374842 0.416635 0.267629
O O7 0.250000 0.060916 0.919860
O O8 0.062860 0.082893 0.729803
O O9 0.067787 0.000000 0.829948
O O10 0.000000 0.069483 0.000000
O O11 0.750000 0.871028 0.413133
O O12 0.939037 0.826302 0.268856
O O13 0.000000 0.871521 0.500000
O O14 0.250000 0.677657 0.893540
O O15 0.074323 0.742724 0.823823
O O16 0.000000 0.676208 0.000000
O O17 0.750000 0.804569 0.080487
O O18 0.500000 0.810120 0.000000
O O19 0.250000 0.500000 0.256324
#
# Coordination Sequence:
#
# PCOD8209055 Si02
#       7
#     4   8   8   8   8   8   4
#     4   9  16  30  51  75 101 133 169 207 252 297
#     4  10  19  32  53  78 103 133 168 210 254 299
#     4   9  18  33  53  78 107 142 185 228 267 311
#     4  10  21  35  52  77 110 143 174 218 269 316
#     4  10  21  37  55  76 103 135 169 210 258 311
#     4   9  19  36  56  76  99 131 174 216 258 309
#     4   9  18  30  49  79 107 129 167 213 250 297
#
# _framework density 17.975418000000001
#
# number of rings (size 3 to 8) (size 9 to 14) (size 15 to 20)
#    0.000    2.500    0.833    1.000    1.167    4.333 
#    0.000    0.000    0.000    3.000    0.000    0.000 
#    0.000    0.000    0.000    0.000    0.000    0.000 
#
# Total GULP energy -595105.206730 kJ/mol
# GULP energy per Si atom -12398.025140 kJ/mol
# Density = 1.793450 g / cm^3
# Si number density = 17.975418 Si / 1000 Ang^3
#
#
#
# Elastic Constant Matrix: (Units=GPa)
#
#
# Indices 1 2 3 4 5 6 
#
# 1 142.3631 65.4542 73.2238 0.0000 0.0000 0.0000
# 2 65.4542 114.1720 64.3058 0.0000 0.0000 0.0000
# 3 73.2238 64.3058 98.1875 0.0000 0.0000 0.0000
# 4 0.0000 0.0000 0.0000 24.0350 0.0000 0.0000
# 5 0.0000 0.0000 0.0000 0.0000 39.9708 0.0000
# 6 0.0000 0.0000 0.0000 0.0000 0.0000 27.6511
#
#
#
# Elastic Compliance Matrix: (Units=1/GPa)
#
#
# Indices 1 2 3 4 5 6 
#
# 1 0.011975 -0.002908 -0.007026 0.000000 0.000000 0.000000
# 2 -0.002908 0.014584 -0.007383 0.000000 0.000000 0.000000
# 3 -0.007026 -0.007383 0.020260 0.000000 0.000000 0.000000
# 4 0.000000 0.000000 0.000000 0.041606 0.000000 0.000000
# 5 0.000000 0.000000 0.000000 0.000000 0.025018 0.000000
# 6 0.000000 0.000000 0.000000 0.000000 0.000000 0.036165
#
#
# Mechanical properties :
#
#
# Convention : Reuss Voigt Hill
#
# Bulk Modulus (GPa) = 82.06793 84.52113 83.29453
# Shear Modulus (GPa) = 26.55288 28.44728 27.50008
#
# Velocity S-wave (km/s) = 3.84758 3.98246 3.91560
# Velocity P-wave (km/s) = 8.09279 8.26252 8.17809
#
# Compressibility (1/GPa) = 0.01218503
#
# Stress axis : x y z
#
# Youngs Moduli (GPa) = 83.50689 68.56734 49.35943
#
# Poissons Ratio (x) = 0.19939 0.34680
# Poissons Ratio (y) = 0.24284 0.36442
# Poissons Ratio (z) = 0.58671 0.50623
#
# Static dielectric constant tensor:
#      x y z
#    x 3.536680 0.000000 0.000000 
#    y 0.000000 3.522110 0.000000 
#    z 0.000000 0.000000 2.939970 
# 
# 
# High freq. dielectric constant tensor:
#      x y z
#    x 1.709030 0.000000 0.000000 
#    y 0.000000 1.712580 0.000000 
#    z 0.000000 0.000000 1.661600 
# 
# From -- ./inp_files/6288.got.cif
#   From: 2010.03.12/outbox.cif.g09.slc.cpg/sg51_4_cif.got.tgz:6288.got - 2010.04.16 13:43:02.
