data_PCOD8209562
_publ_section_title
;
Structure prediction by ZEFSAII (Michael W. Deem and Ramdas Pophale) SiO2 
 PCOD8209562
Probable space group: P M M A
;
_chemical_formula_sum "Si O2"
_cell_formula_units_Z 64
_cell_length_a 8.921239
_cell_length_b 30.968611
_cell_length_c 14.371192
_cell_angle_alpha 90.000000
_cell_angle_beta 90.000000
_cell_angle_gamma 90.000000
_cell_volume 3970.449648
_symmetry_space_group_name_H-M "P M M A"
_symmetry_group_IT_number 51
_symmetry_cell_setting 'orthorhombic'
loop_
_space_group_symop_operation_xyz
x,y,z
1/2-x,-y,z
1/2+x,-y,-z
-x,y,-z
-x,-y,-z
1/2+x,y,-z
1/2-x,y,z
x,-y,z
loop_
_atom_site_type_symbol
_atom_site_label
_atom_site_fract_x
_atom_site_fract_y
_atom_site_fract_z
Si Si1 0.425219 0.119661 0.287161
Si Si2 0.571689 0.719653 0.280418
Si Si3 0.926126 0.361175 0.400214
Si Si4 0.926643 0.794763 0.600367
Si Si5 0.074732 0.157289 0.093482
Si Si6 0.074823 0.950381 0.595608
Si Si7 0.072800 0.257214 0.095003
Si Si8 0.574475 0.454434 0.400750
O O1 0.250000 0.109292 0.286393
O O2 0.461296 0.158463 0.357447
O O3 0.482447 0.131178 0.183508
O O4 0.513638 0.077307 0.318701
O O5 0.750000 0.725073 0.277043
O O6 0.519483 0.675695 0.330282
O O7 0.499851 0.759793 0.333009
O O8 0.504493 0.716331 0.177447
O O9 0.750000 0.357628 0.416175
O O10 0.971128 0.408287 0.354625
O O11 0.000000 0.353675 0.500000
O O12 0.750000 0.785890 0.593708
O O13 0.000000 0.791371 0.500000
O O14 0.250000 0.151986 0.081224
O O15 0.031357 0.207054 0.108647
O O16 0.000000 0.138458 0.000000
O O17 0.250000 0.942968 0.584875
O O18 0.000000 0.934506 0.500000
O O19 0.033978 0.000000 0.616165
O O20 0.250000 0.265105 0.094550
O O21 0.000000 0.274637 0.000000
O O22 0.500000 0.455575 0.500000
O O23 0.750000 0.454003 0.417191
O O24 0.530103 0.500000 0.347334
#
# Coordination Sequence:
#
# PCOD8209562 Si02
#       8
#     8   8   8   8   8   8   8   8
#     4  10  20  35  53  74  99 125 158 196 235 277
#     4  11  21  32  46  66  93 128 162 193 233 280
#     4   9  18  29  41  61  89 122 161 197 232 279
#     4  11  22  35  47  66  96 128 163 200 232 274
#     4   9  18  33  51  74  98 122 152 192 234 276
#     4  10  21  36  54  77 102 128 159 194 234 280
#     4  10  19  34  52  71  94 121 156 198 238 280
#     4   8  13  23  39  57  79 110 149 194 238 276
#
# _framework density 16.119081000000001
#
# number of rings (size 3 to 8) (size 9 to 14) (size 15 to 20)
#    0.000    2.250    1.250    2.250    0.000    5.750 
#    0.000    0.000    0.000    0.375    0.000    0.000 
#    0.000    0.500    0.000    0.875    0.000    1.500 
#
# Total GULP energy -793264.906174 kJ/mol
# GULP energy per Si atom -12394.764159 kJ/mol
# Density = 1.608239 g / cm^3
# Si number density = 16.119081 Si / 1000 Ang^3
#
#
#
# Elastic Constant Matrix: (Units=GPa)
#
#
# Indices 1 2 3 4 5 6 
#
# 1 52.6659 37.9939 38.3115 0.0000 0.0000 0.0000
# 2 37.9939 94.6116 50.3854 0.0000 0.0000 0.0000
# 3 38.3115 50.3854 115.5503 0.0000 0.0000 0.0000
# 4 0.0000 0.0000 0.0000 6.5818 0.0000 0.0000
# 5 0.0000 0.0000 0.0000 0.0000 29.2153 0.0000
# 6 0.0000 0.0000 0.0000 0.0000 0.0000 13.8764
#
#
#
# Elastic Compliance Matrix: (Units=1/GPa)
#
#
# Indices 1 2 3 4 5 6 
#
# 1 0.029652 -0.008690 -0.006042 0.000000 0.000000 0.000000
# 2 -0.008690 0.016313 -0.004232 0.000000 0.000000 0.000000
# 3 -0.006042 -0.004232 0.012503 0.000000 0.000000 0.000000
# 4 0.000000 0.000000 0.000000 0.151935 0.000000 0.000000
# 5 0.000000 0.000000 0.000000 0.000000 0.034229 0.000000
# 6 0.000000 0.000000 0.000000 0.000000 0.000000 0.072065
#
#
# Mechanical properties :
#
#
# Convention : Reuss Voigt Hill
#
# Bulk Modulus (GPa) = 48.68602 57.35660 53.02131
# Shear Modulus (GPa) = 13.83238 19.01050 16.42144
#
# Velocity S-wave (km/s) = 2.93258 3.43793 3.19526
# Velocity P-wave (km/s) = 6.46036 7.17074 6.82480
#
# Compressibility (1/GPa) = 0.02053978
#
# Stress axis : x y z
#
# Youngs Moduli (GPa) = 33.72474 61.30106 79.98135
#
# Poissons Ratio (x) = 0.53269 0.48326
# Poissons Ratio (y) = 0.29306 0.33848
# Poissons Ratio (z) = 0.20377 0.25943
#
# Static dielectric constant tensor:
#      x y z
#    x 3.081050 0.000000 0.000000 
#    y 0.000000 3.394630 0.000000 
#    z 0.000000 0.000000 3.020330 
# 
# 
# High freq. dielectric constant tensor:
#      x y z
#    x 1.628520 0.000000 0.000000 
#    y 0.000000 1.614290 0.000000 
#    z 0.000000 0.000000 1.600130 
# 
# From -- ./inp_files/22558.got.cif
#   From: 2010.03.12/outbox.cif.g09.slc.cpg/sg51_12_cif.got.tgz:22558.got - 2010.04.16 13:43:02.
