data_PCOD8209230
_publ_section_title
;
Structure prediction by ZEFSAII (Michael W. Deem and Ramdas Pophale) SiO2 
 PCOD8209230
Probable space group: P M M A
;
_chemical_formula_sum "Si O2"
_cell_formula_units_Z 52
_cell_length_a 9.229152
_cell_length_b 10.073706
_cell_length_c 29.895383
_cell_angle_alpha 90.000000
_cell_angle_beta 90.000000
_cell_angle_gamma 90.000000
_cell_volume 2779.426489
_symmetry_space_group_name_H-M "P M M A"
_symmetry_group_IT_number 51
_symmetry_cell_setting 'orthorhombic'
loop_
_space_group_symop_operation_xyz
x,y,z
1/2-x,-y,z
1/2+x,-y,-z
-x,y,-z
-x,-y,-z
1/2+x,y,-z
1/2-x,y,z
x,-y,z
loop_
_atom_site_type_symbol
_atom_site_label
_atom_site_fract_x
_atom_site_fract_y
_atom_site_fract_z
Si Si1 0.080729 0.252904 0.108886
Si Si2 0.920877 0.853540 0.799663
Si Si3 0.905706 0.851872 0.038080
Si Si4 0.580617 0.844074 0.700163
Si Si5 0.079069 0.345885 0.632112
Si Si6 0.920041 0.500000 0.952323
Si Si7 0.586537 0.342926 0.542456
O O1 0.250000 0.223409 0.104623
O O2 0.035205 0.252716 0.161536
O O3 0.033260 0.380574 0.080471
O O4 0.990215 0.137171 0.084991
O O5 0.750000 0.866181 0.796847
O O6 0.972940 0.808490 0.750576
O O7 0.984086 0.000000 0.811384
O O8 0.750000 0.778676 0.042705
O O9 0.877508 0.000000 0.020806
O O10 0.000000 0.774538 0.000000
O O11 0.750000 0.810129 0.692905
O O12 0.482555 0.750175 0.669938
O O13 0.552921 0.000000 0.690026
O O14 0.250000 0.323401 0.626623
O O15 0.045180 0.500000 0.643788
O O16 0.000935 0.302164 0.586543
O O17 0.750000 0.500000 0.961887
O O18 0.000000 0.500000 0.000000
O O19 0.500000 0.283238 0.500000
O O20 0.750000 0.283895 0.544190
O O21 0.595383 0.500000 0.537860
#
# Coordination Sequence:
#
# PCOD8209230 Si02
#       7
#     8   8   8   8   8   4   8
#     4  10  19  33  52  73  97 125 159 199 241 289
#     4   8  15  30  53  78 101 125 157 202 256 309
#     4  10  20  32  47  70  96 119 148 188 234 283
#     4   9  18  34  55  79 106 138 178 222 271 331
#     4  10  20  33  50  76 110 146 186 231 275 322
#     4  10  22  36  50  70  98 132 168 200 235 288
#     4   9  16  27  46  73 106 143 184 230 280 331
#
# _framework density 18.708895999999999
#
# number of rings (size 3 to 8) (size 9 to 14) (size 15 to 20)
#    0.000    2.615    0.000    3.231    0.000    6.462 
#    1.385    0.769    0.000    1.385    0.000    0.000 
#    0.000    0.000    0.000    0.000    0.000    0.000 
#
# Total GULP energy -644203.120531 kJ/mol
# GULP energy per Si atom -12388.521549 kJ/mol
# Density = 1.866631 g / cm^3
# Si number density = 18.708896 Si / 1000 Ang^3
#
#
#
# Elastic Constant Matrix: (Units=GPa)
#
#
# Indices 1 2 3 4 5 6 
#
# 1 107.6266 36.4333 74.9015 0.0000 0.0000 0.0000
# 2 36.4333 59.5367 60.6981 0.0000 0.0000 0.0000
# 3 74.9015 60.6981 183.3415 0.0000 0.0000 0.0000
# 4 0.0000 0.0000 0.0000 23.3983 0.0000 0.0000
# 5 0.0000 0.0000 0.0000 0.0000 31.1862 0.0000
# 6 0.0000 0.0000 0.0000 0.0000 0.0000 20.2374
#
#
#
# Elastic Compliance Matrix: (Units=1/GPa)
#
#
# Indices 1 2 3 4 5 6 
#
# 1 0.013588 -0.004009 -0.004224 0.000000 0.000000 0.000000
# 2 -0.004009 0.026537 -0.007148 0.000000 0.000000 0.000000
# 3 -0.004224 -0.007148 0.009546 0.000000 0.000000 0.000000
# 4 0.000000 0.000000 0.000000 0.042738 0.000000 0.000000
# 5 0.000000 0.000000 0.000000 0.000000 0.032065 0.000000
# 6 0.000000 0.000000 0.000000 0.000000 0.000000 0.049413
#
#
# Mechanical properties :
#
#
# Convention : Reuss Voigt Hill
#
# Bulk Modulus (GPa) = 52.88176 77.17450 65.02813
# Shear Modulus (GPa) = 23.70204 26.86250 25.28227
#
# Velocity S-wave (km/s) = 3.56320 3.79333 3.68006
# Velocity P-wave (km/s) = 6.72721 7.77981 7.27258
#
# Compressibility (1/GPa) = 0.01891011
#
# Stress axis : x y z
#
# Youngs Moduli (GPa) = 73.59392 37.68383 104.75245
#
# Poissons Ratio (x) = 0.15106 0.44248
# Poissons Ratio (y) = 0.29502 0.74873
# Poissons Ratio (z) = 0.31086 0.26935
#
# Static dielectric constant tensor:
#      x y z
#    x 3.499220 0.000000 0.000000 
#    y 0.000000 3.203600 0.000000 
#    z 0.000000 0.000000 3.738480 
# 
# 
# High freq. dielectric constant tensor:
#      x y z
#    x 1.718450 0.000000 0.000000 
#    y 0.000000 1.693790 0.000000 
#    z 0.000000 0.000000 1.734770 
# 
# From -- ./inp_files/36215.got.cif
#   From: 2010.03.12/outbox.cif.g09.slc.cpg/sg51_19_cif.got.tgz:36215.got - 2010.04.16 13:43:02.
