data_PCOD8209096
_publ_section_title
;
Structure prediction by ZEFSAII (Michael W. Deem and Ramdas Pophale) SiO2 
 PCOD8209096
Probable space group: P M M A
;
_chemical_formula_sum "Si O2"
_cell_formula_units_Z 56
_cell_length_a 21.949373
_cell_length_b 14.469979
_cell_length_c 9.487477
_cell_angle_alpha 90.000000
_cell_angle_beta 90.000000
_cell_angle_gamma 90.000000
_cell_volume 3013.288789
_symmetry_space_group_name_H-M "P M M A"
_symmetry_group_IT_number 51
_symmetry_cell_setting 'orthorhombic'
loop_
_space_group_symop_operation_xyz
x,y,z
1/2-x,-y,z
1/2+x,-y,-z
-x,y,-z
-x,-y,-z
1/2+x,y,-z
1/2-x,y,z
x,-y,z
loop_
_atom_site_type_symbol
_atom_site_label
_atom_site_fract_x
_atom_site_fract_y
_atom_site_fract_z
Si Si1 0.178812 0.892974 0.967614
Si Si2 0.678160 0.733258 0.519408
Si Si3 0.178075 0.899097 0.286617
Si Si4 0.136031 0.270635 0.796380
Si Si5 0.107652 0.607152 0.282913
Si Si6 0.019809 0.393700 0.839091
Si Si7 0.317703 0.603376 0.023948
O O1 0.250000 0.868677 0.943074
O O2 0.159236 0.870996 0.128182
O O3 0.166787 0.000000 0.930822
O O4 0.135706 0.830455 0.868564
O O5 0.750000 0.714510 0.544098
O O6 0.655012 0.824965 0.600175
O O7 0.663833 0.743601 0.356593
O O8 0.636640 0.650610 0.577784
O O9 0.250000 0.906561 0.292509
O O10 0.150206 0.000000 0.324671
O O11 0.070069 0.318915 0.794659
O O12 0.181066 0.336727 0.883038
O O13 0.123567 0.500000 0.291476
O O14 0.139403 0.648657 0.142611
O O15 0.035658 0.624502 0.268965
O O16 0.042894 0.500000 0.822510
O O17 0.000000 0.376867 0.000000
O O18 0.250000 0.602766 0.086082
O O19 0.340171 0.500000 0.986274
#
# Coordination Sequence:
#
# PCOD8209096 Si02
#       7
#     8   8   8   8   8   8   8
#     4   9  18  34  58  87 116 149 191 236 284 343
#     4  11  23  35  52  85 122 151 181 227 293 361
#     4   8  16  33  55  78 108 147 187 224 267 331
#     4  12  22  34  55  84 119 149 184 234 292 337
#     4  10  21  38  58  77 105 149 197 237 273 329
#     4  10  21  40  62  82 106 146 204 251 279 322
#     4  10  19  32  53  80 108 142 184 233 289 339
#
# _framework density 18.584344999999999
#
# number of rings (size 3 to 8) (size 9 to 14) (size 15 to 20)
#    0.000    2.000    1.429    3.857    0.000    4.286 
#    0.000    2.857    0.000    1.286    0.000    2.000 
#    0.000    0.000    0.000    0.000    0.000    0.000 
#
# Total GULP energy -694235.703996 kJ/mol
# GULP energy per Si atom -12397.066143 kJ/mol
# Density = 1.854205 g / cm^3
# Si number density = 18.584345 Si / 1000 Ang^3
#
#
#
# Elastic Constant Matrix: (Units=GPa)
#
#
# Indices 1 2 3 4 5 6 
#
# 1 75.3552 37.5851 19.8209 0.0000 0.0000 0.0000
# 2 37.5851 103.3875 51.7085 0.0000 0.0000 0.0000
# 3 19.8209 51.7085 98.1030 0.0000 0.0000 0.0000
# 4 0.0000 0.0000 0.0000 9.3907 0.0000 0.0000
# 5 0.0000 0.0000 0.0000 0.0000 26.5550 0.0000
# 6 0.0000 0.0000 0.0000 0.0000 0.0000 19.5801
#
#
#
# Elastic Compliance Matrix: (Units=1/GPa)
#
#
# Indices 1 2 3 4 5 6 
#
# 1 0.016213 -0.005779 -0.000230 0.000000 0.000000 0.000000
# 2 -0.005779 0.015195 -0.006841 0.000000 0.000000 0.000000
# 3 -0.000230 -0.006841 0.013846 0.000000 0.000000 0.000000
# 4 0.000000 0.000000 0.000000 0.106489 0.000000 0.000000
# 5 0.000000 0.000000 0.000000 0.000000 0.037658 0.000000
# 6 0.000000 0.000000 0.000000 0.000000 0.000000 0.051072
#
#
# Mechanical properties :
#
#
# Convention : Reuss Voigt Hill
#
# Bulk Modulus (GPa) = 51.14154 55.00829 53.07492
# Shear Modulus (GPa) = 18.33577 22.28725 20.31151
#
# Velocity S-wave (km/s) = 3.14447 3.46677 3.30955
# Velocity P-wave (km/s) = 6.38451 6.75931 6.57458
#
# Compressibility (1/GPa) = 0.01955357
#
# Stress axis : x y z
#
# Youngs Moduli (GPa) = 61.67715 65.81107 72.22443
#
# Poissons Ratio (x) = 0.38034 0.01658
# Poissons Ratio (y) = 0.35645 0.49411
# Poissons Ratio (z) = 0.01416 0.45024
#
# Static dielectric constant tensor:
#      x y z
#    x 3.288460 0.000000 0.000000 
#    y 0.000000 3.861530 0.000000 
#    z 0.000000 0.000000 3.327610 
# 
# 
# High freq. dielectric constant tensor:
#      x y z
#    x 1.695850 0.000000 0.000000 
#    y 0.000000 1.724830 0.000000 
#    z 0.000000 0.000000 1.714510 
# 
# From -- ./inp_files/10959.got.cif
#   From: 2010.03.12/outbox.cif.g09.slc.cpg/sg51_6_cif.got.tgz:10959.got - 2010.04.16 13:43:02.
