data_PCOD8209626
_publ_section_title
;
Structure prediction by ZEFSAII (Michael W. Deem and Ramdas Pophale) SiO2 
 PCOD8209626
Probable space group: P M M A
;
_chemical_formula_sum "Si O2"
_cell_formula_units_Z 64
_cell_length_a 8.962756
_cell_length_b 19.454939
_cell_length_c 20.839064
_cell_angle_alpha 90.000000
_cell_angle_beta 90.000000
_cell_angle_gamma 90.000000
_cell_volume 3633.704907
_symmetry_space_group_name_H-M "P M M A"
_symmetry_group_IT_number 51
_symmetry_cell_setting 'orthorhombic'
loop_
_space_group_symop_operation_xyz
x,y,z
1/2-x,-y,z
1/2+x,-y,-z
-x,y,-z
-x,-y,-z
1/2+x,y,-z
1/2-x,y,z
x,-y,z
loop_
_atom_site_type_symbol
_atom_site_label
_atom_site_fract_x
_atom_site_fract_y
_atom_site_fract_z
Si Si1 0.426623 0.295190 0.564699
Si Si2 0.426612 0.792136 0.686523
Si Si3 0.076818 0.421823 0.378331
Si Si4 0.424566 0.922887 0.270170
Si Si5 0.926687 0.795339 0.065347
Si Si6 0.078374 0.576301 0.755275
Si Si7 0.922662 0.078428 0.877553
Si Si8 0.575178 0.284712 0.187877
O O1 0.500000 0.265462 0.500000
O O2 0.250000 0.295488 0.557670
O O3 0.481756 0.247544 0.623268
O O4 0.482792 0.372918 0.575262
O O5 0.250000 0.794569 0.688113
O O6 0.488391 0.869596 0.684821
O O7 0.491525 0.752852 0.749147
O O8 0.250000 0.402462 0.383079
O O9 0.047016 0.500000 0.400286
O O10 0.025750 0.411397 0.305373
O O11 0.250000 0.911797 0.279521
O O12 0.469310 0.910732 0.196273
O O13 0.470288 0.000000 0.290986
O O14 0.750000 0.791261 0.058807
O O15 0.991368 0.747149 0.122618
O O16 0.974856 0.873773 0.078301
O O17 0.000000 0.768108 0.000000
O O18 0.250000 0.585896 0.732602
O O19 0.053190 0.500000 0.784688
O O20 0.038317 0.633664 0.808671
O O21 0.750000 0.097840 0.887820
O O22 0.952030 0.000000 0.898205
O O23 0.750000 0.271095 0.186913
#
# Coordination Sequence:
#
# PCOD8209626 Si02
#       8
#     8   8   8   8   8   8   8   8
#     4  11  23  38  55  76 106 140 176 217 260 309
#     4  10  19  34  55  79 105 134 172 216 257 305
#     4  10  20  33  50  76 109 142 176 211 252 306
#     4   9  18  32  52  80 110 136 167 211 258 305
#     4  11  22  35  51  71 102 137 172 213 254 304
#     4   9  16  30  54  79 103 133 170 214 261 305
#     4   9  18  33  51  73 103 135 169 207 248 300
#     4   9  17  32  52  77 103 130 169 215 258 302
#
# _framework density 17.612877999999998
#
# number of rings (size 3 to 8) (size 9 to 14) (size 15 to 20)
#    0.000    2.250    2.500    1.875    0.000    2.750 
#    0.000    2.500    0.000    0.750    0.000    0.000 
#    0.000    0.000    0.000    0.000    0.000    0.125 
#
# Total GULP energy -793573.866392 kJ/mol
# GULP energy per Si atom -12399.591662 kJ/mol
# Density = 1.757279 g / cm^3
# Si number density = 17.612878 Si / 1000 Ang^3
#
#
#
# Elastic Constant Matrix: (Units=GPa)
#
#
# Indices 1 2 3 4 5 6 
#
# 1 47.1533 29.3447 37.3900 0.0000 0.0000 0.0000
# 2 29.3447 112.0280 64.8438 0.0000 0.0000 0.0000
# 3 37.3900 64.8438 121.9028 0.0000 0.0000 0.0000
# 4 0.0000 0.0000 0.0000 24.4091 0.0000 0.0000
# 5 0.0000 0.0000 0.0000 0.0000 25.0369 0.0000
# 6 0.0000 0.0000 0.0000 0.0000 0.0000 24.7172
#
#
#
# Elastic Compliance Matrix: (Units=1/GPa)
#
#
# Indices 1 2 3 4 5 6 
#
# 1 0.028959 -0.003532 -0.007004 0.000000 0.000000 0.000000
# 2 -0.003532 0.013328 -0.006006 0.000000 0.000000 0.000000
# 3 -0.007004 -0.006006 0.013546 0.000000 0.000000 0.000000
# 4 0.000000 0.000000 0.000000 0.040968 0.000000 0.000000
# 5 0.000000 0.000000 0.000000 0.000000 0.039941 0.000000
# 6 0.000000 0.000000 0.000000 0.000000 0.000000 0.040458
#
#
# Mechanical properties :
#
#
# Convention : Reuss Voigt Hill
#
# Bulk Modulus (GPa) = 43.95632 60.47126 52.21379
# Shear Modulus (GPa) = 22.94980 24.79967 23.87474
#
# Velocity S-wave (km/s) = 3.61364 3.75646 3.68574
# Velocity P-wave (km/s) = 6.51324 7.29539 6.91538
#
# Compressibility (1/GPa) = 0.02274986
#
# Stress axis : x y z
#
# Youngs Moduli (GPa) = 34.53187 75.02999 73.82052
#
# Poissons Ratio (x) = 0.26498 0.51701
# Poissons Ratio (y) = 0.12195 0.44339
# Poissons Ratio (z) = 0.24185 0.45066
#
# Static dielectric constant tensor:
#      x y z
#    x 3.108880 0.000000 0.000000 
#    y 0.000000 3.411580 0.000000 
#    z 0.000000 0.000000 3.212910 
# 
# 
# High freq. dielectric constant tensor:
#      x y z
#    x 1.670990 0.000000 0.000000 
#    y 0.000000 1.683530 0.000000 
#    z 0.000000 0.000000 1.657390 
# 
# From -- ./inp_files/32439.got.cif
#   From: 2010.03.12/outbox.cif.g09.slc.cpg/sg51_17_cif.got.tgz:32439.got - 2010.04.16 13:43:02.
