data_PCOD8209382
_publ_section_title
;
Structure prediction by ZEFSAII (Michael W. Deem and Ramdas Pophale) SiO2 
 PCOD8209382
Probable space group: P M M A
;
_chemical_formula_sum "Si O2"
_cell_formula_units_Z 64
_cell_length_a 19.553614
_cell_length_b 19.441380
_cell_length_c 9.790452
_cell_angle_alpha 90.000000
_cell_angle_beta 90.000000
_cell_angle_gamma 90.000000
_cell_volume 3721.832888
_symmetry_space_group_name_H-M "P M M A"
_symmetry_group_IT_number 51
_symmetry_cell_setting 'orthorhombic'
loop_
_space_group_symop_operation_xyz
x,y,z
1/2-x,-y,z
1/2+x,-y,-z
-x,y,-z
-x,-y,-z
1/2+x,y,-z
1/2-x,y,z
x,-y,z
loop_
_atom_site_type_symbol
_atom_site_label
_atom_site_fract_x
_atom_site_fract_y
_atom_site_fract_z
Si Si1 0.671484 0.080754 0.858051
Si Si2 0.591334 0.671041 0.378513
Si Si3 0.915709 0.170920 0.360612
Si Si4 0.928086 0.419976 0.935473
Si Si5 0.429351 0.170030 0.324037
Si Si6 0.564135 0.328747 0.682512
Si Si7 0.671430 0.421293 0.179321
Si Si8 0.329820 0.923573 0.830810
O O1 0.750000 0.100133 0.821208
O O2 0.618652 0.123382 0.768305
O O3 0.659755 0.000000 0.832704
O O4 0.655582 0.100289 0.014572
O O5 0.602473 0.749787 0.336556
O O6 0.515061 0.651480 0.334209
O O7 0.602227 0.657225 0.539491
O O8 0.646854 0.624874 0.304062
O O9 0.907666 0.156071 0.520665
O O10 0.862208 0.127236 0.277033
O O11 0.991058 0.150607 0.307183
O O12 0.931612 0.500000 0.895234
O O13 0.907172 0.377083 0.801596
O O14 0.869145 0.403231 0.042711
O O15 0.000000 0.395458 0.000000
O O16 0.422351 0.249404 0.279511
O O17 0.750000 0.405493 0.148916
O O18 0.658898 0.500000 0.221970
O O19 0.250000 0.924200 0.802365
O O20 0.359918 0.000000 0.808209
#
# Coordination Sequence:
#
# PCOD8209382 Si02
#       8
#     8   8   8   8   8   8   8   8
#     4   9  19  36  54  73 102 137 173 215 259 307
#     4   9  18  34  54  75 102 137 171 211 260 309
#     4   9  19  34  52  74 104 135 166 210 257 303
#     4  10  19  33  54  80 105 135 177 219 259 307
#     4   9  19  35  51  75 106 135 168 209 258 307
#     4   9  18  34  54  77 105 132 172 221 257 300
#     4  10  21  36  52  75 109 141 171 214 266 315
#     4   9  19  35  52  72  99 130 168 213 256 303
#
# _framework density 17.195827999999999
#
# number of rings (size 3 to 8) (size 9 to 14) (size 15 to 20)
#    0.000    2.750    1.250    2.250    0.000    4.000 
#    0.000    9.375    0.000    1.500    0.000    0.000 
#    0.000    0.000    0.000    0.000    0.000    0.000 
#
# Total GULP energy -793500.887779 kJ/mol
# GULP energy per Si atom -12398.451372 kJ/mol
# Density = 1.715669 g / cm^3
# Si number density = 17.195828 Si / 1000 Ang^3
#
#
#
# Elastic Constant Matrix: (Units=GPa)
#
#
# Indices 1 2 3 4 5 6 
#
# 1 82.1599 49.8954 56.6424 0.0000 0.0000 0.0000
# 2 49.8954 76.8603 68.9199 0.0000 0.0000 0.0000
# 3 56.6424 68.9199 105.4266 0.0000 0.0000 0.0000
# 4 0.0000 0.0000 0.0000 39.6848 0.0000 0.0000
# 5 0.0000 0.0000 0.0000 0.0000 33.4126 0.0000
# 6 0.0000 0.0000 0.0000 0.0000 0.0000 28.9939
#
#
#
# Elastic Compliance Matrix: (Units=1/GPa)
#
#
# Indices 1 2 3 4 5 6 
#
# 1 0.021495 -0.008696 -0.005864 0.000000 0.000000 0.000000
# 2 -0.008696 0.034959 -0.018181 0.000000 0.000000 0.000000
# 3 -0.005864 -0.018181 0.024521 0.000000 0.000000 0.000000
# 4 0.000000 0.000000 0.000000 0.025199 0.000000 0.000000
# 5 0.000000 0.000000 0.000000 0.000000 0.029929 0.000000
# 6 0.000000 0.000000 0.000000 0.000000 0.000000 0.034490
#
#
# Mechanical properties :
#
#
# Convention : Reuss Voigt Hill
#
# Bulk Modulus (GPa) = 64.54568 68.37356 66.45962
# Shear Modulus (GPa) = 20.72632 26.35086 23.53859
#
# Velocity S-wave (km/s) = 3.47552 3.91883 3.70382
# Velocity P-wave (km/s) = 7.32959 7.76688 7.55140
#
# Compressibility (1/GPa) = 0.01549290
#
# Stress axis : x y z
#
# Youngs Moduli (GPa) = 46.52239 28.60514 40.78069
#
# Poissons Ratio (x) = 0.24874 0.23914
# Poissons Ratio (y) = 0.40455 0.74145
# Poissons Ratio (z) = 0.27281 0.52008
#
# Static dielectric constant tensor:
#      x y z
#    x 3.083570 0.000000 0.000000 
#    y 0.000000 3.155700 0.000000 
#    z 0.000000 0.000000 3.189000 
# 
# 
# High freq. dielectric constant tensor:
#      x y z
#    x 1.654190 0.000000 0.000000 
#    y 0.000000 1.663090 0.000000 
#    z 0.000000 0.000000 1.667160 
# 
# From -- ./inp_files/11188.got.cif
#   From: 2010.03.12/outbox.cif.g09.slc.cpg/sg51_6_cif.got.tgz:11188.got - 2010.04.16 13:43:02.
