data_PCOD8209835
_publ_section_title
;
Structure prediction by ZEFSAII (Michael W. Deem and Ramdas Pophale) SiO2 
 PCOD8209835
Probable space group: P M M A
;
_chemical_formula_sum "Si O2"
_cell_formula_units_Z 64
_cell_length_a 14.610483
_cell_length_b 23.457565
_cell_length_c 9.337261
_cell_angle_alpha 90.000000
_cell_angle_beta 90.000000
_cell_angle_gamma 90.000000
_cell_volume 3200.125425
_symmetry_space_group_name_H-M "P M M A"
_symmetry_group_IT_number 51
_symmetry_cell_setting 'orthorhombic'
loop_
_space_group_symop_operation_xyz
x,y,z
1/2-x,-y,z
1/2+x,-y,-z
-x,y,-z
-x,-y,-z
1/2+x,y,-z
1/2-x,y,z
x,-y,z
loop_
_atom_site_type_symbol
_atom_site_label
_atom_site_fract_x
_atom_site_fract_y
_atom_site_fract_z
Si Si1 0.854398 0.360609 0.644650
Si Si2 0.023548 0.375530 0.848230
Si Si3 0.589929 0.155377 0.088227
Si Si4 0.473187 0.132163 0.339633
Si Si5 0.853305 0.063454 0.865158
Si Si6 0.355877 0.564981 0.624376
Si Si7 0.852721 0.759488 0.720381
Si Si8 0.352458 0.275220 0.960462
O O1 0.750000 0.378641 0.690045
O O2 0.887476 0.395004 0.505987
O O3 0.855530 0.292938 0.607639
O O4 0.926098 0.371091 0.770473
O O5 0.089069 0.418360 0.765121
O O6 0.075292 0.314990 0.876349
O O7 0.000000 0.404158 0.000000
O O8 0.566219 0.134294 0.247473
O O9 0.650836 0.211722 0.106383
O O10 0.500000 0.173261 0.000000
O O11 0.639029 0.104812 0.001976
O O12 0.500000 0.115817 0.500000
O O13 0.410579 0.083208 0.272219
O O14 0.421964 0.192736 0.332428
O O15 0.750000 0.062640 0.812127
O O16 0.885818 0.000000 0.910691
O O17 0.250000 0.574309 0.659071
O O18 0.377178 0.500000 0.581533
O O19 0.750000 0.785642 0.730957
O O20 0.881163 0.732223 0.873344
O O21 0.250000 0.301305 0.947485
#
# Coordination Sequence:
#
# PCOD8209835 Si02
#       8
#     8   8   8   8   8   8   8   8
#     4  10  22  39  62  89 121 165 208 248 298 364
#     4  12  23  36  62  95 125 156 198 252 313 368
#     4  10  19  34  59  86 117 157 205 251 300 357
#     4  11  23  36  56  89 125 160 195 250 314 370
#     4  10  21  40  64  85 111 158 213 255 300 363
#     4  10  24  47  68  88 120 163 210 256 304 366
#     4  10  19  36  60  85 122 163 203 246 301 369
#     4  11  20  35  60  90 126 161 201 253 311 367
#
# _framework density 19.999217000000002
#
# number of rings (size 3 to 8) (size 9 to 14) (size 15 to 20)
#    0.000    1.500    3.750    2.625    0.000    6.250 
#    0.000    3.750    0.000    3.000    0.000    0.000 
#    0.000    0.000    0.000    0.000    0.000    0.000 
#
# Total GULP energy -793382.932789 kJ/mol
# GULP energy per Si atom -12396.608325 kJ/mol
# Density = 1.995370 g / cm^3
# Si number density = 19.999217 Si / 1000 Ang^3
#
#
#
# Elastic Constant Matrix: (Units=GPa)
#
#
# Indices 1 2 3 4 5 6 
#
# 1 88.5077 38.9357 50.3455 0.0000 0.0000 0.0000
# 2 38.9357 109.0294 46.3046 0.0000 0.0000 0.0000
# 3 50.3455 46.3046 126.5905 0.0000 0.0000 0.0000
# 4 0.0000 0.0000 0.0000 29.7889 0.0000 0.0000
# 5 0.0000 0.0000 0.0000 0.0000 28.0651 0.0000
# 6 0.0000 0.0000 0.0000 0.0000 0.0000 26.0984
#
#
#
# Elastic Compliance Matrix: (Units=1/GPa)
#
#
# Indices 1 2 3 4 5 6 
#
# 1 0.015646 -0.003486 -0.004947 0.000000 0.000000 0.000000
# 2 -0.003486 0.011636 -0.002870 0.000000 0.000000 0.000000
# 3 -0.004947 -0.002870 0.010917 0.000000 0.000000 0.000000
# 4 0.000000 0.000000 0.000000 0.033570 0.000000 0.000000
# 5 0.000000 0.000000 0.000000 0.000000 0.035631 0.000000
# 6 0.000000 0.000000 0.000000 0.000000 0.000000 0.038317
#
#
# Mechanical properties :
#
#
# Convention : Reuss Voigt Hill
#
# Bulk Modulus (GPa) = 64.13518 66.14435 65.13976
# Shear Modulus (GPa) = 28.81513 29.35993 29.08753
#
# Velocity S-wave (km/s) = 3.79992 3.83568 3.81784
# Velocity P-wave (km/s) = 7.16875 7.26373 7.21640
#
# Compressibility (1/GPa) = 0.01559207
#
# Stress axis : x y z
#
# Youngs Moduli (GPa) = 63.91279 85.94348 91.60279
#
# Poissons Ratio (x) = 0.29963 0.45319
# Poissons Ratio (y) = 0.22282 0.26286
# Poissons Ratio (z) = 0.31620 0.24662
#
# Static dielectric constant tensor:
#      x y z
#    x 3.788180 0.000000 0.000000 
#    y 0.000000 3.706540 0.000000 
#    z 0.000000 0.000000 3.543750 
# 
# 
# High freq. dielectric constant tensor:
#      x y z
#    x 1.793370 0.000000 0.000000 
#    y 0.000000 1.774120 0.000000 
#    z 0.000000 0.000000 1.757950 
# 
# From -- ./inp_files/8715.got.cif
#   From: 2010.03.12/outbox.cif.g09.slc.cpg/sg51_5_cif.got.tgz:8715.got - 2010.04.16 13:43:02.
