data_PCOD8209159
_publ_section_title
;
Structure prediction by ZEFSAII (Michael W. Deem and Ramdas Pophale) SiO2 
 PCOD8209159
Probable space group: P M M A
;
_chemical_formula_sum "Si O2"
_cell_formula_units_Z 64
_cell_length_a 23.871771
_cell_length_b 9.023914
_cell_length_c 16.765446
_cell_angle_alpha 90.000000
_cell_angle_beta 90.000000
_cell_angle_gamma 90.000000
_cell_volume 3611.558871
_symmetry_space_group_name_H-M "P M M A"
_symmetry_group_IT_number 51
_symmetry_cell_setting 'orthorhombic'
loop_
_space_group_symop_operation_xyz
x,y,z
1/2-x,-y,z
1/2+x,-y,-z
-x,y,-z
-x,-y,-z
1/2+x,y,-z
1/2-x,y,z
x,-y,z
loop_
_atom_site_type_symbol
_atom_site_label
_atom_site_fract_x
_atom_site_fract_y
_atom_site_fract_z
Si Si1 0.379522 0.175173 0.777934
Si Si2 0.973415 0.673981 0.313652
Si Si3 0.312919 0.331651 0.644248
Si Si4 0.685105 0.826769 0.749931
Si Si5 0.588977 0.331512 0.467319
Si Si6 0.816198 0.337140 0.905465
Si Si7 0.595507 0.673778 0.643074
Si Si8 0.314511 0.675140 0.916738
O O1 0.440682 0.242638 0.757218
O O2 0.335121 0.220240 0.710717
O O3 0.357540 0.237155 0.861507
O O4 0.384788 0.000000 0.783072
O O5 0.958426 0.500000 0.308094
O O6 0.952349 0.736974 0.399994
O O7 0.039574 0.703479 0.304896
O O8 0.250000 0.287607 0.622979
O O9 0.317505 0.500000 0.677566
O O10 0.347294 0.315937 0.562663
O O11 0.750000 0.782693 0.736698
O O12 0.663162 0.773850 0.836683
O O13 0.648770 0.751729 0.681392
O O14 0.675961 0.000000 0.745108
O O15 0.569943 0.500000 0.479056
O O16 0.585388 0.256686 0.554539
O O17 0.750000 0.350584 0.904469
O O18 0.842195 0.500000 0.888407
O O19 0.833401 0.281117 0.993412
O O20 0.609004 0.500000 0.637662
O O21 0.250000 0.723092 0.899837
O O22 0.320521 0.500000 0.903132
#
# Coordination Sequence:
#
# PCOD8209159 Si02
#       8
#     8   8   8   8   8   8   8   8
#     4  11  21  30  44  69 100 133 166 199 236 282
#     4   9  18  34  53  71  94 125 162 205 251 291
#     4   9  17  30  47  66  94 132 166 198 242 290
#     4  10  21  35  50  72 105 138 160 186 235 293
#     4   8  15  29  50  75  96 117 157 211 255 288
#     4   8  15  30  52  75  97 124 161 201 237 278
#     4  10  19  32  55  79  94 118 161 209 249 287
#     4   9  17  30  50  75 101 129 161 199 243 286
#
# _framework density 17.720880000000001
#
# number of rings (size 3 to 8) (size 9 to 14) (size 15 to 20)
#    0.000    2.750    0.000    3.750    0.000    5.750 
#    0.000    5.000    0.000    4.500    0.000    5.250 
#    0.000    0.000    0.000    0.000    0.000    0.000 
#
# Total GULP energy -793288.651434 kJ/mol
# GULP energy per Si atom -12395.135179 kJ/mol
# Density = 1.768055 g / cm^3
# Si number density = 17.720880 Si / 1000 Ang^3
#
#
#
# Elastic Constant Matrix: (Units=GPa)
#
#
# Indices 1 2 3 4 5 6 
#
# 1 84.0402 36.5039 36.9493 0.0000 0.0000 0.0000
# 2 36.5039 69.1415 40.8259 0.0000 0.0000 0.0000
# 3 36.9493 40.8259 97.3076 0.0000 0.0000 0.0000
# 4 0.0000 0.0000 0.0000 1.5348 0.0000 0.0000
# 5 0.0000 0.0000 0.0000 0.0000 19.9872 0.0000
# 6 0.0000 0.0000 0.0000 0.0000 0.0000 18.4173
#
#
#
# Elastic Compliance Matrix: (Units=1/GPa)
#
#
# Indices 1 2 3 4 5 6 
#
# 1 0.016252 -0.006562 -0.003418 0.000000 0.000000 0.000000
# 2 -0.006562 0.021876 -0.006686 0.000000 0.000000 0.000000
# 3 -0.003418 -0.006686 0.014380 0.000000 0.000000 0.000000
# 4 0.000000 0.000000 0.000000 0.651536 0.000000 0.000000
# 5 0.000000 0.000000 0.000000 0.000000 0.050032 0.000000
# 6 0.000000 0.000000 0.000000 0.000000 0.000000 0.054297
#
#
# Mechanical properties :
#
#
# Convention : Reuss Voigt Hill
#
# Bulk Modulus (GPa) = 52.15208 53.22747 52.68978
# Shear Modulus (GPa) = 5.89555 17.06854 11.48205
#
# Velocity S-wave (km/s) = 1.82596 3.10689 2.54823
# Velocity P-wave (km/s) = 5.82573 6.55532 6.20126
#
# Compressibility (1/GPa) = 0.01917469
#
# Stress axis : x y z
#
# Youngs Moduli (GPa) = 61.52993 45.71276 69.54196
#
# Poissons Ratio (x) = 0.29998 0.23769
# Poissons Ratio (y) = 0.40378 0.46498
# Poissons Ratio (z) = 0.21031 0.30565
#
# Static dielectric constant tensor:
#      x y z
#    x 3.186840 0.000000 0.000000 
#    y 0.000000 3.074980 0.000000 
#    z 0.000000 0.000000 3.440960 
# 
# 
# High freq. dielectric constant tensor:
#      x y z
#    x 1.670570 0.000000 0.000000 
#    y 0.000000 1.659900 0.000000 
#    z 0.000000 0.000000 1.682580 
# 
# From -- ./inp_files/26339.got.cif
#   From: 2010.03.12/outbox.cif.g09.slc.cpg/sg51_14_cif.got.tgz:26339.got - 2010.04.16 13:43:02.
