data_PCOD8209936
_publ_section_title
;
Structure prediction by ZEFSAII (Michael W. Deem and Ramdas Pophale) SiO2 
 PCOD8209936
Probable space group: P M M A
;
_chemical_formula_sum "Si O2"
_cell_formula_units_Z 64
_cell_length_a 25.688022
_cell_length_b 8.800976
_cell_length_c 14.505253
_cell_angle_alpha 90.000000
_cell_angle_beta 90.000000
_cell_angle_gamma 90.000000
_cell_volume 3279.342741
_symmetry_space_group_name_H-M "P M M A"
_symmetry_group_IT_number 51
_symmetry_cell_setting 'orthorhombic'
loop_
_space_group_symop_operation_xyz
x,y,z
1/2-x,-y,z
1/2+x,-y,-z
-x,y,-z
-x,-y,-z
1/2+x,y,-z
1/2-x,y,z
x,-y,z
loop_
_atom_site_type_symbol
_atom_site_label
_atom_site_fract_x
_atom_site_fract_y
_atom_site_fract_z
Si Si1 0.190724 0.823354 0.772595
Si Si2 0.689046 0.673419 0.417487
Si Si3 0.356677 0.821609 0.408738
Si Si4 0.309737 0.322914 0.233727
Si Si5 0.474665 0.819785 0.407434
Si Si6 0.602413 0.180751 0.888131
Si Si7 0.497817 0.819189 0.790950
Si Si8 0.900128 0.179824 0.095581
O O1 0.250000 0.788498 0.802176
O O2 0.173717 0.726165 0.684557
O O3 0.153942 0.772728 0.856539
O O4 0.183158 0.000000 0.747888
O O5 0.750000 0.692886 0.433650
O O6 0.671283 0.500000 0.431637
O O7 0.659966 0.782719 0.488030
O O8 0.320200 0.735272 0.336811
O O9 0.415593 0.764632 0.395758
O O10 0.351376 0.000000 0.390996
O O11 0.250000 0.287880 0.208336
O O12 0.321914 0.500000 0.230474
O O13 0.345511 0.239304 0.159695
O O14 0.500000 0.747632 0.500000
O O15 0.505911 0.766210 0.316017
O O16 0.475814 0.000000 0.416085
O O17 0.551448 0.241984 0.835156
O O18 0.604363 0.000000 0.886825
O O19 0.599945 0.245183 0.992215
O O20 0.448799 0.751501 0.846981
O O21 0.497611 0.000000 0.796182
O O22 0.906148 0.000000 0.092089
#
# Coordination Sequence:
#
# PCOD8209936 Si02
#       8
#     8   8   8   8   8   8   8   8
#     4   9  18  33  52  78 109 140 180 228 273 318
#     4  10  21  36  53  75 106 144 179 214 265 327
#     4  11  21  35  58  85 109 139 183 230 273 321
#     4  11  24  40  57  79 111 152 190 226 280 345
#     4   9  18  30  49  82 116 142 173 218 272 328
#     4  10  19  35  57  85 112 139 184 238 283 325
#     4   9  16  30  52  81 114 144 179 224 277 335
#     4   9  18  30  54  85 112 144 182 231 284 329
#
# _framework density 19.516107000000002
#
# number of rings (size 3 to 8) (size 9 to 14) (size 15 to 20)
#    0.000    2.250    1.250    1.875    1.750    5.250 
#    0.000    1.875    0.000    6.750    0.000    0.000 
#    0.000    0.000    0.000    0.000    0.000    0.000 
#
# Total GULP energy -793643.062320 kJ/mol
# GULP energy per Si atom -12400.672849 kJ/mol
# Density = 1.947169 g / cm^3
# Si number density = 19.516107 Si / 1000 Ang^3
#
#
#
# Elastic Constant Matrix: (Units=GPa)
#
#
# Indices 1 2 3 4 5 6 
#
# 1 113.2276 23.5190 72.0887 0.0000 0.0000 0.0000
# 2 23.5190 22.8875 16.9438 0.0000 0.0000 0.0000
# 3 72.0887 16.9438 158.7410 0.0000 0.0000 0.0000
# 4 0.0000 0.0000 0.0000 11.2992 0.0000 0.0000
# 5 0.0000 0.0000 0.0000 0.0000 37.9387 0.0000
# 6 0.0000 0.0000 0.0000 0.0000 0.0000 9.1482
#
#
#
# Elastic Compliance Matrix: (Units=1/GPa)
#
#
# Indices 1 2 3 4 5 6 
#
# 1 0.014575 -0.010942 -0.005451 0.000000 0.000000 0.000000
# 2 -0.010942 0.055655 -0.000972 0.000000 0.000000 0.000000
# 3 -0.005451 -0.000972 0.008879 0.000000 0.000000 0.000000
# 4 0.000000 0.000000 0.000000 0.088502 0.000000 0.000000
# 5 0.000000 0.000000 0.000000 0.000000 0.026358 0.000000
# 6 0.000000 0.000000 0.000000 0.000000 0.000000 0.109311
#
#
# Mechanical properties :
#
#
# Convention : Reuss Voigt Hill
#
# Bulk Modulus (GPa) = 22.53270 57.77324 40.15297
# Shear Modulus (GPa) = 14.17228 23.83087 19.00158
#
# Velocity S-wave (km/s) = 2.69770 3.49820 3.12370
# Velocity P-wave (km/s) = 4.61240 6.78112 5.79905
#
# Compressibility (1/GPa) = 0.04437995
#
# Stress axis : x y z
#
# Youngs Moduli (GPa) = 68.61050 17.96788 112.62861
#
# Poissons Ratio (x) = 0.19660 0.61394
# Poissons Ratio (y) = 0.75072 0.10943
# Poissons Ratio (z) = 0.37400 0.01746
#
# Static dielectric constant tensor:
#      x y z
#    x 3.687050 0.000000 0.000000 
#    y 0.000000 3.152310 0.000000 
#    z 0.000000 0.000000 3.756720 
# 
# 
# High freq. dielectric constant tensor:
#      x y z
#    x 1.767510 0.000000 0.000000 
#    y 0.000000 1.715080 0.000000 
#    z 0.000000 0.000000 1.772370 
# 
# From -- ./inp_files/26279.got.cif
#   From: 2010.03.12/outbox.cif.g09.slc.cpg/sg51_14_cif.got.tgz:26279.got - 2010.04.16 13:43:02.
