data_PCOD8209807
_publ_section_title
;
Structure prediction by ZEFSAII (Michael W. Deem and Ramdas Pophale) SiO2 
 PCOD8209807
Probable space group: P M M A
;
_chemical_formula_sum "Si O2"
_cell_formula_units_Z 40
_cell_length_a 25.812096
_cell_length_b 8.997931
_cell_length_c 8.993083
_cell_angle_alpha 90.000000
_cell_angle_beta 90.000000
_cell_angle_gamma 90.000000
_cell_volume 2088.692618
_symmetry_space_group_name_H-M "P M M A"
_symmetry_group_IT_number 51
_symmetry_cell_setting 'orthorhombic'
loop_
_space_group_symop_operation_xyz
x,y,z
1/2-x,-y,z
1/2+x,-y,-z
-x,y,-z
-x,-y,-z
1/2+x,y,-z
1/2-x,y,z
x,-y,z
loop_
_atom_site_type_symbol
_atom_site_label
_atom_site_fract_x
_atom_site_fract_y
_atom_site_fract_z
Si Si1 0.948322 0.826313 0.911280
Si Si2 0.250000 0.166738 0.578031
Si Si3 0.148180 0.326636 0.586286
Si Si4 0.250000 0.831423 0.931648
Si Si5 0.048994 0.671242 0.396493
Si Si6 0.353752 0.324495 0.927053
O O1 0.956989 0.779282 0.742150
O O2 0.935449 0.000000 0.921274
O O3 0.901277 0.733842 0.977798
O O4 0.000000 0.785261 0.000000
O O5 0.198427 0.246216 0.517800
O O6 0.250000 0.174667 0.754793
O O7 0.250000 0.000000 0.517100
O O8 0.159591 0.500000 0.579971
O O9 0.099463 0.280085 0.487948
O O10 0.137155 0.277605 0.755854
O O11 0.198893 0.748051 0.990956
O O12 0.250000 0.000000 0.991042
O O13 0.052674 0.500000 0.343983
O O14 0.000000 0.696346 0.500000
O O15 0.349325 0.500000 0.946134
#
# Coordination Sequence:
#
# PCOD8209807 Si02
#       6
#     8   4   8   4   8   8
#     4  11  24  39  55  79 111 145 181 224 276 330
#     4   9  17  29  50  79 110 145 180 214 258 315
#     4   9  18  33  55  82 110 140 177 222 267 314
#     4   9  17  31  52  81 116 147 178 220 268 319
#     4  10  21  38  59  82 107 138 179 225 273 326
#     4  10  19  34  58  84 110 144 185 225 267 318
#
# _framework density 19.150735999999998
#
# number of rings (size 3 to 8) (size 9 to 14) (size 15 to 20)
#    0.000    2.200    0.000    3.000    0.000    7.600 
#    0.000    1.000    0.000    3.600    0.000    0.000 
#    0.000    0.000    0.000    0.000    0.000    0.000 
#
# Total GULP energy -496133.025040 kJ/mol
# GULP energy per Si atom -12403.325626 kJ/mol
# Density = 1.910715 g / cm^3
# Si number density = 19.150736 Si / 1000 Ang^3
#
#
#
# Elastic Constant Matrix: (Units=GPa)
#
#
# Indices 1 2 3 4 5 6 
#
# 1 165.0639 61.1872 46.8335 0.0000 0.0000 0.0000
# 2 61.1872 79.8310 32.2278 0.0000 0.0000 0.0000
# 3 46.8335 32.2278 69.5511 0.0000 0.0000 0.0000
# 4 0.0000 0.0000 0.0000 24.5665 0.0000 0.0000
# 5 0.0000 0.0000 0.0000 0.0000 28.8214 0.0000
# 6 0.0000 0.0000 0.0000 0.0000 0.0000 13.1726
#
#
#
# Elastic Compliance Matrix: (Units=1/GPa)
#
#
# Indices 1 2 3 4 5 6 
#
# 1 0.009132 -0.005556 -0.003575 0.000000 0.000000 0.000000
# 2 -0.005556 0.018790 -0.004965 0.000000 0.000000 0.000000
# 3 -0.003575 -0.004965 0.019086 0.000000 0.000000 0.000000
# 4 0.000000 0.000000 0.000000 0.040706 0.000000 0.000000
# 5 0.000000 0.000000 0.000000 0.000000 0.034696 0.000000
# 6 0.000000 0.000000 0.000000 0.000000 0.000000 0.075915
#
#
# Mechanical properties :
#
#
# Convention : Reuss Voigt Hill
#
# Bulk Modulus (GPa) = 53.14832 66.10477 59.62654
# Shear Modulus (GPa) = 21.47869 24.92525 23.20197
#
# Velocity S-wave (km/s) = 3.35260 3.61159 3.48450
# Velocity P-wave (km/s) = 6.54213 7.21003 6.88418
#
# Compressibility (1/GPa) = 0.01881527
#
# Stress axis : x y z
#
# Youngs Moduli (GPa) = 109.50304 53.22114 52.39539
#
# Poissons Ratio (x) = 0.29571 0.18730
# Poissons Ratio (y) = 0.60843 0.26014
# Poissons Ratio (z) = 0.39144 0.26424
#
# Static dielectric constant tensor:
#      x y z
#    x 3.713560 0.000000 0.000000 
#    y 0.000000 3.539730 0.000000 
#    z 0.000000 0.000000 3.271500 
# 
# 
# High freq. dielectric constant tensor:
#      x y z
#    x 1.764390 0.000000 0.000000 
#    y 0.000000 1.749000 0.000000 
#    z 0.000000 0.000000 1.719620 
# 
# From -- ./inp_files/12209.got.cif
#   From: 2010.03.12/outbox.cif.g09.slc.cpg/sg51_7_cif.got.tgz:12209.got - 2010.04.16 13:43:02.
