data_PCOD8209775
_publ_section_title
;
Structure prediction by ZEFSAII (Michael W. Deem and Ramdas Pophale) SiO2 
 PCOD8209775
Probable space group: P M M A
;
_chemical_formula_sum "Si O2"
_cell_formula_units_Z 52
_cell_length_a 8.610054
_cell_length_b 13.733058
_cell_length_c 22.922844
_cell_angle_alpha 90.000000
_cell_angle_beta 90.000000
_cell_angle_gamma 90.000000
_cell_volume 2710.451424
_symmetry_space_group_name_H-M "P M M A"
_symmetry_group_IT_number 51
_symmetry_cell_setting 'orthorhombic'
loop_
_space_group_symop_operation_xyz
x,y,z
1/2-x,-y,z
1/2+x,-y,-z
-x,y,-z
-x,-y,-z
1/2+x,y,-z
1/2-x,y,z
x,-y,z
loop_
_atom_site_type_symbol
_atom_site_label
_atom_site_fract_x
_atom_site_fract_y
_atom_site_fract_z
Si Si1 0.066985 0.610050 0.940923
Si Si2 0.933722 0.500000 0.746638
Si Si3 0.433692 0.890825 0.769375
Si Si4 0.430439 0.500000 0.617473
Si Si5 0.065014 0.684934 0.817584
Si Si6 0.067812 0.319302 0.439272
Si Si7 0.568779 0.000000 0.437930
Si Si8 0.933419 0.828902 0.358446
O O1 0.250000 0.611641 0.944896
O O2 0.003426 0.500000 0.935416
O O3 0.010117 0.667702 0.883965
O O4 0.000000 0.658965 0.000000
O O5 0.750000 0.500000 0.753939
O O6 0.975651 0.500000 0.678344
O O7 0.997814 0.599767 0.776128
O O8 0.250000 0.895829 0.774931
O O9 0.495392 0.795663 0.804687
O O10 0.485607 0.869292 0.703723
O O11 0.498218 0.000000 0.788138
O O12 0.250000 0.500000 0.634193
O O13 0.473170 0.584558 0.573211
O O14 0.250000 0.678991 0.810178
O O15 0.250000 0.336265 0.446003
O O16 0.000000 0.273324 0.500000
O O17 0.033484 0.261869 0.379181
O O18 0.500000 0.000000 0.500000
O O19 0.510360 0.093591 0.404953
O O20 0.750000 0.000000 0.441318
O O21 0.750000 0.804969 0.359085
#
# Coordination Sequence:
#
# PCOD8209775 Si02
#       8
#     8   4   8   4   8   8   4   8
#     4   9  17  30  49  77 114 151 192 234 279 337
#     4  12  24  37  56  87 122 150 187 230 283 344
#     4   9  17  32  57  85 110 142 186 235 284 336
#     4  12  25  43  62  79 106 146 185 224 276 332
#     4  10  19  34  57  84 117 153 192 237 285 337
#     4  12  25  41  59  82 109 139 181 228 281 345
#     4  10  20  32  50  74 104 134 173 222 272 330
#     4  10  19  35  56  80 108 139 177 225 278 336
#
# _framework density 19.184996000000002
#
# number of rings (size 3 to 8) (size 9 to 14) (size 15 to 20)
#    0.000    1.692    1.538    4.385    0.000    3.692 
#    0.000    0.000    0.000    1.846    0.000    0.000 
#    0.000    0.000    0.000    0.000    0.000    0.000 
#
# Total GULP energy -644202.033717 kJ/mol
# GULP energy per Si atom -12388.500648 kJ/mol
# Density = 1.914133 g / cm^3
# Si number density = 19.184996 Si / 1000 Ang^3
#
#
#
# Elastic Constant Matrix: (Units=GPa)
#
#
# Indices 1 2 3 4 5 6 
#
# 1 48.3791 24.0257 17.5178 0.0000 0.0000 0.0000
# 2 24.0257 126.7651 45.7391 0.0000 0.0000 0.0000
# 3 17.5178 45.7391 122.9024 0.0000 0.0000 0.0000
# 4 0.0000 0.0000 0.0000 54.8994 0.0000 0.0000
# 5 0.0000 0.0000 0.0000 0.0000 28.3494 0.0000
# 6 0.0000 0.0000 0.0000 0.0000 0.0000 28.8317
#
#
#
# Elastic Compliance Matrix: (Units=1/GPa)
#
#
# Indices 1 2 3 4 5 6 
#
# 1 0.023207 -0.003702 -0.001930 0.000000 0.000000 0.000000
# 2 -0.003702 0.009703 -0.003083 0.000000 0.000000 0.000000
# 3 -0.001930 -0.003083 0.009559 0.000000 0.000000 0.000000
# 4 0.000000 0.000000 0.000000 0.018215 0.000000 0.000000
# 5 0.000000 0.000000 0.000000 0.000000 0.035274 0.000000
# 6 0.000000 0.000000 0.000000 0.000000 0.000000 0.034684
#
#
# Mechanical properties :
#
#
# Convention : Reuss Voigt Hill
#
# Bulk Modulus (GPa) = 39.93864 52.51242 46.22553
# Shear Modulus (GPa) = 31.96530 36.46704 34.21617
#
# Velocity S-wave (km/s) = 4.08629 4.36456 4.22772
# Velocity P-wave (km/s) = 6.56708 7.26844 6.92664
#
# Compressibility (1/GPa) = 0.02503841
#
# Stress axis : x y z
#
# Youngs Moduli (GPa) = 43.08960 103.06342 104.61225
#
# Poissons Ratio (x) = 0.38155 0.20191
# Poissons Ratio (y) = 0.15952 0.32255
# Poissons Ratio (z) = 0.08317 0.31777
#
# Static dielectric constant tensor:
#      x y z
#    x 3.183850 0.000000 0.000000 
#    y 0.000000 3.473380 0.000000 
#    z 0.000000 0.000000 3.666190 
# 
# 
# High freq. dielectric constant tensor:
#      x y z
#    x 1.721770 0.000000 0.000000 
#    y 0.000000 1.750340 0.000000 
#    z 0.000000 0.000000 1.745820 
# 
# From -- ./inp_files/31859.got.cif
#   From: 2010.03.12/outbox.cif.g09.slc.cpg/sg51_16_cif.got.tgz:31859.got - 2010.04.16 13:43:02.
