data_PCOD8209664
_publ_section_title
;
Structure prediction by ZEFSAII (Michael W. Deem and Ramdas Pophale) SiO2 
 PCOD8209664
Probable space group: P M M A
;
_chemical_formula_sum "Si O2"
_cell_formula_units_Z 48
_cell_length_a 20.645210
_cell_length_b 8.950470
_cell_length_c 14.160380
_cell_angle_alpha 90.000000
_cell_angle_beta 90.000000
_cell_angle_gamma 90.000000
_cell_volume 2616.616370
_symmetry_space_group_name_H-M "P M M A"
_symmetry_group_IT_number 51
_symmetry_cell_setting 'orthorhombic'
loop_
_space_group_symop_operation_xyz
x,y,z
1/2-x,-y,z
1/2+x,-y,-z
-x,y,-z
-x,-y,-z
1/2+x,y,-z
1/2-x,y,z
x,-y,z
loop_
_atom_site_type_symbol
_atom_site_label
_atom_site_fract_x
_atom_site_fract_y
_atom_site_fract_z
Si Si1 0.874313 0.823703 0.715713
Si Si2 0.750000 0.177730 0.391980
Si Si3 0.825122 0.324935 0.893834
Si Si4 0.873107 0.323529 0.296964
Si Si5 0.321608 0.323756 0.898123
Si Si6 0.504480 0.824830 0.390096
Si Si7 0.750000 0.177494 0.605925
O O1 0.872485 0.757102 0.820777
O O2 0.813673 0.758533 0.657189
O O3 0.938835 0.774725 0.661272
O O4 0.870267 0.000000 0.723772
O O5 0.813927 0.241602 0.345584
O O6 0.750000 0.234059 0.499326
O O7 0.750000 0.000000 0.383838
O O8 0.750000 0.283774 0.874569
O O9 0.836651 0.500000 0.882892
O O10 0.845213 0.267057 0.998882
O O11 0.865674 0.500000 0.311342
O O12 0.871374 0.279943 0.185286
O O13 0.939322 0.268578 0.341526
O O14 0.250000 0.257679 0.874851
O O15 0.314560 0.500000 0.905582
O O16 0.500000 0.782309 0.500000
O O17 0.518896 0.000000 0.377879
O O18 0.750000 0.000000 0.609143
#
# Coordination Sequence:
#
# PCOD8209664 Si02
#       7
#     8   4   8   8   8   8   4
#     4  10  19  34  56  79 105 139 181 228 272 316
#     4  11  21  35  56  81 110 144 183 225 274 337
#     4   9  17  31  54  81 108 141 176 216 269 331
#     4  11  21  36  58  83 110 142 183 234 277 315
#     4   8  15  31  54  78 108 143 176 214 270 330
#     4  10  22  40  58  76 107 153 191 221 272 339
#     4   9  18  33  54  77 102 138 181 221 266 325
#
# _framework density 18.344301999999999
#
# number of rings (size 3 to 8) (size 9 to 14) (size 15 to 20)
#    0.000    2.333    1.667    2.750    0.000    3.667 
#    0.000    5.833    0.000    5.000    0.000    0.000 
#    0.000    0.000    0.000    0.000    0.000    0.000 
#
# Total GULP energy -595072.175631 kJ/mol
# GULP energy per Si atom -12397.336992 kJ/mol
# Density = 1.830255 g / cm^3
# Si number density = 18.344302 Si / 1000 Ang^3
#
#
#
# Elastic Constant Matrix: (Units=GPa)
#
#
# Indices 1 2 3 4 5 6 
#
# 1 123.8883 44.3965 83.4359 0.0000 0.0000 0.0000
# 2 44.3965 44.5625 45.5523 0.0000 0.0000 0.0000
# 3 83.4359 45.5523 180.7249 0.0000 0.0000 0.0000
# 4 0.0000 0.0000 0.0000 34.4877 0.0000 0.0000
# 5 0.0000 0.0000 0.0000 0.0000 -175.8016 0.0000
# 6 0.0000 0.0000 0.0000 0.0000 0.0000-1177.5446
#
#
#
# Elastic Compliance Matrix: (Units=1/GPa)
#
#
# Indices 1 2 3 4 5 6 
#
# 1 0.014521 -0.010257 -0.004119 0.000000 0.000000 0.000000
# 2 -0.010257 0.037474 -0.004710 0.000000 0.000000 0.000000
# 3 -0.004119 -0.004710 0.008622 0.000000 0.000000 0.000000
# 4 0.000000 0.000000 0.000000 0.028996 0.000000 0.000000
# 5 0.000000 0.000000 0.000000 0.000000 -0.005688 0.000000
# 6 0.000000 0.000000 0.000000 0.000000 0.000000 -0.000849
#
#
# Mechanical properties :
#
#
# Convention : Reuss Voigt Hill
#
# Bulk Modulus (GPa) = 44.55232 77.32724 60.93978
# Shear Modulus (GPa) = 38.84126 -252.05230 -106.60552
#
# Velocity S-wave (km/s) = 4.60646 -11.73453 -7.63150
# Velocity P-wave (km/s) = 7.25479 11.88924 6.66041
#
# Compressibility (1/GPa) = 0.02244552
#
# Stress axis : x y z
#
# Youngs Moduli (GPa) = 68.86383 26.68533 115.98224
#
# Poissons Ratio (x) = 0.27371 0.47771
# Poissons Ratio (y) = 0.70633 0.54628
# Poissons Ratio (z) = 0.28364 0.12569
#
# Static dielectric constant tensor:
#      x y z
#    x 2.764490 0.000000 0.000000 
#    y 0.000000 3.095750 0.000000 
#    z 0.000000 0.000000 3.792610 
# 
# 
# High freq. dielectric constant tensor:
#      x y z
#    x 1.697740 0.000000 0.000000 
#    y 0.000000 1.685820 0.000000 
#    z 0.000000 0.000000 1.732220 
# 
# From -- ./inp_files/24983.got.cif
#   From: 2010.03.12/outbox.cif.g09.slc.cpg/sg51_13_cif.got.tgz:24983.got - 2010.04.16 13:43:02.
