data_PCOD8209253
_publ_section_title
;
Structure prediction by ZEFSAII (Michael W. Deem and Ramdas Pophale) SiO2 
 PCOD8209253
Probable space group: P M M A
;
_chemical_formula_sum "Si O2"
_cell_formula_units_Z 64
_cell_length_a 17.096057
_cell_length_b 20.562482
_cell_length_c 9.348280
_cell_angle_alpha 90.000000
_cell_angle_beta 90.000000
_cell_angle_gamma 90.000000
_cell_volume 3286.269712
_symmetry_space_group_name_H-M "P M M A"
_symmetry_group_IT_number 51
_symmetry_cell_setting 'orthorhombic'
loop_
_space_group_symop_operation_xyz
x,y,z
1/2-x,-y,z
1/2+x,-y,-z
-x,y,-z
-x,-y,-z
1/2+x,y,-z
1/2-x,y,z
x,-y,z
loop_
_atom_site_type_symbol
_atom_site_label
_atom_site_fract_x
_atom_site_fract_y
_atom_site_fract_z
Si Si1 0.656978 0.071808 0.665691
Si Si2 0.843082 0.927885 0.986813
Si Si3 0.156986 0.688138 0.324900
Si Si4 0.657051 0.428383 0.480758
Si Si5 0.342571 0.192535 0.834610
Si Si6 0.409274 0.310323 0.010422
Si Si7 0.343076 0.190935 0.514542
Si Si8 0.840789 0.424652 0.158952
O O1 0.750000 0.075681 0.666373
O O2 0.622638 0.125404 0.557445
O O3 0.629794 0.000000 0.615100
O O4 0.626392 0.085848 0.826147
O O5 0.750000 0.925234 0.988202
O O6 0.877985 0.872113 0.089861
O O7 0.870811 0.000000 0.037476
O O8 0.250000 0.687274 0.303697
O O9 0.126090 0.623197 0.404142
O O10 0.128917 0.748109 0.421473
O O11 0.116024 0.693637 0.173782
O O12 0.750000 0.429467 0.479505
O O13 0.624994 0.500000 0.522907
O O14 0.629915 0.409860 0.320372
O O15 0.250000 0.186630 0.828168
O O16 0.362950 0.256981 0.920551
O O17 0.377456 0.196818 0.674500
O O18 0.391045 0.381792 0.949814
O O19 0.500000 0.295034 0.000000
O O20 0.250000 0.189065 0.519639
O O21 0.750000 0.406046 0.141382
O O22 0.854301 0.500000 0.120340
#
# Coordination Sequence:
#
# PCOD8209253 Si02
#       8
#     8   8   8   8   8   8   8   8
#     4   8  13  22  37  63 101 133 155 193 255 314
#     4   8  14  25  45  75 107 136 166 205 255 308
#     4  10  19  33  54  76  99 129 169 213 254 299
#     4   8  15  30  55  84 106 125 158 205 251 299
#     4  10  19  33  53  74 101 136 175 217 259 308
#     4  12  25  37  50  73 107 142 177 215 256 303
#     4   9  17  28  47  74  98 127 169 215 258 301
#     4   9  18  36  61  83 104 133 168 207 255 309
#
# _framework density 19.474969000000002
#
# number of rings (size 3 to 8) (size 9 to 14) (size 15 to 20)
#    0.000    2.750    0.000    4.125    0.000    5.250 
#    0.000    6.250    0.000    1.875    0.000    0.000 
#    0.000    4.000    0.000    0.000    0.000    0.000 
#
# Total GULP energy -793403.906215 kJ/mol
# GULP energy per Si atom -12396.936035 kJ/mol
# Density = 1.943064 g / cm^3
# Si number density = 19.474969 Si / 1000 Ang^3
#
#
#
# Elastic Constant Matrix: (Units=GPa)
#
#
# Indices 1 2 3 4 5 6 
#
# 1 8.8649 5.5192 7.2431 0.0000 0.0000 0.0000
# 2 5.5192 145.3147 86.6972 0.0000 0.0000 0.0000
# 3 7.2431 86.6972 151.5815 0.0000 0.0000 0.0000
# 4 0.0000 0.0000 0.0000 38.4199 0.0000 0.0000
# 5 0.0000 0.0000 0.0000 0.0000 2.3655 0.0000
# 6 0.0000 0.0000 0.0000 0.0000 0.0000 3.0840
#
#
#
# Elastic Compliance Matrix: (Units=1/GPa)
#
#
# Indices 1 2 3 4 5 6 
#
# 1 0.117661 -0.001692 -0.004655 0.000000 0.000000 0.000000
# 2 -0.001692 0.010471 -0.005908 0.000000 0.000000 0.000000
# 3 -0.004655 -0.005908 0.010199 0.000000 0.000000 0.000000
# 4 0.000000 0.000000 0.000000 0.026028 0.000000 0.000000
# 5 0.000000 0.000000 0.000000 0.000000 0.422736 0.000000
# 6 0.000000 0.000000 0.000000 0.000000 0.000000 0.324254
#
#
# Mechanical properties :
#
#
# Convention : Reuss Voigt Hill
#
# Bulk Modulus (GPa) = 8.78569 56.07556 32.43062
# Shear Modulus (GPa) = 5.13454 22.52733 13.83094
#
# Velocity S-wave (km/s) = 1.62549 3.40477 2.66783
# Velocity P-wave (km/s) = 2.83620 6.65678 5.11648
#
# Compressibility (1/GPa) = 0.11382147
#
# Stress axis : x y z
#
# Youngs Moduli (GPa) = 8.49900 95.50569 98.05354
#
# Poissons Ratio (x) = 0.16158 0.45640
# Poissons Ratio (y) = 0.01438 0.57928
# Poissons Ratio (z) = 0.03956 0.56423
#
# Static dielectric constant tensor:
#      x y z
#    x 2.866750 0.000000 0.000000 
#    y 0.000000 3.951140 0.000000 
#    z 0.000000 0.000000 3.764960 
# 
# 
# High freq. dielectric constant tensor:
#      x y z
#    x 1.688540 0.000000 0.000000 
#    y 0.000000 1.777300 0.000000 
#    z 0.000000 0.000000 1.765440 
# 
# From -- ./inp_files/10047.got.cif
#   From: 2010.03.12/outbox.cif.g09.slc.cpg/sg51_6_cif.got.tgz:10047.got - 2010.04.16 13:43:02.
