data_PCOD8209197
_publ_section_title
;
Structure prediction by ZEFSAII (Michael W. Deem and Ramdas Pophale) SiO2 
 PCOD8209197
Probable space group: P M M A
;
_chemical_formula_sum "Si O2"
_cell_formula_units_Z 40
_cell_length_a 8.969252
_cell_length_b 12.583181
_cell_length_c 20.768487
_cell_angle_alpha 90.000000
_cell_angle_beta 90.000000
_cell_angle_gamma 90.000000
_cell_volume 2343.967193
_symmetry_space_group_name_H-M "P M M A"
_symmetry_group_IT_number 51
_symmetry_cell_setting 'orthorhombic'
loop_
_space_group_symop_operation_xyz
x,y,z
1/2-x,-y,z
1/2+x,-y,-z
-x,y,-z
-x,-y,-z
1/2+x,y,-z
1/2-x,y,z
x,-y,z
loop_
_atom_site_type_symbol
_atom_site_label
_atom_site_fract_x
_atom_site_fract_y
_atom_site_fract_z
Si Si1 0.925108 0.676554 0.654678
Si Si2 0.923483 0.617917 0.799913
Si Si3 0.924842 0.820309 0.164484
Si Si4 0.572768 0.000000 0.069132
Si Si5 0.571827 0.500000 0.430417
Si Si6 0.923886 0.880163 0.307501
O O1 0.750000 0.668950 0.639278
O O2 0.964421 0.633251 0.725275
O O3 0.016319 0.606080 0.604777
O O4 0.979994 0.798799 0.649258
O O5 0.750000 0.634569 0.810701
O O6 0.974189 0.500000 0.820991
O O7 0.006446 0.703261 0.844522
O O8 0.750000 0.808988 0.160026
O O9 0.983677 0.896329 0.107814
O O10 0.972157 0.870131 0.232913
O O11 0.750000 0.000000 0.062946
O O12 0.500000 0.000000 0.000000
O O13 0.750000 0.500000 0.434342
O O14 0.500000 0.500000 0.500000
O O15 0.750000 0.852880 0.315619
O O16 0.958552 0.000000 0.330737
#
# Coordination Sequence:
#
# PCOD8209197 Si02
#       6
#     8   8   8   4   4   8
#     4  10  19  33  50  74 107 136 168 208 253 302
#     4   9  17  30  48  72 104 132 157 201 254 299
#     4   9  17  30  47  70  99 130 167 207 250 297
#     4  10  20  34  50  70 100 134 169 212 251 296
#     4  12  24  38  56  76 102 138 177 212 251 298
#     4   9  16  29  50  75 104 135 167 208 255 304
#
# _framework density 17.065085
#
# number of rings (size 3 to 8) (size 9 to 14) (size 15 to 20)
#    0.000    2.400    2.000    1.500    0.000    2.400 
#    0.000    0.000    0.000    1.200    0.000    0.000 
#    0.000    0.000    0.000    0.000    0.000    0.000 
#
# Total GULP energy -495966.682493 kJ/mol
# GULP energy per Si atom -12399.167062 kJ/mol
# Density = 1.702624 g / cm^3
# Si number density = 17.065085 Si / 1000 Ang^3
#
#
#
# Elastic Constant Matrix: (Units=GPa)
#
#
# Indices 1 2 3 4 5 6 
#
# 1 66.9290 55.1844 43.7347 0.0000 0.0000 0.0000
# 2 55.1844 160.2483 65.3495 0.0000 0.0000 0.0000
# 3 43.7347 65.3495 81.4294 0.0000 0.0000 0.0000
# 4 0.0000 0.0000 0.0000 19.4795 0.0000 0.0000
# 5 0.0000 0.0000 0.0000 0.0000 24.3707 0.0000
# 6 0.0000 0.0000 0.0000 0.0000 0.0000 32.7127
#
#
#
# Elastic Compliance Matrix: (Units=1/GPa)
#
#
# Indices 1 2 3 4 5 6 
#
# 1 0.025191 -0.004694 -0.009763 0.000000 0.000000 0.000000
# 2 -0.004694 0.010151 -0.005625 0.000000 0.000000 0.000000
# 3 -0.009763 -0.005625 0.022039 0.000000 0.000000 0.000000
# 4 0.000000 0.000000 0.000000 0.051336 0.000000 0.000000
# 5 0.000000 0.000000 0.000000 0.000000 0.041033 0.000000
# 6 0.000000 0.000000 0.000000 0.000000 0.000000 0.030569
#
#
# Mechanical properties :
#
#
# Convention : Reuss Voigt Hill
#
# Bulk Modulus (GPa) = 58.08423 70.79375 64.43899
# Shear Modulus (GPa) = 22.10234 24.93511 23.51872
#
# Velocity S-wave (km/s) = 3.60276 3.82668 3.71641
# Velocity P-wave (km/s) = 7.17059 7.81660 7.50055
#
# Compressibility (1/GPa) = 0.01721638
#
# Stress axis : x y z
#
# Youngs Moduli (GPa) = 39.69720 98.51584 45.37496
#
# Poissons Ratio (x) = 0.46239 0.44299
# Poissons Ratio (y) = 0.18632 0.25525
# Poissons Ratio (z) = 0.38756 0.55419
#
# Static dielectric constant tensor:
#      x y z
#    x 3.145650 0.000000 0.000000 
#    y 0.000000 3.556470 0.000000 
#    z 0.000000 0.000000 2.925520 
# 
# 
# High freq. dielectric constant tensor:
#      x y z
#    x 1.657260 0.000000 0.000000 
#    y 0.000000 1.674470 0.000000 
#    z 0.000000 0.000000 1.613850 
# 
# From -- ./inp_files/31398.got.cif
#   From: 2010.03.12/outbox.cif.g09.slc.cpg/sg51_16_cif.got.tgz:31398.got - 2010.04.16 13:43:02.
