data_PCOD8209119
_publ_section_title
;
Structure prediction by ZEFSAII (Michael W. Deem and Ramdas Pophale) SiO2 
 PCOD8209119
Probable space group: P M M A
;
_chemical_formula_sum "Si O2"
_cell_formula_units_Z 64
_cell_length_a 16.160040
_cell_length_b 18.934528
_cell_length_c 11.262474
_cell_angle_alpha 90.000000
_cell_angle_beta 90.000000
_cell_angle_gamma 90.000000
_cell_volume 3446.122540
_symmetry_space_group_name_H-M "P M M A"
_symmetry_group_IT_number 51
_symmetry_cell_setting 'orthorhombic'
loop_
_space_group_symop_operation_xyz
x,y,z
1/2-x,-y,z
1/2+x,-y,-z
-x,y,-z
-x,-y,-z
1/2+x,y,-z
1/2-x,y,z
x,-y,z
loop_
_atom_site_type_symbol
_atom_site_label
_atom_site_fract_x
_atom_site_fract_y
_atom_site_fract_z
Si Si1 0.652869 0.421419 0.783876
Si Si2 0.659015 0.921254 0.753750
Si Si3 0.152044 0.308043 0.020439
Si Si4 0.097355 0.077631 0.509605
Si Si5 0.422169 0.281328 0.772428
Si Si6 0.444705 0.337324 0.395122
Si Si7 0.958258 0.818869 0.885704
Si Si8 0.155952 0.228144 0.546913
O O1 0.750000 0.424729 0.771775
O O2 0.615697 0.500000 0.801104
O O3 0.623563 0.390064 0.656708
O O4 0.629023 0.375930 0.900160
O O5 0.750000 0.887908 0.776066
O O6 0.641910 0.921422 0.615623
O O7 0.588331 0.878619 0.816713
O O8 0.656580 0.000000 0.805505
O O9 0.250000 0.292976 0.018092
O O10 0.118693 0.320117 0.886203
O O11 0.105418 0.242745 0.079875
O O12 0.132792 0.146516 0.575829
O O13 0.000000 0.086867 0.500000
O O14 0.116768 0.000000 0.569692
O O15 0.496118 0.326919 0.717677
O O16 0.464849 0.207845 0.807845
O O17 0.352844 0.268446 0.672194
O O18 0.500000 0.371996 0.500000
O O19 0.402778 0.264508 0.446115
O O20 0.000000 0.854313 0.000000
O O21 0.250000 0.234582 0.502531
#
# Coordination Sequence:
#
# PCOD8209119 Si02
#       8
#     8   8   8   8   8   8   8   8
#     4  10  21  37  58  85 114 144 182 227 273 325
#     4  10  20  33  49  73 104 136 176 225 269 318
#     4  10  20  35  57  80 106 141 180 223 274 321
#     4  10  20  33  50  74 106 142 181 226 276 325
#     4  10  20  35  52  79 110 135 179 228 268 320
#     4  10  20  35  56  80 111 147 183 224 265 328
#     4  10  19  32  54  75 100 134 178 222 268 323
#     4  11  21  33  54  80 110 146 184 226 276 327
#
# _framework density 18.571596
#
# number of rings (size 3 to 8) (size 9 to 14) (size 15 to 20)
#    0.000    1.875    1.250    4.125    0.000    1.250 
#    0.000    1.250    0.000    1.500    0.000    7.000 
#    0.000    0.000    0.000    0.000    0.000    0.000 
#
# Total GULP energy -793086.371681 kJ/mol
# GULP energy per Si atom -12391.974558 kJ/mol
# Density = 1.852933 g / cm^3
# Si number density = 18.571596 Si / 1000 Ang^3
#
#
#
# Elastic Constant Matrix: (Units=GPa)
#
#
# Indices 1 2 3 4 5 6 
#
# 1 71.4569 22.2656 21.4975 0.0000 0.0000 0.0000
# 2 22.2656 85.0255 36.4298 0.0000 0.0000 0.0000
# 3 21.4975 36.4298 79.2282 0.0000 0.0000 0.0000
# 4 0.0000 0.0000 0.0000 18.0154 0.0000 0.0000
# 5 0.0000 0.0000 0.0000 0.0000 32.4317 0.0000
# 6 0.0000 0.0000 0.0000 0.0000 0.0000 25.5651
#
#
#
# Elastic Compliance Matrix: (Units=1/GPa)
#
#
# Indices 1 2 3 4 5 6 
#
# 1 0.015778 -0.002861 -0.002966 0.000000 0.000000 0.000000
# 2 -0.002861 0.015166 -0.006197 0.000000 0.000000 0.000000
# 3 -0.002966 -0.006197 0.016276 0.000000 0.000000 0.000000
# 4 0.000000 0.000000 0.000000 0.055508 0.000000 0.000000
# 5 0.000000 0.000000 0.000000 0.000000 0.030834 0.000000
# 6 0.000000 0.000000 0.000000 0.000000 0.000000 0.039116
#
#
# Mechanical properties :
#
#
# Convention : Reuss Voigt Hill
#
# Bulk Modulus (GPa) = 43.15520 44.01069 43.58294
# Shear Modulus (GPa) = 24.45601 25.57031 25.01316
#
# Velocity S-wave (km/s) = 3.63278 3.71462 3.67393
# Velocity P-wave (km/s) = 6.39404 6.49208 6.44325
#
# Compressibility (1/GPa) = 0.02317218
#
# Stress axis : x y z
#
# Youngs Moduli (GPa) = 63.37871 65.93896 61.44085
#
# Poissons Ratio (x) = 0.18866 0.18221
# Poissons Ratio (y) = 0.18134 0.38074
# Poissons Ratio (z) = 0.18795 0.40862
#
# Static dielectric constant tensor:
#      x y z
#    x 3.568640 0.000000 0.000000 
#    y 0.000000 3.525850 0.000000 
#    z 0.000000 0.000000 3.503560 
# 
# 
# High freq. dielectric constant tensor:
#      x y z
#    x 1.734790 0.000000 0.000000 
#    y 0.000000 1.699690 0.000000 
#    z 0.000000 0.000000 1.715520 
# 
# From -- ./inp_files/16826.got.cif
#   From: 2010.03.12/outbox.cif.g09.slc.cpg/sg51_9_cif.got.tgz:16826.got - 2010.04.16 13:43:02.
