data_PCOD8209727
_publ_section_title
;
Structure prediction by ZEFSAII (Michael W. Deem and Ramdas Pophale) SiO2 
 PCOD8209727
Probable space group: P M M A
;
_chemical_formula_sum "Si O2"
_cell_formula_units_Z 64
_cell_length_a 30.269882
_cell_length_b 9.131105
_cell_length_c 12.039199
_cell_angle_alpha 90.000000
_cell_angle_beta 90.000000
_cell_angle_gamma 90.000000
_cell_volume 3327.604155
_symmetry_space_group_name_H-M "P M M A"
_symmetry_group_IT_number 51
_symmetry_cell_setting 'orthorhombic'
loop_
_space_group_symop_operation_xyz
x,y,z
1/2-x,-y,z
1/2+x,-y,-z
-x,y,-z
-x,-y,-z
1/2+x,y,-z
1/2-x,y,z
x,-y,z
loop_
_atom_site_type_symbol
_atom_site_label
_atom_site_fract_x
_atom_site_fract_y
_atom_site_fract_z
Si Si1 0.549764 0.829468 0.025439
Si Si2 0.198858 0.328484 0.968524
Si Si3 0.132212 0.168664 0.122157
Si Si4 0.385757 0.834694 0.371205
Si Si5 0.488693 0.832896 0.378054
Si Si6 0.637508 0.671790 0.411529
Si Si7 0.802041 0.834468 0.253304
Si Si8 0.558931 0.671930 0.246831
O O1 0.570792 0.743878 0.129306
O O2 0.547692 0.000000 0.055888
O O3 0.500000 0.772282 0.000000
O O4 0.582606 0.798318 0.922339
O O5 0.250000 0.291581 0.994157
O O6 0.191409 0.500000 0.952154
O O7 0.182350 0.250301 0.856580
O O8 0.169125 0.271453 0.068696
O O9 0.135555 0.202667 0.252732
O O10 0.144076 0.000000 0.097040
O O11 0.437563 0.818466 0.355052
O O12 0.368158 0.721758 0.461888
O O13 0.373948 0.000000 0.408858
O O14 0.500000 0.772067 0.500000
O O15 0.512071 0.733297 0.286701
O O16 0.505451 0.000000 0.365772
O O17 0.646355 0.500000 0.409677
O O18 0.679550 0.754121 0.361628
O O19 0.595097 0.716161 0.338539
O O20 0.750000 0.831428 0.264897
O O21 0.820104 0.000000 0.246480
O O22 0.555800 0.500000 0.230287
#
# Coordination Sequence:
#
# PCOD8209727 Si02
#       8
#     8   8   8   8   8   8   8   8
#     4  10  21  38  58  80 111 149 191 235 280 335
#     4  10  21  38  61  88 117 148 184 230 287 349
#     4  10  21  37  59  85 113 150 194 241 286 335
#     4  10  21  38  58  82 112 149 196 240 281 332
#     4  10  19  34  57  80 105 146 195 236 277 326
#     4  11  23  37  55  83 116 148 183 224 278 338
#     4  10  21  38  62  89 114 142 180 228 280 333
#     4  11  23  35  52  81 115 146 183 230 280 333
#
# _framework density 19.233056999999999
#
# number of rings (size 3 to 8) (size 9 to 14) (size 15 to 20)
#    0.000    1.750    1.250    3.000    0.000    9.000 
#    0.000    1.875    0.000    0.750    0.000    0.000 
#    0.000    0.000    0.000    0.000    0.000    0.000 
#
# Total GULP energy -793907.138822 kJ/mol
# GULP energy per Si atom -12404.799044 kJ/mol
# Density = 1.918928 g / cm^3
# Si number density = 19.233057 Si / 1000 Ang^3
#
#
#
# Elastic Constant Matrix: (Units=GPa)
#
#
# Indices 1 2 3 4 5 6 
#
# 1 60.5255 43.2084 38.8906 0.0000 0.0000 0.0000
# 2 43.2084 99.9522 58.7445 0.0000 0.0000 0.0000
# 3 38.8906 58.7445 114.6884 0.0000 0.0000 0.0000
# 4 0.0000 0.0000 0.0000 30.1901 0.0000 0.0000
# 5 0.0000 0.0000 0.0000 0.0000 32.1219 0.0000
# 6 0.0000 0.0000 0.0000 0.0000 0.0000 19.9021
#
#
#
# Elastic Compliance Matrix: (Units=1/GPa)
#
#
# Indices 1 2 3 4 5 6 
#
# 1 0.025269 -0.008423 -0.004254 0.000000 0.000000 0.000000
# 2 -0.008423 0.017122 -0.005914 0.000000 0.000000 0.000000
# 3 -0.004254 -0.005914 0.013191 0.000000 0.000000 0.000000
# 4 0.000000 0.000000 0.000000 0.033123 0.000000 0.000000
# 5 0.000000 0.000000 0.000000 0.000000 0.031131 0.000000
# 6 0.000000 0.000000 0.000000 0.000000 0.000000 0.050246
#
#
# Mechanical properties :
#
#
# Convention : Reuss Voigt Hill
#
# Bulk Modulus (GPa) = 54.34969 61.87257 58.11113
# Shear Modulus (GPa) = 23.43058 25.39768 24.41413
#
# Velocity S-wave (km/s) = 3.49412 3.63784 3.56671
# Velocity P-wave (km/s) = 6.67820 7.06293 6.87326
#
# Compressibility (1/GPa) = 0.01839937
#
# Stress axis : x y z
#
# Youngs Moduli (GPa) = 39.57484 58.40585 75.81026
#
# Poissons Ratio (x) = 0.49196 0.32251
# Poissons Ratio (y) = 0.33334 0.44831
# Poissons Ratio (z) = 0.16836 0.34539
#
# Static dielectric constant tensor:
#      x y z
#    x 3.429040 0.000000 0.000000 
#    y 0.000000 3.519910 0.000000 
#    z 0.000000 0.000000 3.690980 
# 
# 
# High freq. dielectric constant tensor:
#      x y z
#    x 1.741870 0.000000 0.000000 
#    y 0.000000 1.747990 0.000000 
#    z 0.000000 0.000000 1.751930 
# 
# From -- ./inp_files/19551.got.cif
#   From: 2010.03.12/outbox.cif.g09.slc.cpg/sg51_10_cif.got.tgz:19551.got - 2010.04.16 13:43:02.
