data_PCOD8209904
_publ_section_title
;
Structure prediction by ZEFSAII (Michael W. Deem and Ramdas Pophale) SiO2 
 PCOD8209904
Probable space group: P M M A
;
_chemical_formula_sum "Si O2"
_cell_formula_units_Z 48
_cell_length_a 30.766125
_cell_length_b 8.662092
_cell_length_c 9.520316
_cell_angle_alpha 90.000000
_cell_angle_beta 90.000000
_cell_angle_gamma 90.000000
_cell_volume 2537.154744
_symmetry_space_group_name_H-M "P M M A"
_symmetry_group_IT_number 51
_symmetry_cell_setting 'orthorhombic'
loop_
_space_group_symop_operation_xyz
x,y,z
1/2-x,-y,z
1/2+x,-y,-z
-x,y,-z
-x,-y,-z
1/2+x,y,-z
1/2-x,y,z
x,-y,z
loop_
_atom_site_type_symbol
_atom_site_label
_atom_site_fract_x
_atom_site_fract_y
_atom_site_fract_z
Si Si1 0.172694 0.182363 0.147290
Si Si2 0.674761 0.317396 0.155505
Si Si3 0.081220 0.317246 0.160836
Si Si4 0.499931 0.315916 0.342061
Si Si5 0.750000 0.817296 0.656225
Si Si6 0.250000 0.182744 0.659506
Si Si7 0.422615 0.682046 0.844692
O O1 0.125594 0.232829 0.203587
O O2 0.207158 0.240324 0.262592
O O3 0.174581 0.000000 0.124423
O O4 0.185302 0.262886 0.001422
O O5 0.680211 0.500000 0.161109
O O6 0.706865 0.240616 0.264965
O O7 0.625902 0.264830 0.197834
O O8 0.089116 0.500000 0.168405
O O9 0.044005 0.260251 0.266491
O O10 0.067113 0.266734 0.004054
O O11 0.500000 0.250494 0.500000
O O12 0.501970 0.500000 0.341547
O O13 0.541638 0.245241 0.260164
O O14 0.750000 0.749790 0.498590
O O15 0.750000 0.000000 0.649068
O O16 0.250000 0.000000 0.661130
O O17 0.426042 0.500000 0.834458
#
# Coordination Sequence:
#
# PCOD8209904 Si02
#       7
#     8   8   8   8   4   4   8
#     4  10  19  35  57  77 100 135 177 216 258 307
#     4  10  20  35  55  80 105 130 169 218 260 298
#     4   9  17  30  49  73 100 129 165 211 259 304
#     4   9  16  26  44  71 100 131 167 206 252 307
#     4   9  21  37  52  72 100 137 174 205 244 304
#     4  11  22  37  54  74 104 139 170 201 250 312
#     4   8  15  28  46  68  96 129 162 201 249 297
#
# _framework density 18.918828999999999
#
# number of rings (size 3 to 8) (size 9 to 14) (size 15 to 20)
#    0.000    2.667    0.000    3.250    0.000    4.000 
#    0.000    6.250    0.000    9.500    0.000    0.000 
#    0.000    0.000    0.000    0.000    0.000    0.000 
#
# Total GULP energy -595133.926564 kJ/mol
# GULP energy per Si atom -12398.623470 kJ/mol
# Density = 1.887577 g / cm^3
# Si number density = 18.918829 Si / 1000 Ang^3
#
#
#
# Elastic Constant Matrix: (Units=GPa)
#
#
# Indices 1 2 3 4 5 6 
#
# 1 167.6385 24.1789 118.6241 0.0000 0.0000 0.0000
# 2 24.1789 38.9110 24.0852 0.0000 0.0000 0.0000
# 3 118.6241 24.0852 164.4754 0.0000 0.0000 0.0000
# 4 0.0000 0.0000 0.0000 18.2152 0.0000 0.0000
# 5 0.0000 0.0000 0.0000 0.0000 36.0263 0.0000
# 6 0.0000 0.0000 0.0000 0.0000 0.0000 16.9892
#
#
#
# Elastic Compliance Matrix: (Units=1/GPa)
#
#
# Indices 1 2 3 4 5 6 
#
# 1 0.012380 -0.002382 -0.008580 0.000000 0.000000 0.000000
# 2 -0.002382 0.028720 -0.002488 0.000000 0.000000 0.000000
# 3 -0.008580 -0.002488 0.012632 0.000000 0.000000 0.000000
# 4 0.000000 0.000000 0.000000 0.054899 0.000000 0.000000
# 5 0.000000 0.000000 0.000000 0.000000 0.027758 0.000000
# 6 0.000000 0.000000 0.000000 0.000000 0.000000 0.058861
#
#
# Mechanical properties :
#
#
# Convention : Reuss Voigt Hill
#
# Bulk Modulus (GPa) = 37.26791 78.31124 57.78957
# Shear Modulus (GPa) = 21.63622 27.85524 24.74573
#
# Velocity S-wave (km/s) = 3.38544 3.84129 3.62054
# Velocity P-wave (km/s) = 5.91804 7.82030 6.93471
#
# Compressibility (1/GPa) = 0.02683274
#
# Stress axis : x y z
#
# Youngs Moduli (GPa) = 80.77377 34.81940 79.16114
#
# Poissons Ratio (x) = 0.08294 0.67922
# Poissons Ratio (y) = 0.19240 0.19692
# Poissons Ratio (z) = 0.69305 0.08662
#
# Static dielectric constant tensor:
#      x y z
#    x 3.750920 0.000000 0.000000 
#    y 0.000000 3.082710 0.000000 
#    z 0.000000 0.000000 3.675930 
# 
# 
# High freq. dielectric constant tensor:
#      x y z
#    x 1.751410 0.000000 0.000000 
#    y 0.000000 1.697130 0.000000 
#    z 0.000000 0.000000 1.733960 
# 
# From -- ./inp_files/12957.got.cif
#   From: 2010.03.12/outbox.cif.g09.slc.cpg/sg51_7_cif.got.tgz:12957.got - 2010.04.16 13:43:02.
