data_PCOD8209279
_publ_section_title
;
Structure prediction by ZEFSAII (Michael W. Deem and Ramdas Pophale) SiO2 
 PCOD8209279
Probable space group: P M M A
;
_chemical_formula_sum "Si O2"
_cell_formula_units_Z 40
_cell_length_a 8.489300
_cell_length_b 18.816811
_cell_length_c 13.728729
_cell_angle_alpha 90.000000
_cell_angle_beta 90.000000
_cell_angle_gamma 90.000000
_cell_volume 2193.048500
_symmetry_space_group_name_H-M "P M M A"
_symmetry_group_IT_number 51
_symmetry_cell_setting 'orthorhombic'
loop_
_space_group_symop_operation_xyz
x,y,z
1/2-x,-y,z
1/2+x,-y,-z
-x,y,-z
-x,-y,-z
1/2+x,y,-z
1/2-x,y,z
x,-y,z
loop_
_atom_site_type_symbol
_atom_site_label
_atom_site_fract_x
_atom_site_fract_y
_atom_site_fract_z
Si Si1 0.564044 0.079111 0.104072
Si Si2 0.065362 0.705575 0.396293
Si Si3 0.064988 0.212728 0.778858
Si Si4 0.933076 0.580610 0.277939
Si Si5 0.565324 0.660722 0.896286
O O1 0.750000 0.079645 0.096405
O O2 0.509082 0.134482 0.186933
O O3 0.501312 0.000000 0.130852
O O4 0.500000 0.104118 0.000000
O O5 0.250000 0.692901 0.401205
O O6 0.000000 0.730371 0.500000
O O7 0.027508 0.767770 0.319387
O O8 0.983621 0.631648 0.366083
O O9 0.250000 0.215536 0.757239
O O10 0.024048 0.267814 0.864355
O O11 0.750000 0.592700 0.254861
O O12 0.968797 0.500000 0.309518
O O13 0.031316 0.598390 0.180931
O O14 0.750000 0.675879 0.901273
O O15 0.500000 0.635525 0.000000
#
# Coordination Sequence:
#
# PCOD8209279 Si02
#       5
#     8   8   8   8   8
#     4   9  18  31  49  76 109 143 174 205 244 291
#     4  11  22  37  57  78 101 129 166 209 255 305
#     4  10  19  33  53  76 104 134 169 212 254 299
#     4  10  21  37  55  76 102 130 164 207 254 304
#     4  11  21  33  50  72 101 136 174 211 250 299
#
# _framework density 18.239449
#
# number of rings (size 3 to 8) (size 9 to 14) (size 15 to 20)
#    0.000    1.800    0.000    7.800    0.000    5.600 
#    0.000    0.000    0.000    0.600    0.000    0.000 
#    0.000    0.000    0.000    0.000    0.000    0.000 
#
# Total GULP energy -496085.435602 kJ/mol
# GULP energy per Si atom -12402.135890 kJ/mol
# Density = 1.819794 g / cm^3
# Si number density = 18.239449 Si / 1000 Ang^3
#
#
#
# Elastic Constant Matrix: (Units=GPa)
#
#
# Indices 1 2 3 4 5 6 
#
# 1 58.8194 22.6184 20.6791 0.0000 0.0000 0.0000
# 2 22.6184 119.3682 50.7154 0.0000 0.0000 0.0000
# 3 20.6791 50.7154 111.1431 0.0000 0.0000 0.0000
# 4 0.0000 0.0000 0.0000 6.8712 0.0000 0.0000
# 5 0.0000 0.0000 0.0000 0.0000 32.6390 0.0000
# 6 0.0000 0.0000 0.0000 0.0000 0.0000 21.7784
#
#
#
# Elastic Compliance Matrix: (Units=1/GPa)
#
#
# Indices 1 2 3 4 5 6 
#
# 1 0.018809 -0.002577 -0.002324 0.000000 0.000000 0.000000
# 2 -0.002577 0.010745 -0.004424 0.000000 0.000000 0.000000
# 3 -0.002324 -0.004424 0.011448 0.000000 0.000000 0.000000
# 4 0.000000 0.000000 0.000000 0.145536 0.000000 0.000000
# 5 0.000000 0.000000 0.000000 0.000000 0.030638 0.000000
# 6 0.000000 0.000000 0.000000 0.000000 0.000000 0.045917
#
#
# Mechanical properties :
#
#
# Convention : Reuss Voigt Hill
#
# Bulk Modulus (GPa) = 44.73446 53.03960 48.88703
# Shear Modulus (GPa) = 17.28946 25.27889 21.28418
#
# Velocity S-wave (km/s) = 3.08216 3.72687 3.41974
# Velocity P-wave (km/s) = 6.10293 6.90378 6.51567
#
# Compressibility (1/GPa) = 0.02235413
#
# Stress axis : x y z
#
# Youngs Moduli (GPa) = 53.16593 93.06531 87.34899
#
# Poissons Ratio (x) = 0.23980 0.20298
# Poissons Ratio (y) = 0.13699 0.38640
# Poissons Ratio (z) = 0.12355 0.41169
#
# Static dielectric constant tensor:
#      x y z
#    x 3.461040 0.000000 0.000000 
#    y 0.000000 3.548850 0.000000 
#    z 0.000000 0.000000 3.468290 
# 
# 
# High freq. dielectric constant tensor:
#      x y z
#    x 1.720390 0.000000 0.000000 
#    y 0.000000 1.698360 0.000000 
#    z 0.000000 0.000000 1.696260 
# 
# From -- ./inp_files/20784.got.cif
#   From: 2010.03.12/outbox.cif.g09.slc.cpg/sg51_11_cif.got.tgz:20784.got - 2010.04.16 13:43:02.
