data_PCOD8209799
_publ_section_title
;
Structure prediction by ZEFSAII (Michael W. Deem and Ramdas Pophale) SiO2 
 PCOD8209799
Probable space group: P M M A
;
_chemical_formula_sum "Si O2"
_cell_formula_units_Z 64
_cell_length_a 18.567125
_cell_length_b 8.923976
_cell_length_c 20.069956
_cell_angle_alpha 90.000000
_cell_angle_beta 90.000000
_cell_angle_gamma 90.000000
_cell_volume 3325.442748
_symmetry_space_group_name_H-M "P M M A"
_symmetry_group_IT_number 51
_symmetry_cell_setting 'orthorhombic'
loop_
_space_group_symop_operation_xyz
x,y,z
1/2-x,-y,z
1/2+x,-y,-z
-x,y,-z
-x,-y,-z
1/2+x,y,-z
1/2-x,y,z
x,-y,z
loop_
_atom_site_type_symbol
_atom_site_label
_atom_site_fract_x
_atom_site_fract_y
_atom_site_fract_z
Si Si1 0.577775 0.826954 0.173184
Si Si2 0.080038 0.324794 0.442830
Si Si3 0.430629 0.820702 0.579826
Si Si4 0.414206 0.171751 0.203905
Si Si5 0.829618 0.673442 0.682504
Si Si6 0.168648 0.177951 0.701629
Si Si7 0.574424 0.322969 0.032186
Si Si8 0.833351 0.174754 0.925420
O O1 0.499120 0.804946 0.203831
O O2 0.634044 0.767779 0.228532
O O3 0.585384 0.729598 0.107349
O O4 0.591756 0.000000 0.154704
O O5 0.065279 0.500000 0.456557
O O6 0.101983 0.240752 0.510726
O O7 0.146223 0.300171 0.393231
O O8 0.009175 0.251051 0.410077
O O9 0.378815 0.764862 0.639413
O O10 0.437226 0.000000 0.577628
O O11 0.385804 0.251199 0.268948
O O12 0.378169 0.239275 0.137229
O O13 0.391430 0.000000 0.208712
O O14 0.750000 0.743233 0.691147
O O15 0.828513 0.500000 0.700343
O O16 0.250000 0.241839 0.696034
O O17 0.169338 0.000000 0.700636
O O18 0.574788 0.500000 0.030644
O O19 0.500000 0.260324 0.000000
O O20 0.641860 0.261959 0.990858
O O21 0.750000 0.207689 0.912239
O O22 0.848991 0.000000 0.936720
#
# Coordination Sequence:
#
# PCOD8209799 Si02
#       8
#     8   8   8   8   8   8   8   8
#     4  10  20  36  61  84 108 145 186 229 275 329
#     4  10  20  35  55  79 110 145 184 227 272 327
#     4  10  19  34  58  83 108 140 182 231 276 324
#     4  10  20  35  57  83 109 140 184 233 275 323
#     4  10  22  37  52  75 110 149 183 219 270 330
#     4   9  19  35  55  83 115 144 180 228 282 333
#     4  11  23  38  57  83 115 148 184 228 278 332
#     4  10  21  37  58  83 111 145 185 229 279 334
#
# _framework density 19.245557000000002
#
# number of rings (size 3 to 8) (size 9 to 14) (size 15 to 20)
#    0.000    2.000    1.250    3.000    0.000    5.500 
#    0.000    2.500    0.000    2.625    0.000    0.000 
#    0.000    0.000    0.000    0.000    0.000    0.000 
#
# Total GULP energy -793718.746147 kJ/mol
# GULP energy per Si atom -12401.855409 kJ/mol
# Density = 1.920175 g / cm^3
# Si number density = 19.245557 Si / 1000 Ang^3
#
#
#
# Elastic Constant Matrix: (Units=GPa)
#
#
# Indices 1 2 3 4 5 6 
#
# 1 89.0835 28.1120 49.9476 0.0000 0.0000 0.0000
# 2 28.1120 54.7583 32.1093 0.0000 0.0000 0.0000
# 3 49.9476 32.1093 119.0981 0.0000 0.0000 0.0000
# 4 0.0000 0.0000 0.0000 33.9867 0.0000 0.0000
# 5 0.0000 0.0000 0.0000 0.0000 32.6991 0.0000
# 6 0.0000 0.0000 0.0000 0.0000 0.0000 15.2034
#
#
#
# Elastic Compliance Matrix: (Units=1/GPa)
#
#
# Indices 1 2 3 4 5 6 
#
# 1 0.015752 -0.005004 -0.005257 0.000000 0.000000 0.000000
# 2 -0.005004 0.023281 -0.004178 0.000000 0.000000 0.000000
# 3 -0.005257 -0.004178 0.011728 0.000000 0.000000 0.000000
# 4 0.000000 0.000000 0.000000 0.029423 0.000000 0.000000
# 5 0.000000 0.000000 0.000000 0.000000 0.030582 0.000000
# 6 0.000000 0.000000 0.000000 0.000000 0.000000 0.065775
#
#
# Mechanical properties :
#
#
# Convention : Reuss Voigt Hill
#
# Bulk Modulus (GPa) = 45.69914 53.69755 49.69834
# Shear Modulus (GPa) = 23.50582 26.56257 25.03420
#
# Velocity S-wave (km/s) = 3.49859 3.71912 3.61054
# Velocity P-wave (km/s) = 6.33380 6.81207 6.57729
#
# Compressibility (1/GPa) = 0.02188225
#
# Stress axis : x y z
#
# Youngs Moduli (GPa) = 63.48356 42.95337 85.26956
#
# Poissons Ratio (x) = 0.21495 0.44826
# Poissons Ratio (y) = 0.31769 0.35625
# Poissons Ratio (z) = 0.33373 0.17946
#
# Static dielectric constant tensor:
#      x y z
#    x 3.633500 0.000000 0.000000 
#    y 0.000000 3.347380 0.000000 
#    z 0.000000 0.000000 3.629310 
# 
# 
# High freq. dielectric constant tensor:
#      x y z
#    x 1.751010 0.000000 0.000000 
#    y 0.000000 1.731330 0.000000 
#    z 0.000000 0.000000 1.760810 
# 
# From -- ./inp_files/33968.got.cif
#   From: 2010.03.12/outbox.cif.g09.slc.cpg/sg51_17_cif.got.tgz:33968.got - 2010.04.16 13:43:02.
