data_PCOD8209405
_publ_section_title
;
Structure prediction by ZEFSAII (Michael W. Deem and Ramdas Pophale) SiO2 
 PCOD8209405
Probable space group: P M M A
;
_chemical_formula_sum "Si O2"
_cell_formula_units_Z 40
_cell_length_a 8.657235
_cell_length_b 26.042250
_cell_length_c 9.281480
_cell_angle_alpha 90.000000
_cell_angle_beta 90.000000
_cell_angle_gamma 90.000000
_cell_volume 2092.545661
_symmetry_space_group_name_H-M "P M M A"
_symmetry_group_IT_number 51
_symmetry_cell_setting 'orthorhombic'
loop_
_space_group_symop_operation_xyz
x,y,z
1/2-x,-y,z
1/2+x,-y,-z
-x,y,-z
-x,-y,-z
1/2+x,y,-z
1/2-x,y,z
x,-y,z
loop_
_atom_site_type_symbol
_atom_site_label
_atom_site_fract_x
_atom_site_fract_y
_atom_site_fract_z
Si Si1 0.067120 0.150868 0.842138
Si Si2 0.432948 0.242945 0.341463
Si Si3 0.433563 0.334200 0.839770
Si Si4 0.931758 0.942645 0.349358
Si Si5 0.430967 0.445882 0.843511
O O1 0.250000 0.157847 0.846016
O O2 0.016964 0.095875 0.776725
O O3 0.994735 0.195034 0.746735
O O4 0.000000 0.154946 0.000000
O O5 0.500000 0.240173 0.500000
O O6 0.250000 0.241042 0.347936
O O7 0.486635 0.295152 0.267482
O O8 0.250000 0.324920 0.844059
O O9 0.478089 0.391009 0.774144
O O10 0.500000 0.326658 0.000000
O O11 0.750000 0.942761 0.367106
O O12 0.000000 0.922930 0.500000
O O13 0.993204 0.000000 0.311939
O O14 0.250000 0.445429 0.862641
O O15 0.480723 0.500000 0.762188
O O16 0.500000 0.447482 0.000000
#
# Coordination Sequence:
#
# PCOD8209405 Si02
#       5
#     8   8   8   8   8
#     4  11  23  39  59  84 114 146 183 226 273 322
#     4  12  25  41  59  79 106 140 181 226 275 329
#     4  10  19  33  54  81 112 144 180 222 269 319
#     4   9  19  36  58  84 114 148 185 224 267 318
#     4   8  14  25  44  72 105 139 174 214 260 311
#
# _framework density 19.115473000000001
#
# number of rings (size 3 to 8) (size 9 to 14) (size 15 to 20)
#    0.000    2.000    0.000    4.200    0.000    4.400 
#    0.000    0.000    0.000    0.600    0.000    0.000 
#    0.000    0.000    0.000    0.000    0.000    0.000 
#
# Total GULP energy -495630.157756 kJ/mol
# GULP energy per Si atom -12390.753944 kJ/mol
# Density = 1.907196 g / cm^3
# Si number density = 19.115473 Si / 1000 Ang^3
#
#
#
# Elastic Constant Matrix: (Units=GPa)
#
#
# Indices 1 2 3 4 5 6 
#
# 1 87.2923 65.9370 52.1238 0.0000 0.0000 0.0000
# 2 65.9370 181.5483 92.3622 0.0000 0.0000 0.0000
# 3 52.1238 92.3622 135.6554 0.0000 0.0000 0.0000
# 4 0.0000 0.0000 0.0000 127.9518 0.0000 0.0000
# 5 0.0000 0.0000 0.0000 0.0000 31.2366 0.0000
# 6 0.0000 0.0000 0.0000 0.0000 0.0000 -185.1162
#
#
#
# Elastic Compliance Matrix: (Units=1/GPa)
#
#
# Indices 1 2 3 4 5 6 
#
# 1 0.016820 -0.004316 -0.003524 0.000000 0.000000 0.000000
# 2 -0.004316 0.009535 -0.004833 0.000000 0.000000 0.000000
# 3 -0.003524 -0.004833 0.012017 0.000000 0.000000 0.000000
# 4 0.000000 0.000000 0.000000 0.007815 0.000000 0.000000
# 5 0.000000 0.000000 0.000000 0.000000 0.032014 0.000000
# 6 0.000000 0.000000 0.000000 0.000000 0.000000 -0.005402
#
#
# Mechanical properties :
#
#
# Convention : Reuss Voigt Hill
#
# Bulk Modulus (GPa) = 76.78069 91.70469 84.24269
# Shear Modulus (GPa) = 48.78615 7.75263 28.26939
#
# Velocity S-wave (km/s) = 5.05739 2.01606 3.84979
# Velocity P-wave (km/s) = 8.62305 7.31420 7.99545
#
# Compressibility (1/GPa) = 0.01302411
#
# Stress axis : x y z
#
# Youngs Moduli (GPa) = 59.45161 104.88003 83.21744
#
# Poissons Ratio (x) = 0.45266 0.29329
# Poissons Ratio (y) = 0.25659 0.40222
# Poissons Ratio (z) = 0.20953 0.50693
#
# Static dielectric constant tensor:
#      x y z
#    x 3.627880 0.000000 0.000000 
#    y 0.000000 4.525670 0.000000 
#    z 0.000000 0.000000 3.268740 
# 
# 
# High freq. dielectric constant tensor:
#      x y z
#    x 1.751610 0.000000 0.000000 
#    y 0.000000 1.777320 0.000000 
#    z 0.000000 0.000000 1.712250 
# 
# From -- ./inp_files/5261.got.cif
#   From: 2010.03.12/outbox.cif.g09.slc.cpg/sg51_3_cif.got.tgz:5261.got - 2010.04.16 13:43:02.
