data_PCOD8209121
_publ_section_title
;
Structure prediction by ZEFSAII (Michael W. Deem and Ramdas Pophale) SiO2 
 PCOD8209121
Probable space group: P M M A
;
_chemical_formula_sum "Si O2"
_cell_formula_units_Z 64
_cell_length_a 19.950230
_cell_length_b 9.195770
_cell_length_c 17.811462
_cell_angle_alpha 90.000000
_cell_angle_beta 90.000000
_cell_angle_gamma 90.000000
_cell_volume 3267.650325
_symmetry_space_group_name_H-M "P M M A"
_symmetry_group_IT_number 51
_symmetry_cell_setting 'orthorhombic'
loop_
_space_group_symop_operation_xyz
x,y,z
1/2-x,-y,z
1/2+x,-y,-z
-x,y,-z
-x,-y,-z
1/2+x,y,-z
1/2-x,y,z
x,-y,z
loop_
_atom_site_type_symbol
_atom_site_label
_atom_site_fract_x
_atom_site_fract_y
_atom_site_fract_z
Si Si1 0.676003 0.827438 0.136845
Si Si2 0.068022 0.339442 0.185846
Si Si3 0.532406 0.830184 0.080231
Si Si4 0.824258 0.836110 0.459861
Si Si5 0.672009 0.831873 0.731093
Si Si6 0.614579 0.668756 0.589469
Si Si7 0.638471 0.830517 0.298851
Si Si8 0.013257 0.655822 0.666581
O O1 0.750000 0.772104 0.107204
O O2 0.611416 0.779700 0.085802
O O3 0.666603 0.761777 0.221412
O O4 0.678039 0.000000 0.138908
O O5 0.084563 0.500000 0.151348
O O6 0.134873 0.242800 0.197236
O O7 0.011523 0.259647 0.137979
O O8 0.040419 0.362239 0.268224
O O9 0.527329 0.000000 0.100539
O O10 0.500000 0.796847 0.000000
O O11 0.750000 0.831774 0.493911
O O12 0.869768 0.726023 0.506113
O O13 0.819654 0.786005 0.372494
O O14 0.853755 0.000000 0.464576
O O15 0.750000 0.815388 0.748197
O O16 0.655802 0.759482 0.651084
O O17 0.649957 0.000000 0.726986
O O18 0.635222 0.500000 0.596075
O O19 0.534114 0.691407 0.595578
O O20 0.562602 0.784979 0.314652
O O21 0.639038 0.000000 0.285486
O O22 0.051138 0.500000 0.655673
#
# Coordination Sequence:
#
# PCOD8209121 Si02
#       8
#     8   8   8   8   8   8   8   8
#     4   9  17  32  56  84 112 145 186 232 282 333
#     4  10  20  35  56  81 112 149 186 226 276 339
#     4  10  20  35  58  88 117 148 189 234 279 334
#     4  10  21  35  49  70 101 135 178 234 288 336
#     4  10  20  34  55  82 110 143 187 240 289 331
#     4  10  21  35  51  73 104 145 187 228 279 341
#     4  10  19  32  54  78 100 135 182 232 279 331
#     4   9  19  34  51  74 103 136 175 221 273 329
#
# _framework density 19.585939
#
# number of rings (size 3 to 8) (size 9 to 14) (size 15 to 20)
#    0.000    2.250    1.250    2.625    0.000    8.000 
#    0.000    3.125    0.000    4.500    0.000    0.000 
#    0.000    0.000    0.000    0.000    0.000    0.000 
#
# Total GULP energy -792968.676903 kJ/mol
# GULP energy per Si atom -12390.135577 kJ/mol
# Density = 1.954136 g / cm^3
# Si number density = 19.585939 Si / 1000 Ang^3
#
#
#
# Elastic Constant Matrix: (Units=GPa)
#
#
# Indices 1 2 3 4 5 6 
#
# 1 121.7702 39.7463 50.9412 0.0000 0.0000 0.0000
# 2 39.7463 61.2719 31.9392 0.0000 0.0000 0.0000
# 3 50.9412 31.9392 73.4192 0.0000 0.0000 0.0000
# 4 0.0000 0.0000 0.0000 -0.9094 0.0000 0.0000
# 5 0.0000 0.0000 0.0000 0.0000 13.6555 0.0000
# 6 0.0000 0.0000 0.0000 0.0000 0.0000 7.9768
#
#
#
# Elastic Compliance Matrix: (Units=1/GPa)
#
#
# Indices 1 2 3 4 5 6 
#
# 1 0.012516 -0.004646 -0.006663 0.000000 0.000000 0.000000
# 2 -0.004646 0.022831 -0.006709 0.000000 0.000000 0.000000
# 3 -0.006663 -0.006709 0.021162 0.000000 0.000000 0.000000
# 4 0.000000 0.000000 0.000000 -1.099609 0.000000 0.000000
# 5 0.000000 0.000000 0.000000 0.000000 0.073231 0.000000
# 6 0.000000 0.000000 0.000000 0.000000 0.000000 0.125364
#
#
# Mechanical properties :
#
#
# Convention : Reuss Voigt Hill
#
# Bulk Modulus (GPa) = 48.84210 55.74609 52.29409
# Shear Modulus (GPa) = -6.23718 13.06688 3.41485
#
# Velocity S-wave (km/s) = -1.78646 2.58574 1.32186
# Velocity P-wave (km/s) = 4.55370 6.11873 5.39328
#
# Compressibility (1/GPa) = 0.02047414
#
# Stress axis : x y z
#
# Youngs Moduli (GPa) = 79.89771 43.79927 47.25436
#
# Poissons Ratio (x) = 0.20348 0.31486
# Poissons Ratio (y) = 0.37118 0.31702
# Poissons Ratio (z) = 0.53237 0.29384
#
# Static dielectric constant tensor:
#      x y z
#    x 3.764080 0.000000 0.000000 
#    y 0.000000 3.573280 0.000000 
#    z 0.000000 0.000000 3.579180 
# 
# 
# High freq. dielectric constant tensor:
#      x y z
#    x 1.765960 0.000000 0.000000 
#    y 0.000000 1.748390 0.000000 
#    z 0.000000 0.000000 1.743310 
# 
# From -- ./inp_files/30585.got.cif
#   From: 2010.03.12/outbox.cif.g09.slc.cpg/sg51_16_cif.got.tgz:30585.got - 2010.04.16 13:43:02.
