data_PCOD8209144
_publ_section_title
;
Structure prediction by ZEFSAII (Michael W. Deem and Ramdas Pophale) SiO2 
 PCOD8209144
Probable space group: P M M A
;
_chemical_formula_sum "Si O2"
_cell_formula_units_Z 56
_cell_length_a 18.605164
_cell_length_b 14.132076
_cell_length_c 10.378117
_cell_angle_alpha 90.000000
_cell_angle_beta 90.000000
_cell_angle_gamma 90.000000
_cell_volume 2728.714065
_symmetry_space_group_name_H-M "P M M A"
_symmetry_group_IT_number 51
_symmetry_cell_setting 'orthorhombic'
loop_
_space_group_symop_operation_xyz
x,y,z
1/2-x,-y,z
1/2+x,-y,-z
-x,y,-z
-x,-y,-z
1/2+x,y,-z
1/2-x,y,z
x,-y,z
loop_
_atom_site_type_symbol
_atom_site_label
_atom_site_fract_x
_atom_site_fract_y
_atom_site_fract_z
Si Si1 0.418136 0.393381 0.640035
Si Si2 0.832636 0.608253 0.619092
Si Si3 0.665041 0.276603 0.862485
Si Si4 0.968814 0.197151 0.365666
Si Si5 0.101005 0.890669 0.258893
Si Si6 0.167439 0.110359 0.537202
Si Si7 0.167880 0.606508 0.900614
O O1 0.451775 0.500000 0.631945
O O2 0.372788 0.369200 0.513274
O O3 0.478319 0.311383 0.649670
O O4 0.369645 0.382589 0.764560
O O5 0.750000 0.633995 0.594221
O O6 0.841918 0.500000 0.660528
O O7 0.865288 0.670815 0.734857
O O8 0.750000 0.287825 0.867544
O O9 0.640624 0.167456 0.854787
O O10 0.632894 0.324389 0.991973
O O11 0.884521 0.166172 0.361947
O O12 0.000000 0.160491 0.500000
O O13 0.017633 0.143408 0.260718
O O14 0.143597 0.868355 0.390881
O O15 0.104578 0.000000 0.221485
O O16 0.250000 0.144065 0.555726
O O17 0.159704 0.000000 0.567678
O O18 0.250000 0.633482 0.876160
O O19 0.160158 0.500000 0.953884
#
# Coordination Sequence:
#
# PCOD8209144 Si02
#       7
#     8   8   8   8   8   8   8
#     4  10  20  33  51  76 106 142 181 219 262 316
#     4   9  16  27  47  78 112 141 172 212 258 310
#     4  10  19  32  54  82 109 141 181 225 271 316
#     4  10  20  34  52  76 110 149 182 218 272 330
#     4  10  20  34  52  75 104 139 181 228 276 327
#     4   9  17  30  51  80 110 140 179 227 274 321
#     4   9  18  34  55  80 112 147 181 219 267 324
#
# _framework density 20.522487999999999
#
# number of rings (size 3 to 8) (size 9 to 14) (size 15 to 20)
#    0.000    2.429    0.000    3.429    0.000    8.571 
#    0.000    2.143    0.000    4.286    0.000    0.000 
#    0.000    0.000    0.000    0.000    0.000    0.000 
#
# Total GULP energy -694206.152994 kJ/mol
# GULP energy per Si atom -12396.538446 kJ/mol
# Density = 2.047578 g / cm^3
# Si number density = 20.522488 Si / 1000 Ang^3
#
#
#
# Elastic Constant Matrix: (Units=GPa)
#
#
# Indices 1 2 3 4 5 6 
#
# 1 64.4156 21.8016 18.2291 0.0000 0.0000 0.0000
# 2 21.8016 84.4835 32.7788 0.0000 0.0000 0.0000
# 3 18.2291 32.7788 86.6125 0.0000 0.0000 0.0000
# 4 0.0000 0.0000 0.0000 22.2175 0.0000 0.0000
# 5 0.0000 0.0000 0.0000 0.0000 12.9074 0.0000
# 6 0.0000 0.0000 0.0000 0.0000 0.0000 32.2827
#
#
#
# Elastic Compliance Matrix: (Units=1/GPa)
#
#
# Indices 1 2 3 4 5 6 
#
# 1 0.017392 -0.003596 -0.002300 0.000000 0.000000 0.000000
# 2 -0.003596 0.014617 -0.004775 0.000000 0.000000 0.000000
# 3 -0.002300 -0.004775 0.013837 0.000000 0.000000 0.000000
# 4 0.000000 0.000000 0.000000 0.045010 0.000000 0.000000
# 5 0.000000 0.000000 0.000000 0.000000 0.077475 0.000000
# 6 0.000000 0.000000 0.000000 0.000000 0.000000 0.030976
#
#
# Mechanical properties :
#
#
# Convention : Reuss Voigt Hill
#
# Bulk Modulus (GPa) = 40.80822 42.34784 41.57803
# Shear Modulus (GPa) = 21.85158 24.32834 23.08996
#
# Velocity S-wave (km/s) = 3.26661 3.44677 3.35790
# Velocity P-wave (km/s) = 5.84427 6.04317 5.94455
#
# Compressibility (1/GPa) = 0.02450487
#
# Stress axis : x y z
#
# Youngs Moduli (GPa) = 57.49775 68.41208 72.27087
#
# Poissons Ratio (x) = 0.24601 0.16619
# Poissons Ratio (y) = 0.20676 0.34510
# Poissons Ratio (z) = 0.13222 0.32668
#
# Static dielectric constant tensor:
#      x y z
#    x 3.644550 0.000000 0.000000 
#    y 0.000000 3.885310 0.000000 
#    z 0.000000 0.000000 3.482910 
# 
# 
# High freq. dielectric constant tensor:
#      x y z
#    x 1.790810 0.000000 0.000000 
#    y 0.000000 1.814330 0.000000 
#    z 0.000000 0.000000 1.765030 
# 
# From -- ./inp_files/10998.got.cif
#   From: 2010.03.12/outbox.cif.g09.slc.cpg/sg51_6_cif.got.tgz:10998.got - 2010.04.16 13:43:02.
