data_PCOD8209087
_publ_section_title
;
Structure prediction by ZEFSAII (Michael W. Deem and Ramdas Pophale) SiO2 
 PCOD8209087
Probable space group: P M M A
;
_chemical_formula_sum "Si O2"
_cell_formula_units_Z 44
_cell_length_a 8.796996
_cell_length_b 28.756938
_cell_length_c 9.322042
_cell_angle_alpha 90.000000
_cell_angle_beta 90.000000
_cell_angle_gamma 90.000000
_cell_volume 2358.240485
_symmetry_space_group_name_H-M "P M M A"
_symmetry_group_IT_number 51
_symmetry_cell_setting 'orthorhombic'
loop_
_space_group_symop_operation_xyz
x,y,z
1/2-x,-y,z
1/2+x,-y,-z
-x,y,-z
-x,-y,-z
1/2+x,y,-z
1/2-x,y,z
x,-y,z
loop_
_atom_site_type_symbol
_atom_site_label
_atom_site_fract_x
_atom_site_fract_y
_atom_site_fract_z
Si Si1 0.931394 0.582911 0.157995
Si Si2 0.432370 0.500000 0.340971
Si Si3 0.428563 0.669651 0.655800
Si Si4 0.573205 0.229725 0.347447
Si Si5 0.571381 0.129970 0.344356
Si Si6 0.574309 0.947515 0.847626
O O1 0.750000 0.575864 0.151907
O O2 0.980241 0.632181 0.226743
O O3 0.007483 0.544663 0.257760
O O4 0.000000 0.579416 0.000000
O O5 0.250000 0.500000 0.347315
O O6 0.500000 0.500000 0.500000
O O7 0.500000 0.659908 0.500000
O O8 0.250000 0.666199 0.631673
O O9 0.477616 0.720691 0.721670
O O10 0.500000 0.226564 0.500000
O O11 0.750000 0.231863 0.374407
O O12 0.534115 0.180601 0.267544
O O13 0.500000 0.129137 0.500000
O O14 0.750000 0.121911 0.356370
O O15 0.501145 0.087869 0.259526
O O16 0.750000 0.935668 0.862182
O O17 0.547798 0.000000 0.791017
O O18 0.500000 0.940300 0.000000
#
# Coordination Sequence:
#
# PCOD8209087 Si02
#       6
#     8   4   8   8   8   8
#     4  11  23  39  58  82 113 148 183 222 269 317
#     4  12  25  42  63  86 112 142 180 224 267 318
#     4   9  18  33  55  80 107 139 178 220 261 310
#     4   8  15  29  49  75 105 137 172 213 260 308
#     4  10  19  32  53  79 108 139 174 217 263 312
#     4  10  21  37  55  74  99 133 173 216 264 319
#
# _framework density 18.657976999999999
#
# number of rings (size 3 to 8) (size 9 to 14) (size 15 to 20)
#    0.000    2.182    0.000    3.273    0.000    5.091 
#    0.000    0.909    0.000    2.182    0.000    0.000 
#    0.000    0.000    0.000    0.000    0.000    0.000 
#
# Total GULP energy -545078.282484 kJ/mol
# GULP energy per Si atom -12388.142784 kJ/mol
# Density = 1.861551 g / cm^3
# Si number density = 18.657977 Si / 1000 Ang^3
#
#
#
# Elastic Constant Matrix: (Units=GPa)
#
#
# Indices 1 2 3 4 5 6 
#
# 1 56.4879 86.8967 106.0383 0.0000 0.0000 0.0000
# 2 86.8967 184.5151 71.3923 0.0000 0.0000 0.0000
# 3 106.0383 71.3923 32.9550 0.0000 0.0000 0.0000
# 4 0.0000 0.0000 0.0000 -77.7329 0.0000 0.0000
# 5 0.0000 0.0000 0.0000 0.0000 29.9066 0.0000
# 6 0.0000 0.0000 0.0000 0.0000 0.0000 63.2550
#
#
#
# Elastic Compliance Matrix: (Units=1/GPa)
#
#
# Indices 1 2 3 4 5 6 
#
# 1 -0.001033 -0.004942 0.014031 0.000000 0.000000 0.000000
# 2 -0.004942 0.009852 -0.005441 0.000000 0.000000 0.000000
# 3 0.014031 -0.005441 -0.003016 0.000000 0.000000 0.000000
# 4 0.000000 0.000000 0.000000 -0.012865 0.000000 0.000000
# 5 0.000000 0.000000 0.000000 0.000000 0.033437 0.000000
# 6 0.000000 0.000000 0.000000 0.000000 0.000000 0.015809
#
#
# Mechanical properties :
#
#
# Convention : Reuss Voigt Hill
#
# Bulk Modulus (GPa) = 76.34172 89.17917 82.76044
# Shear Modulus (GPa) = 127.36708 3.72778 65.54743
#
# Velocity S-wave (km/s) = 8.27117 1.41502 5.93358
# Velocity P-wave (km/s) = 11.49877 7.11128 9.56012
#
# Compressibility (1/GPa) = 0.01309900
#
# Stress axis : x y z
#
# Youngs Moduli (GPa) = -967.96196 101.49772 -331.60336
#
# Poissons Ratio (x) = 0.50164 4.65275
# Poissons Ratio (y) = -4.78400 -1.80428
# Poissons Ratio (z) = 13.58154 0.55226
#
# Static dielectric constant tensor:
#      x y z
#    x 3.791480 0.000000 0.000000 
#    y 0.000000 4.416480 0.000000 
#    z 0.000000 0.000000 3.235630 
# 
# 
# High freq. dielectric constant tensor:
#      x y z
#    x 1.735860 0.000000 0.000000 
#    y 0.000000 1.757450 0.000000 
#    z 0.000000 0.000000 1.692200 
# 
# From -- ./inp_files/5885.got.cif
#   From: 2010.03.12/outbox.cif.g09.slc.cpg/sg51_3_cif.got.tgz:5885.got - 2010.04.16 13:43:02.
