data_PCOD8209115
_publ_section_title
;
Structure prediction by ZEFSAII (Michael W. Deem and Ramdas Pophale) SiO2 
 PCOD8209115
Probable space group: P M M A
;
_chemical_formula_sum "Si O2"
_cell_formula_units_Z 64
_cell_length_a 8.937386
_cell_length_b 15.124554
_cell_length_c 24.920743
_cell_angle_alpha 90.000000
_cell_angle_beta 90.000000
_cell_angle_gamma 90.000000
_cell_volume 3368.635945
_symmetry_space_group_name_H-M "P M M A"
_symmetry_group_IT_number 51
_symmetry_cell_setting 'orthorhombic'
loop_
_space_group_symop_operation_xyz
x,y,z
1/2-x,-y,z
1/2+x,-y,-z
-x,y,-z
-x,-y,-z
1/2+x,y,-z
1/2-x,y,z
x,-y,z
loop_
_atom_site_type_symbol
_atom_site_label
_atom_site_fract_x
_atom_site_fract_y
_atom_site_fract_z
Si Si1 0.926907 0.774967 0.650401
Si Si2 0.419123 0.346840 0.790949
Si Si3 0.073419 0.899275 0.444821
Si Si4 0.578296 0.099641 0.137934
Si Si5 0.073356 0.229236 0.055053
Si Si6 0.424725 0.825136 0.232240
Si Si7 0.079213 0.402083 0.907606
Si Si8 0.076924 0.402874 0.673857
O O1 0.750000 0.768047 0.649585
O O2 0.987391 0.836005 0.602287
O O3 0.979940 0.820749 0.705931
O O4 0.988525 0.675459 0.644144
O O5 0.250000 0.307924 0.788412
O O6 0.538490 0.268112 0.795705
O O7 0.440380 0.406540 0.843287
O O8 0.452404 0.403157 0.737736
O O9 0.250000 0.891186 0.450772
O O10 0.000000 0.866959 0.500000
O O11 0.025988 0.000000 0.431485
O O12 0.750000 0.130868 0.137062
O O13 0.482309 0.165892 0.102168
O O14 0.515925 0.101123 0.199117
O O15 0.562438 0.000000 0.116014
O O16 0.250000 0.221693 0.050516
O O17 0.029083 0.330947 0.065418
O O18 0.000000 0.195610 0.000000
O O19 0.250000 0.846341 0.228433
O O20 0.250000 0.377016 0.922487
O O21 0.038711 0.500000 0.929387
O O22 0.250000 0.388214 0.660689
O O23 0.024636 0.500000 0.652902
#
# Coordination Sequence:
#
# PCOD8209115 Si02
#       8
#     8   8   8   8   8   8   8   8
#     4   9  19  33  51  79 114 149 184 223 274 328
#     4   9  16  29  51  76 109 147 182 219 263 317
#     4   9  18  34  55  78 106 142 184 231 280 329
#     4  11  24  42  63  86 113 145 181 224 275 331
#     4  12  26  44  65  85 110 143 181 229 279 330
#     4  10  19  32  53  82 115 148 181 218 267 325
#     4  10  20  35  58  86 115 148 184 223 271 326
#     4   9  17  29  47  75 110 148 188 226 266 314
#
# _framework density 18.998788999999999
#
# number of rings (size 3 to 8) (size 9 to 14) (size 15 to 20)
#    0.000    2.125    1.250    2.250    0.000    5.000 
#    0.000    1.250    0.000    4.125    0.000    0.000 
#    0.000    0.000    0.000    0.000    0.000    0.000 
#
# Total GULP energy -793509.546667 kJ/mol
# GULP energy per Si atom -12398.586667 kJ/mol
# Density = 1.895555 g / cm^3
# Si number density = 18.998789 Si / 1000 Ang^3
#
#
#
# Elastic Constant Matrix: (Units=GPa)
#
#
# Indices 1 2 3 4 5 6 
#
# 1 82.7635 40.7871 40.4821 0.0000 0.0000 0.0000
# 2 40.7871 103.9253 54.3584 0.0000 0.0000 0.0000
# 3 40.4821 54.3584 101.8359 0.0000 0.0000 0.0000
# 4 0.0000 0.0000 0.0000 20.8093 0.0000 0.0000
# 5 0.0000 0.0000 0.0000 0.0000 28.0120 0.0000
# 6 0.0000 0.0000 0.0000 0.0000 0.0000 21.5415
#
#
#
# Elastic Compliance Matrix: (Units=1/GPa)
#
#
# Indices 1 2 3 4 5 6 
#
# 1 0.016191 -0.004145 -0.004224 0.000000 0.000000 0.000000
# 2 -0.004145 0.014411 -0.006044 0.000000 0.000000 0.000000
# 3 -0.004224 -0.006044 0.014725 0.000000 0.000000 0.000000
# 4 0.000000 0.000000 0.000000 0.048056 0.000000 0.000000
# 5 0.000000 0.000000 0.000000 0.000000 0.035699 0.000000
# 6 0.000000 0.000000 0.000000 0.000000 0.000000 0.046422
#
#
# Mechanical properties :
#
#
# Convention : Reuss Voigt Hill
#
# Bulk Modulus (GPa) = 60.60451 62.19777 61.40114
# Shear Modulus (GPa) = 23.82873 24.26571 24.04722
#
# Velocity S-wave (km/s) = 3.54534 3.57770 3.56156
# Velocity P-wave (km/s) = 6.98052 7.06226 7.02151
#
# Compressibility (1/GPa) = 0.01650042
#
# Stress axis : x y z
#
# Youngs Moduli (GPa) = 61.76092 69.39287 67.91111
#
# Poissons Ratio (x) = 0.28766 0.28684
# Poissons Ratio (y) = 0.25602 0.41048
# Poissons Ratio (z) = 0.26086 0.41943
#
# Static dielectric constant tensor:
#      x y z
#    x 3.396220 0.000000 0.000000 
#    y 0.000000 3.477570 0.000000 
#    z 0.000000 0.000000 3.500470 
# 
# 
# High freq. dielectric constant tensor:
#      x y z
#    x 1.732150 0.000000 0.000000 
#    y 0.000000 1.735770 0.000000 
#    z 0.000000 0.000000 1.723280 
# 
# From -- ./inp_files/34933.got.cif
#   From: 2010.03.12/outbox.cif.g09.slc.cpg/sg51_18_cif.got.tgz:34933.got - 2010.04.16 13:43:02.
