data_PCOD8209716
_publ_section_title
;
Structure prediction by ZEFSAII (Michael W. Deem and Ramdas Pophale) SiO2 
 PCOD8209716
Probable space group: P M M A
;
_chemical_formula_sum "Si O2"
_cell_formula_units_Z 64
_cell_length_a 9.383329
_cell_length_b 15.240893
_cell_length_c 23.401120
_cell_angle_alpha 90.000000
_cell_angle_beta 90.000000
_cell_angle_gamma 90.000000
_cell_volume 3346.601502
_symmetry_space_group_name_H-M "P M M A"
_symmetry_group_IT_number 51
_symmetry_cell_setting 'orthorhombic'
loop_
_space_group_symop_operation_xyz
x,y,z
1/2-x,-y,z
1/2+x,-y,-z
-x,y,-z
-x,-y,-z
1/2+x,y,-z
1/2-x,y,z
x,-y,z
loop_
_atom_site_type_symbol
_atom_site_label
_atom_site_fract_x
_atom_site_fract_y
_atom_site_fract_z
Si Si1 0.584527 0.599422 0.057432
Si Si2 0.406242 0.897847 0.448627
Si Si3 0.588091 0.406807 0.238193
Si Si4 0.589327 0.683013 0.349617
Si Si5 0.914830 0.098503 0.801682
Si Si6 0.411432 0.402296 0.443076
Si Si7 0.915436 0.158640 0.676875
Si Si8 0.581540 0.263440 0.155796
O O1 0.750000 0.605608 0.042786
O O2 0.549771 0.500000 0.081003
O O3 0.541921 0.678318 0.100345
O O4 0.500000 0.618137 0.000000
O O5 0.500000 0.854361 0.500000
O O6 0.250000 0.854775 0.454028
O O7 0.462827 0.885584 0.383559
O O8 0.396796 0.000000 0.460836
O O9 0.750000 0.410445 0.215070
O O10 0.512886 0.500000 0.223015
O O11 0.587606 0.398931 0.306722
O O12 0.518425 0.323172 0.207527
O O13 0.750000 0.702580 0.370898
O O14 0.484942 0.667488 0.402226
O O15 0.524027 0.762186 0.313594
O O16 0.750000 0.117875 0.814629
O O17 0.941290 0.099438 0.732916
O O18 0.003803 0.169283 0.838945
O O19 0.956833 0.000000 0.821987
O O20 0.500000 0.402320 0.500000
O O21 0.250000 0.372186 0.454977
O O22 0.414676 0.500000 0.416176
O O23 0.750000 0.187951 0.673913
O O24 0.750000 0.244787 0.159794
#
# Coordination Sequence:
#
# PCOD8209716 Si02
#       8
#     8   8   8   8   8   8   8   8
#     4   9  18  33  56  87 124 163 198 231 272 325
#     4   9  18  33  52  72  93 121 160 209 268 334
#     4   9  17  30  50  76 107 142 177 215 264 322
#     4  11  21  33  51  75 104 135 172 216 266 325
#     4  10  21  37  57  80 109 148 191 238 294 347
#     4  10  21  37  55  73  95 127 171 221 271 326
#     4  10  20  35  53  72 101 137 177 223 275 335
#     4  10  19  34  56  84 115 148 190 235 277 324
#
# _framework density 19.123878000000001
#
# number of rings (size 3 to 8) (size 9 to 14) (size 15 to 20)
#    0.000    2.250    1.250    1.875    0.000    6.000 
#    0.000    1.250    0.000    4.500    0.000    0.000 
#    0.000    0.000    0.000    0.000    0.000    0.000 
#
# Total GULP energy -792877.514187 kJ/mol
# GULP energy per Si atom -12388.711159 kJ/mol
# Density = 1.908035 g / cm^3
# Si number density = 19.123878 Si / 1000 Ang^3
#
#
#
# Elastic Constant Matrix: (Units=GPa)
#
#
# Indices 1 2 3 4 5 6 
#
# 1 90.5365 50.3288 44.5482 0.0000 0.0000 0.0000
# 2 50.3288 119.1750 43.1025 0.0000 0.0000 0.0000
# 3 44.5482 43.1025 92.6034 0.0000 0.0000 0.0000
# 4 0.0000 0.0000 0.0000 25.6666 0.0000 0.0000
# 5 0.0000 0.0000 0.0000 0.0000 27.8764 0.0000
# 6 0.0000 0.0000 0.0000 0.0000 0.0000 27.3631
#
#
#
# Elastic Compliance Matrix: (Units=1/GPa)
#
#
# Indices 1 2 3 4 5 6 
#
# 1 0.016592 -0.004954 -0.005676 0.000000 0.000000 0.000000
# 2 -0.004954 0.011569 -0.003001 0.000000 0.000000 0.000000
# 3 -0.005676 -0.003001 0.014926 0.000000 0.000000 0.000000
# 4 0.000000 0.000000 0.000000 0.038961 0.000000 0.000000
# 5 0.000000 0.000000 0.000000 0.000000 0.035873 0.000000
# 6 0.000000 0.000000 0.000000 0.000000 0.000000 0.036546
#
#
# Mechanical properties :
#
#
# Convention : Reuss Voigt Hill
#
# Bulk Modulus (GPa) = 63.19503 64.25266 63.72384
# Shear Modulus (GPa) = 26.73736 27.13690 26.93713
#
# Velocity S-wave (km/s) = 3.74319 3.77106 3.75715
# Velocity P-wave (km/s) = 7.19714 7.25481 7.22603
#
# Compressibility (1/GPa) = 0.01582403
#
# Stress axis : x y z
#
# Youngs Moduli (GPa) = 60.26970 86.43967 66.99601
#
# Poissons Ratio (x) = 0.42824 0.38026
# Poissons Ratio (y) = 0.29859 0.20108
# Poissons Ratio (z) = 0.34209 0.25944
#
# Static dielectric constant tensor:
#      x y z
#    x 3.438770 0.000000 0.000000 
#    y 0.000000 3.555690 0.000000 
#    z 0.000000 0.000000 3.370810 
# 
# 
# High freq. dielectric constant tensor:
#      x y z
#    x 1.727490 0.000000 0.000000 
#    y 0.000000 1.742200 0.000000 
#    z 0.000000 0.000000 1.728270 
# 
# From -- ./inp_files/34956.got.cif
#   From: 2010.03.12/outbox.cif.g09.slc.cpg/sg51_18_cif.got.tgz:34956.got - 2010.04.16 13:43:02.
