data_PCOD8209034
_publ_section_title
;
Structure prediction by ZEFSAII (Michael W. Deem and Ramdas Pophale) SiO2 
 PCOD8209034
Probable space group: P M M A
;
_chemical_formula_sum "Si O2"
_cell_formula_units_Z 56
_cell_length_a 14.183856
_cell_length_b 9.243900
_cell_length_c 23.201650
_cell_angle_alpha 90.000000
_cell_angle_beta 90.000000
_cell_angle_gamma 90.000000
_cell_volume 3042.064537
_symmetry_space_group_name_H-M "P M M A"
_symmetry_group_IT_number 51
_symmetry_cell_setting 'orthorhombic'
loop_
_space_group_symop_operation_xyz
x,y,z
1/2-x,-y,z
1/2+x,-y,-z
-x,y,-z
-x,-y,-z
1/2+x,y,-z
1/2-x,y,z
x,-y,z
loop_
_atom_site_type_symbol
_atom_site_label
_atom_site_fract_x
_atom_site_fract_y
_atom_site_fract_z
Si Si1 0.045132 0.171403 0.087087
Si Si2 0.144546 0.170939 0.969952
Si Si3 0.460870 0.669110 0.306872
Si Si4 0.144832 0.666935 0.636082
Si Si5 0.606208 0.162633 0.479756
Si Si6 0.640302 0.328276 0.806856
Si Si7 0.352464 0.659637 0.414140
O O1 0.085883 0.255749 0.140902
O O2 0.935454 0.219100 0.076377
O O3 0.051614 0.000000 0.097540
O O4 0.109334 0.219001 0.033007
O O5 0.250000 0.236198 0.957184
O O6 0.151066 0.000000 0.968589
O O7 0.436996 0.500000 0.307062
O O8 0.573346 0.700353 0.310691
O O9 0.412496 0.734605 0.249992
O O10 0.417625 0.736066 0.365802
O O11 0.250000 0.702638 0.658221
O O12 0.135404 0.500000 0.617276
O O13 0.119382 0.762066 0.581247
O O14 0.500000 0.166177 0.500000
O O15 0.662427 0.246594 0.528747
O O16 0.645068 0.000000 0.474558
O O17 0.750000 0.282008 0.805579
O O18 0.629861 0.500000 0.812348
O O19 0.250000 0.643871 0.385349
O O20 0.392535 0.500000 0.430795
#
# Coordination Sequence:
#
# PCOD8209034 Si02
#       7
#     8   8   8   8   8   8   8
#     4   9  17  30  51  78 104 134 174 215 250 289
#     4   8  14  27  49  76 106 139 173 209 250 295
#     4   9  18  34  53  71  95 125 161 204 241 284
#     4  10  20  35  56  76  92 121 166 207 244 291
#     4  11  22  34  49  72 102 131 154 187 245 306
#     4  10  20  34  52  74 102 136 168 202 253 307
#     4  10  19  32  53  75  92 119 160 200 239 287
#
# _framework density 18.408550000000002
#
# number of rings (size 3 to 8) (size 9 to 14) (size 15 to 20)
#    0.000    2.429    1.429    2.571    0.000    5.429 
#    0.000    3.571    0.000    3.857    0.000    0.000 
#    0.000    0.000    0.000    0.000    0.000    0.000 
#
# Total GULP energy -693917.190007 kJ/mol
# GULP energy per Si atom -12391.378393 kJ/mol
# Density = 1.836665 g / cm^3
# Si number density = 18.408550 Si / 1000 Ang^3
#
#
#
# Elastic Constant Matrix: (Units=GPa)
#
#
# Indices 1 2 3 4 5 6 
#
# 1 165.0474 32.4001 73.1444 0.0000 0.0000 0.0000
# 2 32.4001 48.5165 36.5679 0.0000 0.0000 0.0000
# 3 73.1444 36.5679 122.4622 0.0000 0.0000 0.0000
# 4 0.0000 0.0000 0.0000 -183.2199 0.0000 0.0000
# 5 0.0000 0.0000 0.0000 0.0000 27.8060 0.0000
# 6 0.0000 0.0000 0.0000 0.0000 0.0000 2.0312
#
#
#
# Elastic Compliance Matrix: (Units=1/GPa)
#
#
# Indices 1 2 3 4 5 6 
#
# 1 0.008446 -0.002372 -0.004337 0.000000 0.000000 0.000000
# 2 -0.002372 0.027264 -0.006724 0.000000 0.000000 0.000000
# 3 -0.004337 -0.006724 0.012764 0.000000 0.000000 0.000000
# 4 0.000000 0.000000 0.000000 -0.005458 0.000000 0.000000
# 5 0.000000 0.000000 0.000000 0.000000 0.035963 0.000000
# 6 0.000000 0.000000 0.000000 0.000000 0.000000 0.492311
#
#
# Mechanical properties :
#
#
# Convention : Reuss Voigt Hill
#
# Bulk Modulus (GPa) = 46.27874 68.91678 57.59776
# Shear Modulus (GPa) = 8.25955 -17.74894 -4.74469
#
# Velocity S-wave (km/s) = 2.12051 -3.10847 -1.60718
# Velocity P-wave (km/s) = 5.58478 4.96338 5.28323
#
# Compressibility (1/GPa) = 0.02160819
#
# Stress axis : x y z
#
# Youngs Moduli (GPa) = 118.39429 36.67845 78.34629
#
# Poissons Ratio (x) = 0.08700 0.33975
# Poissons Ratio (y) = 0.28084 0.52683
# Poissons Ratio (z) = 0.51342 0.24664
#
# Static dielectric constant tensor:
#      x y z
#    x 3.487830 0.000000 0.000000 
#    y 0.000000 3.128220 0.000000 
#    z 0.000000 0.000000 3.301310 
# 
# 
# High freq. dielectric constant tensor:
#      x y z
#    x 1.737540 0.000000 0.000000 
#    y 0.000000 1.675910 0.000000 
#    z 0.000000 0.000000 1.692970 
# 
# From -- ./inp_files/33299.got.cif
#   From: 2010.03.12/outbox.cif.g09.slc.cpg/sg51_17_cif.got.tgz:33299.got - 2010.04.16 13:43:02.
