data_PCOD8209291
_publ_section_title
;
Structure prediction by ZEFSAII (Michael W. Deem and Ramdas Pophale) SiO2 
 PCOD8209291
Probable space group: P M M A
;
_chemical_formula_sum "Si O2"
_cell_formula_units_Z 40
_cell_length_a 10.242870
_cell_length_b 22.889759
_cell_length_c 9.381185
_cell_angle_alpha 90.000000
_cell_angle_beta 90.000000
_cell_angle_gamma 90.000000
_cell_volume 2199.482857
_symmetry_space_group_name_H-M "P M M A"
_symmetry_group_IT_number 51
_symmetry_cell_setting 'orthorhombic'
loop_
_space_group_symop_operation_xyz
x,y,z
1/2-x,-y,z
1/2+x,-y,-z
-x,y,-z
-x,-y,-z
1/2+x,y,-z
1/2-x,y,z
x,-y,z
loop_
_atom_site_type_symbol
_atom_site_label
_atom_site_fract_x
_atom_site_fract_y
_atom_site_fract_z
Si Si1 0.750000 0.739519 0.162862
Si Si2 0.004796 0.934204 0.169902
Si Si3 0.750000 0.869691 0.167424
Si Si4 0.750000 0.729481 0.825057
Si Si5 0.750000 0.138405 0.827257
Si Si6 0.008053 0.335875 0.831521
Si Si7 0.097942 0.432113 0.627541
O O1 0.750000 0.804226 0.228491
O O2 0.620712 0.708107 0.218403
O O3 0.750000 0.737812 0.993269
O O4 0.873630 0.904549 0.227445
O O5 0.123522 0.895684 0.229627
O O6 0.017347 0.000000 0.229229
O O7 0.000000 0.935200 0.000000
O O8 0.750000 0.863812 0.997550
O O9 0.750000 0.795693 0.763917
O O10 0.625280 0.692567 0.772873
O O11 0.041870 0.398305 0.764211
O O12 0.000000 0.345389 0.000000
O O13 0.250000 0.415913 0.592793
O O14 0.087192 0.500000 0.665343
O O15 0.000000 0.415389 0.500000
#
# Coordination Sequence:
#
# PCOD8209291 Si02
#       7
#     4   8   4   4   4   8   8
#     4   9  16  29  44  65  93 128 164 211 260 302
#     4   9  15  21  30  46  71 109 159 207 243 282
#     4   9  15  22  35  50  76 111 156 205 250 290
#     4   9  18  27  44  69  95 124 166 209 254 304
#     4   9  15  24  33  50  78 115 154 201 246 290
#     4  10  19  33  53  77 104 133 171 216 256 299
#     4  10  22  40  59  79 105 137 172 208 251 307
#
# _framework density 18.186095000000002
#
# number of rings (size 3 to 8) (size 9 to 14) (size 15 to 20)
#    0.000    2.600    1.000    1.800    1.400    7.600 
#    0.000    0.000    0.000    0.000    0.000    0.000 
#    0.000    0.000    0.000    0.000    0.000   70.000 
#
# Total GULP energy -495835.066482 kJ/mol
# GULP energy per Si atom -12395.876662 kJ/mol
# Density = 1.814470 g / cm^3
# Si number density = 18.186095 Si / 1000 Ang^3
#
#
#
# Elastic Constant Matrix: (Units=GPa)
#
#
# Indices 1 2 3 4 5 6 
#
# 1 190.7515 81.6522 28.5311 0.0000 0.0000 0.0000
# 2 81.6522 134.7826 34.7106 0.0000 0.0000 0.0000
# 3 28.5311 34.7106 24.0820 0.0000 0.0000 0.0000
# 4 0.0000 0.0000 0.0000 2.6702 0.0000 0.0000
# 5 0.0000 0.0000 0.0000 0.0000 12.6220 0.0000
# 6 0.0000 0.0000 0.0000 0.0000 0.0000 38.3994
#
#
#
# Elastic Compliance Matrix: (Units=1/GPa)
#
#
# Indices 1 2 3 4 5 6 
#
# 1 0.007269 -0.003476 -0.003602 0.000000 0.000000 0.000000
# 2 -0.003476 0.013461 -0.015284 0.000000 0.000000 0.000000
# 3 -0.003602 -0.015284 0.067822 0.000000 0.000000 0.000000
# 4 0.000000 0.000000 0.000000 0.374505 0.000000 0.000000
# 5 0.000000 0.000000 0.000000 0.000000 0.079227 0.000000
# 6 0.000000 0.000000 0.000000 0.000000 0.000000 0.026042
#
#
# Mechanical properties :
#
#
# Convention : Reuss Voigt Hill
#
# Bulk Modulus (GPa) = 22.81634 71.04487 46.93061
# Shear Modulus (GPa) = 7.96610 24.38648 16.17629
#
# Velocity S-wave (km/s) = 2.09519 3.66586 2.98566
# Velocity P-wave (km/s) = 4.29260 7.55436 6.14389
#
# Compressibility (1/GPa) = 0.04382823
#
# Stress axis : x y z
#
# Youngs Moduli (GPa) = 137.56835 74.28670 14.74448
#
# Poissons Ratio (x) = 0.25823 0.05311
# Poissons Ratio (y) = 0.47820 0.22536
# Poissons Ratio (z) = 0.49549 1.13542
#
# Static dielectric constant tensor:
#      x y z
#    x 3.696510 0.000000 0.000000 
#    y 0.000000 3.525200 0.000000 
#    z 0.000000 0.000000 2.618630 
# 
# 
# High freq. dielectric constant tensor:
#      x y z
#    x 1.728660 0.000000 0.000000 
#    y 0.000000 1.720500 0.000000 
#    z 0.000000 0.000000 1.620620 
# 
# From -- ./inp_files/7000.got.cif
#   From: 2010.03.12/outbox.cif.g09.slc.cpg/sg51_4_cif.got.tgz:7000.got - 2010.04.16 13:43:02.
