data_PCOD8209845
_publ_section_title
;
Structure prediction by ZEFSAII (Michael W. Deem and Ramdas Pophale) SiO2 
 PCOD8209845
Probable space group: P M M A
;
_chemical_formula_sum "Si O2"
_cell_formula_units_Z 48
_cell_length_a 18.296425
_cell_length_b 10.244886
_cell_length_c 13.694063
_cell_angle_alpha 90.000000
_cell_angle_beta 90.000000
_cell_angle_gamma 90.000000
_cell_volume 2566.880740
_symmetry_space_group_name_H-M "P M M A"
_symmetry_group_IT_number 51
_symmetry_cell_setting 'orthorhombic'
loop_
_space_group_symop_operation_xyz
x,y,z
1/2-x,-y,z
1/2+x,-y,-z
-x,y,-z
-x,-y,-z
1/2+x,y,-z
1/2-x,y,z
x,-y,z
loop_
_atom_site_type_symbol
_atom_site_label
_atom_site_fract_x
_atom_site_fract_y
_atom_site_fract_z
Si Si1 0.886877 0.235816 0.330092
Si Si2 0.922663 0.752924 0.943027
Si Si3 0.671463 0.000000 0.225857
Si Si4 0.834087 0.500000 0.240869
Si Si5 0.837827 0.000000 0.015650
Si Si6 0.454598 0.153002 0.264773
Si Si7 0.164198 0.500000 0.990507
Si Si8 0.584274 0.855023 0.527446
O O1 0.830701 0.130438 0.289560
O O2 0.874230 0.376499 0.285807
O O3 0.878297 0.241874 0.448490
O O4 0.962993 0.177718 0.295193
O O5 0.935478 0.755762 0.826495
O O6 0.877515 0.624208 0.967535
O O7 0.870308 0.872558 0.965985
O O8 0.000000 0.757684 0.000000
O O9 0.750000 0.000000 0.176126
O O10 0.625678 0.000000 0.125133
O O11 0.750000 0.500000 0.272612
O O12 0.843373 0.500000 0.125618
O O13 0.750000 0.000000 0.002385
O O14 0.405051 0.191545 0.359896
O O15 0.445254 0.000000 0.239026
O O16 0.250000 0.500000 0.020663
O O17 0.500000 0.861409 0.500000
O O18 0.617975 0.000000 0.515482
#
# Coordination Sequence:
#
# PCOD8209845 Si02
#       8
#     8   8   4   4   4   8   4   8
#     4  11  19  35  57  82 114 148 184 235 296 343
#     4  12  23  37  62  91 119 151 202 259 295 334
#     4  11  20  31  53  79 103 142 197 238 276 345
#     4  11  24  39  55  79 115 156 191 234 290 349
#     4  11  23  37  54  83 120 158 193 238 301 359
#     4  10  19  34  59  90 118 144 184 244 301 339
#     4  11  25  45  60  79 120 170 201 228 295 379
#     4   8  15  31  55  83 111 143 175 221 293 360
#
# _framework density 18.699739999999998
#
# number of rings (size 3 to 8) (size 9 to 14) (size 15 to 20)
#    0.000    1.500    2.500    5.500    0.000    3.333 
#    0.000    4.583    0.000    6.000    0.000    0.000 
#    0.000    0.000    0.000    0.000    0.000    0.000 
#
# Total GULP energy -594735.607482 kJ/mol
# GULP energy per Si atom -12390.325156 kJ/mol
# Density = 1.865718 g / cm^3
# Si number density = 18.699740 Si / 1000 Ang^3
#
#
#
# Elastic Constant Matrix: (Units=GPa)
#
#
# Indices 1 2 3 4 5 6 
#
# 1 69.2026 28.0560 33.9758 0.0000 0.0000 0.0000
# 2 28.0560 115.5611 43.3699 0.0000 0.0000 0.0000
# 3 33.9758 43.3699 158.2882 0.0000 0.0000 0.0000
# 4 0.0000 0.0000 0.0000 49.7650 0.0000 0.0000
# 5 0.0000 0.0000 0.0000 0.0000 19.9895 0.0000
# 6 0.0000 0.0000 0.0000 0.0000 0.0000 16.7011
#
#
#
# Elastic Compliance Matrix: (Units=1/GPa)
#
#
# Indices 1 2 3 4 5 6 
#
# 1 0.017088 -0.003090 -0.002821 0.000000 0.000000 0.000000
# 2 -0.003090 0.010204 -0.002133 0.000000 0.000000 0.000000
# 3 -0.002821 -0.002133 0.007507 0.000000 0.000000 0.000000
# 4 0.000000 0.000000 0.000000 0.020094 0.000000 0.000000
# 5 0.000000 0.000000 0.000000 0.000000 0.050026 0.000000
# 6 0.000000 0.000000 0.000000 0.000000 0.000000 0.059876
#
#
# Mechanical properties :
#
#
# Convention : Reuss Voigt Hill
#
# Bulk Modulus (GPa) = 53.44129 61.53947 57.49038
# Shear Modulus (GPa) = 26.72059 33.13446 29.92753
#
# Velocity S-wave (km/s) = 3.78422 4.21399 4.00487
# Velocity P-wave (km/s) = 6.90901 7.52713 7.22468
#
# Compressibility (1/GPa) = 0.01871212
#
# Stress axis : x y z
#
# Youngs Moduli (GPa) = 58.52008 98.00138 133.20048
#
# Poissons Ratio (x) = 0.30281 0.37580
# Poissons Ratio (y) = 0.18082 0.28406
# Poissons Ratio (z) = 0.16510 0.20900
#
# Static dielectric constant tensor:
#      x y z
#    x 3.340000 0.000000 0.000000 
#    y 0.000000 3.317570 0.000000 
#    z 0.000000 0.000000 3.954940 
# 
# 
# High freq. dielectric constant tensor:
#      x y z
#    x 1.706710 0.000000 0.000000 
#    y 0.000000 1.714880 0.000000 
#    z 0.000000 0.000000 1.744450 
# 
# From -- ./inp_files/25019.got.cif
#   From: 2010.03.12/outbox.cif.g09.slc.cpg/sg51_13_cif.got.tgz:25019.got - 2010.04.16 13:43:02.
