data_PCOD8209852
_publ_section_title
;
Structure prediction by ZEFSAII (Michael W. Deem and Ramdas Pophale) SiO2 
 PCOD8209852
Probable space group: P M M A
;
_chemical_formula_sum "Si O2"
_cell_formula_units_Z 32
_cell_length_a 23.673983
_cell_length_b 9.275317
_cell_length_c 7.610011
_cell_angle_alpha 90.000000
_cell_angle_beta 90.000000
_cell_angle_gamma 90.000000
_cell_volume 1671.034349
_symmetry_space_group_name_H-M "P M M A"
_symmetry_group_IT_number 51
_symmetry_cell_setting 'orthorhombic'
loop_
_space_group_symop_operation_xyz
x,y,z
1/2-x,-y,z
1/2+x,-y,-z
-x,y,-z
-x,-y,-z
1/2+x,y,-z
1/2-x,y,z
x,-y,z
loop_
_atom_site_type_symbol
_atom_site_label
_atom_site_fract_x
_atom_site_fract_y
_atom_site_fract_z
Si Si1 0.934001 0.334123 0.497644
Si Si2 0.129071 0.168083 0.805164
Si Si3 0.250000 0.669443 0.302719
Si Si4 0.631420 0.332026 0.849203
Si Si5 0.250000 0.835321 0.662607
O O1 0.920667 0.500000 0.449588
O O2 0.905405 0.232101 0.356223
O O3 0.909654 0.295565 0.688335
O O4 0.000000 0.302486 0.500000
O O5 0.195447 0.198951 0.779985
O O6 0.115387 0.000000 0.817589
O O7 0.109109 0.243207 0.984478
O O8 0.250000 0.500000 0.333942
O O9 0.194774 0.719186 0.197086
O O10 0.250000 0.736292 0.493921
O O11 0.629799 0.500000 0.897559
O O12 0.250000 0.000000 0.597369
#
# Coordination Sequence:
#
# PCOD8209852 Si02
#       5
#     8   8   4   8   4
#     4  10  22  41  63  85 113 152 198 247 293 338
#     4  11  23  38  59  87 119 155 191 233 289 350
#     4  10  19  34  60  89 113 147 193 239 287 340
#     4  10  21  37  59  87 116 148 190 239 289 342
#     4  10  21  36  56  85 119 153 185 227 289 350
#
# _framework density 19.149816999999999
#
# number of rings (size 3 to 8) (size 9 to 14) (size 15 to 20)
#    0.000    1.750    2.500    1.500    0.000    4.500 
#    0.000    5.000    0.000    0.000    0.000    0.000 
#    0.000    0.000    0.000    0.000    0.000    0.000 
#
# Total GULP energy -396964.588352 kJ/mol
# GULP energy per Si atom -12405.143386 kJ/mol
# Density = 1.910623 g / cm^3
# Si number density = 19.149817 Si / 1000 Ang^3
#
#
#
# Elastic Constant Matrix: (Units=GPa)
#
#
# Indices 1 2 3 4 5 6 
#
# 1 108.2455 47.2550 49.6381 0.0000 0.0000 0.0000
# 2 47.2550 84.8480 73.4019 0.0000 0.0000 0.0000
# 3 49.6381 73.4019 129.0465 0.0000 0.0000 0.0000
# 4 0.0000 0.0000 0.0000 -17.6835 0.0000 0.0000
# 5 0.0000 0.0000 0.0000 0.0000 -108.3917 0.0000
# 6 0.0000 0.0000 0.0000 0.0000 0.0000 20.6683
#
#
#
# Elastic Compliance Matrix: (Units=1/GPa)
#
#
# Indices 1 2 3 4 5 6 
#
# 1 0.012383 -0.005465 -0.001655 0.000000 0.000000 0.000000
# 2 -0.005465 0.025616 -0.012468 0.000000 0.000000 0.000000
# 3 -0.001655 -0.012468 0.015477 0.000000 0.000000 0.000000
# 4 0.000000 0.000000 0.000000 -0.056550 0.000000 0.000000
# 5 0.000000 0.000000 0.000000 0.000000 -0.009226 0.000000
# 6 0.000000 0.000000 0.000000 0.000000 0.000000 0.048383
#
#
# Mechanical properties :
#
#
# Convention : Reuss Voigt Hill
#
# Bulk Modulus (GPa) = 69.92779 73.63666 71.78223
# Shear Modulus (GPa) = 62.48005 -10.95839 25.76083
#
# Velocity S-wave (km/s) = 5.71820 -2.39476 3.67171
# Velocity P-wave (km/s) = 8.95503 5.55787 7.45260
#
# Compressibility (1/GPa) = 0.01430047
#
# Stress axis : x y z
#
# Youngs Moduli (GPa) = 80.75722 39.03880 64.61048
#
# Poissons Ratio (x) = 0.21335 0.10690
# Poissons Ratio (y) = 0.44135 0.80556
# Poissons Ratio (z) = 0.13361 0.48674
#
# Static dielectric constant tensor:
#      x y z
#    x 3.595640 0.000000 0.000000 
#    y 0.000000 3.462750 0.000000 
#    z 0.000000 0.000000 3.418070 
# 
# 
# High freq. dielectric constant tensor:
#      x y z
#    x 1.747270 0.000000 0.000000 
#    y 0.000000 1.741660 0.000000 
#    z 0.000000 0.000000 1.752000 
# 
# From -- ./inp_files/2891.got.cif
#   From: 2010.03.12/outbox.cif.g09.slc.cpg/sg51_2_cif.got.tgz:2891.got - 2010.04.16 13:43:02.
