data_PCOD8209271
_publ_section_title
;
Structure prediction by ZEFSAII (Michael W. Deem and Ramdas Pophale) SiO2 
 PCOD8209271
Probable space group: P M M A
;
_chemical_formula_sum "Si O2"
_cell_formula_units_Z 56
_cell_length_a 15.387902
_cell_length_b 18.556863
_cell_length_c 10.304650
_cell_angle_alpha 90.000000
_cell_angle_beta 90.000000
_cell_angle_gamma 90.000000
_cell_volume 2942.505063
_symmetry_space_group_name_H-M "P M M A"
_symmetry_group_IT_number 51
_symmetry_cell_setting 'orthorhombic'
loop_
_space_group_symop_operation_xyz
x,y,z
1/2-x,-y,z
1/2+x,-y,-z
-x,y,-z
-x,-y,-z
1/2+x,y,-z
1/2-x,y,z
x,-y,z
loop_
_atom_site_type_symbol
_atom_site_label
_atom_site_fract_x
_atom_site_fract_y
_atom_site_fract_z
Si Si1 0.350265 0.817227 0.342489
Si Si2 0.400739 0.584141 0.496953
Si Si3 0.849238 0.660424 0.249870
Si Si4 0.502139 0.080193 0.346215
Si Si5 0.354242 0.418201 0.002015
Si Si6 0.348849 0.333810 0.246667
Si Si7 0.149632 0.188221 0.648415
O O1 0.250000 0.836503 0.308354
O O2 0.412942 0.882197 0.298233
O O3 0.386088 0.746586 0.267284
O O4 0.359040 0.800627 0.494763
O O5 0.500000 0.609239 0.500000
O O6 0.390194 0.500000 0.476065
O O7 0.356430 0.605748 0.630996
O O8 0.353137 0.621700 0.378481
O O9 0.750000 0.673792 0.216772
O O10 0.887808 0.738984 0.284779
O O11 0.892716 0.623836 0.123496
O O12 0.500000 0.075343 0.500000
O O13 0.588339 0.123437 0.301748
O O14 0.506380 0.000000 0.285539
O O15 0.250000 0.419936 0.001716
O O16 0.389987 0.500000 0.001832
O O17 0.393593 0.377118 0.128285
O O18 0.250000 0.323498 0.207341
O O19 0.250000 0.171330 0.685564
#
# Coordination Sequence:
#
# PCOD8209271 Si02
#       7
#     8   8   8   8   8   8   8
#     4   9  17  29  48  75 102 133 174 215 255 310
#     4  11  23  33  47  73 101 134 175 218 266 316
#     4  10  19  33  53  75  99 135 177 218 266 312
#     4   9  18  30  48  75 106 139 163 199 265 319
#     4   9  18  32  51  75 103 134 174 225 270 312
#     4  10  19  33  53  75  99 135 177 218 266 312
#     4   9  17  29  48  75 102 133 174 215 255 310
#
# _framework density 19.031403999999998
#
# number of rings (size 3 to 8) (size 9 to 14) (size 15 to 20)
#    0.000    2.429    1.429    1.286    2.000    2.857 
#    0.000    3.571    0.000    2.571    0.000    2.000 
#    0.000    5.714    0.000    0.000    0.000    0.000 
#
# Total GULP energy -694148.589999 kJ/mol
# GULP energy per Si atom -12395.510536 kJ/mol
# Density = 1.898809 g / cm^3
# Si number density = 19.031404 Si / 1000 Ang^3
#
#
#
# Elastic Constant Matrix: (Units=GPa)
#
#
# Indices 1 2 3 4 5 6 
#
# 1 67.4161 53.4483 11.1525 0.0000 0.0000 0.0000
# 2 53.4483 148.8770 38.4043 0.0000 0.0000 0.0000
# 3 11.1525 38.4043 85.0364 0.0000 0.0000 0.0000
# 4 0.0000 0.0000 0.0000 19.7056 0.0000 0.0000
# 5 0.0000 0.0000 0.0000 0.0000 -3.6656 0.0000
# 6 0.0000 0.0000 0.0000 0.0000 0.0000 39.6899
#
#
#
# Elastic Compliance Matrix: (Units=1/GPa)
#
#
# Indices 1 2 3 4 5 6 
#
# 1 0.020775 -0.007646 0.000729 0.000000 0.000000 0.000000
# 2 -0.007646 0.010417 -0.003702 0.000000 0.000000 0.000000
# 3 0.000729 -0.003702 0.013336 0.000000 0.000000 0.000000
# 4 0.000000 0.000000 0.000000 0.050747 0.000000 0.000000
# 5 0.000000 0.000000 0.000000 0.000000 -0.272805 0.000000
# 6 0.000000 0.000000 0.000000 0.000000 0.000000 0.025195
#
#
# Mechanical properties :
#
#
# Convention : Reuss Voigt Hill
#
# Bulk Modulus (GPa) = 42.93898 56.37105 49.65502
# Shear Modulus (GPa) = -40.54043 24.36760 -8.08641
#
# Velocity S-wave (km/s) = -4.62040 3.58213 -2.06354
# Velocity P-wave (km/s) = 2.41929 6.84056 4.52439
#
# Compressibility (1/GPa) = 0.02328886
#
# Stress axis : x y z
#
# Youngs Moduli (GPa) = 48.13524 95.99740 74.98564
#
# Poissons Ratio (x) = 0.73403 -0.05464
# Poissons Ratio (y) = 0.36806 0.27758
# Poissons Ratio (z) = -0.03507 0.35535
#
# Static dielectric constant tensor:
#      x y z
#    x 3.438600 0.000000 0.000000 
#    y 0.000000 3.721650 0.000000 
#    z 0.000000 0.000000 3.377020 
# 
# 
# High freq. dielectric constant tensor:
#      x y z
#    x 1.731530 0.000000 0.000000 
#    y 0.000000 1.740800 0.000000 
#    z 0.000000 0.000000 1.704050 
# 
# From -- ./inp_files/8585.got.cif
#   From: 2010.03.12/outbox.cif.g09.slc.cpg/sg51_5_cif.got.tgz:8585.got - 2010.04.16 13:43:02.
