data_PCOD8209897
_publ_section_title
;
Structure prediction by ZEFSAII (Michael W. Deem and Ramdas Pophale) SiO2 
 PCOD8209897
Probable space group: P M M A
;
_chemical_formula_sum "Si O2"
_cell_formula_units_Z 48
_cell_length_a 30.631358
_cell_length_b 8.720794
_cell_length_c 9.581183
_cell_angle_alpha 90.000000
_cell_angle_beta 90.000000
_cell_angle_gamma 90.000000
_cell_volume 2559.419145
_symmetry_space_group_name_H-M "P M M A"
_symmetry_group_IT_number 51
_symmetry_cell_setting 'orthorhombic'
loop_
_space_group_symop_operation_xyz
x,y,z
1/2-x,-y,z
1/2+x,-y,-z
-x,y,-z
-x,-y,-z
1/2+x,y,-z
1/2-x,y,z
x,-y,z
loop_
_atom_site_type_symbol
_atom_site_label
_atom_site_fract_x
_atom_site_fract_y
_atom_site_fract_z
Si Si1 0.011888 0.680344 0.344671
Si Si2 0.104841 0.179617 0.298168
Si Si3 0.433109 0.821128 0.802791
Si Si4 0.641991 0.823674 0.409296
Si Si5 0.701485 0.680660 0.196994
Si Si6 0.371586 0.318681 0.016350
O O1 0.004562 0.500000 0.330360
O O2 0.061106 0.722058 0.307985
O O3 0.000000 0.737914 0.500000
O O4 0.981568 0.765699 0.232646
O O5 0.135792 0.218901 0.429158
O O6 0.093110 0.000000 0.295000
O O7 0.131582 0.230743 0.162531
O O8 0.402809 0.782534 0.670135
O O9 0.415979 0.728782 0.937313
O O10 0.433564 0.000000 0.839765
O O11 0.682303 0.728527 0.347150
O O12 0.653846 0.000000 0.388079
O O13 0.750000 0.750578 0.177262
O O14 0.703649 0.500000 0.192789
O O15 0.669949 0.740001 0.073464
O O16 0.371047 0.500000 0.040533
#
# Coordination Sequence:
#
# PCOD8209897 Si02
#       6
#     8   8   8   8   8   8
#     4  11  22  34  53  81 111 145 188 233 275 319
#     4  11  22  37  55  79 112 148 185 224 273 327
#     4  10  19  35  56  78 107 147 189 227 271 320
#     4   9  19  34  55  81 109 140 177 222 268 320
#     4   9  19  37  61  85 108 138 177 220 270 331
#     4  10  21  37  56  81 113 146 182 228 277 325
#
# _framework density 18.754254
#
# number of rings (size 3 to 8) (size 9 to 14) (size 15 to 20)
#    0.000    2.000    1.667    2.000    0.000    4.333 
#    0.000    4.167    0.000    3.000    0.000    0.000 
#    0.000    0.000    0.000    0.000    0.000    0.000 
#
# Total GULP energy -595379.300782 kJ/mol
# GULP energy per Si atom -12403.735433 kJ/mol
# Density = 1.871157 g / cm^3
# Si number density = 18.754254 Si / 1000 Ang^3
#
#
#
# Elastic Constant Matrix: (Units=GPa)
#
#
# Indices 1 2 3 4 5 6 
#
# 1 103.4055 14.5281 40.1242 0.0000 0.0000 0.0000
# 2 14.5281 39.2023 22.4180 0.0000 0.0000 0.0000
# 3 40.1242 22.4180 123.2512 0.0000 0.0000 0.0000
# 4 0.0000 0.0000 0.0000 32.6047 0.0000 0.0000
# 5 0.0000 0.0000 0.0000 0.0000 18.2960 0.0000
# 6 0.0000 0.0000 0.0000 0.0000 0.0000 23.0877
#
#
#
# Elastic Compliance Matrix: (Units=1/GPa)
#
#
# Indices 1 2 3 4 5 6 
#
# 1 0.011254 -0.002317 -0.003242 0.000000 0.000000 0.000000
# 2 -0.002317 0.028947 -0.004511 0.000000 0.000000 0.000000
# 3 -0.003242 -0.004511 0.009990 0.000000 0.000000 0.000000
# 4 0.000000 0.000000 0.000000 0.030670 0.000000 0.000000
# 5 0.000000 0.000000 0.000000 0.000000 0.054657 0.000000
# 6 0.000000 0.000000 0.000000 0.000000 0.000000 0.043313
#
#
# Mechanical properties :
#
#
# Convention : Reuss Voigt Hill
#
# Bulk Modulus (GPa) = 33.27702 46.66660 39.97181
# Shear Modulus (GPa) = 23.92483 27.38358 25.65421
#
# Velocity S-wave (km/s) = 3.57557 3.82531 3.70254
# Velocity P-wave (km/s) = 5.90157 6.66692 6.29589
#
# Compressibility (1/GPa) = 0.03005076
#
# Stress axis : x y z
#
# Youngs Moduli (GPa) = 88.85492 34.54615 100.10436
#
# Poissons Ratio (x) = 0.08003 0.32458
# Poissons Ratio (y) = 0.20584 0.45156
# Poissons Ratio (z) = 0.28811 0.15584
#
# Static dielectric constant tensor:
#      x y z
#    x 3.461860 0.000000 0.000000 
#    y 0.000000 3.379900 0.000000 
#    z 0.000000 0.000000 3.539380 
# 
# 
# High freq. dielectric constant tensor:
#      x y z
#    x 1.712700 0.000000 0.000000 
#    y 0.000000 1.731810 0.000000 
#    z 0.000000 0.000000 1.728960 
# 
# From -- ./inp_files/12768.got.cif
#   From: 2010.03.12/outbox.cif.g09.slc.cpg/sg51_7_cif.got.tgz:12768.got - 2010.04.16 13:43:02.
