data_PCOD8209981
_publ_section_title
;
Structure prediction by ZEFSAII (Michael W. Deem and Ramdas Pophale) SiO2 
 PCOD8209981
Probable space group: P M M A
;
_chemical_formula_sum "Si O2"
_cell_formula_units_Z 48
_cell_length_a 9.022549
_cell_length_b 15.068152
_cell_length_c 19.040905
_cell_angle_alpha 90.000000
_cell_angle_beta 90.000000
_cell_angle_gamma 90.000000
_cell_volume 2588.670819
_symmetry_space_group_name_H-M "P M M A"
_symmetry_group_IT_number 51
_symmetry_cell_setting 'orthorhombic'
loop_
_space_group_symop_operation_xyz
x,y,z
1/2-x,-y,z
1/2+x,-y,-z
-x,y,-z
-x,-y,-z
1/2+x,y,-z
1/2-x,y,z
x,-y,z
loop_
_atom_site_type_symbol
_atom_site_label
_atom_site_fract_x
_atom_site_fract_y
_atom_site_fract_z
Si Si1 0.575472 0.000000 0.925368
Si Si2 0.425932 0.901263 0.325775
Si Si3 0.424889 0.500000 0.925128
Si Si4 0.925986 0.256372 0.575180
Si Si5 0.925495 0.841617 0.825818
Si Si6 0.921922 0.603364 0.329132
Si Si7 0.075537 0.340805 0.826536
O O1 0.523715 0.913636 0.882684
O O2 0.750000 0.000000 0.935910
O O3 0.500000 0.000000 0.000000
O O4 0.250000 0.903089 0.322316
O O5 0.480842 0.831966 0.384252
O O6 0.487925 0.870872 0.250201
O O7 0.486437 0.000000 0.343886
O O8 0.250000 0.500000 0.935004
O O9 0.477127 0.585946 0.882062
O O10 0.500000 0.500000 0.000000
O O11 0.750000 0.259271 0.567485
O O12 0.000000 0.254518 0.500000
O O13 0.977985 0.343435 0.616256
O O14 0.750000 0.831846 0.823234
O O15 0.995354 0.749051 0.848643
O O16 0.750000 0.627390 0.340830
O O17 0.950607 0.500000 0.342364
O O18 0.973257 0.628281 0.250844
O O19 0.250000 0.326400 0.829702
#
# Coordination Sequence:
#
# PCOD8209981 Si02
#       7
#     4   8   4   8   8   8   8
#     4  10  22  38  58  82 117 154 188 233 286 337
#     4   9  17  33  58  84 110 144 187 230 275 328
#     4  10  22  40  58  82 117 154 187 228 285 338
#     4  11  23  38  58  85 117 150 185 232 283 334
#     4  10  19  35  59  85 110 146 192 233 275 331
#     4  10  20  37  61  85 111 147 188 232 283 338
#     4  10  20  36  59  85 114 147 185 233 286 335
#
# _framework density 18.542334
#
# number of rings (size 3 to 8) (size 9 to 14) (size 15 to 20)
#    0.000    2.000    3.333    0.500    0.000    3.000 
#    0.000    3.333    0.000    3.500    0.000    0.000 
#    0.000    0.000    0.000    0.000    0.000    0.000 
#
# Total GULP energy -595315.548916 kJ/mol
# GULP energy per Si atom -12402.407269 kJ/mol
# Density = 1.850013 g / cm^3
# Si number density = 18.542334 Si / 1000 Ang^3
#
#
#
# Elastic Constant Matrix: (Units=GPa)
#
#
# Indices 1 2 3 4 5 6 
#
# 1 40.7710 48.5598 50.3305 0.0000 0.0000 0.0000
# 2 48.5598 178.7388 92.1543 0.0000 0.0000 0.0000
# 3 50.3305 92.1543 176.2105 0.0000 0.0000 0.0000
# 4 0.0000 0.0000 0.0000 25.2571 0.0000 0.0000
# 5 0.0000 0.0000 0.0000 0.0000 28.9420 0.0000
# 6 0.0000 0.0000 0.0000 0.0000 0.0000 28.7002
#
#
#
# Elastic Compliance Matrix: (Units=1/GPa)
#
#
# Indices 1 2 3 4 5 6 
#
# 1 0.044234 -0.007535 -0.008694 0.000000 0.000000 0.000000
# 2 -0.007535 0.008944 -0.002525 0.000000 0.000000 0.000000
# 3 -0.008694 -0.002525 0.009479 0.000000 0.000000 0.000000
# 4 0.000000 0.000000 0.000000 0.039593 0.000000 0.000000
# 5 0.000000 0.000000 0.000000 0.000000 0.034552 0.000000
# 6 0.000000 0.000000 0.000000 0.000000 0.000000 0.034843
#
#
# Mechanical properties :
#
#
# Convention : Reuss Voigt Hill
#
# Bulk Modulus (GPa) = 39.76371 86.42329 63.09350
# Shear Modulus (GPa) = 22.98473 30.22489 26.60481
#
# Velocity S-wave (km/s) = 3.52459 4.04177 3.79200
# Velocity P-wave (km/s) = 6.16887 8.27593 7.29883
#
# Compressibility (1/GPa) = 0.02514856
#
# Stress axis : x y z
#
# Youngs Moduli (GPa) = 22.60696 111.80851 105.49848
#
# Poissons Ratio (x) = 0.84250 0.91717
# Poissons Ratio (y) = 0.17035 0.26640
# Poissons Ratio (z) = 0.19654 0.28234
#
# Static dielectric constant tensor:
#      x y z
#    x 3.149470 0.000000 0.000000 
#    y 0.000000 4.119240 0.000000 
#    z 0.000000 0.000000 3.442800 
# 
# 
# High freq. dielectric constant tensor:
#      x y z
#    x 1.696410 0.000000 0.000000 
#    y 0.000000 1.736950 0.000000 
#    z 0.000000 0.000000 1.722680 
# 
# From -- ./inp_files/27606.got.cif
#   From: 2010.03.12/outbox.cif.g09.slc.cpg/sg51_14_cif.got.tgz:27606.got - 2010.04.16 13:43:02.
