data_PCOD8209440
_publ_section_title
;
Structure prediction by ZEFSAII (Michael W. Deem and Ramdas Pophale) SiO2 
 PCOD8209440
Probable space group: P M M A
;
_chemical_formula_sum "Si O2"
_cell_formula_units_Z 48
_cell_length_a 28.150117
_cell_length_b 9.065615
_cell_length_c 10.396977
_cell_angle_alpha 90.000000
_cell_angle_beta 90.000000
_cell_angle_gamma 90.000000
_cell_volume 2653.289015
_symmetry_space_group_name_H-M "P M M A"
_symmetry_group_IT_number 51
_symmetry_cell_setting 'orthorhombic'
loop_
_space_group_symop_operation_xyz
x,y,z
1/2-x,-y,z
1/2+x,-y,-z
-x,y,-z
-x,-y,-z
1/2+x,y,-z
1/2-x,y,z
x,-y,z
loop_
_atom_site_type_symbol
_atom_site_label
_atom_site_fract_x
_atom_site_fract_y
_atom_site_fract_z
Si Si1 0.896981 0.326199 0.751167
Si Si2 0.302977 0.170489 0.868634
Si Si3 0.302200 0.326643 0.132563
Si Si4 0.100361 0.172497 0.748769
Si Si5 0.445263 0.675194 0.505113
Si Si6 0.444075 0.331134 0.988955
O O1 0.904559 0.500000 0.745360
O O2 0.841129 0.282160 0.760044
O O3 0.919857 0.259166 0.622356
O O4 0.923020 0.266305 0.878356
O O5 0.250000 0.214513 0.818003
O O6 0.342931 0.205111 0.761487
O O7 0.304374 0.000000 0.907100
O O8 0.316494 0.258720 0.996367
O O9 0.250000 0.271824 0.178039
O O10 0.302697 0.500000 0.110761
O O11 0.081235 0.256491 0.625623
O O12 0.073104 0.229074 0.873787
O O13 0.090238 0.000000 0.733106
O O14 0.500000 0.724621 0.500000
O O15 0.440884 0.500000 0.515973
O O16 0.427393 0.500000 0.964779
O O17 0.500000 0.322276 0.000000
#
# Coordination Sequence:
#
# PCOD8209440 Si02
#       6
#     8   8   8   8   8   8
#     4   9  17  31  51  76 101 129 171 218 260 308
#     4   9  18  33  52  75 106 142 176 211 258 316
#     4   9  16  28  50  78 104 129 163 215 272 315
#     4  11  22  35  53  80 110 140 177 223 270 311
#     4  10  21  38  57  74 101 145 187 218 260 321
#     4  10  19  33  55  79 103 134 176 221 264 316
#
# _framework density 18.090754
#
# number of rings (size 3 to 8) (size 9 to 14) (size 15 to 20)
#    0.000    2.333    1.667    1.500    0.000    4.000 
#    0.000    2.500    0.000    1.000    0.000    0.000 
#    0.000    0.000    0.000    0.000    0.000    0.000 
#
# Total GULP energy -595037.157949 kJ/mol
# GULP energy per Si atom -12396.607457 kJ/mol
# Density = 1.804958 g / cm^3
# Si number density = 18.090754 Si / 1000 Ang^3
#
#
#
# Elastic Constant Matrix: (Units=GPa)
#
#
# Indices 1 2 3 4 5 6 
#
# 1 142.1736 33.8109 82.3242 0.0000 0.0000 0.0000
# 2 33.8109 25.3121 24.3990 0.0000 0.0000 0.0000
# 3 82.3242 24.3990 142.5290 0.0000 0.0000 0.0000
# 4 0.0000 0.0000 0.0000 -4.4826 0.0000 0.0000
# 5 0.0000 0.0000 0.0000 0.0000 32.6247 0.0000
# 6 0.0000 0.0000 0.0000 0.0000 0.0000 -4.7397
#
#
#
# Elastic Compliance Matrix: (Units=1/GPa)
#
#
# Indices 1 2 3 4 5 6 
#
# 1 0.013119 -0.012239 -0.005482 0.000000 0.000000 0.000000
# 2 -0.012239 0.058732 -0.002985 0.000000 0.000000 0.000000
# 3 -0.005482 -0.002985 0.010694 0.000000 0.000000 0.000000
# 4 0.000000 0.000000 0.000000 -0.223086 0.000000 0.000000
# 5 0.000000 0.000000 0.000000 0.000000 0.030652 0.000000
# 6 0.000000 0.000000 0.000000 0.000000 0.000000 -0.210983
#
#
# Mechanical properties :
#
#
# Convention : Reuss Voigt Hill
#
# Bulk Modulus (GPa) = 24.31174 65.67589 44.99381
# Shear Modulus (GPa) = -18.81472 15.97918 -1.41777
#
# Velocity S-wave (km/s) = -3.22843 2.97522 -0.88623
# Velocity P-wave (km/s) = 0.65504 6.94154 4.88651
#
# Compressibility (1/GPa) = 0.04113239
#
# Stress axis : x y z
#
# Youngs Moduli (GPa) = 76.22754 17.02638 93.51417
#
# Poissons Ratio (x) = 0.20838 0.51266
# Poissons Ratio (y) = 0.93294 0.27914
# Poissons Ratio (z) = 0.41789 0.05082
#
# Static dielectric constant tensor:
#      x y z
#    x 3.015660 0.000000 0.000000 
#    y 0.000000 3.175420 0.000000 
#    z 0.000000 0.000000 3.369990 
# 
# 
# High freq. dielectric constant tensor:
#      x y z
#    x 1.723690 0.000000 0.000000 
#    y 0.000000 1.678240 0.000000 
#    z 0.000000 0.000000 1.683010 
# 
# From -- ./inp_files/12757.got.cif
#   From: 2010.03.12/outbox.cif.g09.slc.cpg/sg51_7_cif.got.tgz:12757.got - 2010.04.16 13:43:02.
