data_PCOD8209082
_publ_section_title
;
Structure prediction by ZEFSAII (Michael W. Deem and Ramdas Pophale) SiO2 
 PCOD8209082
Probable space group: P M M A
;
_chemical_formula_sum "Si O2"
_cell_formula_units_Z 56
_cell_length_a 20.138342
_cell_length_b 9.451587
_cell_length_c 15.457784
_cell_angle_alpha 90.000000
_cell_angle_beta 90.000000
_cell_angle_gamma 90.000000
_cell_volume 2942.223654
_symmetry_space_group_name_H-M "P M M A"
_symmetry_group_IT_number 51
_symmetry_cell_setting 'orthorhombic'
loop_
_space_group_symop_operation_xyz
x,y,z
1/2-x,-y,z
1/2+x,-y,-z
-x,y,-z
-x,-y,-z
1/2+x,y,-z
1/2-x,y,z
x,-y,z
loop_
_atom_site_type_symbol
_atom_site_label
_atom_site_fract_x
_atom_site_fract_y
_atom_site_fract_z
Si Si1 0.962080 0.335389 0.915866
Si Si2 0.991570 0.661341 0.725580
Si Si3 0.057578 0.167815 0.432061
Si Si4 0.825116 0.337034 0.987724
Si Si5 0.355995 0.655875 0.700026
Si Si6 0.324541 0.660318 0.506355
Si Si7 0.325712 0.153579 0.855472
O O1 0.979273 0.500000 0.917111
O O2 0.988200 0.275228 0.823737
O O3 0.881836 0.309101 0.915878
O O4 0.000000 0.267259 0.000000
O O5 0.963499 0.500000 0.723065
O O6 0.950887 0.761767 0.661728
O O7 0.065546 0.665538 0.690300
O O8 0.128014 0.223391 0.465108
O O9 0.000000 0.212067 0.500000
O O10 0.060189 0.000000 0.420798
O O11 0.750000 0.290963 0.957609
O O12 0.823655 0.500000 0.014971
O O13 0.854595 0.254590 0.070514
O O14 0.335652 0.500000 0.735085
O O15 0.322352 0.684345 0.608744
O O16 0.330159 0.776551 0.762432
O O17 0.250000 0.682926 0.470337
O O18 0.349284 0.500000 0.485668
O O19 0.250000 0.130174 0.879728
O O20 0.361881 0.000000 0.855072
#
# Coordination Sequence:
#
# PCOD8209082 Si02
#       7
#     8   8   8   8   8   8   8
#     4   9  17  31  53  82 111 138 179 232 283 332
#     4  10  20  35  59  85 109 145 189 235 283 334
#     4  11  23  39  59  83 115 155 193 231 278 337
#     4   9  17  31  51  72  98 136 180 226 274 326
#     4  10  19  32  53  79 107 140 180 228 283 341
#     4  10  21  37  59  86 113 144 188 241 290 339
#     4  10  20  31  45  70 105 143 181 222 274 338
#
# _framework density 19.033224000000001
#
# number of rings (size 3 to 8) (size 9 to 14) (size 15 to 20)
#    0.000    2.143    1.429    2.143    0.000    5.714 
#    0.000    1.429    0.000    4.286    0.000    0.000 
#    0.000    0.000    0.000    0.000    0.000    0.000 
#
# Total GULP energy -694048.008915 kJ/mol
# GULP energy per Si atom -12393.714445 kJ/mol
# Density = 1.898990 g / cm^3
# Si number density = 19.033224 Si / 1000 Ang^3
#
#
#
# Elastic Constant Matrix: (Units=GPa)
#
#
# Indices 1 2 3 4 5 6 
#
# 1 84.6757 26.5610 31.3290 0.0000 0.0000 0.0000
# 2 26.5610 76.7394 36.7104 0.0000 0.0000 0.0000
# 3 31.3290 36.7104 87.8590 0.0000 0.0000 0.0000
# 4 0.0000 0.0000 0.0000 -29.8611 0.0000 0.0000
# 5 0.0000 0.0000 0.0000 0.0000 27.8593 0.0000
# 6 0.0000 0.0000 0.0000 0.0000 0.0000 20.1782
#
#
#
# Elastic Compliance Matrix: (Units=1/GPa)
#
#
# Indices 1 2 3 4 5 6 
#
# 1 0.014175 -0.003110 -0.003755 0.000000 0.000000 0.000000
# 2 -0.003110 0.016969 -0.005981 0.000000 0.000000 0.000000
# 3 -0.003755 -0.005981 0.015220 0.000000 0.000000 0.000000
# 4 0.000000 0.000000 0.000000 -0.033488 0.000000 0.000000
# 5 0.000000 0.000000 0.000000 0.000000 0.035895 0.000000
# 6 0.000000 0.000000 0.000000 0.000000 0.000000 0.049558
#
#
# Mechanical properties :
#
#
# Convention : Reuss Voigt Hill
#
# Bulk Modulus (GPa) = 48.37633 48.71943 48.54788
# Shear Modulus (GPa) = 38.19406 13.94686 26.07046
#
# Velocity S-wave (km/s) = 4.48449 2.70990 3.70501
# Velocity P-wave (km/s) = 7.23091 5.95349 6.62307
#
# Compressibility (1/GPa) = 0.02067127
#
# Stress axis : x y z
#
# Youngs Moduli (GPa) = 70.54902 58.93188 65.70299
#
# Poissons Ratio (x) = 0.18326 0.24672
# Poissons Ratio (y) = 0.21939 0.39298
# Poissons Ratio (z) = 0.26491 0.35248
#
# Static dielectric constant tensor:
#      x y z
#    x 3.529690 0.000000 0.000000 
#    y 0.000000 3.529700 0.000000 
#    z 0.000000 0.000000 3.394990 
# 
# 
# High freq. dielectric constant tensor:
#      x y z
#    x 1.739640 0.000000 0.000000 
#    y 0.000000 1.720750 0.000000 
#    z 0.000000 0.000000 1.724220 
# 
# From -- ./inp_files/25657.got.cif
#   From: 2010.03.12/outbox.cif.g09.slc.cpg/sg51_13_cif.got.tgz:25657.got - 2010.04.16 13:43:02.
