data_PCOD8209254
_publ_section_title
;
Structure prediction by ZEFSAII (Michael W. Deem and Ramdas Pophale) SiO2 
 PCOD8209254
Probable space group: P M M A
;
_chemical_formula_sum "Si O2"
_cell_formula_units_Z 48
_cell_length_a 16.863375
_cell_length_b 9.019837
_cell_length_c 16.515468
_cell_angle_alpha 90.000000
_cell_angle_beta 90.000000
_cell_angle_gamma 90.000000
_cell_volume 2512.083506
_symmetry_space_group_name_H-M "P M M A"
_symmetry_group_IT_number 51
_symmetry_cell_setting 'orthorhombic'
loop_
_space_group_symop_operation_xyz
x,y,z
1/2-x,-y,z
1/2+x,-y,-z
-x,y,-z
-x,-y,-z
1/2+x,y,-z
1/2-x,y,z
x,-y,z
loop_
_atom_site_type_symbol
_atom_site_label
_atom_site_fract_x
_atom_site_fract_y
_atom_site_fract_z
Si Si1 0.920610 0.176731 0.548394
Si Si2 0.895025 0.175956 0.190838
Si Si3 0.411070 0.673773 0.977993
Si Si4 0.250000 0.824053 0.703746
Si Si5 0.750000 0.823443 0.477888
Si Si6 0.841260 0.834570 0.874540
Si Si7 0.055303 0.824338 0.271232
O O1 0.833870 0.234202 0.516720
O O2 0.928593 0.240648 0.639590
O O3 0.000000 0.232943 0.500000
O O4 0.920268 0.000000 0.545243
O O5 0.883959 0.246204 0.103159
O O6 0.825708 0.234369 0.248178
O O7 0.973138 0.234916 0.235200
O O8 0.894433 0.000000 0.179840
O O9 0.401259 0.500000 0.965894
O O10 0.500000 0.720230 0.000000
O O11 0.355381 0.726688 0.050517
O O12 0.250000 0.760476 0.613228
O O13 0.250000 0.000000 0.699350
O O14 0.750000 0.000000 0.481493
O O15 0.750000 0.844594 0.855740
O O16 0.878912 0.769495 0.792357
O O17 0.875597 0.000000 0.893455
O O18 0.054043 0.000000 0.278930
#
# Coordination Sequence:
#
# PCOD8209254 Si02
#       7
#     8   8   8   4   4   8   8
#     4   9  16  25  40  65  99 137 169 199 250 310
#     4  10  19  33  53  74 102 137 174 215 256 305
#     4  11  23  38  54  74 102 135 175 219 266 316
#     4   9  18  30  47  74 103 134 172 209 253 307
#     4   9  16  26  42  66 103 138 162 203 255 307
#     4  10  21  35  53  76 104 137 176 216 257 308
#     4   9  17  29  47  70  99 138 175 207 249 305
#
# _framework density 19.107644000000001
#
# number of rings (size 3 to 8) (size 9 to 14) (size 15 to 20)
#    0.000    2.333    1.667    1.500    2.333    5.000 
#    0.000    0.000    0.000    0.000    0.000    0.000 
#    0.000   14.667    0.000    0.000    0.000    0.000 
#
# Total GULP energy -594962.392408 kJ/mol
# GULP energy per Si atom -12395.049842 kJ/mol
# Density = 1.906415 g / cm^3
# Si number density = 19.107644 Si / 1000 Ang^3
#
#
#
# Elastic Constant Matrix: (Units=GPa)
#
#
# Indices 1 2 3 4 5 6 
#
# 1 141.1054 16.4413 76.2933 0.0000 0.0000 0.0000
# 2 16.4413 20.4982 19.4799 0.0000 0.0000 0.0000
# 3 76.2933 19.4799 188.8812 0.0000 0.0000 0.0000
# 4 0.0000 0.0000 0.0000 -1.4883 0.0000 0.0000
# 5 0.0000 0.0000 0.0000 0.0000 19.0105 0.0000
# 6 0.0000 0.0000 0.0000 0.0000 0.0000 10.0883
#
#
#
# Elastic Compliance Matrix: (Units=1/GPa)
#
#
# Indices 1 2 3 4 5 6 
#
# 1 0.009406 -0.004361 -0.003350 0.000000 0.000000 0.000000
# 2 -0.004361 0.056108 -0.004025 0.000000 0.000000 0.000000
# 3 -0.003350 -0.004025 0.007062 0.000000 0.000000 0.000000
# 4 0.000000 0.000000 0.000000 -0.671902 0.000000 0.000000
# 5 0.000000 0.000000 0.000000 0.000000 0.052603 0.000000
# 6 0.000000 0.000000 0.000000 0.000000 0.000000 0.099125
#
#
# Mechanical properties :
#
#
# Convention : Reuss Voigt Hill
#
# Bulk Modulus (GPa) = 20.36462 63.87932 42.12197
# Shear Modulus (GPa) = -12.26218 21.40677 4.57230
#
# Velocity S-wave (km/s) = -2.53601 3.35076 1.54858
# Velocity P-wave (km/s) = 1.45115 6.96232 5.02891
#
# Compressibility (1/GPa) = 0.04910477
#
# Stress axis : x y z
#
# Youngs Moduli (GPa) = 106.31378 17.82279 141.59507
#
# Poissons Ratio (x) = 0.07773 0.47428
# Poissons Ratio (y) = 0.46367 0.56991
# Poissons Ratio (z) = 0.35610 0.07174
#
# Static dielectric constant tensor:
#      x y z
#    x 3.726940 0.000000 0.000000 
#    y 0.000000 2.881530 0.000000 
#    z 0.000000 0.000000 3.727120 
# 
# 
# High freq. dielectric constant tensor:
#      x y z
#    x 1.759050 0.000000 0.000000 
#    y 0.000000 1.672470 0.000000 
#    z 0.000000 0.000000 1.759910 
# 
# From -- ./inp_files/24841.got.cif
#   From: 2010.03.12/outbox.cif.g09.slc.cpg/sg51_13_cif.got.tgz:24841.got - 2010.04.16 13:43:02.
