data_PCOD8209972
_publ_section_title
;
Structure prediction by ZEFSAII (Michael W. Deem and Ramdas Pophale) SiO2 
 PCOD8209972
Probable space group: P M M A
;
_chemical_formula_sum "Si O2"
_cell_formula_units_Z 48
_cell_length_a 14.705735
_cell_length_b 17.913490
_cell_length_c 9.468234
_cell_angle_alpha 90.000000
_cell_angle_beta 90.000000
_cell_angle_gamma 90.000000
_cell_volume 2494.226700
_symmetry_space_group_name_H-M "P M M A"
_symmetry_group_IT_number 51
_symmetry_cell_setting 'orthorhombic'
loop_
_space_group_symop_operation_xyz
x,y,z
1/2-x,-y,z
1/2+x,-y,-z
-x,y,-z
-x,-y,-z
1/2+x,y,-z
1/2-x,y,z
x,-y,z
loop_
_atom_site_type_symbol
_atom_site_label
_atom_site_fract_x
_atom_site_fract_y
_atom_site_fract_z
Si Si1 0.493221 0.587791 0.659842
Si Si2 0.062983 0.156178 0.870718
Si Si3 0.848276 0.417081 0.862279
Si Si4 0.250000 0.912004 0.786887
Si Si5 0.915231 0.329757 0.097898
Si Si6 0.056229 0.916554 0.358401
Si Si7 0.750000 0.088607 0.531844
O O1 0.500000 0.618172 0.500000
O O2 0.472529 0.500000 0.659957
O O3 0.586159 0.610966 0.737698
O O4 0.414723 0.630434 0.748404
O O5 0.158352 0.112183 0.868344
O O6 0.091124 0.242013 0.879693
O O7 0.999230 0.141347 0.736469
O O8 0.000000 0.130163 0.000000
O O9 0.750000 0.419998 0.789325
O O10 0.878765 0.500000 0.913448
O O11 0.836203 0.362653 0.998734
O O12 0.250000 0.878325 0.627673
O O13 0.250000 0.000000 0.781527
O O14 0.000000 0.354135 0.000000
O O15 0.158682 0.885313 0.386024
O O16 0.000000 0.923162 0.500000
O O17 0.060970 0.000000 0.290077
O O18 0.750000 0.000000 0.519445
#
# Coordination Sequence:
#
# PCOD8209972 Si02
#       7
#     8   8   8   4   8   8   4
#     4   9  17  32  55  80 109 145 184 227 276 329
#     4  11  24  38  57  85 117 152 184 238 296 344
#     4   9  17  31  55  82 108 145 190 230 268 321
#     4  11  22  39  61  83 112 150 191 235 291 348
#     4   9  19  35  53  75 108 149 186 224 269 335
#     4  10  19  35  59  83 110 146 193 238 283 345
#     4   9  18  35  61  87 107 144 191 237 284 336
#
# _framework density 19.244441999999999
#
# number of rings (size 3 to 8) (size 9 to 14) (size 15 to 20)
#    0.000    2.333    1.667    1.000    1.167    4.667 
#    0.000    1.667    1.833    3.000    0.000    0.000 
#    0.000    0.000    0.000    0.000    0.000    0.000 
#
# Total GULP energy -594776.261156 kJ/mol
# GULP energy per Si atom -12391.172107 kJ/mol
# Density = 1.920064 g / cm^3
# Si number density = 19.244442 Si / 1000 Ang^3
#
#
#
# Elastic Constant Matrix: (Units=GPa)
#
#
# Indices 1 2 3 4 5 6 
#
# 1 125.3824 30.0753 43.3398 0.0000 0.0000 0.0000
# 2 30.0753 72.7693 49.2328 0.0000 0.0000 0.0000
# 3 43.3398 49.2328 126.1760 0.0000 0.0000 0.0000
# 4 0.0000 0.0000 0.0000 28.7829 0.0000 0.0000
# 5 0.0000 0.0000 0.0000 0.0000 26.4055 0.0000
# 6 0.0000 0.0000 0.0000 0.0000 0.0000 13.0197
#
#
#
# Elastic Compliance Matrix: (Units=1/GPa)
#
#
# Indices 1 2 3 4 5 6 
#
# 1 0.009323 -0.002292 -0.002308 0.000000 0.000000 0.000000
# 2 -0.002292 0.019234 -0.006718 0.000000 0.000000 0.000000
# 3 -0.002308 -0.006718 0.011340 0.000000 0.000000 0.000000
# 4 0.000000 0.000000 0.000000 0.034743 0.000000 0.000000
# 5 0.000000 0.000000 0.000000 0.000000 0.037871 0.000000
# 6 0.000000 0.000000 0.000000 0.000000 0.000000 0.076807
#
#
# Mechanical properties :
#
#
# Convention : Reuss Voigt Hill
#
# Bulk Modulus (GPa) = 57.93234 63.29149 60.61192
# Shear Modulus (GPa) = 22.96668 27.08694 25.02681
#
# Velocity S-wave (km/s) = 3.45834 3.75576 3.61011
# Velocity P-wave (km/s) = 6.79084 7.19495 6.99581
#
# Compressibility (1/GPa) = 0.01726152
#
# Stress axis : x y z
#
# Youngs Moduli (GPa) = 107.26002 51.99066 88.18690
#
# Poissons Ratio (x) = 0.11914 0.20355
# Poissons Ratio (y) = 0.24579 0.59243
# Poissons Ratio (z) = 0.24758 0.34927
#
# Static dielectric constant tensor:
#      x y z
#    x 3.150660 0.000000 0.000000 
#    y 0.000000 3.322990 0.000000 
#    z 0.000000 0.000000 1.962330 
# 
# 
# High freq. dielectric constant tensor:
#      x y z
#    x 1.749370 0.000000 0.000000 
#    y 0.000000 1.731810 0.000000 
#    z 0.000000 0.000000 1.741550 
# 
# From -- ./inp_files/8333.got.cif
#   From: 2010.03.12/outbox.cif.g09.slc.cpg/sg51_5_cif.got.tgz:8333.got - 2010.04.16 13:43:02.
