data_PCOD8209765
_publ_section_title
;
Structure prediction by ZEFSAII (Michael W. Deem and Ramdas Pophale) SiO2 
 PCOD8209765
Probable space group: P M M A
;
_chemical_formula_sum "Si O2"
_cell_formula_units_Z 64
_cell_length_a 17.847456
_cell_length_b 8.621333
_cell_length_c 21.536105
_cell_angle_alpha 90.000000
_cell_angle_beta 90.000000
_cell_angle_gamma 90.000000
_cell_volume 3313.735955
_symmetry_space_group_name_H-M "P M M A"
_symmetry_group_IT_number 51
_symmetry_cell_setting 'orthorhombic'
loop_
_space_group_symop_operation_xyz
x,y,z
1/2-x,-y,z
1/2+x,-y,-z
-x,y,-z
-x,-y,-z
1/2+x,y,-z
1/2-x,y,z
x,-y,z
loop_
_atom_site_type_symbol
_atom_site_label
_atom_site_fract_x
_atom_site_fract_y
_atom_site_fract_z
Si Si1 0.336567 0.179048 0.988375
Si Si2 0.961144 0.321174 0.687308
Si Si3 0.603206 0.180844 0.255827
Si Si4 0.425633 0.819819 0.111316
Si Si5 0.586794 0.679697 0.127561
Si Si6 0.835213 0.678530 0.779267
Si Si7 0.021915 0.182391 0.568186
Si Si8 0.665774 0.680625 0.374954
O O1 0.250000 0.211832 0.002974
O O2 0.362663 0.284404 0.931702
O O3 0.350671 0.000000 0.971219
O O4 0.383638 0.227593 0.048466
O O5 0.986075 0.500000 0.690704
O O6 0.877780 0.296675 0.713771
O O7 0.965414 0.264323 0.616372
O O8 0.016854 0.222105 0.730357
O O9 0.621592 0.226600 0.185368
O O10 0.656897 0.272582 0.302959
O O11 0.616985 0.000000 0.265674
O O12 0.500908 0.721714 0.115064
O O13 0.370761 0.785294 0.168159
O O14 0.447313 0.000000 0.112028
O O15 0.591371 0.500000 0.143878
O O16 0.750000 0.730145 0.768315
O O17 0.841167 0.500000 0.800715
O O18 0.000000 0.241705 0.500000
O O19 0.108082 0.224991 0.582209
O O20 0.011219 0.000000 0.574641
O O21 0.750000 0.719886 0.396770
O O22 0.648103 0.500000 0.382217
#
# Coordination Sequence:
#
# PCOD8209765 Si02
#       8
#     8   8   8   8   8   8   8   8
#     4  10  23  42  59  79 110 146 187 237 291 345
#     4  10  19  34  57  83 115 150 187 233 280 333
#     4  11  21  35  58  84 112 148 187 231 283 340
#     4  11  22  38  61  85 110 146 191 237 287 344
#     4  12  24  38  58  84 113 148 190 236 287 344
#     4  10  21  36  56  84 117 151 186 231 288 343
#     4  10  21  37  59  86 117 156 199 239 283 334
#     4  10  21  37  59  88 120 153 192 238 287 341
#
# _framework density 19.313549999999999
#
# number of rings (size 3 to 8) (size 9 to 14) (size 15 to 20)
#    0.000    1.500    1.250    6.000    0.000    6.500 
#    0.000    0.625    0.000    2.250    0.000    0.000 
#    0.000    0.000    0.000    0.000    0.000    0.000 
#
# Total GULP energy -793872.256859 kJ/mol
# GULP energy per Si atom -12404.254013 kJ/mol
# Density = 1.926959 g / cm^3
# Si number density = 19.313550 Si / 1000 Ang^3
#
#
#
# Elastic Constant Matrix: (Units=GPa)
#
#
# Indices 1 2 3 4 5 6 
#
# 1 68.3461 8.1811 27.3948 0.0000 0.0000 0.0000
# 2 8.1811 54.9449 20.6353 0.0000 0.0000 0.0000
# 3 27.3948 20.6353 124.1183 0.0000 0.0000 0.0000
# 4 0.0000 0.0000 0.0000 26.5396 0.0000 0.0000
# 5 0.0000 0.0000 0.0000 0.0000 21.0151 0.0000
# 6 0.0000 0.0000 0.0000 0.0000 0.0000 25.2108
#
#
#
# Elastic Compliance Matrix: (Units=1/GPa)
#
#
# Indices 1 2 3 4 5 6 
#
# 1 0.016118 -0.001135 -0.003369 0.000000 0.000000 0.000000
# 2 -0.001135 0.019492 -0.002990 0.000000 0.000000 0.000000
# 3 -0.003369 -0.002990 0.009298 0.000000 0.000000 0.000000
# 4 0.000000 0.000000 0.000000 0.037680 0.000000 0.000000
# 5 0.000000 0.000000 0.000000 0.000000 0.047585 0.000000
# 6 0.000000 0.000000 0.000000 0.000000 0.000000 0.039665
#
#
# Mechanical properties :
#
#
# Convention : Reuss Voigt Hill
#
# Bulk Modulus (GPa) = 33.42267 39.98129 36.70198
# Shear Modulus (GPa) = 25.66769 27.29964 26.48366
#
# Velocity S-wave (km/s) = 3.64950 3.76373 3.70705
# Velocity P-wave (km/s) = 5.92464 6.29553 6.11289
#
# Compressibility (1/GPa) = 0.02991981
#
# Stress axis : x y z
#
# Youngs Moduli (GPa) = 62.04434 51.30305 107.55576
#
# Poissons Ratio (x) = 0.05821 0.36233
# Poissons Ratio (y) = 0.07040 0.32161
# Poissons Ratio (z) = 0.20901 0.15341
#
# Static dielectric constant tensor:
#      x y z
#    x 3.543420 0.000000 0.000000 
#    y 0.000000 3.581040 0.000000 
#    z 0.000000 0.000000 3.578500 
# 
# 
# High freq. dielectric constant tensor:
#      x y z
#    x 1.748050 0.000000 0.000000 
#    y 0.000000 1.759940 0.000000 
#    z 0.000000 0.000000 1.749420 
# 
# From -- ./inp_files/33864.got.cif
#   From: 2010.03.12/outbox.cif.g09.slc.cpg/sg51_17_cif.got.tgz:33864.got - 2010.04.16 13:43:02.
