data_PCOD8209588
_publ_section_title
;
Structure prediction by ZEFSAII (Michael W. Deem and Ramdas Pophale) SiO2 
 PCOD8209588
Probable space group: P M M A
;
_chemical_formula_sum "Si O2"
_cell_formula_units_Z 52
_cell_length_a 8.773712
_cell_length_b 22.851381
_cell_length_c 14.269108
_cell_angle_alpha 90.000000
_cell_angle_beta 90.000000
_cell_angle_gamma 90.000000
_cell_volume 2860.833949
_symmetry_space_group_name_H-M "P M M A"
_symmetry_group_IT_number 51
_symmetry_cell_setting 'orthorhombic'
loop_
_space_group_symop_operation_xyz
x,y,z
1/2-x,-y,z
1/2+x,-y,-z
-x,y,-z
-x,-y,-z
1/2+x,y,-z
1/2-x,y,z
x,-y,z
loop_
_atom_site_type_symbol
_atom_site_label
_atom_site_fract_x
_atom_site_fract_y
_atom_site_fract_z
Si Si1 0.070749 0.676725 0.207762
Si Si2 0.071780 0.565013 0.096916
Si Si3 0.431132 0.781967 0.898176
Si Si4 0.429401 0.277447 0.405573
Si Si5 0.430171 0.000000 0.897672
Si Si6 0.929410 0.109569 0.794906
Si Si7 0.926989 0.854677 0.592687
O O1 0.250000 0.691065 0.195270
O O2 0.030519 0.610128 0.179743
O O3 0.018590 0.685237 0.315234
O O4 0.975201 0.718287 0.139415
O O5 0.250000 0.563415 0.079990
O O6 0.011060 0.500000 0.124117
O O7 0.000000 0.587138 0.000000
O O8 0.250000 0.789587 0.901503
O O9 0.506063 0.829235 0.830106
O O10 0.500000 0.792119 0.000000
O O11 0.500000 0.305351 0.500000
O O12 0.250000 0.279055 0.415871
O O13 0.491045 0.211153 0.392203
O O14 0.483304 0.943001 0.843118
O O15 0.250000 0.000000 0.906462
O O16 0.500000 0.000000 0.000000
O O17 0.750000 0.105560 0.816702
O O18 0.962505 0.106040 0.683604
O O19 0.750000 0.850762 0.574093
O O20 0.000000 0.883860 0.500000
#
# Coordination Sequence:
#
# PCOD8209588 Si02
#       7
#     8   8   8   8   4   8   8
#     4  10  19  34  53  76 108 140 178 224 272 324
#     4   9  18  32  51  74 102 140 182 223 268 321
#     4  12  24  36  53  79 110 142 177 222 273 325
#     4   9  17  31  50  76 106 140 174 217 267 321
#     4  12  26  44  63  86 111 146 189 228 268 322
#     4  11  22  41  62  83 111 146 183 225 272 320
#     4   9  18  33  56  82 111 141 176 218 269 322
#
# _framework density 18.17652
#
# number of rings (size 3 to 8) (size 9 to 14) (size 15 to 20)
#    0.000    1.846    1.538    3.462    0.000    3.692 
#    0.000    0.385    0.000    0.462    0.000    0.000 
#    0.000    0.000    0.000    0.000    0.000    0.000 
#
# Total GULP energy -644813.607214 kJ/mol
# GULP energy per Si atom -12400.261677 kJ/mol
# Density = 1.813515 g / cm^3
# Si number density = 18.176520 Si / 1000 Ang^3
#
#
#
# Elastic Constant Matrix: (Units=GPa)
#
#
# Indices 1 2 3 4 5 6 
#
# 1 76.2879 33.3718 52.7792 0.0000 0.0000 0.0000
# 2 33.3718 86.4910 47.9634 0.0000 0.0000 0.0000
# 3 52.7792 47.9634 135.7868 0.0000 0.0000 0.0000
# 4 0.0000 0.0000 0.0000 22.1236 0.0000 0.0000
# 5 0.0000 0.0000 0.0000 0.0000 32.8426 0.0000
# 6 0.0000 0.0000 0.0000 0.0000 0.0000 -13.5588
#
#
#
# Elastic Compliance Matrix: (Units=1/GPa)
#
#
# Indices 1 2 3 4 5 6 
#
# 1 0.018992 -0.004022 -0.005961 0.000000 0.000000 0.000000
# 2 -0.004022 0.015230 -0.003816 0.000000 0.000000 0.000000
# 3 -0.005961 -0.003816 0.011030 0.000000 0.000000 0.000000
# 4 0.000000 0.000000 0.000000 0.045201 0.000000 0.000000
# 5 0.000000 0.000000 0.000000 0.000000 0.030448 0.000000
# 6 0.000000 0.000000 0.000000 0.000000 0.000000 -0.073753
#
#
# Mechanical properties :
#
#
# Convention : Reuss Voigt Hill
#
# Bulk Modulus (GPa) = 56.64989 62.97720 59.81354
# Shear Modulus (GPa) = 62.01076 19.24491 40.62783
#
# Velocity S-wave (km/s) = 5.84721 3.25742 4.73290
# Velocity P-wave (km/s) = 8.76474 6.99074 7.92752
#
# Compressibility (1/GPa) = 0.01765228
#
# Stress axis : x y z
#
# Youngs Moduli (GPa) = 52.65382 65.65944 90.66478
#
# Poissons Ratio (x) = 0.26409 0.54048
# Poissons Ratio (y) = 0.21178 0.34601
# Poissons Ratio (z) = 0.31389 0.25058
#
# Static dielectric constant tensor:
#      x y z
#    x 3.344220 0.000000 0.000000 
#    y 0.000000 3.993490 0.000000 
#    z 0.000000 0.000000 3.588250 
# 
# 
# High freq. dielectric constant tensor:
#      x y z
#    x 1.704200 0.000000 0.000000 
#    y 0.000000 1.685610 0.000000 
#    z 0.000000 0.000000 1.713920 
# 
# From -- ./inp_files/21625.got.cif
#   From: 2010.03.12/outbox.cif.g09.slc.cpg/sg51_11_cif.got.tgz:21625.got - 2010.04.16 13:43:02.
