data_PCOD8209234
_publ_section_title
;
Structure prediction by ZEFSAII (Michael W. Deem and Ramdas Pophale) SiO2 
 PCOD8209234
Probable space group: P M M A
;
_chemical_formula_sum "Si O2"
_cell_formula_units_Z 56
_cell_length_a 15.828411
_cell_length_b 19.405927
_cell_length_c 9.500931
_cell_angle_alpha 90.000000
_cell_angle_beta 90.000000
_cell_angle_gamma 90.000000
_cell_volume 2918.353360
_symmetry_space_group_name_H-M "P M M A"
_symmetry_group_IT_number 51
_symmetry_cell_setting 'orthorhombic'
loop_
_space_group_symop_operation_xyz
x,y,z
1/2-x,-y,z
1/2+x,-y,-z
-x,y,-z
-x,-y,-z
1/2+x,y,-z
1/2-x,y,z
x,-y,z
loop_
_atom_site_type_symbol
_atom_site_label
_atom_site_fract_x
_atom_site_fract_y
_atom_site_fract_z
Si Si1 0.951614 0.926718 0.360952
Si Si2 0.348385 0.208077 0.197781
Si Si3 0.347976 0.418936 0.359045
Si Si4 0.577884 0.323115 0.410845
Si Si5 0.036508 0.337697 0.152867
Si Si6 0.844270 0.189867 0.482009
Si Si7 0.928654 0.077583 0.885712
O O1 0.886903 0.865327 0.380344
O O2 0.000000 0.943356 0.500000
O O3 0.024151 0.904186 0.256384
O O4 0.908194 0.000000 0.312092
O O5 0.250000 0.231977 0.189070
O O6 0.412697 0.265668 0.137805
O O7 0.377717 0.194959 0.358457
O O8 0.357533 0.137479 0.105199
O O9 0.250000 0.397236 0.345130
O O10 0.359411 0.500000 0.366893
O O11 0.385805 0.389382 0.505624
O O12 0.397314 0.391819 0.220861
O O13 0.500000 0.292086 0.500000
O O14 0.546451 0.338055 0.253000
O O15 0.648628 0.263988 0.406707
O O16 0.000000 0.359977 0.000000
O O17 0.750000 0.164074 0.488891
O O18 0.888718 0.000000 0.888331
O O19 0.000000 0.085909 0.000000
#
# Coordination Sequence:
#
# PCOD8209234 Si02
#       7
#     8   8   8   8   8   8   8
#     4  10  19  33  52  74 102 137 180 230 283 338
#     4  11  21  35  57  82 113 147 188 241 290 340
#     4  10  21  40  65  90 118 152 191 235 282 332
#     4  10  19  35  60  83 110 148 192 232 273 330
#     4  11  23  38  59  88 121 156 192 234 281 341
#     4  11  20  32  54  81 109 139 183 239 288 334
#     4  10  21  37  55  76 106 146 191 235 284 343
#
# _framework density 19.188903
#
# number of rings (size 3 to 8) (size 9 to 14) (size 15 to 20)
#    0.000    1.571    4.286    2.571    0.000    3.429 
#    0.000    6.429    0.000    4.286    0.000    0.000 
#    0.000    0.000    0.000    0.000    0.000    0.000 
#
# Total GULP energy -693799.406357 kJ/mol
# GULP energy per Si atom -12389.275114 kJ/mol
# Density = 1.914523 g / cm^3
# Si number density = 19.188903 Si / 1000 Ang^3
#
#
#
# Elastic Constant Matrix: (Units=GPa)
#
#
# Indices 1 2 3 4 5 6 
#
# 1 66.9606 44.0782 31.0655 0.0000 0.0000 0.0000
# 2 44.0782 118.4707 24.9631 0.0000 0.0000 0.0000
# 3 31.0655 24.9631 89.4414 0.0000 0.0000 0.0000
# 4 0.0000 0.0000 0.0000 19.3088 0.0000 0.0000
# 5 0.0000 0.0000 0.0000 0.0000 15.0121 0.0000
# 6 0.0000 0.0000 0.0000 0.0000 0.0000 25.1286
#
#
#
# Elastic Compliance Matrix: (Units=1/GPa)
#
#
# Indices 1 2 3 4 5 6 
#
# 1 0.022258 -0.007068 -0.005758 0.000000 0.000000 0.000000
# 2 -0.007068 0.011213 -0.000675 0.000000 0.000000 0.000000
# 3 -0.005758 -0.000675 0.013369 0.000000 0.000000 0.000000
# 4 0.000000 0.000000 0.000000 0.051790 0.000000 0.000000
# 5 0.000000 0.000000 0.000000 0.000000 0.066613 0.000000
# 6 0.000000 0.000000 0.000000 0.000000 0.000000 0.039795
#
#
# Mechanical properties :
#
#
# Convention : Reuss Voigt Hill
#
# Bulk Modulus (GPa) = 50.40796 52.78736 51.59766
# Shear Modulus (GPa) = 20.95095 23.54095 22.24595
#
# Velocity S-wave (km/s) = 3.30786 3.50637 3.40856
# Velocity P-wave (km/s) = 6.39653 6.63038 6.51450
#
# Compressibility (1/GPa) = 0.01983814
#
# Stress axis : x y z
#
# Youngs Moduli (GPa) = 44.92695 89.18378 74.80118
#
# Poissons Ratio (x) = 0.63036 0.43072
# Poissons Ratio (y) = 0.31755 0.05046
# Poissons Ratio (z) = 0.25870 0.06016
#
# Static dielectric constant tensor:
#      x y z
#    x 3.431640 0.000000 0.000000 
#    y 0.000000 3.614580 0.000000 
#    z 0.000000 0.000000 3.394790 
# 
# 
# High freq. dielectric constant tensor:
#      x y z
#    x 1.736230 0.000000 0.000000 
#    y 0.000000 1.753180 0.000000 
#    z 0.000000 0.000000 1.730390 
# 
# From -- ./inp_files/8540.got.cif
#   From: 2010.03.12/outbox.cif.g09.slc.cpg/sg51_5_cif.got.tgz:8540.got - 2010.04.16 13:43:02.
