data_PCOD8209777
_publ_section_title
;
Structure prediction by ZEFSAII (Michael W. Deem and Ramdas Pophale) SiO2 
 PCOD8209777
Probable space group: P M M A
;
_chemical_formula_sum "Si O2"
_cell_formula_units_Z 64
_cell_length_a 15.074587
_cell_length_b 23.287753
_cell_length_c 9.087555
_cell_angle_alpha 90.000000
_cell_angle_beta 90.000000
_cell_angle_gamma 90.000000
_cell_volume 3190.215796
_symmetry_space_group_name_H-M "P M M A"
_symmetry_group_IT_number 51
_symmetry_cell_setting 'orthorhombic'
loop_
_space_group_symop_operation_xyz
x,y,z
1/2-x,-y,z
1/2+x,-y,-z
-x,y,-z
-x,-y,-z
1/2+x,y,-z
1/2-x,y,z
x,-y,z
loop_
_atom_site_type_symbol
_atom_site_label
_atom_site_fract_x
_atom_site_fract_y
_atom_site_fract_z
Si Si1 0.350073 0.272698 0.584893
Si Si2 0.147982 0.752891 0.264285
Si Si3 0.584858 0.152586 0.410537
Si Si4 0.351669 0.936282 0.351750
Si Si5 0.649500 0.633568 0.867105
Si Si6 0.645864 0.374080 0.207376
Si Si7 0.964131 0.137746 0.836875
Si Si8 0.990417 0.566103 0.666615
O O1 0.250000 0.293504 0.572308
O O2 0.390031 0.272918 0.418977
O O3 0.354898 0.206580 0.637305
O O4 0.391174 0.316941 0.705390
O O5 0.250000 0.776002 0.284056
O O6 0.144898 0.701894 0.149053
O O7 0.084496 0.802820 0.205150
O O8 0.500000 0.176117 0.500000
O O9 0.634880 0.105616 0.508920
O O10 0.551732 0.125085 0.259496
O O11 0.250000 0.938949 0.311680
O O12 0.397938 0.914073 0.202121
O O13 0.387522 0.000000 0.391597
O O14 0.750000 0.611450 0.835928
O O15 0.583329 0.601169 0.757380
O O16 0.622407 0.626876 0.035931
O O17 0.750000 0.384936 0.233666
O O18 0.588624 0.427393 0.265585
O O19 0.000000 0.137255 0.000000
O O20 0.961291 0.500000 0.671174
O O21 0.000000 0.588872 0.500000
#
# Coordination Sequence:
#
# PCOD8209777 Si02
#       8
#     8   8   8   8   8   8   8   8
#     4  10  19  34  57  84 118 155 199 249 298 356
#     4  10  20  37  59  82 121 165 202 245 301 373
#     4  10  20  34  56  88 117 152 201 252 303 357
#     4  10  21  42  67  85 113 162 213 258 308 372
#     4  10  23  41  62  92 127 165 204 255 319 380
#     4  10  23  40  61  92 126 164 205 256 321 378
#     4  11  24  36  55  91 127 162 199 250 317 371
#     4  11  25  43  65  91 121 165 216 264 306 365
#
# _framework density 20.061337999999999
#
# number of rings (size 3 to 8) (size 9 to 14) (size 15 to 20)
#    0.000    1.750    2.500    1.875    3.500    6.000 
#    0.000    4.375    0.000    1.500    0.000    0.000 
#    0.000    0.000    0.000    0.000    0.000    0.000 
#
# Total GULP energy -793005.779577 kJ/mol
# GULP energy per Si atom -12390.715306 kJ/mol
# Density = 2.001568 g / cm^3
# Si number density = 20.061338 Si / 1000 Ang^3
#
#
#
# Elastic Constant Matrix: (Units=GPa)
#
#
# Indices 1 2 3 4 5 6 
#
# 1 74.0015 36.8562 62.4090 0.0000 0.0000 0.0000
# 2 36.8562 83.5391 41.0590 0.0000 0.0000 0.0000
# 3 62.4090 41.0590 151.5341 0.0000 0.0000 0.0000
# 4 0.0000 0.0000 0.0000 18.4504 0.0000 0.0000
# 5 0.0000 0.0000 0.0000 0.0000 28.2370 0.0000
# 6 0.0000 0.0000 0.0000 0.0000 0.0000 28.3631
#
#
#
# Elastic Compliance Matrix: (Units=1/GPa)
#
#
# Indices 1 2 3 4 5 6 
#
# 1 0.023362 -0.006435 -0.007878 0.000000 0.000000 0.000000
# 2 -0.006435 0.015582 -0.001572 0.000000 0.000000 0.000000
# 3 -0.007878 -0.001572 0.010270 0.000000 0.000000 0.000000
# 4 0.000000 0.000000 0.000000 0.054199 0.000000 0.000000
# 5 0.000000 0.000000 0.000000 0.000000 0.035415 0.000000
# 6 0.000000 0.000000 0.000000 0.000000 0.000000 0.035257
#
#
# Mechanical properties :
#
#
# Convention : Reuss Voigt Hill
#
# Bulk Modulus (GPa) = 57.32606 65.52476 61.42541
# Shear Modulus (GPa) = 23.62179 26.26013 24.94096
#
# Velocity S-wave (km/s) = 3.43516 3.62192 3.52978
# Velocity P-wave (km/s) = 6.66117 7.08691 6.87733
#
# Compressibility (1/GPa) = 0.01744407
#
# Stress axis : x y z
#
# Youngs Moduli (GPa) = 42.80444 64.17665 97.37478
#
# Poissons Ratio (x) = 0.41298 0.76712
# Poissons Ratio (y) = 0.27545 0.15305
# Poissons Ratio (z) = 0.33721 0.10087
#
# Static dielectric constant tensor:
#      x y z
#    x 3.773580 0.000000 0.000000 
#    y 0.000000 3.650550 0.000000 
#    z 0.000000 0.000000 3.893910 
# 
# 
# High freq. dielectric constant tensor:
#      x y z
#    x 1.786500 0.000000 0.000000 
#    y 0.000000 1.773740 0.000000 
#    z 0.000000 0.000000 1.782450 
# 
# From -- ./inp_files/8722.got.cif
#   From: 2010.03.12/outbox.cif.g09.slc.cpg/sg51_5_cif.got.tgz:8722.got - 2010.04.16 13:43:02.
