data_PCOD8209864
_publ_section_title
;
Structure prediction by ZEFSAII (Michael W. Deem and Ramdas Pophale) SiO2 
 PCOD8209864
Probable space group: P M M A
;
_chemical_formula_sum "Si O2"
_cell_formula_units_Z 28
_cell_length_a 7.553394
_cell_length_b 12.109392
_cell_length_c 18.930954
_cell_angle_alpha 90.000000
_cell_angle_beta 90.000000
_cell_angle_gamma 90.000000
_cell_volume 1731.557738
_symmetry_space_group_name_H-M "P M M A"
_symmetry_group_IT_number 51
_symmetry_cell_setting 'orthorhombic'
loop_
_space_group_symop_operation_xyz
x,y,z
1/2-x,-y,z
1/2+x,-y,-z
-x,y,-z
-x,-y,-z
1/2+x,y,-z
1/2-x,y,z
x,-y,z
loop_
_atom_site_type_symbol
_atom_site_label
_atom_site_fract_x
_atom_site_fract_y
_atom_site_fract_z
Si Si1 0.053402 0.631379 0.423253
Si Si2 0.040973 0.239472 0.082588
Si Si3 0.250000 0.368502 0.677927
Si Si4 0.250000 0.369084 0.837526
Si Si5 0.044404 0.000000 0.080972
O O1 0.250000 0.672084 0.403790
O O2 0.043104 0.500000 0.425985
O O3 0.000000 0.678698 0.500000
O O4 0.922435 0.677223 0.363076
O O5 0.250000 0.258630 0.096091
O O6 0.929056 0.329269 0.124805
O O7 0.974958 0.117637 0.111145
O O8 0.000000 0.252022 0.000000
O O9 0.250000 0.500000 0.677824
O O10 0.250000 0.323553 0.757520
O O11 0.250000 0.500000 0.840006
O O12 0.250000 0.000000 0.092760
O O13 0.000000 0.000000 0.000000
#
# Coordination Sequence:
#
# PCOD8209864 Si02
#       5
#     8   8   4   4   4
#     4   9  14  22  40  61  79 105 146 196 238 267
#     4  10  19  35  53  73  91 118 159 208 253 290
#     4   9  18  30  39  57  88 118 158 196 223 267
#     4  11  24  35  45  65  98 141 173 192 223 277
#     4   8  16  28  52  78  92 102 140 204 267 305
#
# _framework density 16.170411999999999
#
# number of rings (size 3 to 8) (size 9 to 14) (size 15 to 20)
#    0.000    2.571    2.857    0.000    2.000    2.286 
#    0.000    2.857    0.000    0.000    0.000    0.000 
#    0.000    0.000    0.000    5.143    0.000    2.857 
#
# Total GULP energy -346871.574849 kJ/mol
# GULP energy per Si atom -12388.270530 kJ/mol
# Density = 1.613361 g / cm^3
# Si number density = 16.170412 Si / 1000 Ang^3
#
#
#
# Elastic Constant Matrix: (Units=GPa)
#
#
# Indices 1 2 3 4 5 6 
#
# 1 133.2691 30.4953 61.3181 0.0000 0.0000 0.0000
# 2 30.4953 56.5602 33.2984 0.0000 0.0000 0.0000
# 3 61.3181 33.2984 111.9851 0.0000 0.0000 0.0000
# 4 0.0000 0.0000 0.0000 0.1234 0.0000 0.0000
# 5 0.0000 0.0000 0.0000 0.0000 23.7195 0.0000
# 6 0.0000 0.0000 0.0000 0.0000 0.0000 13.0155
#
#
#
# Elastic Compliance Matrix: (Units=1/GPa)
#
#
# Indices 1 2 3 4 5 6 
#
# 1 0.010366 -0.002724 -0.004866 0.000000 0.000000 0.000000
# 2 -0.002724 0.022148 -0.005094 0.000000 0.000000 0.000000
# 3 -0.004866 -0.005094 0.013109 0.000000 0.000000 0.000000
# 4 0.000000 0.000000 0.000000 8.103806 0.000000 0.000000
# 5 0.000000 0.000000 0.000000 0.000000 0.042159 0.000000
# 6 0.000000 0.000000 0.000000 0.000000 0.000000 0.076832
#
#
# Mechanical properties :
#
#
# Convention : Reuss Voigt Hill
#
# Bulk Modulus (GPa) = 49.37169 61.33756 55.35462
# Shear Modulus (GPa) = 0.60237 19.15185 9.87711
#
# Velocity S-wave (km/s) = 0.61100 3.44521 2.47415
# Velocity P-wave (km/s) = 5.57639 7.33759 6.51676
#
# Compressibility (1/GPa) = 0.02025452
#
# Stress axis : x y z
#
# Youngs Moduli (GPa) = 96.47129 45.15067 76.28504
#
# Poissons Ratio (x) = 0.12300 0.37119
# Poissons Ratio (y) = 0.26281 0.38859
# Poissons Ratio (z) = 0.46941 0.23000
#
# Static dielectric constant tensor:
#      x y z
#    x 3.236540 0.000000 0.000000 
#    y 0.000000 2.893670 0.000000 
#    z 0.000000 0.000000 3.009860 
# 
# 
# High freq. dielectric constant tensor:
#      x y z
#    x 1.641460 0.000000 0.000000 
#    y 0.000000 1.570900 0.000000 
#    z 0.000000 0.000000 1.600790 
# 
# From -- ./inp_files/26930.got.cif
#   From: 2010.03.12/outbox.cif.g09.slc.cpg/sg51_14_cif.got.tgz:26930.got - 2010.04.16 13:43:02.
