data_PCOD8209105
_publ_section_title
;
Structure prediction by ZEFSAII (Michael W. Deem and Ramdas Pophale) SiO2 
 PCOD8209105
Probable space group: P M M A
;
_chemical_formula_sum "Si O2"
_cell_formula_units_Z 48
_cell_length_a 8.737446
_cell_length_b 30.742990
_cell_length_c 9.137101
_cell_angle_alpha 90.000000
_cell_angle_beta 90.000000
_cell_angle_gamma 90.000000
_cell_volume 2454.364350
_symmetry_space_group_name_H-M "P M M A"
_symmetry_group_IT_number 51
_symmetry_cell_setting 'orthorhombic'
loop_
_space_group_symop_operation_xyz
x,y,z
1/2-x,-y,z
1/2+x,-y,-z
-x,y,-z
-x,-y,-z
1/2+x,y,-z
1/2-x,y,z
x,-y,z
loop_
_atom_site_type_symbol
_atom_site_label
_atom_site_fract_x
_atom_site_fract_y
_atom_site_fract_z
Si Si1 0.068858 0.122253 0.842392
Si Si2 0.071598 0.801536 0.343267
Si Si3 0.569181 0.359726 0.339327
Si Si4 0.428744 0.050577 0.346389
Si Si5 0.929430 0.545844 0.341861
Si Si6 0.572782 0.283805 0.844771
O O1 0.250000 0.121305 0.854614
O O2 0.016816 0.158908 0.730165
O O3 0.008875 0.075774 0.786156
O O4 0.000000 0.132833 0.000000
O O5 0.250000 0.813410 0.355267
O O6 0.043206 0.758004 0.253513
O O7 0.000000 0.792913 0.500000
O O8 0.500000 0.352242 0.500000
O O9 0.750000 0.353960 0.353006
O O10 0.522607 0.407634 0.271929
O O11 0.505558 0.325423 0.225825
O O12 0.500000 0.066056 0.500000
O O13 0.250000 0.061388 0.349268
O O14 0.461466 0.000000 0.319250
O O15 0.750000 0.546421 0.362495
O O16 0.977320 0.500000 0.258510
O O17 0.000000 0.544227 0.500000
O O18 0.750000 0.294145 0.864443
O O19 0.500000 0.273499 0.000000
#
# Coordination Sequence:
#
# PCOD8209105 Si02
#       6
#     8   8   8   8   8   8
#     4  12  25  41  62  88 121 157 194 238 287 340
#     4  11  24  42  64  89 116 148 187 230 278 333
#     4  10  19  32  53  80 111 145 183 228 275 328
#     4  10  21  39  63  90 121 158 200 244 289 338
#     4   8  14  25  43  70 103 138 176 220 270 321
#     4  11  24  40  59  82 111 146 184 229 280 335
#
# _framework density 19.556996999999999
#
# number of rings (size 3 to 8) (size 9 to 14) (size 15 to 20)
#    0.000    1.667    0.000    5.000    0.000    7.333 
#    0.000    0.000    0.000    0.500    0.000    0.000 
#    0.000    0.000    0.000    0.000    0.000    0.000 
#
# Total GULP energy -595011.286422 kJ/mol
# GULP energy per Si atom -12396.068467 kJ/mol
# Density = 1.951248 g / cm^3
# Si number density = 19.556997 Si / 1000 Ang^3
#
#
#
# Elastic Constant Matrix: (Units=GPa)
#
#
# Indices 1 2 3 4 5 6 
#
# 1 125.1759 62.8816 55.9615 0.0000 0.0000 0.0000
# 2 62.8816 111.3448 42.1436 0.0000 0.0000 0.0000
# 3 55.9615 42.1436 105.2841 0.0000 0.0000 0.0000
# 4 0.0000 0.0000 0.0000 -3.2417 0.0000 0.0000
# 5 0.0000 0.0000 0.0000 0.0000 33.3437 0.0000
# 6 0.0000 0.0000 0.0000 0.0000 0.0000 24.3079
#
#
#
# Elastic Compliance Matrix: (Units=1/GPa)
#
#
# Indices 1 2 3 4 5 6 
#
# 1 0.012806 -0.005487 -0.004611 0.000000 0.000000 0.000000
# 2 -0.005487 0.012936 -0.002261 0.000000 0.000000 0.000000
# 3 -0.004611 -0.002261 0.012854 0.000000 0.000000 0.000000
# 4 0.000000 0.000000 0.000000 -0.308482 0.000000 0.000000
# 5 0.000000 0.000000 0.000000 0.000000 0.029991 0.000000
# 6 0.000000 0.000000 0.000000 0.000000 0.000000 0.041139
#
#
# Mechanical properties :
#
#
# Convention : Reuss Voigt Hill
#
# Bulk Modulus (GPa) = 72.05699 73.75311 72.90505
# Shear Modulus (GPa) = -29.51397 22.93653 -3.28872
#
# Velocity S-wave (km/s) = -3.88896 3.42834 -1.29818
# Velocity P-wave (km/s) = 4.09380 7.31198 5.92555
#
# Compressibility (1/GPa) = 0.01387790
#
# Stress axis : x y z
#
# Youngs Moduli (GPa) = 78.08537 77.30358 77.79723
#
# Poissons Ratio (x) = 0.42419 0.35869
# Poissons Ratio (y) = 0.42848 0.17593
# Poissons Ratio (z) = 0.36001 0.17481
#
# Static dielectric constant tensor:
#      x y z
#    x 3.743350 0.000000 0.000000 
#    y 0.000000 4.159000 0.000000 
#    z 0.000000 0.000000 3.379820 
# 
# 
# High freq. dielectric constant tensor:
#      x y z
#    x 1.777170 0.000000 0.000000 
#    y 0.000000 1.790150 0.000000 
#    z 0.000000 0.000000 1.738620 
# 
# From -- ./inp_files/5996.got.cif
#   From: 2010.03.12/outbox.cif.g09.slc.cpg/sg51_3_cif.got.tgz:5996.got - 2010.04.16 13:43:02.
