data_PCOD8209206
_publ_section_title
;
Structure prediction by ZEFSAII (Michael W. Deem and Ramdas Pophale) SiO2 
 PCOD8209206
Probable space group: P M M A
;
_chemical_formula_sum "Si O2"
_cell_formula_units_Z 48
_cell_length_a 9.411089
_cell_length_b 14.713133
_cell_length_c 19.023613
_cell_angle_alpha 90.000000
_cell_angle_beta 90.000000
_cell_angle_gamma 90.000000
_cell_volume 2634.135090
_symmetry_space_group_name_H-M "P M M A"
_symmetry_group_IT_number 51
_symmetry_cell_setting 'orthorhombic'
loop_
_space_group_symop_operation_xyz
x,y,z
1/2-x,-y,z
1/2+x,-y,-z
-x,y,-z
-x,-y,-z
1/2+x,y,-z
1/2-x,y,z
x,-y,z
loop_
_atom_site_type_symbol
_atom_site_label
_atom_site_fract_x
_atom_site_fract_y
_atom_site_fract_z
Si Si1 0.916985 0.400236 0.720733
Si Si2 0.089456 0.350200 0.433069
Si Si3 0.086982 0.897187 0.068795
Si Si4 0.589457 0.134885 0.564871
Si Si5 0.591124 0.900225 0.303552
Si Si6 0.085376 0.220562 0.202677
O O1 0.750000 0.399895 0.710146
O O2 0.971272 0.500000 0.745694
O O3 0.979230 0.379851 0.642264
O O4 0.954163 0.326548 0.781913
O O5 0.250000 0.387398 0.441682
O O6 0.088166 0.242587 0.432302
O O7 0.000000 0.387695 0.500000
O O8 0.250000 0.896051 0.046688
O O9 0.057504 0.815779 0.124118
O O10 0.047482 0.000000 0.096368
O O11 0.000000 0.871546 0.000000
O O12 0.500000 0.097300 0.500000
O O13 0.750000 0.097797 0.560801
O O14 0.512747 0.093328 0.631266
O O15 0.750000 0.866875 0.324857
O O16 0.525585 0.832802 0.248481
O O17 0.599320 0.000000 0.269147
O O18 0.250000 0.201386 0.224147
#
# Coordination Sequence:
#
# PCOD8209206 Si02
#       6
#     8   8   8   8   8   8
#     4   9  17  31  52  77 103 132 172 219 263 311
#     4   9  17  30  48  71  96 127 167 214 265 312
#     4   9  18  32  53  81 110 138 170 207 248 301
#     4  10  19  33  51  70  95 131 173 218 265 313
#     4  11  23  35  49  73 102 134 172 213 260 313
#     4  10  19  35  56  78 104 138 174 210 256 305
#
# _framework density 18.222300000000001
#
# number of rings (size 3 to 8) (size 9 to 14) (size 15 to 20)
#    0.000    2.333    1.667    1.500    0.000    4.000 
#    0.000    1.667    0.000    2.000    0.000    0.000 
#    0.000    0.000    0.000    0.000    0.000    0.000 
#
# Total GULP energy -594694.454150 kJ/mol
# GULP energy per Si atom -12389.467795 kJ/mol
# Density = 1.818083 g / cm^3
# Si number density = 18.222300 Si / 1000 Ang^3
#
#
#
# Elastic Constant Matrix: (Units=GPa)
#
#
# Indices 1 2 3 4 5 6 
#
# 1 94.2323 43.1129 47.5202 0.0000 0.0000 0.0000
# 2 43.1129 105.5840 66.6630 0.0000 0.0000 0.0000
# 3 47.5202 66.6630 112.2316 0.0000 0.0000 0.0000
# 4 0.0000 0.0000 0.0000 18.9662 0.0000 0.0000
# 5 0.0000 0.0000 0.0000 0.0000 32.1032 0.0000
# 6 0.0000 0.0000 0.0000 0.0000 0.0000 12.4076
#
#
#
# Elastic Compliance Matrix: (Units=1/GPa)
#
#
# Indices 1 2 3 4 5 6 
#
# 1 0.014134 -0.003189 -0.004090 0.000000 0.000000 0.000000
# 2 -0.003189 0.015874 -0.008079 0.000000 0.000000 0.000000
# 3 -0.004090 -0.008079 0.015441 0.000000 0.000000 0.000000
# 4 0.000000 0.000000 0.000000 0.052725 0.000000 0.000000
# 5 0.000000 0.000000 0.000000 0.000000 0.031150 0.000000
# 6 0.000000 0.000000 0.000000 0.000000 0.000000 0.080596
#
#
# Mechanical properties :
#
#
# Convention : Reuss Voigt Hill
#
# Bulk Modulus (GPa) = 67.87558 69.62665 68.75111
# Shear Modulus (GPa) = 20.36289 23.01219 21.68754
#
# Velocity S-wave (km/s) = 3.34649 3.55753 3.45362
# Velocity P-wave (km/s) = 7.22921 7.42746 7.32901
#
# Compressibility (1/GPa) = 0.01473284
#
# Stress axis : x y z
#
# Youngs Moduli (GPa) = 70.75317 62.99731 64.76463
#
# Poissons Ratio (x) = 0.20087 0.26491
# Poissons Ratio (y) = 0.22560 0.52320
# Poissons Ratio (z) = 0.28941 0.50893
#
# Static dielectric constant tensor:
#      x y z
#    x 3.361620 0.000000 0.000000 
#    y 0.000000 3.597760 0.000000 
#    z 0.000000 0.000000 3.929820 
# 
# 
# High freq. dielectric constant tensor:
#      x y z
#    x 1.694510 0.000000 0.000000 
#    y 0.000000 1.704530 0.000000 
#    z 0.000000 0.000000 1.683240 
# 
# From -- ./inp_files/27594.got.cif
#   From: 2010.03.12/outbox.cif.g09.slc.cpg/sg51_14_cif.got.tgz:27594.got - 2010.04.16 13:43:02.
