data_PCOD8209680
_publ_section_title
;
Structure prediction by ZEFSAII (Michael W. Deem and Ramdas Pophale) SiO2 
 PCOD8209680
Probable space group: P M M A
;
_chemical_formula_sum "Si O2"
_cell_formula_units_Z 48
_cell_length_a 9.068800
_cell_length_b 30.633668
_cell_length_c 9.314208
_cell_angle_alpha 90.000000
_cell_angle_beta 90.000000
_cell_angle_gamma 90.000000
_cell_volume 2587.585791
_symmetry_space_group_name_H-M "P M M A"
_symmetry_group_IT_number 51
_symmetry_cell_setting 'orthorhombic'
loop_
_space_group_symop_operation_xyz
x,y,z
1/2-x,-y,z
1/2+x,-y,-z
-x,y,-z
-x,-y,-z
1/2+x,y,-z
1/2-x,y,z
x,-y,z
loop_
_atom_site_type_symbol
_atom_site_label
_atom_site_fract_x
_atom_site_fract_y
_atom_site_fract_z
Si Si1 0.424173 0.094755 0.655089
Si Si2 0.923111 0.342698 0.645625
Si Si3 0.423252 0.419339 0.151735
Si Si4 0.579010 0.755723 0.642959
Si Si5 0.423567 0.500000 0.346819
Si Si6 0.424114 0.166513 0.152112
Si Si7 0.416973 0.000000 0.645823
O O1 0.500000 0.098436 0.500000
O O2 0.250000 0.105513 0.641736
O O3 0.504017 0.127549 0.760279
O O4 0.450486 0.046083 0.725585
O O5 0.750000 0.346476 0.619030
O O6 0.972026 0.373487 0.776919
O O7 0.972271 0.293273 0.684081
O O8 0.000000 0.358755 0.500000
O O9 0.250000 0.421383 0.124688
O O10 0.474522 0.457725 0.257726
O O11 0.500000 0.424963 0.000000
O O12 0.500000 0.772847 0.500000
O O13 0.750000 0.756716 0.606903
O O14 0.539220 0.787503 0.773010
O O15 0.250000 0.500000 0.373282
O O16 0.500000 0.500000 0.500000
O O17 0.250000 0.158470 0.137433
O O18 0.500000 0.168503 0.000000
O O19 0.500000 0.000000 0.500000
O O20 0.250000 0.000000 0.596896
#
# Coordination Sequence:
#
# PCOD8209680 Si02
#       7
#     8   8   8   8   4   8   4
#     4  10  19  34  56  81 107 136 171 211 254 304
#     4   9  18  34  54  77 103 133 170 212 254 304
#     4  10  21  35  52  76 107 138 172 211 255 306
#     4   9  19  35  55  77 102 132 170 213 257 304
#     4  10  21  36  54  78 104 134 173 218 260 304
#     4  11  23  37  52  74 104 138 174 215 261 310
#     4   8  16  30  51  78 105 132 166 208 252 298
#
# _framework density 18.55011
#
# number of rings (size 3 to 8) (size 9 to 14) (size 15 to 20)
#    0.000    2.333    0.000    2.250    0.000    5.333 
#    0.000    0.417    0.000    0.000    0.000    0.000 
#    0.000    0.000    0.000    0.000    0.000    0.000 
#
# Total GULP energy -595040.303729 kJ/mol
# GULP energy per Si atom -12396.672994 kJ/mol
# Density = 1.850789 g / cm^3
# Si number density = 18.550110 Si / 1000 Ang^3
#
#
#
# Elastic Constant Matrix: (Units=GPa)
#
#
# Indices 1 2 3 4 5 6 
#
# 1 69.5079 60.2222 63.7570 0.0000 0.0000 0.0000
# 2 60.2222 138.9654 89.5807 0.0000 0.0000 0.0000
# 3 63.7570 89.5807 155.5959 0.0000 0.0000 0.0000
# 4 0.0000 0.0000 0.0000 4.1176 0.0000 0.0000
# 5 0.0000 0.0000 0.0000 0.0000 36.8881 0.0000
# 6 0.0000 0.0000 0.0000 0.0000 0.0000 23.1939
#
#
#
# Elastic Compliance Matrix: (Units=1/GPa)
#
#
# Indices 1 2 3 4 5 6 
#
# 1 0.026987 -0.007262 -0.006877 0.000000 0.000000 0.000000
# 2 -0.007262 0.013397 -0.004737 0.000000 0.000000 0.000000
# 3 -0.006877 -0.004737 0.011972 0.000000 0.000000 0.000000
# 4 0.000000 0.000000 0.000000 0.242862 0.000000 0.000000
# 5 0.000000 0.000000 0.000000 0.000000 0.027109 0.000000
# 6 0.000000 0.000000 0.000000 0.000000 0.000000 0.043115
#
#
# Mechanical properties :
#
#
# Convention : Reuss Voigt Hill
#
# Bulk Modulus (GPa) = 68.47829 87.90989 78.19409
# Shear Modulus (GPa) = 12.25305 22.87389 17.56347
#
# Velocity S-wave (km/s) = 2.57288 3.51534 3.08037
# Velocity P-wave (km/s) = 6.76917 7.99814 7.40918
#
# Compressibility (1/GPa) = 0.01460317
#
# Stress axis : x y z
#
# Youngs Moduli (GPa) = 37.05520 74.64487 83.52575
#
# Poissons Ratio (x) = 0.54205 0.57443
# Poissons Ratio (y) = 0.26908 0.39569
# Poissons Ratio (z) = 0.25484 0.35362
#
# Static dielectric constant tensor:
#      x y z
#    x 3.444170 0.000000 0.000000 
#    y 0.000000 4.115550 0.000000 
#    z 0.000000 0.000000 3.175520 
# 
# 
# High freq. dielectric constant tensor:
#      x y z
#    x 1.722020 0.000000 0.000000 
#    y 0.000000 1.742140 0.000000 
#    z 0.000000 0.000000 1.703070 
# 
# From -- ./inp_files/6219.got.cif
#   From: 2010.03.12/outbox.cif.g09.slc.cpg/sg51_4_cif.got.tgz:6219.got - 2010.04.16 13:43:02.
