data_PCOD8209380
_publ_section_title
;
Structure prediction by ZEFSAII (Michael W. Deem and Ramdas Pophale) SiO2 
 PCOD8209380
Probable space group: P M M A
;
_chemical_formula_sum "Si O2"
_cell_formula_units_Z 64
_cell_length_a 26.241051
_cell_length_b 8.918845
_cell_length_c 13.388812
_cell_angle_alpha 90.000000
_cell_angle_beta 90.000000
_cell_angle_gamma 90.000000
_cell_volume 3133.515773
_symmetry_space_group_name_H-M "P M M A"
_symmetry_group_IT_number 51
_symmetry_cell_setting 'orthorhombic'
loop_
_space_group_symop_operation_xyz
x,y,z
1/2-x,-y,z
1/2+x,-y,-z
-x,y,-z
-x,-y,-z
1/2+x,y,-z
1/2-x,y,z
x,-y,z
loop_
_atom_site_type_symbol
_atom_site_label
_atom_site_fract_x
_atom_site_fract_y
_atom_site_fract_z
Si Si1 0.308167 0.821510 0.404950
Si Si2 0.191072 0.669955 0.793296
Si Si3 0.363732 0.176437 0.205499
Si Si4 0.951884 0.332720 0.070317
Si Si5 0.530258 0.667444 0.778364
Si Si6 0.531037 0.330277 0.410231
Si Si7 0.636660 0.177186 0.392203
Si Si8 0.648513 0.824566 0.016063
O O1 0.250000 0.762769 0.408872
O O2 0.334174 0.756728 0.302605
O O3 0.337521 0.763016 0.504391
O O4 0.309279 0.000000 0.402061
O O5 0.250000 0.676865 0.767919
O O6 0.170564 0.500000 0.793206
O O7 0.163211 0.759702 0.706390
O O8 0.182743 0.737859 0.903686
O O9 0.421797 0.229149 0.200196
O O10 0.336971 0.219966 0.099103
O O11 0.365012 0.000000 0.216162
O O12 0.927499 0.500000 0.079718
O O13 0.976572 0.276780 0.173818
O O14 0.910450 0.214792 0.034083
O O15 0.000000 0.335041 0.000000
O O16 0.543720 0.500000 0.818572
O O17 0.516404 0.667700 0.664166
O O18 0.500000 0.258120 0.500000
O O19 0.551293 0.500000 0.428795
O O20 0.578138 0.224321 0.385612
O O21 0.641451 0.000000 0.388043
O O22 0.656729 0.000000 0.033053
#
# Coordination Sequence:
#
# PCOD8209380 Si02
#       8
#     8   8   8   8   8   8   8   8
#     4   9  19  37  60  85 114 148 186 231 288 351
#     4  11  25  44  65  87 116 157 201 250 310 372
#     4  10  21  36  57  86 118 154 192 234 286 343
#     4  10  19  33  54  79 110 155 200 235 282 342
#     4  10  20  34  53  77 109 152 195 235 279 333
#     4  10  21  36  55  83 121 163 200 236 287 350
#     4  11  22  38  64  93 118 150 196 251 304 353
#     4  11  23  37  58  90 123 156 197 249 298 347
#
# _framework density 20.424341999999999
#
# number of rings (size 3 to 8) (size 9 to 14) (size 15 to 20)
#    0.000    1.750    1.250    3.000    0.000    5.000 
#    0.000    1.875    0.000    1.875    0.000    0.000 
#    0.000    0.000    0.000    0.000    0.000    0.000 
#
# Total GULP energy -793124.304686 kJ/mol
# GULP energy per Si atom -12392.567261 kJ/mol
# Density = 2.037786 g / cm^3
# Si number density = 20.424342 Si / 1000 Ang^3
#
#
#
# Elastic Constant Matrix: (Units=GPa)
#
#
# Indices 1 2 3 4 5 6 
#
# 1 70.0714 27.0060 32.9626 0.0000 0.0000 0.0000
# 2 27.0060 57.5471 40.9008 0.0000 0.0000 0.0000
# 3 32.9626 40.9008 140.9025 0.0000 0.0000 0.0000
# 4 0.0000 0.0000 0.0000 24.0800 0.0000 0.0000
# 5 0.0000 0.0000 0.0000 0.0000 29.6942 0.0000
# 6 0.0000 0.0000 0.0000 0.0000 0.0000 13.9551
#
#
#
# Elastic Compliance Matrix: (Units=1/GPa)
#
#
# Indices 1 2 3 4 5 6 
#
# 1 0.017952 -0.006854 -0.002210 0.000000 0.000000 0.000000
# 2 -0.006854 0.024511 -0.005512 0.000000 0.000000 0.000000
# 3 -0.002210 -0.005512 0.009214 0.000000 0.000000 0.000000
# 4 0.000000 0.000000 0.000000 0.041528 0.000000 0.000000
# 5 0.000000 0.000000 0.000000 0.000000 0.033677 0.000000
# 6 0.000000 0.000000 0.000000 0.000000 0.000000 0.071658
#
#
# Mechanical properties :
#
#
# Convention : Reuss Voigt Hill
#
# Bulk Modulus (GPa) = 44.39335 52.25108 48.32221
# Shear Modulus (GPa) = 21.25846 24.72262 22.99054
#
# Velocity S-wave (km/s) = 3.22970 3.48292 3.35870
# Velocity P-wave (km/s) = 5.97417 6.46627 6.22508
#
# Compressibility (1/GPa) = 0.02252589
#
# Stress axis : x y z
#
# Youngs Moduli (GPa) = 55.70274 40.79842 108.53003
#
# Poissons Ratio (x) = 0.27963 0.23988
# Poissons Ratio (y) = 0.38178 0.59817
# Poissons Ratio (z) = 0.12312 0.22486
#
# Static dielectric constant tensor:
#      x y z
#    x 3.743030 0.000000 0.000000 
#    y 0.000000 3.571080 0.000000 
#    z 0.000000 0.000000 4.024470 
# 
# 
# High freq. dielectric constant tensor:
#      x y z
#    x 1.793290 0.000000 0.000000 
#    y 0.000000 1.774490 0.000000 
#    z 0.000000 0.000000 1.826400 
# 
# From -- ./inp_files/26220.got.cif
#   From: 2010.03.12/outbox.cif.g09.slc.cpg/sg51_14_cif.got.tgz:26220.got - 2010.04.16 13:43:02.
