data_PCOD8209338
_publ_section_title
;
Structure prediction by ZEFSAII (Michael W. Deem and Ramdas Pophale) SiO2 
 PCOD8209338
Probable space group: P M M A
;
_chemical_formula_sum "Si O2"
_cell_formula_units_Z 64
_cell_length_a 30.898709
_cell_length_b 9.230921
_cell_length_c 12.044537
_cell_angle_alpha 90.000000
_cell_angle_beta 90.000000
_cell_angle_gamma 90.000000
_cell_volume 3435.385502
_symmetry_space_group_name_H-M "P M M A"
_symmetry_group_IT_number 51
_symmetry_cell_setting 'orthorhombic'
loop_
_space_group_symop_operation_xyz
x,y,z
1/2-x,-y,z
1/2+x,-y,-z
-x,y,-z
-x,-y,-z
1/2+x,y,-z
1/2-x,y,z
x,-y,z
loop_
_atom_site_type_symbol
_atom_site_label
_atom_site_fract_x
_atom_site_fract_y
_atom_site_fract_z
Si Si1 0.450546 0.330491 0.493762
Si Si2 0.134676 0.171335 0.099406
Si Si3 0.066895 0.663696 0.244118
Si Si4 0.700636 0.830677 0.536514
Si Si5 0.699598 0.665240 0.759195
Si Si6 0.396892 0.833879 0.861800
Si Si7 0.376808 0.832976 0.619402
Si Si8 0.981922 0.335428 0.114541
O O1 0.500000 0.271217 0.500000
O O2 0.450723 0.500000 0.521899
O O3 0.430068 0.298000 0.373438
O O4 0.419293 0.253792 0.581853
O O5 0.094528 0.223049 0.173844
O O6 0.177764 0.251431 0.139039
O O7 0.140096 0.000000 0.112736
O O8 0.128329 0.219349 0.971430
O O9 0.083583 0.500000 0.220929
O O10 0.016934 0.676693 0.211289
O O11 0.750000 0.792491 0.500517
O O12 0.686593 0.741718 0.644630
O O13 0.667632 0.782595 0.439804
O O14 0.696630 0.000000 0.564698
O O15 0.750000 0.674568 0.781838
O O16 0.683270 0.500000 0.753262
O O17 0.368457 0.808960 0.750980
O O18 0.440997 0.750049 0.843200
O O19 0.409498 0.000000 0.878148
O O20 0.386208 0.000000 0.592306
O O21 0.967612 0.500000 0.091698
O O22 0.000000 0.267579 0.000000
#
# Coordination Sequence:
#
# PCOD8209338 Si02
#       8
#     8   8   8   8   8   8   8   8
#     4  10  21  36  53  75 106 142 180 222 271 324
#     4  11  22  35  53  78 107 139 176 215 260 314
#     4  10  20  34  53  78 106 136 175 224 270 314
#     4   9  18  35  60  86 110 138 175 220 269 323
#     4  10  21  37  58  83 110 137 167 211 266 320
#     4  10  22  37  52  75 109 146 182 223 267 313
#     4  10  21  37  55  78 109 143 183 225 269 321
#     4  10  19  33  54  77 102 139 186 226 265 316
#
# _framework density 18.629642
#
# number of rings (size 3 to 8) (size 9 to 14) (size 15 to 20)
#    0.000    2.000    1.250    2.250    0.000    6.750 
#    0.000    0.625    0.000    2.250    0.000    1.750 
#    0.000    0.000    0.000    0.000    0.000    0.000 
#
# Total GULP energy -793687.216769 kJ/mol
# GULP energy per Si atom -12401.362762 kJ/mol
# Density = 1.858724 g / cm^3
# Si number density = 18.629642 Si / 1000 Ang^3
#
#
#
# Elastic Constant Matrix: (Units=GPa)
#
#
# Indices 1 2 3 4 5 6 
#
# 1 98.6831 39.3417 54.8756 0.0000 0.0000 0.0000
# 2 39.3417 64.6588 45.4617 0.0000 0.0000 0.0000
# 3 54.8756 45.4617 117.9960 0.0000 0.0000 0.0000
# 4 0.0000 0.0000 0.0000 22.2046 0.0000 0.0000
# 5 0.0000 0.0000 0.0000 0.0000 31.1857 0.0000
# 6 0.0000 0.0000 0.0000 0.0000 0.0000 29.4732
#
#
#
# Elastic Compliance Matrix: (Units=1/GPa)
#
#
# Indices 1 2 3 4 5 6 
#
# 1 0.015120 -0.005837 -0.004783 0.000000 0.000000 0.000000
# 2 -0.005837 0.023465 -0.006326 0.000000 0.000000 0.000000
# 3 -0.004783 -0.006326 0.013137 0.000000 0.000000 0.000000
# 4 0.000000 0.000000 0.000000 0.045036 0.000000 0.000000
# 5 0.000000 0.000000 0.000000 0.000000 0.032066 0.000000
# 6 0.000000 0.000000 0.000000 0.000000 0.000000 0.033929
#
#
# Mechanical properties :
#
#
# Convention : Reuss Voigt Hill
#
# Bulk Modulus (GPa) = 56.08586 62.29957 59.19271
# Shear Modulus (GPa) = 24.68059 26.01661 25.34860
#
# Velocity S-wave (km/s) = 3.64373 3.74105 3.69271
# Velocity P-wave (km/s) = 6.91906 7.22318 7.07276
#
# Compressibility (1/GPa) = 0.01782981
#
# Stress axis : x y z
#
# Youngs Moduli (GPa) = 66.13685 42.61624 76.12324
#
# Poissons Ratio (x) = 0.24875 0.36409
# Poissons Ratio (y) = 0.38604 0.48157
# Poissons Ratio (z) = 0.31633 0.26960
#
# Static dielectric constant tensor:
#      x y z
#    x 3.366140 0.000000 0.000000 
#    y 0.000000 3.417010 0.000000 
#    z 0.000000 0.000000 3.533230 
# 
# 
# High freq. dielectric constant tensor:
#      x y z
#    x 1.718090 0.000000 0.000000 
#    y 0.000000 1.719190 0.000000 
#    z 0.000000 0.000000 1.728730 
# 
# From -- ./inp_files/19561.got.cif
#   From: 2010.03.12/outbox.cif.g09.slc.cpg/sg51_10_cif.got.tgz:19561.got - 2010.04.16 13:43:02.
