data_PCOD8209222
_publ_section_title
;
Structure prediction by ZEFSAII (Michael W. Deem and Ramdas Pophale) SiO2 
 PCOD8209222
Probable space group: P M M A
;
_chemical_formula_sum "Si O2"
_cell_formula_units_Z 52
_cell_length_a 8.833955
_cell_length_b 22.936108
_cell_length_c 14.186213
_cell_angle_alpha 90.000000
_cell_angle_beta 90.000000
_cell_angle_gamma 90.000000
_cell_volume 2874.361478
_symmetry_space_group_name_H-M "P M M A"
_symmetry_group_IT_number 51
_symmetry_cell_setting 'orthorhombic'
loop_
_space_group_symop_operation_xyz
x,y,z
1/2-x,-y,z
1/2+x,-y,-z
-x,y,-z
-x,-y,-z
1/2+x,y,-z
1/2-x,y,z
x,-y,z
loop_
_atom_site_type_symbol
_atom_site_label
_atom_site_fract_x
_atom_site_fract_y
_atom_site_fract_z
Si Si1 0.573840 0.779688 0.100201
Si Si2 0.430153 0.000000 0.103311
Si Si3 0.572291 0.434632 0.097465
Si Si4 0.572730 0.280465 0.597096
Si Si5 0.429177 0.146064 0.401302
Si Si6 0.071276 0.328151 0.778308
Si Si7 0.571673 0.894470 0.215660
O O1 0.750000 0.774260 0.082091
O O2 0.511740 0.721274 0.149736
O O3 0.533298 0.833391 0.167053
O O4 0.500000 0.789635 0.000000
O O5 0.484969 0.943434 0.158221
O O6 0.250000 0.000000 0.095288
O O7 0.500000 0.000000 0.000000
O O8 0.750000 0.432386 0.082156
O O9 0.517549 0.500000 0.124018
O O10 0.523620 0.391005 0.180608
O O11 0.500000 0.413360 0.000000
O O12 0.500000 0.302020 0.500000
O O13 0.750000 0.288601 0.588972
O O14 0.528371 0.213481 0.617550
O O15 0.509866 0.321698 0.678704
O O16 0.500000 0.125442 0.500000
O O17 0.250000 0.135837 0.402288
O O18 0.506635 0.106828 0.321284
O O19 0.250000 0.322009 0.762804
O O20 0.750000 0.907836 0.217748
#
# Coordination Sequence:
#
# PCOD8209222 Si02
#       7
#     8   4   8   8   8   8   8
#     4  10  21  33  50  76 107 140 174 219 271 320
#     4  12  26  44  63  84 111 148 192 230 272 326
#     4   9  18  32  51  75 106 146 187 226 269 319
#     4  10  20  33  53  80 110 143 179 220 271 328
#     4  10  20  35  57  85 114 146 180 223 273 331
#     4  10  19  33  51  76 109 142 179 224 273 323
#     4  11  22  39  60  83 111 146 185 227 274 326
#
# _framework density 18.090973999999999
#
# number of rings (size 3 to 8) (size 9 to 14) (size 15 to 20)
#    0.000    1.846    1.538    3.000    0.000    4.923 
#    0.000    0.385    0.000    0.462    0.000    0.000 
#    0.000    0.000    0.000    0.000    0.000    0.000 
#
# Total GULP energy -644991.615640 kJ/mol
# GULP energy per Si atom -12403.684916 kJ/mol
# Density = 1.804980 g / cm^3
# Si number density = 18.090974 Si / 1000 Ang^3
#
#
#
# Elastic Constant Matrix: (Units=GPa)
#
#
# Indices 1 2 3 4 5 6 
#
# 1 76.5967 48.8452 65.5000 0.0000 0.0000 0.0000
# 2 48.8452 88.7127 59.6579 0.0000 0.0000 0.0000
# 3 65.5000 59.6579 162.4962 0.0000 0.0000 0.0000
# 4 0.0000 0.0000 0.0000 21.1488 0.0000 0.0000
# 5 0.0000 0.0000 0.0000 0.0000 38.7238 0.0000
# 6 0.0000 0.0000 0.0000 0.0000 0.0000 16.8162
#
#
#
# Elastic Compliance Matrix: (Units=1/GPa)
#
#
# Indices 1 2 3 4 5 6 
#
# 1 0.024396 -0.009055 -0.006509 0.000000 0.000000 0.000000
# 2 -0.009055 0.018329 -0.003079 0.000000 0.000000 0.000000
# 3 -0.006509 -0.003079 0.009908 0.000000 0.000000 0.000000
# 4 0.000000 0.000000 0.000000 0.047284 0.000000 0.000000
# 5 0.000000 0.000000 0.000000 0.000000 0.025824 0.000000
# 6 0.000000 0.000000 0.000000 0.000000 0.000000 0.059466
#
#
# Mechanical properties :
#
#
# Convention : Reuss Voigt Hill
#
# Bulk Modulus (GPa) = 65.16333 75.09021 70.12677
# Shear Modulus (GPa) = 21.96744 25.59126 23.77935
#
# Velocity S-wave (km/s) = 3.48843 3.76518 3.62944
# Velocity P-wave (km/s) = 7.23350 7.77812 7.51075
#
# Compressibility (1/GPa) = 0.01534605
#
# Stress axis : x y z
#
# Youngs Moduli (GPa) = 40.99032 54.55916 100.92599
#
# Poissons Ratio (x) = 0.49404 0.65696
# Poissons Ratio (y) = 0.37117 0.31077
# Poissons Ratio (z) = 0.26682 0.16800
#
# Static dielectric constant tensor:
#      x y z
#    x 3.322330 0.000000 0.000000 
#    y 0.000000 3.659960 0.000000 
#    z 0.000000 0.000000 3.643370 
# 
# 
# High freq. dielectric constant tensor:
#      x y z
#    x 1.705770 0.000000 0.000000 
#    y 0.000000 1.686810 0.000000 
#    z 0.000000 0.000000 1.708980 
# 
# From -- ./inp_files/21541.got.cif
#   From: 2010.03.12/outbox.cif.g09.slc.cpg/sg51_11_cif.got.tgz:21541.got - 2010.04.16 13:43:02.
