data_PCOD8209333
_publ_section_title
;
Structure prediction by ZEFSAII (Michael W. Deem and Ramdas Pophale) SiO2 
 PCOD8209333
Probable space group: P M M A
;
_chemical_formula_sum "Si O2"
_cell_formula_units_Z 64
_cell_length_a 8.860524
_cell_length_b 20.698304
_cell_length_c 18.797303
_cell_angle_alpha 90.000000
_cell_angle_beta 90.000000
_cell_angle_gamma 90.000000
_cell_volume 3447.384380
_symmetry_space_group_name_H-M "P M M A"
_symmetry_group_IT_number 51
_symmetry_cell_setting 'orthorhombic'
loop_
_space_group_symop_operation_xyz
x,y,z
1/2-x,-y,z
1/2+x,-y,-z
-x,y,-z
-x,-y,-z
1/2+x,y,-z
1/2-x,y,z
x,-y,z
loop_
_atom_site_type_symbol
_atom_site_label
_atom_site_fract_x
_atom_site_fract_y
_atom_site_fract_z
Si Si1 0.578172 0.068469 0.699640
Si Si2 0.071840 0.308364 0.424556
Si Si3 0.072163 0.427135 0.811798
Si Si4 0.070761 0.678496 0.924605
Si Si5 0.424466 0.206738 0.313493
Si Si6 0.425436 0.929113 0.846693
Si Si7 0.926760 0.427702 0.665215
Si Si8 0.071545 0.798995 0.150622
O O1 0.750000 0.074485 0.730316
O O2 0.546579 0.133915 0.654772
O O3 0.460856 0.066242 0.763420
O O4 0.562491 0.000000 0.656162
O O5 0.250000 0.299661 0.431910
O O6 0.000326 0.258056 0.367102
O O7 0.027487 0.380357 0.399036
O O8 0.000000 0.293778 0.500000
O O9 0.250000 0.424797 0.804190
O O10 0.016831 0.500000 0.829877
O O11 0.015622 0.378651 0.872504
O O12 0.004090 0.403402 0.737295
O O13 0.250000 0.681675 0.930537
O O14 0.009807 0.746724 0.897826
O O15 0.000000 0.661392 0.000000
O O16 0.250000 0.224575 0.310586
O O17 0.485560 0.210500 0.232349
O O18 0.250000 0.913256 0.857225
O O19 0.522714 0.869919 0.878999
O O20 0.464541 0.000000 0.881083
O O21 0.750000 0.425055 0.679498
O O22 0.980483 0.500000 0.644618
O O23 0.250000 0.791579 0.143150
#
# Coordination Sequence:
#
# PCOD8209333 Si02
#       8
#     8   8   8   8   8   8   8   8
#     4   8  13  23  41  65  91 120 157 200 246 295
#     4  10  20  33  47  66  95 128 163 202 245 294
#     4   9  19  36  57  81 107 133 164 205 250 296
#     4  11  23  37  53  75 105 138 171 207 248 295
#     4   8  15  28  47  69  92 121 158 201 245 290
#     4   9  16  26  43  71 105 134 161 201 253 303
#     4   9  18  33  53  75  98 126 161 201 245 295
#     4  10  19  33  54  76  99 131 172 214 255 300
#
# _framework density 18.564799000000001
#
# number of rings (size 3 to 8) (size 9 to 14) (size 15 to 20)
#    0.000    2.750    0.000    2.625    0.000    3.750 
#    0.000    3.125    0.000    0.750    0.000    0.000 
#    0.000    0.000    0.000    0.000    0.000    0.000 
#
# Total GULP energy -793008.793067 kJ/mol
# GULP energy per Si atom -12390.762392 kJ/mol
# Density = 1.852255 g / cm^3
# Si number density = 18.564799 Si / 1000 Ang^3
#
#
#
# Elastic Constant Matrix: (Units=GPa)
#
#
# Indices 1 2 3 4 5 6 
#
# 1 34.8658 16.2819 9.2130 0.0000 0.0000 0.0000
# 2 16.2819 90.5911 16.4408 0.0000 0.0000 0.0000
# 3 9.2130 16.4408 47.0560 0.0000 0.0000 0.0000
# 4 0.0000 0.0000 0.0000 7.7236 0.0000 0.0000
# 5 0.0000 0.0000 0.0000 0.0000 25.4468 0.0000
# 6 0.0000 0.0000 0.0000 0.0000 0.0000 21.9365
#
#
#
# Elastic Compliance Matrix: (Units=1/GPa)
#
#
# Indices 1 2 3 4 5 6 
#
# 1 0.032205 -0.004958 -0.004573 0.000000 0.000000 0.000000
# 2 -0.004958 0.012549 -0.003414 0.000000 0.000000 0.000000
# 3 -0.004573 -0.003414 0.023339 0.000000 0.000000 0.000000
# 4 0.000000 0.000000 0.000000 0.129473 0.000000 0.000000
# 5 0.000000 0.000000 0.000000 0.000000 0.039298 0.000000
# 6 0.000000 0.000000 0.000000 0.000000 0.000000 0.045586
#
#
# Mechanical properties :
#
#
# Convention : Reuss Voigt Hill
#
# Bulk Modulus (GPa) = 23.69461 28.48715 26.09088
# Shear Modulus (GPa) = 15.50826 19.72654 17.61740
#
# Velocity S-wave (km/s) = 2.89339 3.26326 3.08387
# Velocity P-wave (km/s) = 4.89420 5.43843 5.17347
#
# Compressibility (1/GPa) = 0.04220368
#
# Stress axis : x y z
#
# Youngs Moduli (GPa) = 31.05079 79.68559 42.84601
#
# Poissons Ratio (x) = 0.39511 0.19594
# Poissons Ratio (y) = 0.15396 0.14627
# Poissons Ratio (z) = 0.14200 0.27203
#
# Static dielectric constant tensor:
#      x y z
#    x 3.241070 0.000000 0.000000 
#    y 0.000000 4.018670 0.000000 
#    z 0.000000 0.000000 3.125380 
# 
# 
# High freq. dielectric constant tensor:
#      x y z
#    x 1.706510 0.000000 0.000000 
#    y 0.000000 1.748130 0.000000 
#    z 0.000000 0.000000 1.673520 
# 
# From -- ./inp_files/28423.got.cif
#   From: 2010.03.12/outbox.cif.g09.slc.cpg/sg51_15_cif.got.tgz:28423.got - 2010.04.16 13:43:02.
