data_PCOD8209860
_publ_section_title
;
Structure prediction by ZEFSAII (Michael W. Deem and Ramdas Pophale) SiO2 
 PCOD8209860
Probable space group: P M M A
;
_chemical_formula_sum "Si O2"
_cell_formula_units_Z 64
_cell_length_a 16.688303
_cell_length_b 15.096943
_cell_length_c 12.187754
_cell_angle_alpha 90.000000
_cell_angle_beta 90.000000
_cell_angle_gamma 90.000000
_cell_volume 3070.611496
_symmetry_space_group_name_H-M "P M M A"
_symmetry_group_IT_number 51
_symmetry_cell_setting 'orthorhombic'
loop_
_space_group_symop_operation_xyz
x,y,z
1/2-x,-y,z
1/2+x,-y,-z
-x,y,-z
-x,-y,-z
1/2+x,y,-z
1/2-x,y,z
x,-y,z
loop_
_atom_site_type_symbol
_atom_site_label
_atom_site_fract_x
_atom_site_fract_y
_atom_site_fract_z
Si Si1 0.587343 0.400489 0.960811
Si Si2 0.341613 0.598848 0.507500
Si Si3 0.845090 0.902295 0.990672
Si Si4 0.434781 0.279650 0.670987
Si Si5 0.341687 0.733850 0.885474
Si Si6 0.841217 0.849860 0.750110
Si Si7 0.503781 0.902966 0.628799
Si Si8 0.608152 0.342469 0.720611
O O1 0.601398 0.500000 0.003269
O O2 0.597769 0.400523 0.829763
O O3 0.500000 0.366520 0.000000
O O4 0.652641 0.336993 0.016412
O O5 0.250000 0.611301 0.542960
O O6 0.371317 0.500000 0.542811
O O7 0.391031 0.677140 0.566295
O O8 0.347080 0.604795 0.375512
O O9 0.750000 0.895564 0.991333
O O10 0.873934 0.884072 0.867041
O O11 0.874828 0.000000 0.027740
O O12 0.879322 0.827765 0.073307
O O13 0.388479 0.304270 0.781530
O O14 0.441728 0.172629 0.667942
O O15 0.522112 0.319898 0.671770
O O16 0.250000 0.746330 0.851327
O O17 0.750000 0.882875 0.725485
O O18 0.840969 0.743902 0.751262
O O19 0.903357 0.886069 0.660647
O O20 0.500000 0.902668 0.500000
O O21 0.476908 0.000000 0.673884
#
# Coordination Sequence:
#
# PCOD8209860 Si02
#       8
#     8   8   8   8   8   8   8   8
#     4  11  23  40  61  89 126 167 209 256 313 383
#     4  11  25  43  65  95 125 159 211 268 319 374
#     4   9  18  33  56  88 122 155 197 251 308 367
#     4  11  23  41  64  88 126 170 208 253 313 382
#     4  11  23  40  62  89 124 166 210 260 316 376
#     4  10  19  34  61  92 125 163 205 254 318 380
#     4  10  22  40  61  90 126 163 209 259 309 373
#     4  11  21  38  65  92 126 164 206 256 312 377
#
# _framework density 20.842755
#
# number of rings (size 3 to 8) (size 9 to 14) (size 15 to 20)
#    0.000    1.500    2.500    3.375    0.000    4.000 
#    0.000    0.625    0.000    5.250    0.000    0.000 
#    0.000    0.000    0.000    0.000    0.000    0.000 
#
# Total GULP energy -793542.719962 kJ/mol
# GULP energy per Si atom -12399.104999 kJ/mol
# Density = 2.079532 g / cm^3
# Si number density = 20.842755 Si / 1000 Ang^3
#
#
#
# Elastic Constant Matrix: (Units=GPa)
#
#
# Indices 1 2 3 4 5 6 
#
# 1 61.3619 27.8257 23.4314 0.0000 0.0000 0.0000
# 2 27.8257 126.8245 25.4205 0.0000 0.0000 0.0000
# 3 23.4314 25.4205 97.5785 0.0000 0.0000 0.0000
# 4 0.0000 0.0000 0.0000 22.8198 0.0000 0.0000
# 5 0.0000 0.0000 0.0000 0.0000 25.7988 0.0000
# 6 0.0000 0.0000 0.0000 0.0000 0.0000 24.0720
#
#
#
# Elastic Compliance Matrix: (Units=1/GPa)
#
#
# Indices 1 2 3 4 5 6 
#
# 1 0.019301 -0.003488 -0.003726 0.000000 0.000000 0.000000
# 2 -0.003488 0.008950 -0.001494 0.000000 0.000000 0.000000
# 3 -0.003726 -0.001494 0.011532 0.000000 0.000000 0.000000
# 4 0.000000 0.000000 0.000000 0.043822 0.000000 0.000000
# 5 0.000000 0.000000 0.000000 0.000000 0.038762 0.000000
# 6 0.000000 0.000000 0.000000 0.000000 0.000000 0.041542
#
#
# Mechanical properties :
#
#
# Convention : Reuss Voigt Hill
#
# Bulk Modulus (GPa) = 44.70874 48.79113 46.74993
# Shear Modulus (GPa) = 26.48589 28.47727 27.48158
#
# Velocity S-wave (km/s) = 3.56862 3.70035 3.63508
# Velocity P-wave (km/s) = 6.20300 6.45885 6.33221
#
# Compressibility (1/GPa) = 0.02236699
#
# Stress axis : x y z
#
# Youngs Moduli (GPa) = 51.81013 111.73665 86.71442
#
# Poissons Ratio (x) = 0.38973 0.32311
# Poissons Ratio (y) = 0.18071 0.12955
# Poissons Ratio (z) = 0.19305 0.16693
#
# Static dielectric constant tensor:
#      x y z
#    x 3.596820 0.000000 0.000000 
#    y 0.000000 4.084140 0.000000 
#    z 0.000000 0.000000 3.662690 
# 
# 
# High freq. dielectric constant tensor:
#      x y z
#    x 1.801740 0.000000 0.000000 
#    y 0.000000 1.825850 0.000000 
#    z 0.000000 0.000000 1.813980 
# 
# From -- ./inp_files/17590.got.cif
#   From: 2010.03.12/outbox.cif.g09.slc.cpg/sg51_9_cif.got.tgz:17590.got - 2010.04.16 13:43:02.
