data_PCOD8209147
_publ_section_title
;
Structure prediction by ZEFSAII (Michael W. Deem and Ramdas Pophale) SiO2 
 PCOD8209147
Probable space group: P M M A
;
_chemical_formula_sum "Si O2"
_cell_formula_units_Z 56
_cell_length_a 8.727128
_cell_length_b 14.580949
_cell_length_c 23.026800
_cell_angle_alpha 90.000000
_cell_angle_beta 90.000000
_cell_angle_gamma 90.000000
_cell_volume 2930.155885
_symmetry_space_group_name_H-M "P M M A"
_symmetry_group_IT_number 51
_symmetry_cell_setting 'orthorhombic'
loop_
_space_group_symop_operation_xyz
x,y,z
1/2-x,-y,z
1/2+x,-y,-z
-x,y,-z
-x,-y,-z
1/2+x,y,-z
1/2-x,y,z
x,-y,z
loop_
_atom_site_type_symbol
_atom_site_label
_atom_site_fract_x
_atom_site_fract_y
_atom_site_fract_z
Si Si1 0.069770 0.104348 0.437754
Si Si2 0.933253 0.780037 0.335693
Si Si3 0.931062 0.714758 0.940294
Si Si4 0.918199 0.648705 0.172738
Si Si5 0.084526 0.148867 0.780858
Si Si6 0.573870 0.601901 0.712591
Si Si7 0.068225 0.899878 0.900812
O O1 0.250000 0.119158 0.440440
O O2 0.000000 0.126972 0.500000
O O3 0.997794 0.177301 0.394091
O O4 0.028506 0.000000 0.419202
O O5 0.750000 0.781971 0.335742
O O6 0.000233 0.842178 0.281634
O O7 0.984726 0.674476 0.328007
O O8 0.750000 0.709526 0.941856
O O9 0.991891 0.650888 0.888313
O O10 0.980476 0.821632 0.935710
O O11 0.000000 0.675293 0.000000
O O12 0.750000 0.603241 0.163682
O O13 0.893673 0.749907 0.195240
O O14 0.012854 0.594598 0.221419
O O15 0.250000 0.103013 0.769262
O O16 0.003257 0.094670 0.833663
O O17 0.750000 0.632590 0.714703
O O18 0.555204 0.500000 0.685116
O O19 0.250000 0.876845 0.899869
O O20 0.037098 0.000000 0.929124
#
# Coordination Sequence:
#
# PCOD8209147 Si02
#       7
#     8   8   8   8   8   8   8
#     4  10  21  37  56  79 110 149 193 238 280 323
#     4  10  19  32  54  82 112 147 186 227 272 323
#     4  11  21  33  49  67  90 123 166 213 262 318
#     4   9  17  32  52  73  98 128 165 206 252 308
#     4   7  13  26  44  67  92 121 158 200 248 302
#     4  10  20  34  55  85 118 148 179 218 265 319
#     4   9  17  30  46  64  90 124 163 209 260 314
#
# _framework density 19.111611
#
# number of rings (size 3 to 8) (size 9 to 14) (size 15 to 20)
#    0.000    2.571    0.000    4.714    0.000    3.143 
#    0.000    2.143    0.000    0.857    0.000    0.000 
#    0.000    0.000    0.000    0.000    0.000    0.000 
#
# Total GULP energy -693767.572884 kJ/mol
# GULP energy per Si atom -12388.706659 kJ/mol
# Density = 1.906811 g / cm^3
# Si number density = 19.111611 Si / 1000 Ang^3
#
#
#
# Elastic Constant Matrix: (Units=GPa)
#
#
# Indices 1 2 3 4 5 6 
#
# 1 110.8755 28.1448 50.6917 0.0000 0.0000 0.0000
# 2 28.1448 66.1345 40.9585 0.0000 0.0000 0.0000
# 3 50.6917 40.9585 121.8492 0.0000 0.0000 0.0000
# 4 0.0000 0.0000 0.0000 18.9575 0.0000 0.0000
# 5 0.0000 0.0000 0.0000 0.0000 30.4366 0.0000
# 6 0.0000 0.0000 0.0000 0.0000 0.0000 12.6561
#
#
#
# Elastic Compliance Matrix: (Units=1/GPa)
#
#
# Indices 1 2 3 4 5 6 
#
# 1 0.011438 -0.002426 -0.003943 0.000000 0.000000 0.000000
# 2 -0.002426 0.019610 -0.005583 0.000000 0.000000 0.000000
# 3 -0.003943 -0.005583 0.011724 0.000000 0.000000 0.000000
# 4 0.000000 0.000000 0.000000 0.052750 0.000000 0.000000
# 5 0.000000 0.000000 0.000000 0.000000 0.032855 0.000000
# 6 0.000000 0.000000 0.000000 0.000000 0.000000 0.079013
#
#
# Mechanical properties :
#
#
# Convention : Reuss Voigt Hill
#
# Bulk Modulus (GPa) = 52.99617 59.82769 56.41193
# Shear Modulus (GPa) = 21.04534 24.34764 22.69649
#
# Velocity S-wave (km/s) = 3.32200 3.57315 3.44986
# Velocity P-wave (km/s) = 6.51953 6.95669 6.74165
#
# Compressibility (1/GPa) = 0.01886929
#
# Stress axis : x y z
#
# Youngs Moduli (GPa) = 87.43163 50.99317 85.29658
#
# Poissons Ratio (x) = 0.12369 0.33632
# Poissons Ratio (y) = 0.21207 0.47619
# Poissons Ratio (z) = 0.34474 0.28468
#
# Static dielectric constant tensor:
#      x y z
#    x 3.431780 0.000000 0.000000 
#    y 0.000000 3.395920 0.000000 
#    z 0.000000 0.000000 3.595070 
# 
# 
# High freq. dielectric constant tensor:
#      x y z
#    x 1.735890 0.000000 0.000000 
#    y 0.000000 1.724550 0.000000 
#    z 0.000000 0.000000 1.732740 
# 
# From -- ./inp_files/32013.got.cif
#   From: 2010.03.12/outbox.cif.g09.slc.cpg/sg51_17_cif.got.tgz:32013.got - 2010.04.16 13:43:02.
