data_PCOD8209051
_publ_section_title
;
Structure prediction by ZEFSAII (Michael W. Deem and Ramdas Pophale) SiO2 
 PCOD8209051
Probable space group: P M M A
;
_chemical_formula_sum "Si O2"
_cell_formula_units_Z 40
_cell_length_a 9.990506
_cell_length_b 23.451775
_cell_length_c 9.769704
_cell_angle_alpha 90.000000
_cell_angle_beta 90.000000
_cell_angle_gamma 90.000000
_cell_volume 2288.993764
_symmetry_space_group_name_H-M "P M M A"
_symmetry_group_IT_number 51
_symmetry_cell_setting 'orthorhombic'
loop_
_space_group_symop_operation_xyz
x,y,z
1/2-x,-y,z
1/2+x,-y,-z
-x,y,-z
-x,-y,-z
1/2+x,y,-z
1/2-x,y,z
x,-y,z
loop_
_atom_site_type_symbol
_atom_site_label
_atom_site_fract_x
_atom_site_fract_y
_atom_site_fract_z
Si Si1 0.250000 0.064661 0.171299
Si Si2 0.750000 0.937646 0.152291
Si Si3 0.907141 0.226070 0.372027
Si Si4 0.403138 0.565649 0.878350
Si Si5 0.496145 0.136483 0.838117
Si Si6 0.097632 0.641520 0.620713
O O1 0.375224 0.102758 0.217155
O O2 0.250000 0.000000 0.235151
O O3 0.250000 0.057419 0.009917
O O4 0.878549 0.905302 0.205239
O O5 0.750000 0.000000 0.219104
O O6 0.750000 0.210233 0.396868
O O7 0.970500 0.195594 0.239500
O O8 0.922469 0.292671 0.340763
O O9 0.000000 0.208135 0.500000
O O10 0.250000 0.576240 0.924012
O O11 0.426816 0.500000 0.837822
O O12 0.442432 0.604056 0.750220
O O13 0.500000 0.584668 0.000000
O O14 0.500000 0.149798 0.000000
O O15 0.250000 0.629594 0.574475
O O16 0.000000 0.622407 0.500000
#
# Coordination Sequence:
#
# PCOD8209051 Si02
#       6
#     4   4   8   8   8   8
#     4   9  18  30  49  79 107 127 160 209 258 305
#     4   9  16  30  51  75 101 131 164 205 254 301
#     4  10  21  37  54  73 101 138 173 212 259 306
#     4   9  18  33  53  78 109 142 173 210 257 304
#     4  10  19  32  53  78 102 130 168 211 253 306
#     4   9  19  35  53  74 102 135 176 217 256 302
#
# _framework density 17.474927000000001
#
# number of rings (size 3 to 8) (size 9 to 14) (size 15 to 20)
#    0.000    2.600    1.000    0.600    1.400    4.400 
#    0.000    0.000    0.000    3.600    0.000    0.000 
#    0.000    0.000    0.000    0.000    0.000    0.000 
#
# Total GULP energy -495891.641231 kJ/mol
# GULP energy per Si atom -12397.291031 kJ/mol
# Density = 1.743515 g / cm^3
# Si number density = 17.474927 Si / 1000 Ang^3
#
#
#
# Elastic Constant Matrix: (Units=GPa)
#
#
# Indices 1 2 3 4 5 6 
#
# 1 141.8120 61.1120 70.9971 0.0000 0.0000 0.0000
# 2 61.1120 86.4799 69.1597 0.0000 0.0000 0.0000
# 3 70.9971 69.1597 103.0053 0.0000 0.0000 0.0000
# 4 0.0000 0.0000 0.0000 13.5991 0.0000 0.0000
# 5 0.0000 0.0000 0.0000 0.0000 34.5748 0.0000
# 6 0.0000 0.0000 0.0000 0.0000 0.0000 14.9679
#
#
#
# Elastic Compliance Matrix: (Units=1/GPa)
#
#
# Indices 1 2 3 4 5 6 
#
# 1 0.011317 -0.003799 -0.005249 0.000000 0.000000 0.000000
# 2 -0.003799 0.026247 -0.015005 0.000000 0.000000 0.000000
# 3 -0.005249 -0.015005 0.023401 0.000000 0.000000 0.000000
# 4 0.000000 0.000000 0.000000 0.073534 0.000000 0.000000
# 5 0.000000 0.000000 0.000000 0.000000 0.028923 0.000000
# 6 0.000000 0.000000 0.000000 0.000000 0.000000 0.066810
#
#
# Mechanical properties :
#
#
# Convention : Reuss Voigt Hill
#
# Bulk Modulus (GPa) = 77.76647 81.53721 79.65184
# Shear Modulus (GPa) = 17.69133 21.29691 19.49412
#
# Velocity S-wave (km/s) = 3.18525 3.49479 3.34361
# Velocity P-wave (km/s) = 7.62405 7.94013 7.78369
#
# Compressibility (1/GPa) = 0.01285901
#
# Stress axis : x y z
#
# Youngs Moduli (GPa) = 88.36375 38.09889 42.73366
#
# Poissons Ratio (x) = 0.14474 0.22433
# Poissons Ratio (y) = 0.33570 0.64120
# Poissons Ratio (z) = 0.46386 0.57165
#
# Static dielectric constant tensor:
#      x y z
#    x 3.506440 0.000000 0.000000 
#    y 0.000000 3.312780 0.000000 
#    z 0.000000 0.000000 2.958740 
# 
# 
# High freq. dielectric constant tensor:
#      x y z
#    x 1.691540 0.000000 0.000000 
#    y 0.000000 1.680710 0.000000 
#    z 0.000000 0.000000 1.645670 
# 
# From -- ./inp_files/5526.got.cif
#   From: 2010.03.12/outbox.cif.g09.slc.cpg/sg51_3_cif.got.tgz:5526.got - 2010.04.16 13:43:02.
