data_PCOD8209060
_publ_section_title
;
Structure prediction by ZEFSAII (Michael W. Deem and Ramdas Pophale) SiO2 
 PCOD8209060
Probable space group: P M M A
;
_chemical_formula_sum "Si O2"
_cell_formula_units_Z 64
_cell_length_a 19.830762
_cell_length_b 9.219439
_cell_length_c 19.887002
_cell_angle_alpha 90.000000
_cell_angle_beta 90.000000
_cell_angle_gamma 90.000000
_cell_volume 3635.910757
_symmetry_space_group_name_H-M "P M M A"
_symmetry_group_IT_number 51
_symmetry_cell_setting 'orthorhombic'
loop_
_space_group_symop_operation_xyz
x,y,z
1/2-x,-y,z
1/2+x,-y,-z
-x,y,-z
-x,-y,-z
1/2+x,y,-z
1/2-x,y,z
x,-y,z
loop_
_atom_site_type_symbol
_atom_site_label
_atom_site_fract_x
_atom_site_fract_y
_atom_site_fract_z
Si Si1 0.940595 0.170026 0.336209
Si Si2 0.925138 0.166878 0.983790
Si Si3 0.905183 0.165139 0.693307
Si Si4 0.826416 0.668611 0.080705
Si Si5 0.572822 0.329722 0.470898
Si Si6 0.081457 0.330590 0.796210
Si Si7 0.451571 0.165849 0.164798
Si Si8 0.326227 0.670282 0.413837
O O1 0.911644 0.241051 0.403608
O O2 0.904277 0.244920 0.272761
O O3 0.020066 0.202087 0.332687
O O4 0.924340 0.000000 0.335414
O O5 0.910976 0.187359 0.904320
O O6 0.920524 0.000000 0.006146
O O7 0.868566 0.252739 0.023260
O O8 0.000000 0.226651 0.000000
O O9 0.901382 0.198803 0.773103
O O10 0.850925 0.263405 0.656204
O O11 0.886607 0.000000 0.677459
O O12 0.750000 0.727161 0.079464
O O13 0.829498 0.500000 0.063448
O O14 0.855632 0.698171 0.154864
O O15 0.500000 0.288963 0.500000
O O16 0.578332 0.500000 0.455073
O O17 0.628166 0.276295 0.524380
O O18 0.071563 0.500000 0.780225
O O19 0.015259 0.271956 0.833886
O O20 0.478672 0.000000 0.171665
O O21 0.250000 0.719752 0.428155
O O22 0.332572 0.500000 0.405396
#
# Coordination Sequence:
#
# PCOD8209060 Si02
#       8
#     8   8   8   8   8   8   8   8
#     4  10  20  33  53  80 108 134 170 220 267 309
#     4  10  19  33  56  82 109 141 180 225 272 326
#     4   9  18  32  51  75 103 135 169 210 258 309
#     4  10  22  38  54  77 111 147 184 226 273 328
#     4  10  19  33  54  79 105 136 175 218 261 313
#     4  10  19  32  53  78 104 138 178 219 267 319
#     4   9  18  33  52  79 110 135 169 221 271 313
#     4  10  21  36  53  75 105 138 172 213 261 311
#
# _framework density 17.602191999999999
#
# number of rings (size 3 to 8) (size 9 to 14) (size 15 to 20)
#    0.000    2.250    2.500    1.500    0.000    4.500 
#    0.000    1.250    0.000    7.500    0.000    0.000 
#    0.000    0.000    0.000    0.000    0.000    0.000 
#
# Total GULP energy -793702.909392 kJ/mol
# GULP energy per Si atom -12401.607959 kJ/mol
# Density = 1.756213 g / cm^3
# Si number density = 17.602192 Si / 1000 Ang^3
#
#
#
# Elastic Constant Matrix: (Units=GPa)
#
#
# Indices 1 2 3 4 5 6 
#
# 1 117.5994 48.0185 71.4756 0.0000 0.0000 0.0000
# 2 48.0185 66.8118 60.0962 0.0000 0.0000 0.0000
# 3 71.4756 60.0962 146.8671 0.0000 0.0000 0.0000
# 4 0.0000 0.0000 0.0000 34.5597 0.0000 0.0000
# 5 0.0000 0.0000 0.0000 0.0000 24.5326 0.0000
# 6 0.0000 0.0000 0.0000 0.0000 0.0000 19.7978
#
#
#
# Elastic Compliance Matrix: (Units=1/GPa)
#
#
# Indices 1 2 3 4 5 6 
#
# 1 0.013428 -0.005970 -0.004092 0.000000 0.000000 0.000000
# 2 -0.005970 0.026339 -0.007872 0.000000 0.000000 0.000000
# 3 -0.004092 -0.007872 0.012022 0.000000 0.000000 0.000000
# 4 0.000000 0.000000 0.000000 0.028935 0.000000 0.000000
# 5 0.000000 0.000000 0.000000 0.000000 0.040762 0.000000
# 6 0.000000 0.000000 0.000000 0.000000 0.000000 0.050511
#
#
# Mechanical properties :
#
#
# Convention : Reuss Voigt Hill
#
# Bulk Modulus (GPa) = 62.81424 76.71766 69.76595
# Shear Modulus (GPa) = 23.45507 25.89054 24.67281
#
# Velocity S-wave (km/s) = 3.65431 3.83935 3.74798
# Velocity P-wave (km/s) = 7.31904 7.95820 7.64530
#
# Compressibility (1/GPa) = 0.01591996
#
# Stress axis : x y z
#
# Youngs Moduli (GPa) = 74.46862 37.96625 83.18362
#
# Poissons Ratio (x) = 0.22667 0.34041
# Poissons Ratio (y) = 0.44460 0.65483
# Poissons Ratio (z) = 0.30474 0.29887
#
# Static dielectric constant tensor:
#      x y z
#    x 3.094180 0.000000 0.000000 
#    y 0.000000 3.234490 0.000000 
#    z 0.000000 0.000000 3.426450 
# 
# 
# High freq. dielectric constant tensor:
#      x y z
#    x 1.650220 0.000000 0.000000 
#    y 0.000000 1.680560 0.000000 
#    z 0.000000 0.000000 1.695010 
# 
# From -- ./inp_files/33936.got.cif
#   From: 2010.03.12/outbox.cif.g09.slc.cpg/sg51_17_cif.got.tgz:33936.got - 2010.04.16 13:43:02.
