data_PCOD8209510
_publ_section_title
;
Structure prediction by ZEFSAII (Michael W. Deem and Ramdas Pophale) SiO2 
 PCOD8209510
Probable space group: P M M A
;
_chemical_formula_sum "Si O2"
_cell_formula_units_Z 64
_cell_length_a 17.991666
_cell_length_b 8.844965
_cell_length_c 21.567599
_cell_angle_alpha 90.000000
_cell_angle_beta 90.000000
_cell_angle_gamma 90.000000
_cell_volume 3432.174017
_symmetry_space_group_name_H-M "P M M A"
_symmetry_group_IT_number 51
_symmetry_cell_setting 'orthorhombic'
loop_
_space_group_symop_operation_xyz
x,y,z
1/2-x,-y,z
1/2+x,-y,-z
-x,y,-z
-x,-y,-z
1/2+x,y,-z
1/2-x,y,z
x,-y,z
loop_
_atom_site_type_symbol
_atom_site_label
_atom_site_fract_x
_atom_site_fract_y
_atom_site_fract_z
Si Si1 0.080648 0.176995 0.387266
Si Si2 0.575824 0.326743 0.383811
Si Si3 0.975908 0.178649 0.065583
Si Si4 0.086536 0.673780 0.756159
Si Si5 0.554259 0.178260 0.811369
Si Si6 0.833364 0.177011 0.136794
Si Si7 0.164050 0.173935 0.511940
Si Si8 0.834580 0.678541 0.726607
O O1 0.120091 0.223655 0.450848
O O2 0.119089 0.266283 0.331926
O O3 0.995113 0.221090 0.393626
O O4 0.088351 0.000000 0.373535
O O5 0.552556 0.500000 0.395646
O O6 0.609958 0.307080 0.315182
O O7 0.639602 0.277828 0.431101
O O8 0.893055 0.233485 0.085405
O O9 0.035300 0.227168 0.118063
O O10 0.974874 0.000000 0.058541
O O11 0.000000 0.253347 0.000000
O O12 0.070975 0.500000 0.773326
O O13 0.153005 0.737157 0.798576
O O14 0.011449 0.767961 0.766348
O O15 0.630972 0.254755 0.790094
O O16 0.562046 0.000000 0.805152
O O17 0.750000 0.212481 0.113047
O O18 0.844833 0.000000 0.149755
O O19 0.250000 0.202790 0.498453
O O20 0.147674 0.000000 0.528656
O O21 0.750000 0.735454 0.721240
O O22 0.839397 0.500000 0.729930
#
# Coordination Sequence:
#
# PCOD8209510 Si02
#       8
#     8   8   8   8   8   8   8   8
#     4  11  22  38  61  83 106 140 185 232 278 330
#     4  11  23  37  56  82 110 142 181 224 275 335
#     4   8  15  30  53  81 111 143 182 228 276 321
#     4  10  20  34  53  77 108 142 176 220 273 325
#     4  10  19  33  56  82 108 141 181 223 267 320
#     4   9  18  32  52  79 109 143 186 231 275 324
#     4  10  23  41  57  77 107 142 182 230 281 329
#     4  11  23  37  55  81 113 147 181 224 279 330
#
# _framework density 18.647072999999999
#
# number of rings (size 3 to 8) (size 9 to 14) (size 15 to 20)
#    0.000    2.000    1.250    3.375    0.000    6.500 
#    0.000    3.125    0.000   11.625    0.000    0.000 
#    0.000    0.000    0.000    0.000    0.000    0.000 
#
# Total GULP energy -793701.765763 kJ/mol
# GULP energy per Si atom -12401.590090 kJ/mol
# Density = 1.860463 g / cm^3
# Si number density = 18.647073 Si / 1000 Ang^3
#
#
#
# Elastic Constant Matrix: (Units=GPa)
#
#
# Indices 1 2 3 4 5 6 
#
# 1 88.9926 21.7353 49.4449 0.0000 0.0000 0.0000
# 2 21.7353 52.1728 34.1231 0.0000 0.0000 0.0000
# 3 49.4449 34.1231 130.0231 0.0000 0.0000 0.0000
# 4 0.0000 0.0000 0.0000 7.4641 0.0000 0.0000
# 5 0.0000 0.0000 0.0000 0.0000 22.5997 0.0000
# 6 0.0000 0.0000 0.0000 0.0000 0.0000 26.6927
#
#
#
# Elastic Compliance Matrix: (Units=1/GPa)
#
#
# Indices 1 2 3 4 5 6 
#
# 1 0.014617 -0.002962 -0.004781 0.000000 0.000000 0.000000
# 2 -0.002962 0.023739 -0.005104 0.000000 0.000000 0.000000
# 3 -0.004781 -0.005104 0.010848 0.000000 0.000000 0.000000
# 4 0.000000 0.000000 0.000000 0.133974 0.000000 0.000000
# 5 0.000000 0.000000 0.000000 0.000000 0.044248 0.000000
# 6 0.000000 0.000000 0.000000 0.000000 0.000000 0.037463
#
#
# Mechanical properties :
#
#
# Convention : Reuss Voigt Hill
#
# Bulk Modulus (GPa) = 42.53429 53.53279 48.03354
# Shear Modulus (GPa) = 16.75484 22.41032 19.58258
#
# Velocity S-wave (km/s) = 3.00079 3.47048 3.24415
# Velocity P-wave (km/s) = 5.90475 6.69550 6.31252
#
# Compressibility (1/GPa) = 0.02351044
#
# Stress axis : x y z
#
# Youngs Moduli (GPa) = 68.41460 42.12455 92.17943
#
# Poissons Ratio (x) = 0.12479 0.44071
# Poissons Ratio (y) = 0.20267 0.47044
# Poissons Ratio (z) = 0.32709 0.21498
#
# Static dielectric constant tensor:
#      x y z
#    x 3.521330 0.000000 0.000000 
#    y 0.000000 3.372610 0.000000 
#    z 0.000000 0.000000 3.625840 
# 
# 
# High freq. dielectric constant tensor:
#      x y z
#    x 1.720770 0.000000 0.000000 
#    y 0.000000 1.719170 0.000000 
#    z 0.000000 0.000000 1.722250 
# 
# From -- ./inp_files/33789.got.cif
#   From: 2010.03.12/outbox.cif.g09.slc.cpg/sg51_17_cif.got.tgz:33789.got - 2010.04.16 13:43:02.
