data_PCOD8209400
_publ_section_title
;
Structure prediction by ZEFSAII (Michael W. Deem and Ramdas Pophale) SiO2 
 PCOD8209400
Probable space group: P M M A
;
_chemical_formula_sum "Si O2"
_cell_formula_units_Z 64
_cell_length_a 19.788724
_cell_length_b 8.759576
_cell_length_c 19.933812
_cell_angle_alpha 90.000000
_cell_angle_beta 90.000000
_cell_angle_gamma 90.000000
_cell_volume 3455.343553
_symmetry_space_group_name_H-M "P M M A"
_symmetry_group_IT_number 51
_symmetry_cell_setting 'orthorhombic'
loop_
_space_group_symop_operation_xyz
x,y,z
1/2-x,-y,z
1/2+x,-y,-z
-x,y,-z
-x,-y,-z
1/2+x,y,-z
1/2-x,y,z
x,-y,z
loop_
_atom_site_type_symbol
_atom_site_label
_atom_site_fract_x
_atom_site_fract_y
_atom_site_fract_z
Si Si1 0.073573 0.680820 0.025155
Si Si2 0.595146 0.319465 0.698485
Si Si3 0.574153 0.320941 0.474222
Si Si4 0.955426 0.177193 0.340410
Si Si5 0.436668 0.820096 0.164879
Si Si6 0.171338 0.176806 0.417942
Si Si7 0.674859 0.319970 0.088313
Si Si8 0.411801 0.825177 0.804201
O O1 0.076727 0.500000 0.035155
O O2 0.092862 0.761007 0.094857
O O3 0.127691 0.742528 0.971363
O O4 0.000000 0.733125 0.000000
O O5 0.602489 0.500000 0.696728
O O6 0.523809 0.273849 0.665712
O O7 0.603079 0.260250 0.774454
O O8 0.654781 0.244559 0.655148
O O9 0.500000 0.275998 0.500000
O O10 0.581204 0.500000 0.462240
O O11 0.586861 0.233753 0.404219
O O12 0.630276 0.267921 0.526122
O O13 0.908117 0.202842 0.275533
O O14 0.975752 0.000000 0.346580
O O15 0.515121 0.772859 0.168821
O O16 0.426983 0.000000 0.172403
O O17 0.250000 0.200247 0.432668
O O18 0.150610 0.000000 0.420287
O O19 0.750000 0.251291 0.079965
O O20 0.677055 0.500000 0.084898
O O21 0.645563 0.274147 0.160532
O O22 0.398513 0.000000 0.822752
#
# Coordination Sequence:
#
# PCOD8209400 Si02
#       8
#     8   8   8   8   8   8   8   8
#     4  10  19  33  54  81 109 144 186 231 281 335
#     4  11  21  35  57  85 115 148 187 233 285 340
#     4  11  22  36  58  90 119 151 193 239 287 340
#     4  10  20  35  57  85 115 147 186 236 285 331
#     4  10  20  34  55  83 112 142 183 234 283 329
#     4  11  24  41  61  85 116 156 196 237 290 349
#     4  10  21  36  54  78 110 146 183 225 278 337
#     4   9  19  34  53  80 109 140 181 228 275 327
#
# _framework density 18.522037999999998
#
# number of rings (size 3 to 8) (size 9 to 14) (size 15 to 20)
#    0.000    1.750    2.500    3.375    0.000    5.000 
#    0.000    1.250    0.000    3.000    0.000    0.000 
#    0.000    0.000    0.000    0.000    0.000    0.000 
#
# Total GULP energy -793848.755791 kJ/mol
# GULP energy per Si atom -12403.886809 kJ/mol
# Density = 1.847988 g / cm^3
# Si number density = 18.522038 Si / 1000 Ang^3
#
#
#
# Elastic Constant Matrix: (Units=GPa)
#
#
# Indices 1 2 3 4 5 6 
#
# 1 89.8357 26.9825 49.1197 0.0000 0.0000 0.0000
# 2 26.9825 53.1066 32.0692 0.0000 0.0000 0.0000
# 3 49.1197 32.0692 134.5459 0.0000 0.0000 0.0000
# 4 0.0000 0.0000 0.0000 37.7414 0.0000 0.0000
# 5 0.0000 0.0000 0.0000 0.0000 26.1073 0.0000
# 6 0.0000 0.0000 0.0000 0.0000 0.0000 21.3705
#
#
#
# Elastic Compliance Matrix: (Units=1/GPa)
#
#
# Indices 1 2 3 4 5 6 
#
# 1 0.014977 -0.005032 -0.004268 0.000000 0.000000 0.000000
# 2 -0.005032 0.023687 -0.003809 0.000000 0.000000 0.000000
# 3 -0.004268 -0.003809 0.009898 0.000000 0.000000 0.000000
# 4 0.000000 0.000000 0.000000 0.026496 0.000000 0.000000
# 5 0.000000 0.000000 0.000000 0.000000 0.038304 0.000000
# 6 0.000000 0.000000 0.000000 0.000000 0.000000 0.046793
#
#
# Mechanical properties :
#
#
# Convention : Reuss Voigt Hill
#
# Bulk Modulus (GPa) = 44.75485 54.87012 49.81248
# Shear Modulus (GPa) = 25.79710 28.33163 27.06436
#
# Velocity S-wave (km/s) = 3.73604 3.91528 3.82671
# Velocity P-wave (km/s) = 6.54417 7.08009 6.81740
#
# Compressibility (1/GPa) = 0.02234395
#
# Stress axis : x y z
#
# Youngs Moduli (GPa) = 66.77113 42.21793 101.02586
#
# Poissons Ratio (x) = 0.21244 0.43120
# Poissons Ratio (y) = 0.33598 0.38478
# Poissons Ratio (z) = 0.28500 0.16080
#
# Static dielectric constant tensor:
#      x y z
#    x 3.275690 0.000000 0.000000 
#    y 0.000000 3.368740 0.000000 
#    z 0.000000 0.000000 3.573180 
# 
# 
# High freq. dielectric constant tensor:
#      x y z
#    x 1.688020 0.000000 0.000000 
#    y 0.000000 1.724450 0.000000 
#    z 0.000000 0.000000 1.733300 
# 
# From -- ./inp_files/33820.got.cif
#   From: 2010.03.12/outbox.cif.g09.slc.cpg/sg51_17_cif.got.tgz:33820.got - 2010.04.16 13:43:02.
