data_PCOD8209650
_publ_section_title
;
Structure prediction by ZEFSAII (Michael W. Deem and Ramdas Pophale) SiO2 
 PCOD8209650
Probable space group: P M M A
;
_chemical_formula_sum "Si O2"
_cell_formula_units_Z 64
_cell_length_a 21.077398
_cell_length_b 9.164883
_cell_length_c 17.363545
_cell_angle_alpha 90.000000
_cell_angle_beta 90.000000
_cell_angle_gamma 90.000000
_cell_volume 3354.148746
_symmetry_space_group_name_H-M "P M M A"
_symmetry_group_IT_number 51
_symmetry_cell_setting 'orthorhombic'
loop_
_space_group_symop_operation_xyz
x,y,z
1/2-x,-y,z
1/2+x,-y,-z
-x,y,-z
-x,-y,-z
1/2+x,y,-z
1/2-x,y,z
x,-y,z
loop_
_atom_site_type_symbol
_atom_site_label
_atom_site_fract_x
_atom_site_fract_y
_atom_site_fract_z
Si Si1 0.387587 0.671160 0.357772
Si Si2 0.321686 0.326585 0.201835
Si Si3 0.821774 0.173143 0.188481
Si Si4 0.505023 0.827796 0.410634
Si Si5 0.319878 0.161510 0.484804
Si Si6 0.927583 0.672625 0.087517
Si Si7 0.430201 0.327611 0.088581
Si Si8 0.639444 0.829490 0.353290
O O1 0.398990 0.500000 0.355976
O O2 0.343591 0.722161 0.286950
O O3 0.454529 0.751816 0.354585
O O4 0.356389 0.716039 0.438233
O O5 0.250000 0.266079 0.186025
O O6 0.320315 0.500000 0.195718
O O7 0.373568 0.261277 0.141570
O O8 0.750000 0.215616 0.163448
O O9 0.873200 0.245593 0.133616
O O10 0.833423 0.238109 0.274463
O O11 0.830730 0.000000 0.184949
O O12 0.500000 0.778490 0.500000
O O13 0.570520 0.769197 0.375697
O O14 0.497125 0.000000 0.403784
O O15 0.250000 0.150843 0.450508
O O16 0.315502 0.207327 0.574334
O O17 0.353409 0.000000 0.477489
O O18 0.919256 0.500000 0.098001
O O19 0.998637 0.722514 0.114515
O O20 0.917914 0.719553 0.998948
O O21 0.428569 0.500000 0.095638
O O22 0.635978 0.000000 0.338992
#
# Coordination Sequence:
#
# PCOD8209650 Si02
#       8
#     8   8   8   8   8   8   8   8
#     4  11  22  33  49  76 109 137 169 215 271 323
#     4   9  18  32  50  74 106 143 178 211 256 318
#     4  10  21  36  54  79 111 144 177 215 265 323
#     4  10  19  35  56  75  98 131 178 227 264 308
#     4  10  19  34  56  74  94 135 185 223 257 303
#     4   9  18  34  58  84 109 136 174 221 265 308
#     4   8  16  33  55  80 108 140 176 216 259 311
#     4   9  18  34  54  75 100 135 178 220 260 310
#
# _framework density 19.080846999999999
#
# number of rings (size 3 to 8) (size 9 to 14) (size 15 to 20)
#    0.000    2.500    1.250    1.875    1.750    3.250 
#    0.000    3.125    0.000    3.000    0.000    1.750 
#    0.000    0.000    0.000    0.000    0.000    0.000 
#
# Total GULP energy -793109.366896 kJ/mol
# GULP energy per Si atom -12392.333858 kJ/mol
# Density = 1.903742 g / cm^3
# Si number density = 19.080847 Si / 1000 Ang^3
#
#
#
# Elastic Constant Matrix: (Units=GPa)
#
#
# Indices 1 2 3 4 5 6 
#
# 1 163.3354 32.5263 69.7649 0.0000 0.0000 0.0000
# 2 32.5263 28.1779 23.4927 0.0000 0.0000 0.0000
# 3 69.7649 23.4927 104.1568 0.0000 0.0000 0.0000
# 4 0.0000 0.0000 0.0000 17.3661 0.0000 0.0000
# 5 0.0000 0.0000 0.0000 0.0000 36.5311 0.0000
# 6 0.0000 0.0000 0.0000 0.0000 0.0000 26.5423
#
#
#
# Elastic Compliance Matrix: (Units=1/GPa)
#
#
# Indices 1 2 3 4 5 6 
#
# 1 0.009589 -0.007037 -0.004836 0.000000 0.000000 0.000000
# 2 -0.007037 0.048873 -0.006310 0.000000 0.000000 0.000000
# 3 -0.004836 -0.006310 0.014263 0.000000 0.000000 0.000000
# 4 0.000000 0.000000 0.000000 0.057584 0.000000 0.000000
# 5 0.000000 0.000000 0.000000 0.000000 0.027374 0.000000
# 6 0.000000 0.000000 0.000000 0.000000 0.000000 0.037676
#
#
# Mechanical properties :
#
#
# Convention : Reuss Voigt Hill
#
# Bulk Modulus (GPa) = 27.50307 60.80421 44.15364
# Shear Modulus (GPa) = 20.50499 27.41364 23.95931
#
# Velocity S-wave (km/s) = 3.28172 3.79451 3.54739
# Velocity P-wave (km/s) = 5.36702 7.15077 6.32212
#
# Compressibility (1/GPa) = 0.03635958
#
# Stress axis : x y z
#
# Youngs Moduli (GPa) = 104.28399 20.46135 70.11163
#
# Poissons Ratio (x) = 0.14399 0.33903
# Poissons Ratio (y) = 0.73389 0.44238
# Poissons Ratio (z) = 0.50428 0.12910
#
# Static dielectric constant tensor:
#      x y z
#    x 3.895530 0.000000 0.000000 
#    y 0.000000 3.004210 0.000000 
#    z 0.000000 0.000000 3.640940 
# 
# 
# High freq. dielectric constant tensor:
#      x y z
#    x 1.761780 0.000000 0.000000 
#    y 0.000000 1.689510 0.000000 
#    z 0.000000 0.000000 1.740700 
# 
# From -- ./inp_files/30832.got.cif
#   From: 2010.03.12/outbox.cif.g09.slc.cpg/sg51_16_cif.got.tgz:30832.got - 2010.04.16 13:43:02.
