data_PCOD8209052
_publ_section_title
;
Structure prediction by ZEFSAII (Michael W. Deem and Ramdas Pophale) SiO2 
 PCOD8209052
Probable space group: P M M A
;
_chemical_formula_sum "Si O2"
_cell_formula_units_Z 40
_cell_length_a 18.140544
_cell_length_b 14.521597
_cell_length_c 7.958139
_cell_angle_alpha 90.000000
_cell_angle_beta 90.000000
_cell_angle_gamma 90.000000
_cell_volume 2096.409925
_symmetry_space_group_name_H-M "P M M A"
_symmetry_group_IT_number 51
_symmetry_cell_setting 'orthorhombic'
loop_
_space_group_symop_operation_xyz
x,y,z
1/2-x,-y,z
1/2+x,-y,-z
-x,y,-z
-x,-y,-z
1/2+x,y,-z
1/2-x,y,z
x,-y,z
loop_
_atom_site_type_symbol
_atom_site_label
_atom_site_fract_x
_atom_site_fract_y
_atom_site_fract_z
Si Si1 0.163835 0.288146 0.009903
Si Si2 0.334333 0.101714 0.851792
Si Si3 0.161996 0.395995 0.690106
Si Si4 0.662424 0.276009 0.622832
Si Si5 0.914675 0.895977 0.494149
O O1 0.250000 0.305546 0.999276
O O2 0.145126 0.179852 0.986554
O O3 0.128738 0.349247 0.859606
O O4 0.136317 0.317393 0.196133
O O5 0.250000 0.114808 0.789040
O O6 0.387591 0.114934 0.695467
O O7 0.345188 0.000000 0.932591
O O8 0.250000 0.393980 0.690440
O O9 0.132227 0.500000 0.680494
O O10 0.132556 0.341044 0.526655
O O11 0.750000 0.267503 0.616713
O O12 0.630004 0.173669 0.610952
O O13 0.000000 0.869677 0.500000
O O14 0.901115 0.000000 0.559905
#
# Coordination Sequence:
#
# PCOD8209052 Si02
#       5
#     8   8   8   8   8
#     4   9  17  29  48  76 103 129 165 206 249 297
#     4   9  16  29  50  72  98 132 166 203 248 298
#     4   9  17  30  49  75 106 133 161 207 260 300
#     4  10  19  32  53  78 102 133 173 209 248 301
#     4  10  20  33  50  74 104 137 172 209 252 301
#
# _framework density 19.080238000000001
#
# number of rings (size 3 to 8) (size 9 to 14) (size 15 to 20)
#    0.000    2.600    2.000    0.600    0.000    2.800 
#    0.000    7.000    0.000    4.200    0.000    1.400 
#    0.000    0.000    0.000    0.000    0.000    0.000 
#
# Total GULP energy -495747.251033 kJ/mol
# GULP energy per Si atom -12393.681276 kJ/mol
# Density = 1.903681 g / cm^3
# Si number density = 19.080238 Si / 1000 Ang^3
#
#
#
# Elastic Constant Matrix: (Units=GPa)
#
#
# Indices 1 2 3 4 5 6 
#
# 1 22.2856 20.9256 19.3691 0.0000 0.0000 0.0000
# 2 20.9256 135.2039 82.9178 0.0000 0.0000 0.0000
# 3 19.3691 82.9178 163.0518 0.0000 0.0000 0.0000
# 4 0.0000 0.0000 0.0000 17.1265 0.0000 0.0000
# 5 0.0000 0.0000 0.0000 0.0000 5.1677 0.0000
# 6 0.0000 0.0000 0.0000 0.0000 0.0000 9.4036
#
#
#
# Elastic Compliance Matrix: (Units=1/GPa)
#
#
# Indices 1 2 3 4 5 6 
#
# 1 0.053573 -0.006378 -0.003121 0.000000 0.000000 0.000000
# 2 -0.006378 0.011508 -0.005094 0.000000 0.000000 0.000000
# 3 -0.003121 -0.005094 0.009094 0.000000 0.000000 0.000000
# 4 0.000000 0.000000 0.000000 0.058389 0.000000 0.000000
# 5 0.000000 0.000000 0.000000 0.000000 0.193509 0.000000
# 6 0.000000 0.000000 0.000000 0.000000 0.000000 0.106342
#
#
# Mechanical properties :
#
#
# Convention : Reuss Voigt Hill
#
# Bulk Modulus (GPa) = 22.22750 62.99626 42.61188
# Shear Modulus (GPa) = 10.49106 19.49484 14.99295
#
# Velocity S-wave (km/s) = 2.34741 3.19992 2.80623
# Velocity P-wave (km/s) = 4.36141 6.83672 5.73423
#
# Compressibility (1/GPa) = 0.04498932
#
# Stress axis : x y z
#
# Youngs Moduli (GPa) = 18.66619 86.89895 109.95726
#
# Poissons Ratio (x) = 0.55421 0.34315
# Poissons Ratio (y) = 0.11905 0.56017
# Poissons Ratio (z) = 0.05825 0.44270
#
# Static dielectric constant tensor:
#      x y z
#    x 3.001870 0.000000 0.000000 
#    y 0.000000 3.719830 0.000000 
#    z 0.000000 0.000000 3.681090 
# 
# 
# High freq. dielectric constant tensor:
#      x y z
#    x 1.684250 0.000000 0.000000 
#    y 0.000000 1.745600 0.000000 
#    z 0.000000 0.000000 1.741900 
# 
# From -- ./inp_files/9405.got.cif
#   From: 2010.03.12/outbox.cif.g09.slc.cpg/sg51_5_cif.got.tgz:9405.got - 2010.04.16 13:43:02.
