data_PCOD8209364
_publ_section_title
;
Structure prediction by ZEFSAII (Michael W. Deem and Ramdas Pophale) SiO2 
 PCOD8209364
Probable space group: P M M A
;
_chemical_formula_sum "Si O2"
_cell_formula_units_Z 64
_cell_length_a 19.432539
_cell_length_b 9.614836
_cell_length_c 19.229344
_cell_angle_alpha 90.000000
_cell_angle_beta 90.000000
_cell_angle_gamma 90.000000
_cell_volume 3592.823623
_symmetry_space_group_name_H-M "P M M A"
_symmetry_group_IT_number 51
_symmetry_cell_setting 'orthorhombic'
loop_
_space_group_symop_operation_xyz
x,y,z
1/2-x,-y,z
1/2+x,-y,-z
-x,y,-z
-x,-y,-z
1/2+x,y,-z
1/2-x,y,z
x,-y,z
loop_
_atom_site_type_symbol
_atom_site_label
_atom_site_fract_x
_atom_site_fract_y
_atom_site_fract_z
Si Si1 0.669736 0.657963 0.932381
Si Si2 0.427851 0.843032 0.978475
Si Si3 0.826420 0.344978 0.254188
Si Si4 0.527329 0.837734 0.428935
Si Si5 0.049701 0.836665 0.289053
Si Si6 0.929654 0.154059 0.185080
Si Si7 0.175389 0.842455 0.612554
Si Si8 0.829811 0.336519 0.773073
O O1 0.750000 0.671399 0.947376
O O2 0.644938 0.500000 0.943172
O O3 0.653958 0.704502 0.853116
O O4 0.633130 0.753354 0.989292
O O5 0.433628 0.844089 0.896503
O O6 0.419086 0.000000 0.007245
O O7 0.500000 0.775780 0.000000
O O8 0.750000 0.349216 0.222740
O O9 0.854580 0.500000 0.267406
O O10 0.872910 0.268499 0.199095
O O11 0.827655 0.263878 0.325455
O O12 0.500000 0.766744 0.500000
O O13 0.489938 0.780935 0.358851
O O14 0.609292 0.808041 0.434082
O O15 0.511352 0.000000 0.430056
O O16 0.120498 0.751619 0.277882
O O17 0.001013 0.806061 0.222797
O O18 0.067657 0.000000 0.294858
O O19 0.907679 0.000000 0.211796
O O20 0.250000 0.825351 0.573523
O O21 0.168587 0.000000 0.641354
O O22 0.750000 0.301314 0.755606
O O23 0.843305 0.500000 0.761372
#
# Coordination Sequence:
#
# PCOD8209364 Si02
#       8
#     8   8   8   8   8   8   8   8
#     4   9  19  36  55  74 100 135 174 215 259 309
#     4  10  21  35  51  73 102 134 170 214 260 309
#     4  10  20  32  48  73 102 131 168 214 255 293
#     4   9  17  31  52  80 111 138 169 216 265 307
#     4  10  19  33  54  79 105 133 169 215 262 306
#     4  10  20  34  51  73 102 136 172 210 258 313
#     4   9  16  30  53  75  99 137 177 207 246 303
#     4   9  19  36  56  77 102 135 173 212 258 312
#
# _framework density 17.813288
#
# number of rings (size 3 to 8) (size 9 to 14) (size 15 to 20)
#    0.000    2.500    1.250    1.875    0.000    4.500 
#    0.000    4.375    0.000    3.750    0.000    1.750 
#    0.000    0.000    0.000    0.000    0.000    0.000 
#
# Total GULP energy -793062.739258 kJ/mol
# GULP energy per Si atom -12391.605301 kJ/mol
# Density = 1.777274 g / cm^3
# Si number density = 17.813288 Si / 1000 Ang^3
#
#
#
# Elastic Constant Matrix: (Units=GPa)
#
#
# Indices 1 2 3 4 5 6 
#
# 1 120.0680 53.4255 60.8795 0.0000 0.0000 0.0000
# 2 53.4255 74.8576 32.1128 0.0000 0.0000 0.0000
# 3 60.8795 32.1128 79.1511 0.0000 0.0000 0.0000
# 4 0.0000 0.0000 0.0000 13.9439 0.0000 0.0000
# 5 0.0000 0.0000 0.0000 0.0000 25.2543 0.0000
# 6 0.0000 0.0000 0.0000 0.0000 0.0000 10.9254
#
#
#
# Elastic Compliance Matrix: (Units=1/GPa)
#
#
# Indices 1 2 3 4 5 6 
#
# 1 0.016696 -0.007757 -0.009694 0.000000 0.000000 0.000000
# 2 -0.007757 0.019777 -0.002058 0.000000 0.000000 0.000000
# 3 -0.009694 -0.002058 0.020925 0.000000 0.000000 0.000000
# 4 0.000000 0.000000 0.000000 0.071716 0.000000 0.000000
# 5 0.000000 0.000000 0.000000 0.000000 0.039597 0.000000
# 6 0.000000 0.000000 0.000000 0.000000 0.000000 0.091530
#
#
# Mechanical properties :
#
#
# Convention : Reuss Voigt Hill
#
# Bulk Modulus (GPa) = 54.40582 62.99024 58.69803
# Shear Modulus (GPa) = 16.37271 18.53532 17.45401
#
# Velocity S-wave (km/s) = 3.03500 3.22923 3.13362
# Velocity P-wave (km/s) = 6.54906 7.02439 6.79089
#
# Compressibility (1/GPa) = 0.01838039
#
# Stress axis : x y z
#
# Youngs Moduli (GPa) = 59.89625 50.56261 47.78863
#
# Poissons Ratio (x) = 0.39220 0.46328
# Poissons Ratio (y) = 0.46460 0.09834
# Poissons Ratio (z) = 0.58066 0.10405
#
# Static dielectric constant tensor:
#      x y z
#    x 3.530530 0.000000 0.000000 
#    y 0.000000 3.424990 0.000000 
#    z 0.000000 0.000000 3.223480 
# 
# 
# High freq. dielectric constant tensor:
#      x y z
#    x 1.698230 0.000000 0.000000 
#    y 0.000000 1.676040 0.000000 
#    z 0.000000 0.000000 1.670050 
# 
# From -- ./inp_files/33786.got.cif
#   From: 2010.03.12/outbox.cif.g09.slc.cpg/sg51_17_cif.got.tgz:33786.got - 2010.04.16 13:43:02.
