data_PCOD8209813
_publ_section_title
;
Structure prediction by ZEFSAII (Michael W. Deem and Ramdas Pophale) SiO2 
 PCOD8209813
Probable space group: P M M A
;
_chemical_formula_sum "Si O2"
_cell_formula_units_Z 44
_cell_length_a 9.130951
_cell_length_b 13.403224
_cell_length_c 18.996000
_cell_angle_alpha 90.000000
_cell_angle_beta 90.000000
_cell_angle_gamma 90.000000
_cell_volume 2324.809913
_symmetry_space_group_name_H-M "P M M A"
_symmetry_group_IT_number 51
_symmetry_cell_setting 'orthorhombic'
loop_
_space_group_symop_operation_xyz
x,y,z
1/2-x,-y,z
1/2+x,-y,-z
-x,y,-z
-x,-y,-z
1/2+x,y,-z
1/2-x,y,z
x,-y,z
loop_
_atom_site_type_symbol
_atom_site_label
_atom_site_fract_x
_atom_site_fract_y
_atom_site_fract_z
Si Si1 0.923290 0.108225 0.841579
Si Si2 0.424418 0.500000 0.574748
Si Si3 0.922629 0.887912 0.682015
Si Si4 0.086327 0.612651 0.806382
Si Si5 0.078293 0.695987 0.658714
Si Si6 0.076696 0.295407 0.073256
O O1 0.750000 0.115784 0.838933
O O2 0.980879 0.122498 0.762211
O O3 0.983872 0.190660 0.895497
O O4 0.973782 0.000000 0.870218
O O5 0.250000 0.500000 0.567525
O O6 0.500000 0.500000 0.500000
O O7 0.478007 0.399278 0.614335
O O8 0.750000 0.871316 0.677276
O O9 0.999952 0.800273 0.636138
O O10 0.962502 0.000000 0.654283
O O11 0.250000 0.642692 0.831745
O O12 0.085878 0.500000 0.778858
O O13 0.037232 0.679108 0.740411
O O14 0.972517 0.621818 0.870522
O O15 0.250000 0.709292 0.647395
O O16 0.250000 0.298577 0.062887
O O17 0.000000 0.318101 0.000000
#
# Coordination Sequence:
#
# PCOD8209813 Si02
#       6
#     8   4   8   8   8   8
#     4   8  15  29  48  70  99 133 169 216 270 319
#     4  10  22  40  60  90 125 156 181 218 271 324
#     4   9  17  31  53  82 114 146 184 230 277 325
#     4  10  20  36  56  76 100 134 175 221 273 329
#     4  10  19  34  58  85 116 147 181 225 277 325
#     4  11  22  35  51  71  99 136 179 227 276 329
#
# _framework density 18.926279000000001
#
# number of rings (size 3 to 8) (size 9 to 14) (size 15 to 20)
#    0.000    2.364    2.727    1.636    0.000    2.182 
#    0.000    0.000    0.000    2.182    0.000    0.000 
#    0.000    0.000    0.000    0.000    0.000    0.000 
#
# Total GULP energy -545336.693777 kJ/mol
# GULP energy per Si atom -12394.015768 kJ/mol
# Density = 1.888320 g / cm^3
# Si number density = 18.926279 Si / 1000 Ang^3
#
#
#
# Elastic Constant Matrix: (Units=GPa)
#
#
# Indices 1 2 3 4 5 6 
#
# 1 53.3035 44.0797 31.5723 0.0000 0.0000 0.0000
# 2 44.0797 141.2936 43.6107 0.0000 0.0000 0.0000
# 3 31.5723 43.6107 66.6700 0.0000 0.0000 0.0000
# 4 0.0000 0.0000 0.0000 19.7830 0.0000 0.0000
# 5 0.0000 0.0000 0.0000 0.0000 23.4874 0.0000
# 6 0.0000 0.0000 0.0000 0.0000 0.0000 31.9445
#
#
#
# Elastic Compliance Matrix: (Units=1/GPa)
#
#
# Indices 1 2 3 4 5 6 
#
# 1 0.029864 -0.006204 -0.010084 0.000000 0.000000 0.000000
# 2 -0.006204 0.010157 -0.003706 0.000000 0.000000 0.000000
# 3 -0.010084 -0.003706 0.022199 0.000000 0.000000 0.000000
# 4 0.000000 0.000000 0.000000 0.050548 0.000000 0.000000
# 5 0.000000 0.000000 0.000000 0.000000 0.042576 0.000000
# 6 0.000000 0.000000 0.000000 0.000000 0.000000 0.031304
#
#
# Mechanical properties :
#
#
# Convention : Reuss Voigt Hill
#
# Bulk Modulus (GPa) = 44.98145 55.53249 50.25697
# Shear Modulus (GPa) = 21.36323 24.50995 22.93659
#
# Velocity S-wave (km/s) = 3.36335 3.60255 3.48500
# Velocity P-wave (km/s) = 6.23707 6.83444 6.54258
#
# Compressibility (1/GPa) = 0.02223139
#
# Stress axis : x y z
#
# Youngs Moduli (GPa) = 33.48506 98.45608 45.04769
#
# Poissons Ratio (x) = 0.61085 0.45426
# Poissons Ratio (y) = 0.20775 0.16693
# Poissons Ratio (z) = 0.33767 0.36485
#
# Static dielectric constant tensor:
#      x y z
#    x 3.173880 0.000000 0.000000 
#    y 0.000000 3.810170 0.000000 
#    z 0.000000 0.000000 3.154120 
# 
# 
# High freq. dielectric constant tensor:
#      x y z
#    x 1.712600 0.000000 0.000000 
#    y 0.000000 1.753880 0.000000 
#    z 0.000000 0.000000 1.699880 
# 
# From -- ./inp_files/27415.got.cif
#   From: 2010.03.12/outbox.cif.g09.slc.cpg/sg51_14_cif.got.tgz:27415.got - 2010.04.16 13:43:02.
