data_PCOD8209174
_publ_section_title
;
Structure prediction by ZEFSAII (Michael W. Deem and Ramdas Pophale) SiO2 
 PCOD8209174
Probable space group: P M M A
;
_chemical_formula_sum "Si O2"
_cell_formula_units_Z 64
_cell_length_a 13.940676
_cell_length_b 8.921775
_cell_length_c 26.043915
_cell_angle_alpha 90.000000
_cell_angle_beta 90.000000
_cell_angle_gamma 90.000000
_cell_volume 3239.226893
_symmetry_space_group_name_H-M "P M M A"
_symmetry_group_IT_number 51
_symmetry_cell_setting 'orthorhombic'
loop_
_space_group_symop_operation_xyz
x,y,z
1/2-x,-y,z
1/2+x,-y,-z
-x,y,-z
-x,-y,-z
1/2+x,y,-z
1/2-x,y,z
x,-y,z
loop_
_atom_site_type_symbol
_atom_site_label
_atom_site_fract_x
_atom_site_fract_y
_atom_site_fract_z
Si Si1 0.140511 0.676157 0.876357
Si Si2 0.970233 0.677454 0.224811
Si Si3 0.143845 0.338204 0.076787
Si Si4 0.638301 0.825400 0.823644
Si Si5 0.358294 0.322360 0.675718
Si Si6 0.603797 0.162438 0.020775
Si Si7 0.638584 0.822250 0.523483
Si Si8 0.963214 0.679016 0.427861
O O1 0.250000 0.728080 0.872981
O O2 0.131310 0.500000 0.883416
O O3 0.089591 0.730330 0.824641
O O4 0.093309 0.752744 0.925654
O O5 0.982067 0.500000 0.227468
O O6 0.914254 0.739449 0.274518
O O7 0.076318 0.749852 0.221812
O O8 0.250000 0.369216 0.096843
O O9 0.089439 0.500000 0.072598
O O10 0.097393 0.237253 0.121650
O O11 0.156801 0.261876 0.021467
O O12 0.750000 0.790854 0.813380
O O13 0.618175 0.000000 0.824638
O O14 0.250000 0.255686 0.673773
O O15 0.351250 0.500000 0.678582
O O16 0.418753 0.272006 0.626306
O O17 0.655200 0.000000 0.027447
O O18 0.500000 0.133396 0.000000
O O19 0.750000 0.785693 0.535870
O O20 0.569475 0.752167 0.567411
O O21 0.608761 0.744370 0.470355
O O22 0.621695 0.000000 0.519685
O O23 0.970760 0.500000 0.434023
#
# Coordination Sequence:
#
# PCOD8209174 Si02
#       8
#     8   8   8   8   8   8   8   8
#     4  10  21  36  54  77 104 135 172 213 259 313
#     4  10  20  36  59  82 105 137 177 221 266 315
#     4  10  20  34  53  75  96 121 159 205 251 307
#     4  10  21  37  56  78 106 138 171 213 267 322
#     4   9  18  34  57  85 114 143 180 228 279 325
#     4  11  23  35  48  70 101 134 166 205 256 312
#     4  10  20  34  53  79 116 159 196 232 278 332
#     4  10  19  32  55  85 115 149 191 239 284 328
#
# _framework density 19.757798999999999
#
# number of rings (size 3 to 8) (size 9 to 14) (size 15 to 20)
#    0.000    2.000    0.000    4.500    0.000    9.750 
#    0.000    1.875    0.000    6.375    0.000    0.000 
#    0.000    0.000    0.000    0.000    0.000    0.000 
#
# Total GULP energy -793305.181326 kJ/mol
# GULP energy per Si atom -12395.393458 kJ/mol
# Density = 1.971283 g / cm^3
# Si number density = 19.757799 Si / 1000 Ang^3
#
#
#
# Elastic Constant Matrix: (Units=GPa)
#
#
# Indices 1 2 3 4 5 6 
#
# 1 125.7167 45.7362 77.2726 0.0000 0.0000 0.0000
# 2 45.7362 77.0007 44.1228 0.0000 0.0000 0.0000
# 3 77.2726 44.1228 153.9133 0.0000 0.0000 0.0000
# 4 0.0000 0.0000 0.0000 5.0980 0.0000 0.0000
# 5 0.0000 0.0000 0.0000 0.0000 31.5497 0.0000
# 6 0.0000 0.0000 0.0000 0.0000 0.0000 27.9265
#
#
#
# Elastic Compliance Matrix: (Units=1/GPa)
#
#
# Indices 1 2 3 4 5 6 
#
# 1 0.012775 -0.004682 -0.005072 0.000000 0.000000 0.000000
# 2 -0.004682 0.017255 -0.002596 0.000000 0.000000 0.000000
# 3 -0.005072 -0.002596 0.009788 0.000000 0.000000 0.000000
# 4 0.000000 0.000000 0.000000 0.196154 0.000000 0.000000
# 5 0.000000 0.000000 0.000000 0.000000 0.031696 0.000000
# 6 0.000000 0.000000 0.000000 0.000000 0.000000 0.035808
#
#
# Mechanical properties :
#
#
# Convention : Reuss Voigt Hill
#
# Bulk Modulus (GPa) = 66.14238 76.76599 71.45418
# Shear Modulus (GPa) = 15.00531 25.54811 20.27671
#
# Velocity S-wave (km/s) = 2.75882 3.59982 3.20701
# Velocity P-wave (km/s) = 6.61040 7.49774 7.06801
#
# Compressibility (1/GPa) = 0.01511890
#
# Stress axis : x y z
#
# Youngs Moduli (GPa) = 78.27833 57.95282 102.17039
#
# Poissons Ratio (x) = 0.27133 0.51816
# Poissons Ratio (y) = 0.36649 0.26525
# Poissons Ratio (z) = 0.39699 0.15045
#
# Static dielectric constant tensor:
#      x y z
#    x 3.756900 0.000000 0.000000 
#    y 0.000000 3.619060 0.000000 
#    z 0.000000 0.000000 3.609560 
# 
# 
# High freq. dielectric constant tensor:
#      x y z
#    x 1.783200 0.000000 0.000000 
#    y 0.000000 1.764000 0.000000 
#    z 0.000000 0.000000 1.752370 
# 
# From -- ./inp_files/35685.got.cif
#   From: 2010.03.12/outbox.cif.g09.slc.cpg/sg51_18_cif.got.tgz:35685.got - 2010.04.16 13:43:02.
