data_PCOD8209357
_publ_section_title
;
Structure prediction by ZEFSAII (Michael W. Deem and Ramdas Pophale) SiO2 
 PCOD8209357
Probable space group: P M M A
;
_chemical_formula_sum "Si O2"
_cell_formula_units_Z 64
_cell_length_a 19.381544
_cell_length_b 8.947833
_cell_length_c 20.690342
_cell_angle_alpha 90.000000
_cell_angle_beta 90.000000
_cell_angle_gamma 90.000000
_cell_volume 3588.177436
_symmetry_space_group_name_H-M "P M M A"
_symmetry_group_IT_number 51
_symmetry_cell_setting 'orthorhombic'
loop_
_space_group_symop_operation_xyz
x,y,z
1/2-x,-y,z
1/2+x,-y,-z
-x,y,-z
-x,-y,-z
1/2+x,y,-z
1/2-x,y,z
x,-y,z
loop_
_atom_site_type_symbol
_atom_site_label
_atom_site_fract_x
_atom_site_fract_y
_atom_site_fract_z
Si Si1 0.457874 0.826940 0.673168
Si Si2 0.455437 0.675684 0.436902
Si Si3 0.827841 0.826599 0.510860
Si Si4 0.045786 0.828108 0.818003
Si Si5 0.327662 0.675141 0.015933
Si Si6 0.042119 0.823288 0.062496
Si Si7 0.173585 0.323864 0.869490
Si Si8 0.828260 0.674211 0.374027
O O1 0.504850 0.728572 0.626588
O O2 0.485418 0.806084 0.746375
O O3 0.379197 0.767791 0.671450
O O4 0.460154 0.000000 0.652072
O O5 0.500000 0.717730 0.500000
O O6 0.441653 0.500000 0.432559
O O7 0.382390 0.762447 0.437669
O O8 0.750000 0.806868 0.538106
O O9 0.837811 0.730648 0.446636
O O10 0.843320 0.000000 0.496097
O O11 0.119055 0.746666 0.821032
O O12 0.993721 0.763074 0.871942
O O13 0.060094 0.000000 0.833217
O O14 0.250000 0.714629 0.038260
O O15 0.340874 0.500000 0.020735
O O16 0.339722 0.731289 0.942678
O O17 0.380774 0.758705 0.062578
O O18 0.047234 0.000000 0.062038
O O19 0.000000 0.764481 0.000000
O O20 0.250000 0.274271 0.847195
O O21 0.166772 0.500000 0.866211
O O22 0.750000 0.700199 0.349861
O O23 0.848277 0.500000 0.372385
#
# Coordination Sequence:
#
# PCOD8209357 Si02
#       8
#     8   8   8   8   8   8   8   8
#     4  11  23  37  54  75 106 144 181 221 264 315
#     4  11  22  36  57  83 109 139 177 222 268 312
#     4  10  20  34  56  85 112 139 174 216 264 315
#     4  10  22  37  51  75 107 140 178 220 264 311
#     4   9  18  32  51  78 108 135 171 218 263 311
#     4  10  19  33  54  78 105 136 174 219 264 311
#     4   9  18  32  50  74 105 141 178 214 256 310
#     4  10  20  34  52  76 108 143 179 218 259 308
#
# _framework density 17.836354
#
# number of rings (size 3 to 8) (size 9 to 14) (size 15 to 20)
#    0.000    2.000    2.500    2.250    0.000    4.750 
#    0.000    3.750    0.000    0.750    0.000    1.750 
#    0.000    0.000    0.000    0.000    0.000    0.000 
#
# Total GULP energy -793656.242890 kJ/mol
# GULP energy per Si atom -12400.878795 kJ/mol
# Density = 1.779576 g / cm^3
# Si number density = 17.836354 Si / 1000 Ang^3
#
#
#
# Elastic Constant Matrix: (Units=GPa)
#
#
# Indices 1 2 3 4 5 6 
#
# 1 103.0287 31.6279 44.9428 0.0000 0.0000 0.0000
# 2 31.6279 49.5069 24.9141 0.0000 0.0000 0.0000
# 3 44.9428 24.9141 84.6070 0.0000 0.0000 0.0000
# 4 0.0000 0.0000 0.0000 20.5060 0.0000 0.0000
# 5 0.0000 0.0000 0.0000 0.0000 24.8126 0.0000
# 6 0.0000 0.0000 0.0000 0.0000 0.0000 37.7343
#
#
#
# Elastic Compliance Matrix: (Units=1/GPa)
#
#
# Indices 1 2 3 4 5 6 
#
# 1 0.014058 -0.006132 -0.005662 0.000000 0.000000 0.000000
# 2 -0.006132 0.026388 -0.004513 0.000000 0.000000 0.000000
# 3 -0.005662 -0.004513 0.016156 0.000000 0.000000 0.000000
# 4 0.000000 0.000000 0.000000 0.048766 0.000000 0.000000
# 5 0.000000 0.000000 0.000000 0.000000 0.040302 0.000000
# 6 0.000000 0.000000 0.000000 0.000000 0.000000 0.026501
#
#
# Mechanical properties :
#
#
# Convention : Reuss Voigt Hill
#
# Bulk Modulus (GPa) = 41.68759 48.90134 45.29447
# Shear Modulus (GPa) = 23.49828 25.65444 24.57636
#
# Velocity S-wave (km/s) = 3.63359 3.79664 3.71601
# Velocity P-wave (km/s) = 6.40523 6.83341 6.62278
#
# Compressibility (1/GPa) = 0.02398795
#
# Stress axis : x y z
#
# Youngs Moduli (GPa) = 71.13250 37.89624 61.89651
#
# Poissons Ratio (x) = 0.23237 0.35046
# Poissons Ratio (y) = 0.43617 0.27935
# Poissons Ratio (z) = 0.40276 0.17103
#
# Static dielectric constant tensor:
#      x y z
#    x 3.452230 0.000000 0.000000 
#    y 0.000000 3.261020 0.000000 
#    z 0.000000 0.000000 3.131100 
# 
# 
# High freq. dielectric constant tensor:
#      x y z
#    x 1.691840 0.000000 0.000000 
#    y 0.000000 1.694690 0.000000 
#    z 0.000000 0.000000 1.663600 
# 
# From -- ./inp_files/33771.got.cif
#   From: 2010.03.12/outbox.cif.g09.slc.cpg/sg51_17_cif.got.tgz:33771.got - 2010.04.16 13:43:02.
