data_PCOD8209056
_publ_section_title
;
Structure prediction by ZEFSAII (Michael W. Deem and Ramdas Pophale) SiO2 
 PCOD8209056
Probable space group: P M M A
;
_chemical_formula_sum "Si O2"
_cell_formula_units_Z 48
_cell_length_a 17.886085
_cell_length_b 9.192554
_cell_length_c 15.375616
_cell_angle_alpha 90.000000
_cell_angle_beta 90.000000
_cell_angle_gamma 90.000000
_cell_volume 2528.040366
_symmetry_space_group_name_H-M "P M M A"
_symmetry_group_IT_number 51
_symmetry_cell_setting 'orthorhombic'
loop_
_space_group_symop_operation_xyz
x,y,z
1/2-x,-y,z
1/2+x,-y,-z
-x,y,-z
-x,-y,-z
1/2+x,y,-z
1/2-x,y,z
x,-y,z
loop_
_atom_site_type_symbol
_atom_site_label
_atom_site_fract_x
_atom_site_fract_y
_atom_site_fract_z
Si Si1 0.422164 0.330575 0.675706
Si Si2 0.163478 0.669656 0.847528
Si Si3 0.595700 0.669886 0.663274
Si Si4 0.163675 0.165376 0.180200
Si Si5 0.088695 0.164149 0.506649
Si Si6 0.914810 0.171153 0.996072
O O1 0.407970 0.500000 0.657496
O O2 0.381528 0.276936 0.762835
O O3 0.509715 0.296041 0.685773
O O4 0.386374 0.242424 0.595508
O O5 0.250000 0.706551 0.832913
O O6 0.150048 0.500000 0.863460
O O7 0.134043 0.753215 0.930815
O O8 0.609991 0.500000 0.650819
O O9 0.646563 0.728512 0.740570
O O10 0.622142 0.749179 0.575185
O O11 0.250000 0.177627 0.154822
O O12 0.142316 0.000000 0.206057
O O13 0.116525 0.217724 0.097419
O O14 0.000000 0.166486 0.500000
O O15 0.119992 0.000000 0.506099
O O16 0.908334 0.000000 0.011276
O O17 0.000000 0.225389 0.000000
#
# Coordination Sequence:
#
# PCOD8209056 Si02
#       6
#     8   8   8   8   8   8
#     4   9  18  33  52  76 106 138 175 220 265 308
#     4  10  21  36  54  78 109 143 176 214 263 315
#     4  10  19  32  53  78 103 135 176 220 264 311
#     4  10  21  36  52  73 105 140 171 210 261 313
#     4   9  17  30  51  78 105 135 174 219 264 310
#     4  10  21  37  58  82 106 136 176 220 265 314
#
# _framework density 18.98704
#
# number of rings (size 3 to 8) (size 9 to 14) (size 15 to 20)
#    0.000    2.333    0.000    2.500    0.000    5.667 
#    0.000    0.833    0.000    3.000    0.000    0.000 
#    0.000    0.000    0.000    0.000    0.000    0.000 
#
# Total GULP energy -595390.874559 kJ/mol
# GULP energy per Si atom -12403.976553 kJ/mol
# Density = 1.894382 g / cm^3
# Si number density = 18.987040 Si / 1000 Ang^3
#
#
#
# Elastic Constant Matrix: (Units=GPa)
#
#
# Indices 1 2 3 4 5 6 
#
# 1 50.0526 21.6294 25.0755 0.0000 0.0000 0.0000
# 2 21.6294 76.8825 53.1918 0.0000 0.0000 0.0000
# 3 25.0755 53.1918 124.3737 0.0000 0.0000 0.0000
# 4 0.0000 0.0000 0.0000 40.7958 0.0000 0.0000
# 5 0.0000 0.0000 0.0000 0.0000 11.7283 0.0000
# 6 0.0000 0.0000 0.0000 0.0000 0.0000 20.8503
#
#
#
# Elastic Compliance Matrix: (Units=1/GPa)
#
#
# Indices 1 2 3 4 5 6 
#
# 1 0.023364 -0.004707 -0.002698 0.000000 0.000000 0.000000
# 2 -0.004707 0.019421 -0.007357 0.000000 0.000000 0.000000
# 3 -0.002698 -0.007357 0.011731 0.000000 0.000000 0.000000
# 4 0.000000 0.000000 0.000000 0.024512 0.000000 0.000000
# 5 0.000000 0.000000 0.000000 0.000000 0.085264 0.000000
# 6 0.000000 0.000000 0.000000 0.000000 0.000000 0.047961
#
#
# Mechanical properties :
#
#
# Convention : Reuss Voigt Hill
#
# Bulk Modulus (GPa) = 40.01075 50.12245 45.06660
# Shear Modulus (GPa) = 19.99148 24.76904 22.38026
#
# Velocity S-wave (km/s) = 3.24836 3.61574 3.43696
# Velocity P-wave (km/s) = 5.93191 6.62472 6.28787
#
# Compressibility (1/GPa) = 0.02499329
#
# Stress axis : x y z
#
# Youngs Moduli (GPa) = 42.80013 51.49065 85.24743
#
# Poissons Ratio (x) = 0.24235 0.22996
# Poissons Ratio (y) = 0.20145 0.62716
# Poissons Ratio (z) = 0.11546 0.37881
#
# Static dielectric constant tensor:
#      x y z
#    x 3.354640 0.000000 0.000000 
#    y 0.000000 3.473610 0.000000 
#    z 0.000000 0.000000 3.569620 
# 
# 
# High freq. dielectric constant tensor:
#      x y z
#    x 1.721060 0.000000 0.000000 
#    y 0.000000 1.736840 0.000000 
#    z 0.000000 0.000000 1.750940 
# 
# From -- ./inp_files/24790.got.cif
#   From: 2010.03.12/outbox.cif.g09.slc.cpg/sg51_13_cif.got.tgz:24790.got - 2010.04.16 13:43:02.
