data_PCOD8209404
_publ_section_title
;
Structure prediction by ZEFSAII (Michael W. Deem and Ramdas Pophale) SiO2 
 PCOD8209404
Probable space group: P M M A
;
_chemical_formula_sum "Si O2"
_cell_formula_units_Z 48
_cell_length_a 8.529707
_cell_length_b 31.187235
_cell_length_c 9.584597
_cell_angle_alpha 90.000000
_cell_angle_beta 90.000000
_cell_angle_gamma 90.000000
_cell_volume 2549.675101
_symmetry_space_group_name_H-M "P M M A"
_symmetry_group_IT_number 51
_symmetry_cell_setting 'orthorhombic'
loop_
_space_group_symop_operation_xyz
x,y,z
1/2-x,-y,z
1/2+x,-y,-z
-x,y,-z
-x,-y,-z
1/2+x,y,-z
1/2-x,y,z
x,-y,z
loop_
_atom_site_type_symbol
_atom_site_label
_atom_site_fract_x
_atom_site_fract_y
_atom_site_fract_z
Si Si1 0.064636 0.452330 0.648971
Si Si2 0.936583 0.138549 0.843258
Si Si3 0.065879 0.954829 0.153031
Si Si4 0.436136 0.378138 0.849391
Si Si5 0.935056 0.786870 0.344498
Si Si6 0.435219 0.713054 0.152841
O O1 0.250000 0.451560 0.644042
O O2 0.004930 0.500000 0.692186
O O3 0.000481 0.416878 0.754969
O O4 0.000000 0.439031 0.500000
O O5 0.750000 0.146293 0.843450
O O6 0.983874 0.091052 0.781683
O O7 0.020415 0.170624 0.739053
O O8 0.000000 0.145236 0.000000
O O9 0.250000 0.954494 0.140292
O O10 0.012831 0.000000 0.230598
O O11 0.000000 0.956285 0.000000
O O12 0.250000 0.374565 0.850703
O O13 0.505571 0.333254 0.795896
O O14 0.500000 0.389284 0.000000
O O15 0.750000 0.781373 0.349099
O O16 0.000000 0.790075 0.500000
O O17 0.009621 0.746423 0.267743
O O18 0.250000 0.713107 0.142404
O O19 0.500000 0.725163 0.000000
#
# Coordination Sequence:
#
# PCOD8209404 Si02
#       6
#     8   8   8   8   8   8
#     4   9  19  35  54  77 107 143 182 222 263 311
#     4  10  19  33  54  81 111 144 181 220 265 315
#     4   8  14  25  44  72 105 138 173 215 260 306
#     4  10  20  35  55  81 111 141 177 220 266 315
#     4  12  25  41  58  79 107 139 178 222 270 321
#     4  11  22  39  61  84 110 141 178 219 267 320
#
# _framework density 18.825928000000001
#
# number of rings (size 3 to 8) (size 9 to 14) (size 15 to 20)
#    0.000    2.000    0.000    5.500    0.000    3.000 
#    0.000    1.667    0.000    0.500    0.000    0.000 
#    0.000    0.000    0.000    0.000    0.000    0.000 
#
# Total GULP energy -594796.499873 kJ/mol
# GULP energy per Si atom -12391.593747 kJ/mol
# Density = 1.878308 g / cm^3
# Si number density = 18.825928 Si / 1000 Ang^3
#
#
#
# Elastic Constant Matrix: (Units=GPa)
#
#
# Indices 1 2 3 4 5 6 
#
# 1 81.4982 39.1638 23.8579 0.0000 0.0000 0.0000
# 2 39.1638 179.4754 88.3063 0.0000 0.0000 0.0000
# 3 23.8579 88.3063 91.4780 0.0000 0.0000 0.0000
# 4 0.0000 0.0000 0.0000 0.1181 0.0000 0.0000
# 5 0.0000 0.0000 0.0000 0.0000 29.9908 0.0000
# 6 0.0000 0.0000 0.0000 0.0000 0.0000 39.0019
#
#
#
# Elastic Compliance Matrix: (Units=1/GPa)
#
#
# Indices 1 2 3 4 5 6 
#
# 1 0.013790 -0.002361 -0.001317 0.000000 0.000000 0.000000
# 2 -0.002361 0.011016 -0.010019 0.000000 0.000000 0.000000
# 3 -0.001317 -0.010019 0.020947 0.000000 0.000000 0.000000
# 4 0.000000 0.000000 0.000000 8.468668 0.000000 0.000000
# 5 0.000000 0.000000 0.000000 0.000000 0.033344 0.000000
# 6 0.000000 0.000000 0.000000 0.000000 0.000000 0.025640
#
#
# Mechanical properties :
#
#
# Convention : Reuss Voigt Hill
#
# Bulk Modulus (GPa) = 54.46902 72.78973 63.62938
# Shear Modulus (GPa) = 0.58093 27.23039 13.90566
#
# Velocity S-wave (km/s) = 0.55610 3.80732 2.72075
# Velocity P-wave (km/s) = 5.42293 7.62077 6.61378
#
# Compressibility (1/GPa) = 0.01835906
#
# Stress axis : x y z
#
# Youngs Moduli (GPa) = 72.51378 90.77323 47.74054
#
# Poissons Ratio (x) = 0.21432 0.06290
# Poissons Ratio (y) = 0.17121 0.47830
# Poissons Ratio (z) = 0.09553 0.90943
#
# Static dielectric constant tensor:
#      x y z
#    x 3.461750 0.000000 0.000000 
#    y 0.000000 4.253530 0.000000 
#    z 0.000000 0.000000 3.247280 
# 
# 
# High freq. dielectric constant tensor:
#      x y z
#    x 1.742110 0.000000 0.000000 
#    y 0.000000 1.761030 0.000000 
#    z 0.000000 0.000000 1.700050 
# 
# From -- ./inp_files/5989.got.cif
#   From: 2010.03.12/outbox.cif.g09.slc.cpg/sg51_3_cif.got.tgz:5989.got - 2010.04.16 13:43:02.
