data_PCOD8209764
_publ_section_title
;
Structure prediction by ZEFSAII (Michael W. Deem and Ramdas Pophale) SiO2 
 PCOD8209764
Probable space group: P M M A
;
_chemical_formula_sum "Si O2"
_cell_formula_units_Z 44
_cell_length_a 8.867126
_cell_length_b 17.847869
_cell_length_c 14.441967
_cell_angle_alpha 90.000000
_cell_angle_beta 90.000000
_cell_angle_gamma 90.000000
_cell_volume 2285.575635
_symmetry_space_group_name_H-M "P M M A"
_symmetry_group_IT_number 51
_symmetry_cell_setting 'orthorhombic'
loop_
_space_group_symop_operation_xyz
x,y,z
1/2-x,-y,z
1/2+x,-y,-z
-x,y,-z
-x,-y,-z
1/2+x,y,-z
1/2-x,y,z
x,-y,z
loop_
_atom_site_type_symbol
_atom_site_label
_atom_site_fract_x
_atom_site_fract_y
_atom_site_fract_z
Si Si1 0.577385 0.414369 0.277723
Si Si2 0.429184 0.854589 0.290636
Si Si3 0.070724 0.291161 0.399942
Si Si4 0.425268 0.188754 0.093261
Si Si5 0.926998 0.363348 0.905260
Si Si6 0.070278 0.000000 0.399069
O O1 0.750000 0.386543 0.273644
O O2 0.568260 0.500000 0.310895
O O3 0.484803 0.366419 0.351431
O O4 0.503646 0.408396 0.177089
O O5 0.250000 0.854045 0.289745
O O6 0.487539 0.780345 0.342065
O O7 0.487783 0.854486 0.184174
O O8 0.490026 0.927630 0.343606
O O9 0.250000 0.293270 0.407214
O O10 0.000000 0.284658 0.500000
O O11 0.250000 0.174983 0.081293
O O12 0.462566 0.275836 0.107952
O O13 0.500000 0.156624 0.000000
O O14 0.750000 0.379839 0.905888
O O15 0.000000 0.393045 0.000000
O O16 0.000000 0.000000 0.500000
O O17 0.250000 0.000000 0.407780
#
# Coordination Sequence:
#
# PCOD8209764 Si02
#       6
#     8   8   8   8   8   4
#     4  11  24  40  57  81 112 146 189 237 286 341
#     4   9  18  35  58  84 115 150 186 225 277 335
#     4  11  22  39  60  83 110 144 189 236 284 342
#     4   9  17  32  53  81 112 145 185 225 269 325
#     4  10  19  34  57  83 114 149 188 233 281 336
#     4  10  20  36  59  84 116 152 185 230 281 330
#
# _framework density 19.251166999999999
#
# number of rings (size 3 to 8) (size 9 to 14) (size 15 to 20)
#    0.000    2.000    1.818    2.182    0.000    2.909 
#    0.000    2.273    0.000    0.000    0.000    0.000 
#    0.000    0.000    0.000    0.000    0.000    0.000 
#
# Total GULP energy -545671.568454 kJ/mol
# GULP energy per Si atom -12401.626556 kJ/mol
# Density = 1.920735 g / cm^3
# Si number density = 19.251167 Si / 1000 Ang^3
#
#
#
# Elastic Constant Matrix: (Units=GPa)
#
#
# Indices 1 2 3 4 5 6 
#
# 1 67.5868 37.2935 44.0371 0.0000 0.0000 0.0000
# 2 37.2935 101.3832 70.6009 0.0000 0.0000 0.0000
# 3 44.0371 70.6009 181.4154 0.0000 0.0000 0.0000
# 4 0.0000 0.0000 0.0000 27.3098 0.0000 0.0000
# 5 0.0000 0.0000 0.0000 0.0000 39.0386 0.0000
# 6 0.0000 0.0000 0.0000 0.0000 0.0000 17.1618
#
#
#
# Elastic Compliance Matrix: (Units=1/GPa)
#
#
# Indices 1 2 3 4 5 6 
#
# 1 0.019455 -0.005306 -0.002658 0.000000 0.000000 0.000000
# 2 -0.005306 0.014977 -0.004541 0.000000 0.000000 0.000000
# 3 -0.002658 -0.004541 0.007924 0.000000 0.000000 0.000000
# 4 0.000000 0.000000 0.000000 0.036617 0.000000 0.000000
# 5 0.000000 0.000000 0.000000 0.000000 0.025616 0.000000
# 6 0.000000 0.000000 0.000000 0.000000 0.000000 0.058269
#
#
# Mechanical properties :
#
#
# Convention : Reuss Voigt Hill
#
# Bulk Modulus (GPa) = 57.64199 72.69426 65.16812
# Shear Modulus (GPa) = 25.81983 29.93231 27.87607
#
# Velocity S-wave (km/s) = 3.66622 3.94741 3.80941
# Velocity P-wave (km/s) = 6.92305 7.65631 7.29889
#
# Compressibility (1/GPa) = 0.01734846
#
# Stress axis : x y z
#
# Youngs Moduli (GPa) = 51.40040 66.76756 126.19117
#
# Poissons Ratio (x) = 0.35425 0.33539
# Poissons Ratio (y) = 0.27271 0.57301
# Poissons Ratio (z) = 0.13661 0.30318
#
# Static dielectric constant tensor:
#      x y z
#    x 3.437680 0.000000 0.000000 
#    y 0.000000 3.557920 0.000000 
#    z 0.000000 0.000000 3.696420 
# 
# 
# High freq. dielectric constant tensor:
#      x y z
#    x 1.736590 0.000000 0.000000 
#    y 0.000000 1.736570 0.000000 
#    z 0.000000 0.000000 1.765840 
# 
# From -- ./inp_files/20874.got.cif
#   From: 2010.03.12/outbox.cif.g09.slc.cpg/sg51_11_cif.got.tgz:20874.got - 2010.04.16 13:43:02.
