data_PCOD8209607
_publ_section_title
;
Structure prediction by ZEFSAII (Michael W. Deem and Ramdas Pophale) SiO2 
 PCOD8209607
Probable space group: P M M A
;
_chemical_formula_sum "Si O2"
_cell_formula_units_Z 64
_cell_length_a 19.639802
_cell_length_b 8.675494
_cell_length_c 19.753088
_cell_angle_alpha 90.000000
_cell_angle_beta 90.000000
_cell_angle_gamma 90.000000
_cell_volume 3365.629591
_symmetry_space_group_name_H-M "P M M A"
_symmetry_group_IT_number 51
_symmetry_cell_setting 'orthorhombic'
loop_
_space_group_symop_operation_xyz
x,y,z
1/2-x,-y,z
1/2+x,-y,-z
-x,y,-z
-x,-y,-z
1/2+x,y,-z
1/2-x,y,z
x,-y,z
loop_
_atom_site_type_symbol
_atom_site_label
_atom_site_fract_x
_atom_site_fract_y
_atom_site_fract_z
Si Si1 0.172028 0.180213 0.460290
Si Si2 0.560735 0.819150 0.304917
Si Si3 0.963114 0.319264 0.161600
Si Si4 0.173877 0.677192 0.224984
Si Si5 0.600222 0.822876 0.887568
Si Si6 0.079106 0.681408 0.347373
Si Si7 0.172077 0.678000 0.603031
Si Si8 0.078858 0.670812 0.981250
O O1 0.250000 0.228763 0.443630
O O2 0.119835 0.274272 0.414416
O O3 0.154476 0.220974 0.537376
O O4 0.160907 0.000000 0.448259
O O5 0.559596 0.779030 0.225671
O O6 0.492951 0.766728 0.344221
O O7 0.625470 0.732764 0.335537
O O8 0.569605 0.000000 0.314140
O O9 0.958573 0.500000 0.178821
O O10 0.914676 0.275856 0.097280
O O11 0.040585 0.282571 0.142565
O O12 0.250000 0.700732 0.252786
O O13 0.160254 0.500000 0.205878
O O14 0.165441 0.782401 0.158139
O O15 0.122870 0.734933 0.282903
O O16 0.579539 0.000000 0.881619
O O17 0.616939 0.784158 0.966341
O O18 0.065918 0.500000 0.346952
O O19 0.250000 0.703585 0.625504
O O20 0.157795 0.500000 0.585935
O O21 0.109909 0.500000 0.989537
O O22 0.000000 0.669489 0.000000
#
# Coordination Sequence:
#
# PCOD8209607 Si02
#       8
#     8   8   8   8   8   8   8   8
#     4  10  21  38  60  86 118 152 188 236 287 334
#     4  12  24  37  58  88 120 150 182 231 293 340
#     4  10  19  34  54  78 109 146 185 226 275 331
#     4  10  21  36  54  75 106 153 200 238 280 335
#     4  11  20  30  49  77 109 143 182 232 284 330
#     4  11  22  37  58  83 114 152 195 237 278 334
#     4  10  22  42  66  88 111 145 189 230 275 341
#     4   8  16  30  50  73 101 139 181 224 269 322
#
# _framework density 19.015758000000002
#
# number of rings (size 3 to 8) (size 9 to 14) (size 15 to 20)
#    0.000    1.750    1.250    4.875    0.000    6.000 
#    0.000    2.500    0.000    0.750    0.000    5.250 
#    0.000    0.000    0.000    0.000    0.000    0.000 
#
# Total GULP energy -793648.097974 kJ/mol
# GULP energy per Si atom -12400.751531 kJ/mol
# Density = 1.897248 g / cm^3
# Si number density = 19.015758 Si / 1000 Ang^3
#
#
#
# Elastic Constant Matrix: (Units=GPa)
#
#
# Indices 1 2 3 4 5 6 
#
# 1 74.3120 24.4966 40.8017 0.0000 0.0000 0.0000
# 2 24.4966 59.5303 15.5267 0.0000 0.0000 0.0000
# 3 40.8017 15.5267 94.6957 0.0000 0.0000 0.0000
# 4 0.0000 0.0000 0.0000 28.1024 0.0000 0.0000
# 5 0.0000 0.0000 0.0000 0.0000 20.2311 0.0000
# 6 0.0000 0.0000 0.0000 0.0000 0.0000 21.6563
#
#
#
# Elastic Compliance Matrix: (Units=1/GPa)
#
#
# Indices 1 2 3 4 5 6 
#
# 1 0.019544 -0.006107 -0.007419 0.000000 0.000000 0.000000
# 2 -0.006107 0.019457 -0.000559 0.000000 0.000000 0.000000
# 3 -0.007419 -0.000559 0.013849 0.000000 0.000000 0.000000
# 4 0.000000 0.000000 0.000000 0.035584 0.000000 0.000000
# 5 0.000000 0.000000 0.000000 0.000000 0.049429 0.000000
# 6 0.000000 0.000000 0.000000 0.000000 0.000000 0.046176
#
#
# Mechanical properties :
#
#
# Convention : Reuss Voigt Hill
#
# Bulk Modulus (GPa) = 40.52121 43.35424 41.93772
# Shear Modulus (GPa) = 22.68239 23.84548 23.26394
#
# Velocity S-wave (km/s) = 3.45747 3.54501 3.50151
# Velocity P-wave (km/s) = 6.10691 6.29323 6.20077
#
# Compressibility (1/GPa) = 0.02467843
#
# Stress axis : x y z
#
# Youngs Moduli (GPa) = 51.16740 51.39546 72.20932
#
# Poissons Ratio (x) = 0.31387 0.53576
# Poissons Ratio (y) = 0.31248 0.04036
# Poissons Ratio (z) = 0.37964 0.02872
#
# Static dielectric constant tensor:
#      x y z
#    x 3.256390 0.000000 0.000000 
#    y 0.000000 3.459820 0.000000 
#    z 0.000000 0.000000 3.753820 
# 
# 
# High freq. dielectric constant tensor:
#      x y z
#    x 1.707520 0.000000 0.000000 
#    y 0.000000 1.744710 0.000000 
#    z 0.000000 0.000000 1.747930 
# 
# From -- ./inp_files/33857.got.cif
#   From: 2010.03.12/outbox.cif.g09.slc.cpg/sg51_17_cif.got.tgz:33857.got - 2010.04.16 13:43:02.
