data_PCOD8209615
_publ_section_title
;
Structure prediction by ZEFSAII (Michael W. Deem and Ramdas Pophale) SiO2 
 PCOD8209615
Probable space group: P M M A
;
_chemical_formula_sum "Si O2"
_cell_formula_units_Z 52
_cell_length_a 8.810543
_cell_length_b 22.968632
_cell_length_c 14.179240
_cell_angle_alpha 90.000000
_cell_angle_beta 90.000000
_cell_angle_gamma 90.000000
_cell_volume 2869.397782
_symmetry_space_group_name_H-M "P M M A"
_symmetry_group_IT_number 51
_symmetry_cell_setting 'orthorhombic'
loop_
_space_group_symop_operation_xyz
x,y,z
1/2-x,-y,z
1/2+x,-y,-z
-x,y,-z
-x,-y,-z
1/2+x,y,-z
1/2-x,y,z
x,-y,z
loop_
_atom_site_type_symbol
_atom_site_label
_atom_site_fract_x
_atom_site_fract_y
_atom_site_fract_z
Si Si1 0.926190 0.662951 0.212253
Si Si2 0.071819 0.566157 0.097231
Si Si3 0.429233 0.776246 0.898218
Si Si4 0.572120 0.278654 0.404583
Si Si5 0.428658 0.000000 0.897439
Si Si6 0.070600 0.112137 0.780508
Si Si7 0.930333 0.846002 0.598442
O O1 0.750000 0.652336 0.192050
O O2 0.986886 0.717540 0.151894
O O3 0.956316 0.674654 0.322453
O O4 0.016998 0.605297 0.184066
O O5 0.250000 0.570991 0.086874
O O6 0.019364 0.500000 0.117030
O O7 0.000000 0.589524 0.000000
O O8 0.250000 0.776324 0.907815
O O9 0.483426 0.830887 0.836801
O O10 0.500000 0.781400 0.000000
O O11 0.500000 0.304889 0.500000
O O12 0.750000 0.265879 0.418295
O O13 0.491934 0.218310 0.377944
O O14 0.482741 0.943524 0.840015
O O15 0.250000 0.000000 0.910975
O O16 0.500000 0.000000 0.000000
O O17 0.250000 0.112142 0.762069
O O18 0.984922 0.110466 0.680410
O O19 0.750000 0.845022 0.591437
O O20 0.000000 0.868444 0.500000
#
# Coordination Sequence:
#
# PCOD8209615 Si02
#       7
#     8   8   8   8   4   8   8
#     4  10  20  34  53  78 108 143 176 219 271 318
#     4  10  21  36  54  77 107 144 184 225 266 315
#     4  10  20  33  49  73 108 139 171 218 267 315
#     4  10  19  34  54  80 113 144 177 219 268 324
#     4  10  22  38  61  82 107 148 187 226 272 320
#     4  10  20  38  56  77 109 144 181 225 270 320
#     4  11  21  34  56  83 109 142 178 220 272 327
#
# _framework density 18.122271000000001
#
# number of rings (size 3 to 8) (size 9 to 14) (size 15 to 20)
#    0.000    1.846    1.538    4.154    0.000    5.231 
#    0.000    0.385    0.000    0.462    0.000    0.000 
#    0.000    0.000    0.000    0.000    0.000    0.000 
#
# Total GULP energy -644973.900079 kJ/mol
# GULP energy per Si atom -12403.344232 kJ/mol
# Density = 1.808102 g / cm^3
# Si number density = 18.122271 Si / 1000 Ang^3
#
#
#
# Elastic Constant Matrix: (Units=GPa)
#
#
# Indices 1 2 3 4 5 6 
#
# 1 80.1994 39.5600 56.1681 0.0000 0.0000 0.0000
# 2 39.5600 103.7638 67.3400 0.0000 0.0000 0.0000
# 3 56.1681 67.3400 151.9463 0.0000 0.0000 0.0000
# 4 0.0000 0.0000 0.0000 27.4464 0.0000 0.0000
# 5 0.0000 0.0000 0.0000 0.0000 37.0395 0.0000
# 6 0.0000 0.0000 0.0000 0.0000 0.0000 21.0202
#
#
#
# Elastic Compliance Matrix: (Units=1/GPa)
#
#
# Indices 1 2 3 4 5 6 
#
# 1 0.017691 -0.003510 -0.004984 0.000000 0.000000 0.000000
# 2 -0.003510 0.014225 -0.005007 0.000000 0.000000 0.000000
# 3 -0.004984 -0.005007 0.010642 0.000000 0.000000 0.000000
# 4 0.000000 0.000000 0.000000 0.036435 0.000000 0.000000
# 5 0.000000 0.000000 0.000000 0.000000 0.026998 0.000000
# 6 0.000000 0.000000 0.000000 0.000000 0.000000 0.047573
#
#
# Mechanical properties :
#
#
# Convention : Reuss Voigt Hill
#
# Bulk Modulus (GPa) = 64.28124 73.56063 68.92094
# Shear Modulus (GPa) = 26.91773 28.62397 27.77085
#
# Velocity S-wave (km/s) = 3.85819 3.97859 3.91885
# Velocity P-wave (km/s) = 7.44281 7.86034 7.65442
#
# Compressibility (1/GPa) = 0.01555664
#
# Stress axis : x y z
#
# Youngs Moduli (GPa) = 56.52609 70.30039 93.96352
#
# Poissons Ratio (x) = 0.24677 0.46831
# Poissons Ratio (y) = 0.19842 0.47043
# Poissons Ratio (z) = 0.28172 0.35196
#
# Static dielectric constant tensor:
#      x y z
#    x 3.462610 0.000000 0.000000 
#    y 0.000000 3.306080 0.000000 
#    z 0.000000 0.000000 3.465000 
# 
# 
# High freq. dielectric constant tensor:
#      x y z
#    x 1.703080 0.000000 0.000000 
#    y 0.000000 1.684410 0.000000 
#    z 0.000000 0.000000 1.711860 
# 
# From -- ./inp_files/21627.got.cif
#   From: 2010.03.12/outbox.cif.g09.slc.cpg/sg51_11_cif.got.tgz:21627.got - 2010.04.16 13:43:02.
