data_PCOD8209014
_publ_section_title
;
Structure prediction by ZEFSAII (Michael W. Deem and Ramdas Pophale) SiO2 
 PCOD8209014
Probable space group: P M M A
;
_chemical_formula_sum "Si O2"
_cell_formula_units_Z 64
_cell_length_a 8.837232
_cell_length_b 20.549700
_cell_length_c 19.612635
_cell_angle_alpha 90.000000
_cell_angle_beta 90.000000
_cell_angle_gamma 90.000000
_cell_volume 3561.702889
_symmetry_space_group_name_H-M "P M M A"
_symmetry_group_IT_number 51
_symmetry_cell_setting 'orthorhombic'
loop_
_space_group_symop_operation_xyz
x,y,z
1/2-x,-y,z
1/2+x,-y,-z
-x,y,-z
-x,-y,-z
1/2+x,y,-z
1/2-x,y,z
x,-y,z
loop_
_atom_site_type_symbol
_atom_site_label
_atom_site_fract_x
_atom_site_fract_y
_atom_site_fract_z
Si Si1 0.423213 0.073504 0.201382
Si Si2 0.572675 0.232152 0.431674
Si Si3 0.927938 0.620017 0.431200
Si Si4 0.571782 0.815911 0.286358
Si Si5 0.924231 0.427712 0.701144
Si Si6 0.570372 0.877642 0.069691
Si Si7 0.075302 0.695036 0.213721
Si Si8 0.074120 0.738023 0.067289
O O1 0.250000 0.092934 0.186053
O O2 0.487612 0.120766 0.259051
O O3 0.518518 0.077765 0.132044
O O4 0.435831 0.000000 0.229182
O O5 0.500000 0.201565 0.500000
O O6 0.750000 0.231557 0.442123
O O7 0.514737 0.305901 0.420500
O O8 0.525190 0.190644 0.365636
O O9 0.750000 0.615745 0.437974
O O10 0.000000 0.590813 0.500000
O O11 0.979505 0.577717 0.367371
O O12 0.750000 0.825254 0.277114
O O13 0.526022 0.751420 0.245678
O O14 0.750000 0.416381 0.681906
O O15 0.950211 0.500000 0.731869
O O16 0.977046 0.374594 0.756749
O O17 0.750000 0.877553 0.064467
O O18 0.510139 0.805268 0.083106
O O19 0.500000 0.906216 0.000000
O O20 0.250000 0.710418 0.230743
O O21 0.050856 0.691277 0.132172
O O22 0.250000 0.752476 0.053278
O O23 0.000000 0.705083 0.000000
#
# Coordination Sequence:
#
# PCOD8209014 Si02
#       8
#     8   8   8   8   8   8   8   8
#     4  11  24  40  56  78 110 147 185 223 267 322
#     4   9  19  33  52  81 110 138 173 219 268 319
#     4  10  19  33  51  75 107 142 181 219 265 320
#     4  11  21  35  57  84 110 138 179 226 272 320
#     4  10  21  36  53  76 106 143 185 226 271 322
#     4  11  21  34  54  79 110 146 183 222 266 317
#     4  10  20  34  55  79 106 141 180 223 271 322
#     4  10  19  32  52  79 108 138 177 221 271 322
#
# _framework density 17.968933
#
# number of rings (size 3 to 8) (size 9 to 14) (size 15 to 20)
#    0.000    1.750    2.500    3.375    0.000    3.750 
#    0.000    0.000    0.000    0.750    0.000    0.000 
#    0.000    0.000    0.000    0.000    0.000    0.500 
#
# Total GULP energy -793692.914659 kJ/mol
# GULP energy per Si atom -12401.451792 kJ/mol
# Density = 1.792804 g / cm^3
# Si number density = 17.968933 Si / 1000 Ang^3
#
#
#
# Elastic Constant Matrix: (Units=GPa)
#
#
# Indices 1 2 3 4 5 6 
#
# 1 96.6430 38.6897 48.9680 0.0000 0.0000 0.0000
# 2 38.6897 92.7903 57.5526 0.0000 0.0000 0.0000
# 3 48.9680 57.5526 126.7253 0.0000 0.0000 0.0000
# 4 0.0000 0.0000 0.0000 22.9393 0.0000 0.0000
# 5 0.0000 0.0000 0.0000 0.0000 32.1011 0.0000
# 6 0.0000 0.0000 0.0000 0.0000 0.0000 16.8138
#
#
#
# Elastic Compliance Matrix: (Units=1/GPa)
#
#
# Indices 1 2 3 4 5 6 
#
# 1 0.013576 -0.003351 -0.003724 0.000000 0.000000 0.000000
# 2 -0.003351 0.015830 -0.005895 0.000000 0.000000 0.000000
# 3 -0.003724 -0.005895 0.012007 0.000000 0.000000 0.000000
# 4 0.000000 0.000000 0.000000 0.043593 0.000000 0.000000
# 5 0.000000 0.000000 0.000000 0.000000 0.031152 0.000000
# 6 0.000000 0.000000 0.000000 0.000000 0.000000 0.059475
#
#
# Mechanical properties :
#
#
# Convention : Reuss Voigt Hill
#
# Bulk Modulus (GPa) = 64.62303 67.39771 66.01037
# Shear Modulus (GPa) = 24.18620 25.76739 24.97679
#
# Velocity S-wave (km/s) = 3.67277 3.79092 3.73231
# Velocity P-wave (km/s) = 7.35034 7.53331 7.44239
#
# Compressibility (1/GPa) = 0.01547436
#
# Stress axis : x y z
#
# Youngs Moduli (GPa) = 73.66091 63.17054 83.28370
#
# Poissons Ratio (x) = 0.21166 0.31016
# Poissons Ratio (y) = 0.24681 0.49092
# Poissons Ratio (z) = 0.27432 0.37236
#
# Static dielectric constant tensor:
#      x y z
#    x 3.389380 0.000000 0.000000 
#    y 0.000000 3.159340 0.000000 
#    z 0.000000 0.000000 3.544950 
# 
# 
# High freq. dielectric constant tensor:
#      x y z
#    x 1.706060 0.000000 0.000000 
#    y 0.000000 1.665930 0.000000 
#    z 0.000000 0.000000 1.699790 
# 
# From -- ./inp_files/28407.got.cif
#   From: 2010.03.12/outbox.cif.g09.slc.cpg/sg51_15_cif.got.tgz:28407.got - 2010.04.16 13:43:02.
