data_PCOD8209677
_publ_section_title
;
Structure prediction by ZEFSAII (Michael W. Deem and Ramdas Pophale) SiO2 
 PCOD8209677
Probable space group: P M M A
;
_chemical_formula_sum "Si O2"
_cell_formula_units_Z 44
_cell_length_a 8.864746
_cell_length_b 28.652078
_cell_length_c 9.420418
_cell_angle_alpha 90.000000
_cell_angle_beta 90.000000
_cell_angle_gamma 90.000000
_cell_volume 2392.723939
_symmetry_space_group_name_H-M "P M M A"
_symmetry_group_IT_number 51
_symmetry_cell_setting 'orthorhombic'
loop_
_space_group_symop_operation_xyz
x,y,z
1/2-x,-y,z
1/2+x,-y,-z
-x,y,-z
-x,-y,-z
1/2+x,y,-z
1/2-x,y,z
x,-y,z
loop_
_atom_site_type_symbol
_atom_site_label
_atom_site_fract_x
_atom_site_fract_y
_atom_site_fract_z
Si Si1 0.930217 0.500000 0.344452
Si Si2 0.571560 0.134637 0.652681
Si Si3 0.572542 0.947489 0.853127
Si Si4 0.427897 0.781736 0.153943
Si Si5 0.071321 0.420496 0.156454
Si Si6 0.076554 0.318995 0.148530
O O1 0.750000 0.500000 0.353373
O O2 0.000000 0.500000 0.500000
O O3 0.987285 0.454636 0.262468
O O4 0.500000 0.135705 0.500000
O O5 0.750000 0.136655 0.637438
O O6 0.518128 0.087210 0.729830
O O7 0.509008 0.179027 0.740235
O O8 0.750000 0.944639 0.873953
O O9 0.520437 0.000000 0.813009
O O10 0.500000 0.930935 0.000000
O O11 0.250000 0.787949 0.135665
O O12 0.470881 0.730349 0.221966
O O13 0.500000 0.788342 0.000000
O O14 0.250000 0.431747 0.147616
O O15 0.042243 0.368490 0.225419
O O16 0.000000 0.425711 0.000000
O O17 0.250000 0.315738 0.113104
O O18 0.000000 0.322308 0.000000
#
# Coordination Sequence:
#
# PCOD8209677 Si02
#       6
#     4   8   8   8   8   8
#     4  12  25  40  55  74 102 136 172 210 253 302
#     4  10  21  34  48  69 100 134 167 204 245 292
#     4   9  18  33  52  74  98 125 161 205 250 296
#     4   9  17  31  51  75 100 128 164 205 247 291
#     4  10  19  34  56  81 106 134 168 207 250 297
#     4   8  15  28  49  75 102 128 159 202 247 290
#
# _framework density 18.389084
#
# number of rings (size 3 to 8) (size 9 to 14) (size 15 to 20)
#    0.000    2.545    0.000    2.182    0.000    2.545 
#    0.000    0.909    0.000    2.182    0.000    0.000 
#    0.000    0.000    0.000    0.000    0.000    0.000 
#
# Total GULP energy -545116.248780 kJ/mol
# GULP energy per Si atom -12389.005654 kJ/mol
# Density = 1.834723 g / cm^3
# Si number density = 18.389084 Si / 1000 Ang^3
#
#
#
# Elastic Constant Matrix: (Units=GPa)
#
#
# Indices 1 2 3 4 5 6 
#
# 1 54.1525 48.7952 40.4204 0.0000 0.0000 0.0000
# 2 48.7952 177.5181 92.9036 0.0000 0.0000 0.0000
# 3 40.4204 92.9036 125.5561 0.0000 0.0000 0.0000
# 4 0.0000 0.0000 0.0000 3.1110 0.0000 0.0000
# 5 0.0000 0.0000 0.0000 0.0000 31.0586 0.0000
# 6 0.0000 0.0000 0.0000 0.0000 0.0000 16.6590
#
#
#
# Elastic Compliance Matrix: (Units=1/GPa)
#
#
# Indices 1 2 3 4 5 6 
#
# 1 0.026413 -0.004586 -0.005110 0.000000 0.000000 0.000000
# 2 -0.004586 0.009990 -0.005915 0.000000 0.000000 0.000000
# 3 -0.005110 -0.005915 0.013986 0.000000 0.000000 0.000000
# 4 0.000000 0.000000 0.000000 0.321443 0.000000 0.000000
# 5 0.000000 0.000000 0.000000 0.000000 0.032197 0.000000
# 6 0.000000 0.000000 0.000000 0.000000 0.000000 0.060028
#
#
# Mechanical properties :
#
#
# Convention : Reuss Voigt Hill
#
# Bulk Modulus (GPa) = 52.17377 80.16280 66.16829
# Shear Modulus (GPa) = 9.96677 21.83955 15.90316
#
# Velocity S-wave (km/s) = 2.33060 3.44995 2.94396
# Velocity P-wave (km/s) = 5.97294 7.71730 6.90046
#
# Compressibility (1/GPa) = 0.01916672
#
# Stress axis : x y z
#
# Youngs Moduli (GPa) = 37.86069 100.10470 71.49781
#
# Poissons Ratio (x) = 0.45908 0.36533
# Poissons Ratio (y) = 0.17363 0.42293
# Poissons Ratio (z) = 0.19346 0.59214
#
# Static dielectric constant tensor:
#      x y z
#    x 3.409360 0.000000 0.000000 
#    y 0.000000 4.325610 0.000000 
#    z 0.000000 0.000000 3.553370 
# 
# 
# High freq. dielectric constant tensor:
#      x y z
#    x 1.711470 0.000000 0.000000 
#    y 0.000000 1.745130 0.000000 
#    z 0.000000 0.000000 1.677500 
# 
# From -- ./inp_files/5692.got.cif
#   From: 2010.03.12/outbox.cif.g09.slc.cpg/sg51_3_cif.got.tgz:5692.got - 2010.04.16 13:43:02.
