data_PCOD8209801
_publ_section_title
;
Structure prediction by ZEFSAII (Michael W. Deem and Ramdas Pophale) SiO2 
 PCOD8209801
Probable space group: P M M A
;
_chemical_formula_sum "Si O2"
_cell_formula_units_Z 56
_cell_length_a 9.177592
_cell_length_b 21.010917
_cell_length_c 15.316795
_cell_angle_alpha 90.000000
_cell_angle_beta 90.000000
_cell_angle_gamma 90.000000
_cell_volume 2953.531817
_symmetry_space_group_name_H-M "P M M A"
_symmetry_group_IT_number 51
_symmetry_cell_setting 'orthorhombic'
loop_
_space_group_symop_operation_xyz
x,y,z
1/2-x,-y,z
1/2+x,-y,-z
-x,y,-z
-x,-y,-z
1/2+x,y,-z
1/2-x,y,z
x,-y,z
loop_
_atom_site_type_symbol
_atom_site_label
_atom_site_fract_x
_atom_site_fract_y
_atom_site_fract_z
Si Si1 0.920371 0.635834 0.412078
Si Si2 0.917374 0.293408 0.740298
Si Si3 0.921766 0.500000 0.842453
Si Si4 0.917061 0.500000 0.338336
Si Si5 0.082167 0.856364 0.259557
Si Si6 0.579690 0.926500 0.411791
Si Si7 0.919971 0.927048 0.913952
Si Si8 0.420766 0.633993 0.086275
O O1 0.750000 0.649552 0.422194
O O2 0.953372 0.561627 0.395978
O O3 0.000000 0.657738 0.500000
O O4 0.979951 0.677770 0.333153
O O5 0.750000 0.312120 0.720271
O O6 0.939426 0.218529 0.743849
O O7 0.966128 0.321397 0.833344
O O8 0.750000 0.500000 0.830339
O O9 0.974802 0.437805 0.894261
O O10 0.984307 0.500000 0.746100
O O11 0.750000 0.500000 0.307414
O O12 0.250000 0.875334 0.277820
O O13 0.028879 0.885239 0.167889
O O14 0.980786 0.884015 0.334309
O O15 0.500000 0.905186 0.500000
O O16 0.750000 0.913461 0.423571
O O17 0.546726 0.000000 0.390437
O O18 0.750000 0.919429 0.931148
O O19 0.963559 0.000000 0.894887
O O20 0.000000 0.901167 0.000000
O O21 0.250000 0.636612 0.068867
O O22 0.500000 0.659619 0.000000
#
# Coordination Sequence:
#
# PCOD8209801 Si02
#       8
#     8   8   4   4   8   8   8   8
#     4  11  23  39  60  85 112 145 184 229 282 337
#     4  10  22  40  58  80 112 150 192 234 275 327
#     4  10  19  34  58  83 111 147 183 229 285 334
#     4  10  21  36  58  87 113 139 179 231 283 336
#     4  10  21  37  58  82 112 151 191 231 277 328
#     4  10  21  37  59  87 116 146 183 229 279 332
#     4   9  18  33  54  81 112 145 182 226 275 325
#     4  10  21  36  56  82 111 147 188 231 282 335
#
# _framework density 18.960350999999999
#
# number of rings (size 3 to 8) (size 9 to 14) (size 15 to 20)
#    0.000    2.000    1.429    1.714    0.000    5.429 
#    0.000    1.429    0.000    0.000    0.000    0.000 
#    0.000    0.000    0.000    0.000    0.000    0.000 
#
# Total GULP energy -694663.522761 kJ/mol
# GULP energy per Si atom -12404.705764 kJ/mol
# Density = 1.891720 g / cm^3
# Si number density = 18.960351 Si / 1000 Ang^3
#
#
#
# Elastic Constant Matrix: (Units=GPa)
#
#
# Indices 1 2 3 4 5 6 
#
# 1 78.0998 45.5653 77.5246 0.0000 0.0000 0.0000
# 2 45.5653 91.2126 65.7628 0.0000 0.0000 0.0000
# 3 77.5246 65.7628 168.2850 0.0000 0.0000 0.0000
# 4 0.0000 0.0000 0.0000 -9.9171 0.0000 0.0000
# 5 0.0000 0.0000 0.0000 0.0000 42.3826 0.0000
# 6 0.0000 0.0000 0.0000 0.0000 0.0000 21.2153
#
#
#
# Elastic Compliance Matrix: (Units=1/GPa)
#
#
# Indices 1 2 3 4 5 6 
#
# 1 0.025755 -0.006003 -0.009519 0.000000 0.000000 0.000000
# 2 -0.006003 0.016663 -0.003746 0.000000 0.000000 0.000000
# 3 -0.009519 -0.003746 0.011791 0.000000 0.000000 0.000000
# 4 0.000000 0.000000 0.000000 -0.100836 0.000000 0.000000
# 5 0.000000 0.000000 0.000000 0.000000 0.023595 0.000000
# 6 0.000000 0.000000 0.000000 0.000000 0.000000 0.047136
#
#
# Mechanical properties :
#
#
# Convention : Reuss Voigt Hill
#
# Bulk Modulus (GPa) = 63.80222 79.47809 71.64016
# Shear Modulus (GPa) = 73.67559 20.65247 47.16403
#
# Velocity S-wave (km/s) = 6.24036 3.30395 4.99290
# Velocity P-wave (km/s) = 9.25452 7.52089 8.43238
#
# Compressibility (1/GPa) = 0.01567344
#
# Stress axis : x y z
#
# Youngs Moduli (GPa) = 38.82709 60.01244 84.80795
#
# Poissons Ratio (x) = 0.36026 0.80727
# Poissons Ratio (y) = 0.23308 0.31771
# Poissons Ratio (z) = 0.36959 0.22482
#
# Static dielectric constant tensor:
#      x y z
#    x 3.237290 0.000000 0.000000 
#    y 0.000000 3.518270 0.000000 
#    z 0.000000 0.000000 3.514260 
# 
# 
# High freq. dielectric constant tensor:
#      x y z
#    x 1.734180 0.000000 0.000000 
#    y 0.000000 1.735710 0.000000 
#    z 0.000000 0.000000 1.746820 
# 
# From -- ./inp_files/21902.got.cif
#   From: 2010.03.12/outbox.cif.g09.slc.cpg/sg51_11_cif.got.tgz:21902.got - 2010.04.16 13:43:02.
