data_PCOD8209919
_publ_section_title
;
Structure prediction by ZEFSAII (Michael W. Deem and Ramdas Pophale) SiO2 
 PCOD8209919
Probable space group: P M M A
;
_chemical_formula_sum "Si O2"
_cell_formula_units_Z 56
_cell_length_a 8.957944
_cell_length_b 16.001915
_cell_length_c 19.511431
_cell_angle_alpha 90.000000
_cell_angle_beta 90.000000
_cell_angle_gamma 90.000000
_cell_volume 2796.851608
_symmetry_space_group_name_H-M "P M M A"
_symmetry_group_IT_number 51
_symmetry_cell_setting 'orthorhombic'
loop_
_space_group_symop_operation_xyz
x,y,z
1/2-x,-y,z
1/2+x,-y,-z
-x,y,-z
-x,-y,-z
1/2+x,y,-z
1/2-x,y,z
x,-y,z
loop_
_atom_site_type_symbol
_atom_site_label
_atom_site_fract_x
_atom_site_fract_y
_atom_site_fract_z
Si Si1 0.425658 0.342940 0.294456
Si Si2 0.072242 0.746326 0.926426
Si Si3 0.921575 0.598367 0.430591
Si Si4 0.921908 0.592846 0.167424
Si Si5 0.423690 0.174691 0.708893
Si Si6 0.923864 0.908669 0.152728
Si Si7 0.425624 0.095066 0.567509
O O1 0.250000 0.351952 0.301907
O O2 0.499449 0.357181 0.367780
O O3 0.484322 0.407516 0.237740
O O4 0.474479 0.251857 0.268677
O O5 0.250000 0.748145 0.932549
O O6 0.020053 0.664265 0.884323
O O7 0.008861 0.831141 0.890652
O O8 0.000000 0.739028 0.000000
O O9 0.750000 0.626476 0.433130
O O10 0.939049 0.500000 0.421353
O O11 0.000000 0.629093 0.500000
O O12 0.750000 0.610289 0.186442
O O13 0.941149 0.500000 0.134539
O O14 0.250000 0.201577 0.707393
O O15 0.450044 0.104039 0.766131
O O16 0.479226 0.142688 0.635259
O O17 0.750000 0.911308 0.136445
O O18 0.993874 0.000000 0.132893
O O19 0.500000 0.136195 0.500000
O O20 0.250000 0.100867 0.559297
O O21 0.480337 0.000000 0.574845
#
# Coordination Sequence:
#
# PCOD8209919 Si02
#       7
#     8   8   8   8   8   8   8
#     4  12  24  36  55  84 118 152 193 243 296 348
#     4  10  21  38  60  89 122 154 190 234 286 348
#     4  10  21  38  59  82 111 149 194 244 297 352
#     4  10  21  40  64  87 114 154 200 241 286 343
#     4  10  19  35  57  79 108 148 197 244 288 341
#     4   9  17  33  60  88 113 148 196 243 288 343
#     4   9  18  32  52  78 107 143 188 239 292 345
#
# _framework density 20.022514000000001
#
# number of rings (size 3 to 8) (size 9 to 14) (size 15 to 20)
#    0.000    2.000    1.429    2.571    0.000    6.857 
#    0.000    1.429    0.000    2.143    0.000    0.000 
#    0.000    0.000    0.000    0.000    0.000    0.000 
#
# Total GULP energy -694348.091865 kJ/mol
# GULP energy per Si atom -12399.073069 kJ/mol
# Density = 1.997694 g / cm^3
# Si number density = 20.022514 Si / 1000 Ang^3
#
#
#
# Elastic Constant Matrix: (Units=GPa)
#
#
# Indices 1 2 3 4 5 6 
#
# 1 64.9263 31.3774 31.3089 0.0000 0.0000 0.0000
# 2 31.3774 131.4081 60.3766 0.0000 0.0000 0.0000
# 3 31.3089 60.3766 130.1635 0.0000 0.0000 0.0000
# 4 0.0000 0.0000 0.0000 27.6904 0.0000 0.0000
# 5 0.0000 0.0000 0.0000 0.0000 35.1362 0.0000
# 6 0.0000 0.0000 0.0000 0.0000 0.0000 13.1100
#
#
#
# Elastic Compliance Matrix: (Units=1/GPa)
#
#
# Indices 1 2 3 4 5 6 
#
# 1 0.018299 -0.002983 -0.003018 0.000000 0.000000 0.000000
# 2 -0.002983 0.010157 -0.003994 0.000000 0.000000 0.000000
# 3 -0.003018 -0.003994 0.010261 0.000000 0.000000 0.000000
# 4 0.000000 0.000000 0.000000 0.036114 0.000000 0.000000
# 5 0.000000 0.000000 0.000000 0.000000 0.028461 0.000000
# 6 0.000000 0.000000 0.000000 0.000000 0.000000 0.076278
#
#
# Mechanical properties :
#
#
# Convention : Reuss Voigt Hill
#
# Bulk Modulus (GPa) = 53.39636 63.62486 58.51061
# Shear Modulus (GPa) = 24.29529 28.74965 26.52247
#
# Velocity S-wave (km/s) = 3.48717 3.79339 3.64350
# Velocity P-wave (km/s) = 6.55285 7.14367 6.85463
#
# Compressibility (1/GPa) = 0.01872787
#
# Stress axis : x y z
#
# Youngs Moduli (GPa) = 54.64812 98.45275 97.45457
#
# Poissons Ratio (x) = 0.29366 0.29412
# Poissons Ratio (y) = 0.16300 0.38923
# Poissons Ratio (z) = 0.16493 0.39322
#
# Static dielectric constant tensor:
#      x y z
#    x 3.809750 0.000000 0.000000 
#    y 0.000000 3.862990 0.000000 
#    z 0.000000 0.000000 3.663740 
# 
# 
# High freq. dielectric constant tensor:
#      x y z
#    x 1.750950 0.000000 0.000000 
#    y 0.000000 1.789760 0.000000 
#    z 0.000000 0.000000 1.783730 
# 
# From -- ./inp_files/31941.got.cif
#   From: 2010.03.12/outbox.cif.g09.slc.cpg/sg51_16_cif.got.tgz:31941.got - 2010.04.16 13:43:02.
