data_PCOD8209488
_publ_section_title
;
Structure prediction by ZEFSAII (Michael W. Deem and Ramdas Pophale) SiO2 
 PCOD8209488
Probable space group: P M M A
;
_chemical_formula_sum "Si O2"
_cell_formula_units_Z 48
_cell_length_a 20.964571
_cell_length_b 9.789481
_cell_length_c 12.185465
_cell_angle_alpha 90.000000
_cell_angle_beta 90.000000
_cell_angle_gamma 90.000000
_cell_volume 2500.850637
_symmetry_space_group_name_H-M "P M M A"
_symmetry_group_IT_number 51
_symmetry_cell_setting 'orthorhombic'
loop_
_space_group_symop_operation_xyz
x,y,z
1/2-x,-y,z
1/2+x,-y,-z
-x,y,-z
-x,-y,-z
1/2+x,y,-z
1/2-x,y,z
x,-y,z
loop_
_atom_site_type_symbol
_atom_site_label
_atom_site_fract_x
_atom_site_fract_y
_atom_site_fract_z
Si Si1 0.474759 0.151719 0.384737
Si Si2 0.862941 0.654919 0.648893
Si Si3 0.321509 0.342741 0.113710
Si Si4 0.925391 0.161165 0.009009
Si Si5 0.899554 0.150306 0.255300
Si Si6 0.822162 0.346185 0.410686
O O1 0.500000 0.213154 0.500000
O O2 0.422843 0.248841 0.332836
O O3 0.527868 0.144141 0.292489
O O4 0.446498 0.000000 0.407315
O O5 0.887514 0.500000 0.638271
O O6 0.817835 0.671251 0.754214
O O7 0.826667 0.699809 0.537741
O O8 0.250000 0.301851 0.070915
O O9 0.336527 0.500000 0.080612
O O10 0.378209 0.246239 0.069740
O O11 0.899298 0.196706 0.129603
O O12 0.919294 0.000000 0.981536
O O13 0.000000 0.205955 0.000000
O O14 0.862398 0.253501 0.331023
O O15 0.868311 0.000000 0.267182
O O16 0.750000 0.333979 0.371745
O O17 0.847579 0.500000 0.397130
#
# Coordination Sequence:
#
# PCOD8209488 Si02
#       6
#     8   8   8   8   8   8
#     4  10  19  33  55  82 113 146 181 224 277 336
#     4  10  20  35  57  83 113 148 186 230 280 336
#     4  10  22  40  61  86 117 154 198 248 298 347
#     4  10  22  41  63  85 114 152 195 243 294 349
#     4  10  21  37  56  81 111 143 179 224 278 332
#     4  10  21  36  54  78 110 147 183 220 268 329
#
# _framework density 19.193469
#
# number of rings (size 3 to 8) (size 9 to 14) (size 15 to 20)
#    0.000    2.000    1.667    1.500    0.000    7.333 
#    0.000    3.333    0.000    3.000    0.000    0.000 
#    0.000    0.000    0.000    0.000    0.000    0.000 
#
# Total GULP energy -595030.326973 kJ/mol
# GULP energy per Si atom -12396.465145 kJ/mol
# Density = 1.914978 g / cm^3
# Si number density = 19.193469 Si / 1000 Ang^3
#
#
#
# Elastic Constant Matrix: (Units=GPa)
#
#
# Indices 1 2 3 4 5 6 
#
# 1 106.5603 63.3459 37.1786 0.0000 0.0000 0.0000
# 2 63.3459 87.9218 49.4313 0.0000 0.0000 0.0000
# 3 37.1786 49.4313 93.6896 0.0000 0.0000 0.0000
# 4 0.0000 0.0000 0.0000 29.6449 0.0000 0.0000
# 5 0.0000 0.0000 0.0000 0.0000 24.1674 0.0000
# 6 0.0000 0.0000 0.0000 0.0000 0.0000 28.1427
#
#
#
# Elastic Compliance Matrix: (Units=1/GPa)
#
#
# Indices 1 2 3 4 5 6 
#
# 1 0.016425 -0.011615 -0.000390 0.000000 0.000000 0.000000
# 2 -0.011615 0.024383 -0.008256 0.000000 0.000000 0.000000
# 3 -0.000390 -0.008256 0.015184 0.000000 0.000000 0.000000
# 4 0.000000 0.000000 0.000000 0.033733 0.000000 0.000000
# 5 0.000000 0.000000 0.000000 0.000000 0.041378 0.000000
# 6 0.000000 0.000000 0.000000 0.000000 0.000000 0.035533
#
#
# Mechanical properties :
#
#
# Convention : Reuss Voigt Hill
#
# Bulk Modulus (GPa) = 64.63420 65.34258 64.98839
# Shear Modulus (GPa) = 23.55004 25.60540 24.57772
#
# Velocity S-wave (km/s) = 3.50663 3.65645 3.58232
# Velocity P-wave (km/s) = 7.08121 7.20724 7.14450
#
# Compressibility (1/GPa) = 0.01547169
#
# Stress axis : x y z
#
# Youngs Moduli (GPa) = 60.88367 41.01153 65.85820
#
# Poissons Ratio (x) = 0.47633 0.02568
# Poissons Ratio (y) = 0.70713 0.54372
# Poissons Ratio (z) = 0.02374 0.33859
#
# Static dielectric constant tensor:
#      x y z
#    x 3.400030 0.000000 0.000000 
#    y 0.000000 3.557370 0.000000 
#    z 0.000000 0.000000 3.531860 
# 
# 
# High freq. dielectric constant tensor:
#      x y z
#    x 1.738430 0.000000 0.000000 
#    y 0.000000 1.742830 0.000000 
#    z 0.000000 0.000000 1.754820 
# 
# From -- ./inp_files/18563.got.cif
#   From: 2010.03.12/outbox.cif.g09.slc.cpg/sg51_10_cif.got.tgz:18563.got - 2010.04.16 13:43:02.
