data_PCOD8209300
_publ_section_title
;
Structure prediction by ZEFSAII (Michael W. Deem and Ramdas Pophale) SiO2 
 PCOD8209300
Probable space group: P M M A
;
_chemical_formula_sum "Si O2"
_cell_formula_units_Z 40
_cell_length_a 19.954665
_cell_length_b 8.712018
_cell_length_c 12.582163
_cell_angle_alpha 90.000000
_cell_angle_beta 90.000000
_cell_angle_gamma 90.000000
_cell_volume 2187.351168
_symmetry_space_group_name_H-M "P M M A"
_symmetry_group_IT_number 51
_symmetry_cell_setting 'orthorhombic'
loop_
_space_group_symop_operation_xyz
x,y,z
1/2-x,-y,z
1/2+x,-y,-z
-x,y,-z
-x,-y,-z
1/2+x,y,-z
1/2-x,y,z
x,-y,z
loop_
_atom_site_type_symbol
_atom_site_label
_atom_site_fract_x
_atom_site_fract_y
_atom_site_fract_z
Si Si1 0.573119 0.320135 0.542104
Si Si2 0.546247 0.821212 0.759093
Si Si3 0.403855 0.319446 0.804487
Si Si4 0.173332 0.822261 0.622035
Si Si5 0.576900 0.330453 0.966430
O O1 0.500000 0.272361 0.500000
O O2 0.585514 0.500000 0.528953
O O3 0.581325 0.271176 0.664206
O O4 0.628620 0.231028 0.475867
O O5 0.469248 0.771885 0.767088
O O6 0.586900 0.784734 0.867951
O O7 0.550755 0.000000 0.734808
O O8 0.419856 0.500000 0.794698
O O9 0.343039 0.272533 0.728811
O O10 0.383693 0.277418 0.926683
O O11 0.250000 0.790111 0.591631
O O12 0.159873 0.000000 0.645274
O O13 0.600574 0.500000 0.930408
O O14 0.500000 0.335971 0.000000
#
# Coordination Sequence:
#
# PCOD8209300 Si02
#       5
#     8   8   8   8   8
#     4  11  22  36  57  81 108 146 189 230 274 329
#     4  11  20  30  51  81 112 142 176 226 280 323
#     4  10  19  33  53  77 107 144 182 221 267 323
#     4  11  24  39  56  81 112 145 182 228 282 336
#     4   8  16  30  48  73 107 140 174 216 261 316
#
# _framework density 18.286959
#
# number of rings (size 3 to 8) (size 9 to 14) (size 15 to 20)
#    0.000    1.800    2.000    4.800    0.000    6.800 
#    0.000    0.000    0.000    1.200    0.000    5.600 
#    0.000    0.000    0.000    0.000    0.000    0.000 
#
# Total GULP energy -495989.943764 kJ/mol
# GULP energy per Si atom -12399.748594 kJ/mol
# Density = 1.824534 g / cm^3
# Si number density = 18.286959 Si / 1000 Ang^3
#
#
#
# Elastic Constant Matrix: (Units=GPa)
#
#
# Indices 1 2 3 4 5 6 
#
# 1 62.8642 18.1615 38.0474 0.0000 0.0000 0.0000
# 2 18.1615 44.6185 22.1412 0.0000 0.0000 0.0000
# 3 38.0474 22.1412 130.7652 0.0000 0.0000 0.0000
# 4 0.0000 0.0000 0.0000 29.5904 0.0000 0.0000
# 5 0.0000 0.0000 0.0000 0.0000 20.4909 0.0000
# 6 0.0000 0.0000 0.0000 0.0000 0.0000 16.5841
#
#
#
# Elastic Compliance Matrix: (Units=1/GPa)
#
#
# Indices 1 2 3 4 5 6 
#
# 1 0.020647 -0.005920 -0.005005 0.000000 0.000000 0.000000
# 2 -0.005920 0.026166 -0.002708 0.000000 0.000000 0.000000
# 3 -0.005005 -0.002708 0.009562 0.000000 0.000000 0.000000
# 4 0.000000 0.000000 0.000000 0.033795 0.000000 0.000000
# 5 0.000000 0.000000 0.000000 0.000000 0.048802 0.000000
# 6 0.000000 0.000000 0.000000 0.000000 0.000000 0.060299
#
#
# Mechanical properties :
#
#
# Convention : Reuss Voigt Hill
#
# Bulk Modulus (GPa) = 34.35451 43.88313 39.11882
# Shear Modulus (GPa) = 21.16497 23.99294 22.57896
#
# Velocity S-wave (km/s) = 3.40572 3.62612 3.51765
# Velocity P-wave (km/s) = 5.85597 6.44831 6.15926
#
# Compressibility (1/GPa) = 0.02910826
#
# Stress axis : x y z
#
# Youngs Moduli (GPa) = 48.43344 38.21784 104.58050
#
# Poissons Ratio (x) = 0.22627 0.52342
# Poissons Ratio (y) = 0.28675 0.28318
# Poissons Ratio (z) = 0.24241 0.10349
#
# Static dielectric constant tensor:
#      x y z
#    x 3.009270 0.000000 0.000000 
#    y 0.000000 3.411250 0.000000 
#    z 0.000000 0.000000 3.816870 
# 
# 
# High freq. dielectric constant tensor:
#      x y z
#    x 1.652660 0.000000 0.000000 
#    y 0.000000 1.718290 0.000000 
#    z 0.000000 0.000000 1.729140 
# 
# From -- ./inp_files/17089.got.cif
#   From: 2010.03.12/outbox.cif.g09.slc.cpg/sg51_9_cif.got.tgz:17089.got - 2010.04.16 13:43:02.
