data_PCOD8209746
_publ_section_title
;
Structure prediction by ZEFSAII (Michael W. Deem and Ramdas Pophale) SiO2 
 PCOD8209746
Probable space group: P M M A
;
_chemical_formula_sum "Si O2"
_cell_formula_units_Z 64
_cell_length_a 15.019989
_cell_length_b 19.357810
_cell_length_c 11.937900
_cell_angle_alpha 90.000000
_cell_angle_beta 90.000000
_cell_angle_gamma 90.000000
_cell_volume 3470.993290
_symmetry_space_group_name_H-M "P M M A"
_symmetry_group_IT_number 51
_symmetry_cell_setting 'orthorhombic'
loop_
_space_group_symop_operation_xyz
x,y,z
1/2-x,-y,z
1/2+x,-y,-z
-x,y,-z
-x,-y,-z
1/2+x,y,-z
1/2-x,y,z
x,-y,z
loop_
_atom_site_type_symbol
_atom_site_label
_atom_site_fract_x
_atom_site_fract_y
_atom_site_fract_z
Si Si1 0.848557 0.831025 0.213650
Si Si2 0.991802 0.670269 0.628462
Si Si3 0.853283 0.419401 0.759964
Si Si4 0.852728 0.327492 0.208171
Si Si5 0.144569 0.575953 0.989561
Si Si6 0.850862 0.078624 0.757719
Si Si7 0.009734 0.168554 0.371007
Si Si8 0.603987 0.079453 0.004598
O O1 0.750000 0.839543 0.266694
O O2 0.864325 0.752306 0.176700
O O3 0.853228 0.876483 0.102785
O O4 0.919697 0.853848 0.306837
O O5 0.910858 0.626671 0.677223
O O6 0.969141 0.750817 0.643083
O O7 0.000000 0.649247 0.500000
O O8 0.086215 0.652345 0.686243
O O9 0.750000 0.399500 0.743720
O O10 0.867961 0.500000 0.733368
O O11 0.886370 0.402317 0.886170
O O12 0.750000 0.346081 0.237068
O O13 0.889649 0.369489 0.101343
O O14 0.250000 0.572552 0.989965
O O15 0.106327 0.500000 0.958960
O O16 0.750000 0.083544 0.715046
O O17 0.908148 0.127034 0.678732
O O18 0.887003 0.000000 0.750043
O O19 0.855310 0.103618 0.886440
O O20 0.000000 0.147694 0.500000
O O21 0.627212 0.000000 0.029138
O O22 0.500000 0.093214 0.000000
#
# Coordination Sequence:
#
# PCOD8209746 Si02
#       8
#     8   8   8   8   8   8   8   8
#     4  10  20  35  55  79 109 143 179 222 273 326
#     4  10  22  37  54  78 105 141 185 224 263 315
#     4   9  19  36  56  79 109 141 174 219 270 319
#     4   9  19  35  53  77 108 139 174 222 271 315
#     4   8  15  31  54  78 105 137 172 210 261 322
#     4  10  21  37  57  82 111 141 175 220 272 323
#     4  10  22  39  56  77 107 144 186 228 271 317
#     4  10  19  34  57  82 110 143 175 215 270 327
#
# _framework density 18.438527000000001
#
# number of rings (size 3 to 8) (size 9 to 14) (size 15 to 20)
#    0.000    2.500    1.250    1.125    0.000    4.750 
#    0.000    5.000    0.000    1.500    0.000    0.000 
#    0.000    0.000    0.000    0.000    0.000    0.000 
#
# Total GULP energy -793613.386854 kJ/mol
# GULP energy per Si atom -12400.209170 kJ/mol
# Density = 1.839656 g / cm^3
# Si number density = 18.438527 Si / 1000 Ang^3
#
#
#
# Elastic Constant Matrix: (Units=GPa)
#
#
# Indices 1 2 3 4 5 6 
#
# 1 100.4047 51.7652 65.8396 0.0000 0.0000 0.0000
# 2 51.7652 71.0599 69.9879 0.0000 0.0000 0.0000
# 3 65.8396 69.9879 144.6189 0.0000 0.0000 0.0000
# 4 0.0000 0.0000 0.0000 10.6516 0.0000 0.0000
# 5 0.0000 0.0000 0.0000 0.0000 30.5487 0.0000
# 6 0.0000 0.0000 0.0000 0.0000 0.0000 29.0180
#
#
#
# Elastic Compliance Matrix: (Units=1/GPa)
#
#
# Indices 1 2 3 4 5 6 
#
# 1 0.016728 -0.008952 -0.003283 0.000000 0.000000 0.000000
# 2 -0.008952 0.031680 -0.011256 0.000000 0.000000 0.000000
# 3 -0.003283 -0.011256 0.013857 0.000000 0.000000 0.000000
# 4 0.000000 0.000000 0.000000 0.093883 0.000000 0.000000
# 5 0.000000 0.000000 0.000000 0.000000 0.032735 0.000000
# 6 0.000000 0.000000 0.000000 0.000000 0.000000 0.034461
#
#
# Mechanical properties :
#
#
# Convention : Reuss Voigt Hill
#
# Bulk Modulus (GPa) = 65.43554 76.80765 71.12159
# Shear Modulus (GPa) = 18.15404 22.60971 20.38187
#
# Velocity S-wave (km/s) = 3.14119 3.50554 3.32836
# Velocity P-wave (km/s) = 6.98009 7.62441 7.30935
#
# Compressibility (1/GPa) = 0.01528221
#
# Stress axis : x y z
#
# Youngs Moduli (GPa) = 59.77944 31.56542 72.16695
#
# Poissons Ratio (x) = 0.28258 0.23695
# Poissons Ratio (y) = 0.53516 0.81231
# Poissons Ratio (z) = 0.19627 0.35530
#
# Static dielectric constant tensor:
#      x y z
#    x 3.412260 0.000000 0.000000 
#    y 0.000000 3.439680 0.000000 
#    z 0.000000 0.000000 3.383270 
# 
# 
# High freq. dielectric constant tensor:
#      x y z
#    x 1.721450 0.000000 0.000000 
#    y 0.000000 1.710680 0.000000 
#    z 0.000000 0.000000 1.708370 
# 
# From -- ./inp_files/16875.got.cif
#   From: 2010.03.12/outbox.cif.g09.slc.cpg/sg51_9_cif.got.tgz:16875.got - 2010.04.16 13:43:02.
