data_PCOD8209213
_publ_section_title
;
Structure prediction by ZEFSAII (Michael W. Deem and Ramdas Pophale) SiO2 
 PCOD8209213
Probable space group: P M M A
;
_chemical_formula_sum "Si O2"
_cell_formula_units_Z 52
_cell_length_a 9.320355
_cell_length_b 22.249853
_cell_length_c 14.752456
_cell_angle_alpha 90.000000
_cell_angle_beta 90.000000
_cell_angle_gamma 90.000000
_cell_volume 3059.313114
_symmetry_space_group_name_H-M "P M M A"
_symmetry_group_IT_number 51
_symmetry_cell_setting 'orthorhombic'
loop_
_space_group_symop_operation_xyz
x,y,z
1/2-x,-y,z
1/2+x,-y,-z
-x,y,-z
-x,-y,-z
1/2+x,y,-z
1/2-x,y,z
x,-y,z
loop_
_atom_site_type_symbol
_atom_site_label
_atom_site_fract_x
_atom_site_fract_y
_atom_site_fract_z
Si Si1 0.081486 0.885249 0.785296
Si Si2 0.081196 0.203777 0.092315
Si Si3 0.583849 0.431273 0.756874
Si Si4 0.085225 0.342144 0.087236
Si Si5 0.582848 0.930456 0.411729
Si Si6 0.409467 0.428815 0.582196
Si Si7 0.583373 0.000000 0.094288
O O1 0.250000 0.870235 0.793307
O O2 0.038480 0.895727 0.680201
O O3 0.041543 0.942753 0.845668
O O4 0.986257 0.830634 0.822381
O O5 0.250000 0.189018 0.081670
O O6 0.053588 0.273524 0.114118
O O7 0.000000 0.184431 0.000000
O O8 0.750000 0.423000 0.730902
O O9 0.552439 0.500000 0.785692
O O10 0.533804 0.386741 0.834950
O O11 0.489272 0.410553 0.673070
O O12 0.250000 0.351889 0.064322
O O13 0.000000 0.362526 0.000000
O O14 0.500000 0.904569 0.500000
O O15 0.750000 0.922274 0.431096
O O16 0.543060 0.000000 0.396633
O O17 0.500000 0.400545 0.500000
O O18 0.250000 0.400945 0.582125
O O19 0.400801 0.500000 0.571372
O O20 0.750000 0.000000 0.069797
O O21 0.500000 0.000000 0.000000
#
# Coordination Sequence:
#
# PCOD8209213 Si02
#       7
#     8   8   8   8   8   8   4
#     4  10  19  33  51  71  98 129 160 197 242 284
#     4  10  20  34  51  71  95 126 164 201 238 285
#     4   9  17  30  48  70  96 125 157 196 244 292
#     4   9  19  34  50  69  95 126 160 199 240 284
#     4   9  17  31  50  72  99 129 159 195 238 283
#     4   9  16  26  42  66  95 125 155 188 229 280
#     4  10  20  32  45  66  98 128 153 190 239 284
#
# _framework density 16.997278999999999
#
# number of rings (size 3 to 8) (size 9 to 14) (size 15 to 20)
#    0.000    2.615    0.769    1.385    0.000    5.846 
#    0.000    0.000    0.000    0.923    0.000    2.154 
#    0.000    0.000    0.000    0.000    0.000    0.000 
#
# Total GULP energy -644763.911859 kJ/mol
# GULP energy per Si atom -12399.305997 kJ/mol
# Density = 1.695859 g / cm^3
# Si number density = 16.997279 Si / 1000 Ang^3
#
#
#
# Elastic Constant Matrix: (Units=GPa)
#
#
# Indices 1 2 3 4 5 6 
#
# 1 89.8202 43.8307 85.7920 0.0000 0.0000 0.0000
# 2 43.8307 61.6964 66.8301 0.0000 0.0000 0.0000
# 3 85.7920 66.8301 169.5847 0.0000 0.0000 0.0000
# 4 0.0000 0.0000 0.0000 11.3809 0.0000 0.0000
# 5 0.0000 0.0000 0.0000 0.0000 36.0674 0.0000
# 6 0.0000 0.0000 0.0000 0.0000 0.0000 14.5479
#
#
#
# Elastic Compliance Matrix: (Units=1/GPa)
#
#
# Indices 1 2 3 4 5 6 
#
# 1 0.022947 -0.006504 -0.009046 0.000000 0.000000 0.000000
# 2 -0.006504 0.030124 -0.008581 0.000000 0.000000 0.000000
# 3 -0.009046 -0.008581 0.013855 0.000000 0.000000 0.000000
# 4 0.000000 0.000000 0.000000 0.087867 0.000000 0.000000
# 5 0.000000 0.000000 0.000000 0.000000 0.027726 0.000000
# 6 0.000000 0.000000 0.000000 0.000000 0.000000 0.068739
#
#
# Mechanical properties :
#
#
# Convention : Reuss Voigt Hill
#
# Bulk Modulus (GPa) = 53.57776 79.33410 66.45593
# Shear Modulus (GPa) = 16.35378 20.70914 18.53146
#
# Velocity S-wave (km/s) = 3.10521 3.49432 3.30549
# Velocity P-wave (km/s) = 6.66680 7.94080 7.33152
#
# Compressibility (1/GPa) = 0.01866446
#
# Stress axis : x y z
#
# Youngs Moduli (GPa) = 43.57818 33.19624 72.17785
#
# Poissons Ratio (x) = 0.21590 0.65291
# Poissons Ratio (y) = 0.28342 0.61936
# Poissons Ratio (z) = 0.39420 0.28486
#
# Static dielectric constant tensor:
#      x y z
#    x 3.247680 0.000000 0.000000 
#    y 0.000000 2.988230 0.000000 
#    z 0.000000 0.000000 3.288050 
# 
# 
# High freq. dielectric constant tensor:
#      x y z
#    x 1.660780 0.000000 0.000000 
#    y 0.000000 1.625730 0.000000 
#    z 0.000000 0.000000 1.661050 
# 
# From -- ./inp_files/22027.got.cif
#   From: 2010.03.12/outbox.cif.g09.slc.cpg/sg51_12_cif.got.tgz:22027.got - 2010.04.16 13:43:02.
