data_PCOD8209366
_publ_section_title
;
Structure prediction by ZEFSAII (Michael W. Deem and Ramdas Pophale) SiO2 
 PCOD8209366
Probable space group: P M M A
;
_chemical_formula_sum "Si O2"
_cell_formula_units_Z 40
_cell_length_a 7.697281
_cell_length_b 14.405675
_cell_length_c 19.732748
_cell_angle_alpha 90.000000
_cell_angle_beta 90.000000
_cell_angle_gamma 90.000000
_cell_volume 2188.056457
_symmetry_space_group_name_H-M "P M M A"
_symmetry_group_IT_number 51
_symmetry_cell_setting 'orthorhombic'
loop_
_space_group_symop_operation_xyz
x,y,z
1/2-x,-y,z
1/2+x,-y,-z
-x,y,-z
-x,-y,-z
1/2+x,y,-z
1/2-x,y,z
x,-y,z
loop_
_atom_site_type_symbol
_atom_site_label
_atom_site_fract_x
_atom_site_fract_y
_atom_site_fract_z
Si Si1 0.056739 0.764966 0.829542
Si Si2 0.953261 0.602412 0.425982
Si Si3 0.250000 0.897395 0.326661
Si Si4 0.750000 0.896391 0.833790
Si Si5 0.953298 0.605384 0.924849
Si Si6 0.952097 0.238818 0.326941
O O1 0.250000 0.807848 0.835864
O O2 0.016152 0.739066 0.751848
O O3 0.921172 0.840720 0.858288
O O4 0.049992 0.669973 0.871313
O O5 0.750000 0.593056 0.418242
O O6 0.039214 0.500000 0.416378
O O7 0.020893 0.672073 0.368400
O O8 0.000000 0.642555 0.500000
O O9 0.250000 0.905045 0.246239
O O10 0.426544 0.846452 0.350449
O O11 0.250000 0.000000 0.359178
O O12 0.750000 0.000000 0.866113
O O13 0.750000 0.612685 0.911980
O O14 0.020311 0.500000 0.914766
O O15 0.000000 0.640102 0.000000
O O16 0.750000 0.214817 0.342370
#
# Coordination Sequence:
#
# PCOD8209366 Si02
#       6
#     8   8   4   4   8   8
#     4  10  19  33  54  79 105 137 173 211 261 307
#     4   9  18  32  49  73 102 135 173 208 250 305
#     4   9  18  32  53  77 101 131 169 214 260 306
#     4   9  18  34  53  77 107 133 169 218 260 308
#     4  10  20  34  52  77 107 140 177 211 251 307
#     4   9  19  33  51  77 105 134 170 211 256 305
#
# _framework density 18.281065000000002
#
# number of rings (size 3 to 8) (size 9 to 14) (size 15 to 20)
#    0.000    2.600    1.000    0.600    1.400    2.800 
#    0.000    6.000    0.000    1.200    0.000    0.000 
#    0.000    0.000    0.000    0.000    0.000    0.000 
#
# Total GULP energy -495909.923299 kJ/mol
# GULP energy per Si atom -12397.748082 kJ/mol
# Density = 1.823946 g / cm^3
# Si number density = 18.281065 Si / 1000 Ang^3
#
#
#
# Elastic Constant Matrix: (Units=GPa)
#
#
# Indices 1 2 3 4 5 6 
#
# 1 93.5526 55.4736 31.3739 0.0000 0.0000 0.0000
# 2 55.4736 137.2826 61.0681 0.0000 0.0000 0.0000
# 3 31.3739 61.0681 70.6285 0.0000 0.0000 0.0000
# 4 0.0000 0.0000 0.0000 -7.6020 0.0000 0.0000
# 5 0.0000 0.0000 0.0000 0.0000 21.7467 0.0000
# 6 0.0000 0.0000 0.0000 0.0000 0.0000 23.4803
#
#
#
# Elastic Compliance Matrix: (Units=1/GPa)
#
#
# Indices 1 2 3 4 5 6 
#
# 1 0.014264 -0.004786 -0.002198 0.000000 0.000000 0.000000
# 2 -0.004786 0.013443 -0.009497 0.000000 0.000000 0.000000
# 3 -0.002198 -0.009497 0.023347 0.000000 0.000000 0.000000
# 4 0.000000 0.000000 0.000000 -0.131545 0.000000 0.000000
# 5 0.000000 0.000000 0.000000 0.000000 0.045984 0.000000
# 6 0.000000 0.000000 0.000000 0.000000 0.000000 0.042589
#
#
# Mechanical properties :
#
#
# Convention : Reuss Voigt Hill
#
# Bulk Modulus (GPa) = 55.27597 66.36610 60.82103
# Shear Modulus (GPa) = 106.21255 17.76155 61.98705
#
# Velocity S-wave (km/s) = 7.63059 3.12040 5.82936
# Velocity P-wave (km/s) = 10.38927 7.02599 8.86852
#
# Compressibility (1/GPa) = 0.01809104
#
# Stress axis : x y z
#
# Youngs Moduli (GPa) = 70.10460 74.38834 42.83279
#
# Poissons Ratio (x) = 0.35604 0.09415
# Poissons Ratio (y) = 0.33554 0.40679
# Poissons Ratio (z) = 0.15409 0.70648
#
# Static dielectric constant tensor:
#      x y z
#    x 3.470820 0.000000 0.000000 
#    y 0.000000 3.635310 0.000000 
#    z 0.000000 0.000000 3.227020 
# 
# 
# High freq. dielectric constant tensor:
#      x y z
#    x 1.720890 0.000000 0.000000 
#    y 0.000000 1.697770 0.000000 
#    z 0.000000 0.000000 1.682110 
# 
# From -- ./inp_files/31450.got.cif
#   From: 2010.03.12/outbox.cif.g09.slc.cpg/sg51_16_cif.got.tgz:31450.got - 2010.04.16 13:43:02.
