data_PCOD8209722
_publ_section_title
;
Structure prediction by ZEFSAII (Michael W. Deem and Ramdas Pophale) SiO2 
 PCOD8209722
Probable space group: P M M A
;
_chemical_formula_sum "Si O2"
_cell_formula_units_Z 46
_cell_length_a 24.045501
_cell_length_b 11.047365
_cell_length_c 9.541662
_cell_angle_alpha 90.000000
_cell_angle_beta 90.000000
_cell_angle_gamma 90.000000
_cell_volume 2534.641618
_symmetry_space_group_name_H-M "P M M A"
_symmetry_group_IT_number 51
_symmetry_cell_setting 'orthorhombic'
loop_
_space_group_symop_operation_xyz
x,y,z
1/2-x,-y,z
1/2+x,-y,-z
-x,y,-z
-x,-y,-z
1/2+x,y,-z
1/2-x,y,z
x,-y,z
loop_
_atom_site_type_symbol
_atom_site_label
_atom_site_fract_x
_atom_site_fract_y
_atom_site_fract_z
Si Si1 0.250000 0.742853 0.984818
Si Si2 0.250000 0.645583 0.300623
Si Si3 0.188945 0.000000 0.587281
Si Si4 0.953212 0.632684 0.612117
Si Si5 0.150564 0.641848 0.803434
Si Si6 0.973309 0.644488 0.142509
Si Si7 0.344805 0.259224 0.501358
Si Si8 0.750000 0.000000 0.137550
O O1 0.250000 0.703289 0.146110
O O2 0.194560 0.694634 0.911562
O O3 0.250000 0.887172 0.967510
O O4 0.250000 0.500000 0.290719
O O5 0.196378 0.693649 0.382263
O O6 0.157392 0.117152 0.531904
O O7 0.195733 0.000000 0.758205
O O8 0.250000 0.000000 0.517460
O O9 0.927210 0.500000 0.649790
O O10 0.906614 0.720275 0.552944
O O11 0.000000 0.610190 0.500000
O O12 0.983445 0.695466 0.743440
O O13 0.149997 0.500000 0.826006
O O14 0.089074 0.696091 0.835664
O O15 0.168662 0.670033 0.644677
O O16 0.971207 0.500000 0.153288
O O17 0.000000 0.691644 0.000000
#
# Coordination Sequence:
#
# PCOD8209722 Si02
#       8
#     4   4   4   8   8   8   8   2
#     4  12  25  39  58  88 122 157 203 253 300 363
#     4  12  26  39  58  96 129 149 187 259 326 365
#     4  10  20  43  63  86 111 161 222 250 282 358
#     4  10  19  34  56  88 120 152 199 249 307 368
#     4  11  20  36  60  87 119 160 200 247 312 370
#     4   9  19  33  54  82 120 162 194 236 302 375
#     4  12  22  39  64  85 120 161 202 252 299 365
#     4  10  20  44  64  78 112 168 212 242 280 356
#
# _framework density 18.148523000000001
#
# number of rings (size 3 to 8) (size 9 to 14) (size 15 to 20)
#    0.261    1.043    4.348    2.870    2.435    0.696 
#    0.000    0.435    0.000    0.000    0.000    3.043 
#    0.000    0.000    0.000    0.000    0.000    0.000 
#
# Total GULP energy -570252.142742 kJ/mol
# GULP energy per Si atom -12396.785712 kJ/mol
# Density = 1.810722 g / cm^3
# Si number density = 18.148523 Si / 1000 Ang^3
#
#
#
# Elastic Constant Matrix: (Units=GPa)
#
#
# Indices 1 2 3 4 5 6 
#
# 1 109.0409 43.0352 55.1141 0.0000 0.0000 0.0000
# 2 43.0352 101.9193 37.4595 0.0000 0.0000 0.0000
# 3 55.1141 37.4595 151.6824 0.0000 0.0000 0.0000
# 4 0.0000 0.0000 0.0000 22.3779 0.0000 0.0000
# 5 0.0000 0.0000 0.0000 0.0000 33.9979 0.0000
# 6 0.0000 0.0000 0.0000 0.0000 0.0000 17.8571
#
#
#
# Elastic Compliance Matrix: (Units=1/GPa)
#
#
# Indices 1 2 3 4 5 6 
#
# 1 0.012551 -0.003985 -0.003576 0.000000 0.000000 0.000000
# 2 -0.003985 0.012057 -0.001529 0.000000 0.000000 0.000000
# 3 -0.003576 -0.001529 0.008270 0.000000 0.000000 0.000000
# 4 0.000000 0.000000 0.000000 0.044687 0.000000 0.000000
# 5 0.000000 0.000000 0.000000 0.000000 0.029414 0.000000
# 6 0.000000 0.000000 0.000000 0.000000 0.000000 0.056000
#
#
# Mechanical properties :
#
#
# Convention : Reuss Voigt Hill
#
# Bulk Modulus (GPa) = 68.04719 70.42890 69.23805
# Shear Modulus (GPa) = 26.87312 29.98216 28.42764
#
# Velocity S-wave (km/s) = 3.85220 4.06894 3.96206
# Velocity P-wave (km/s) = 7.57377 7.80809 7.69182
#
# Compressibility (1/GPa) = 0.01469568
#
# Stress axis : x y z
#
# Youngs Moduli (GPa) = 79.67229 82.94209 120.92037
#
# Poissons Ratio (x) = 0.33055 0.43245
# Poissons Ratio (y) = 0.31752 0.18494
# Poissons Ratio (z) = 0.28494 0.12685
#
# Static dielectric constant tensor:
#      x y z
#    x 3.397080 0.000000 0.000000 
#    y 0.000000 3.136420 0.000000 
#    z 0.000000 0.000000 3.387870 
# 
# 
# High freq. dielectric constant tensor:
#      x y z
#    x 1.711200 0.000000 0.000000 
#    y 0.000000 1.673380 0.000000 
#    z 0.000000 0.000000 1.710820 
# 
# From -- ./inp_files/11725.got.cif
#   From: 2010.03.12/outbox.cif.g09.slc.cpg/sg51_6_cif.got.tgz:11725.got - 2010.04.16 13:43:02.
