data_PCOD8209811
_publ_section_title
;
Structure prediction by ZEFSAII (Michael W. Deem and Ramdas Pophale) SiO2 
 PCOD8209811
Probable space group: P M M A
;
_chemical_formula_sum "Si O2"
_cell_formula_units_Z 56
_cell_length_a 20.723063
_cell_length_b 8.705511
_cell_length_c 15.246546
_cell_angle_alpha 90.000000
_cell_angle_beta 90.000000
_cell_angle_gamma 90.000000
_cell_volume 2750.550888
_symmetry_space_group_name_H-M "P M M A"
_symmetry_group_IT_number 51
_symmetry_cell_setting 'orthorhombic'
loop_
_space_group_symop_operation_xyz
x,y,z
1/2-x,-y,z
1/2+x,-y,-z
-x,y,-z
-x,-y,-z
1/2+x,y,-z
1/2-x,y,z
x,-y,z
loop_
_atom_site_type_symbol
_atom_site_label
_atom_site_fract_x
_atom_site_fract_y
_atom_site_fract_z
Si Si1 0.124842 0.817696 0.487554
Si Si2 0.250000 0.676552 0.406659
Si Si3 0.538634 0.818315 0.667237
Si Si4 0.573443 0.678040 0.006429
Si Si5 0.750000 0.167003 0.766543
Si Si6 0.614618 0.826709 0.836271
Si Si7 0.104204 0.817168 0.681814
Si Si8 0.324713 0.817360 0.855482
O O1 0.189014 0.761859 0.443665
O O2 0.064870 0.757177 0.427218
O O3 0.124985 0.752911 0.586624
O O4 0.123059 0.000000 0.489776
O O5 0.250000 0.500000 0.433619
O O6 0.250000 0.694331 0.302004
O O7 0.586954 0.767494 0.743781
O O8 0.468522 0.753070 0.693479
O O9 0.534663 0.000000 0.660401
O O10 0.572822 0.500000 0.032132
O O11 0.622547 0.760977 0.073692
O O12 0.500000 0.743912 0.000000
O O13 0.598393 0.702807 0.909021
O O14 0.809084 0.175992 0.832160
O O15 0.750000 0.000000 0.717012
O O16 0.589406 0.000000 0.858592
O O17 0.150983 0.757241 0.759675
O O18 0.105416 0.000000 0.682911
O O19 0.250000 0.759495 0.871196
O O20 0.325326 0.000000 0.858989
#
# Coordination Sequence:
#
# PCOD8209811 Si02
#       8
#     8   4   8   8   4   8   8   8
#     4  10  19  34  58  84 116 154 194 241 287 337
#     4  12  24  36  52  79 118 159 198 237 284 342
#     4   9  16  30  55  91 121 145 181 233 292 346
#     4  11  25  43  62  87 119 158 200 241 295 362
#     4  10  20  38  60  87 116 149 190 235 292 350
#     4  10  20  35  61  91 119 148 186 237 293 349
#     4   9  18  32  58  90 117 146 191 244 292 337
#     4  10  22  40  62  90 120 154 202 256 304 353
#
# _framework density 20.359558
#
# number of rings (size 3 to 8) (size 9 to 14) (size 15 to 20)
#    0.000    2.000    1.429    2.357    2.000    4.857 
#    0.000    0.714    0.000    2.571    0.000    0.000 
#    0.000    0.000    0.000    0.000    0.000    0.000 
#
# Total GULP energy -693900.268045 kJ/mol
# GULP energy per Si atom -12391.076215 kJ/mol
# Density = 2.031322 g / cm^3
# Si number density = 20.359558 Si / 1000 Ang^3
#
#
#
# Elastic Constant Matrix: (Units=GPa)
#
#
# Indices 1 2 3 4 5 6 
#
# 1 160.6409 17.8927 63.1484 0.0000 0.0000 0.0000
# 2 17.8927 9.5910 25.4472 0.0000 0.0000 0.0000
# 3 63.1484 25.4472 125.5971 0.0000 0.0000 0.0000
# 4 0.0000 0.0000 0.0000 6.6622 0.0000 0.0000
# 5 0.0000 0.0000 0.0000 0.0000 32.8851 0.0000
# 6 0.0000 0.0000 0.0000 0.0000 0.0000 12.4061
#
#
#
# Elastic Compliance Matrix: (Units=1/GPa)
#
#
# Indices 1 2 3 4 5 6 
#
# 1 0.008128 -0.009343 -0.002194 0.000000 0.000000 0.000000
# 2 -0.009343 0.236212 -0.043161 0.000000 0.000000 0.000000
# 3 -0.002194 -0.043161 0.017810 0.000000 0.000000 0.000000
# 4 0.000000 0.000000 0.000000 0.150101 0.000000 0.000000
# 5 0.000000 0.000000 0.000000 0.000000 0.030409 0.000000
# 6 0.000000 0.000000 0.000000 0.000000 0.000000 0.080606
#
#
# Mechanical properties :
#
#
# Convention : Reuss Voigt Hill
#
# Bulk Modulus (GPa) = 6.54648 56.53395 31.54022
# Shear Modulus (GPa) = 7.31444 23.01339 15.16392
#
# Velocity S-wave (km/s) = 1.89748 3.36571 2.73207
# Velocity P-wave (km/s) = 2.83249 6.55226 5.04753
#
# Compressibility (1/GPa) = 0.15275383
#
# Stress axis : x y z
#
# Youngs Moduli (GPa) = 123.03032 4.23348 56.14895
#
# Poissons Ratio (x) = 0.03955 0.12317
# Poissons Ratio (y) = 1.14951 2.42346
# Poissons Ratio (z) = 0.26988 0.18272
#
# Static dielectric constant tensor:
#      x y z
#    x 4.125300 0.000000 0.000000 
#    y 0.000000 3.236800 0.000000 
#    z 0.000000 0.000000 3.884940 
# 
# 
# High freq. dielectric constant tensor:
#      x y z
#    x 1.814180 0.000000 0.000000 
#    y 0.000000 1.741810 0.000000 
#    z 0.000000 0.000000 1.804570 
# 
# From -- ./inp_files/25893.got.cif
#   From: 2010.03.12/outbox.cif.g09.slc.cpg/sg51_13_cif.got.tgz:25893.got - 2010.04.16 13:43:02.
