data_PCOD8209526
_publ_section_title
;
Structure prediction by ZEFSAII (Michael W. Deem and Ramdas Pophale) SiO2 
 PCOD8209526
Probable space group: P M M A
;
_chemical_formula_sum "Si O2"
_cell_formula_units_Z 64
_cell_length_a 24.997330
_cell_length_b 9.056697
_cell_length_c 13.584863
_cell_angle_alpha 90.000000
_cell_angle_beta 90.000000
_cell_angle_gamma 90.000000
_cell_volume 3075.521199
_symmetry_space_group_name_H-M "P M M A"
_symmetry_group_IT_number 51
_symmetry_cell_setting 'orthorhombic'
loop_
_space_group_symop_operation_xyz
x,y,z
1/2-x,-y,z
1/2+x,-y,-z
-x,y,-z
-x,-y,-z
1/2+x,y,-z
1/2-x,y,z
x,-y,z
loop_
_atom_site_type_symbol
_atom_site_label
_atom_site_fract_x
_atom_site_fract_y
_atom_site_fract_z
Si Si1 0.518746 0.173435 0.272750
Si Si2 0.190710 0.159098 0.822167
Si Si3 0.049431 0.174537 0.942697
Si Si4 0.083995 0.675757 0.343105
Si Si5 0.687046 0.331547 0.360374
Si Si6 0.690019 0.326853 0.770009
Si Si7 0.405420 0.173967 0.545473
Si Si8 0.341255 0.827458 0.031780
O O1 0.549689 0.218916 0.172452
O O2 0.462778 0.262473 0.272858
O O3 0.556093 0.218373 0.364259
O O4 0.504994 0.000000 0.274357
O O5 0.250000 0.130816 0.783720
O O6 0.167299 0.282233 0.748987
O O7 0.193932 0.208314 0.935268
O O8 0.158861 0.000000 0.813177
O O9 0.100833 0.234228 0.000625
O O10 0.047757 0.000000 0.952168
O O11 0.000000 0.247342 0.000000
O O12 0.080452 0.500000 0.350234
O O13 0.142661 0.727074 0.302945
O O14 0.072398 0.747338 0.448729
O O15 0.750000 0.312058 0.379815
O O16 0.669677 0.500000 0.374871
O O17 0.654960 0.231279 0.437481
O O18 0.750000 0.285232 0.730101
O O19 0.685077 0.500000 0.783931
O O20 0.682921 0.257353 0.876924
O O21 0.404444 0.000000 0.528225
O O22 0.341254 0.000000 0.058357
#
# Coordination Sequence:
#
# PCOD8209526 Si02
#       8
#     8   8   8   8   8   8   8   8
#     4  10  21  39  62  88 119 154 193 240 297 357
#     4   9  17  30  49  75 108 144 183 229 278 329
#     4   9  17  30  52  82 114 147 181 220 271 332
#     4  11  24  41  61  85 114 150 196 250 305 360
#     4  10  21  36  55  82 117 156 196 239 291 352
#     4  10  23  42  60  81 115 157 196 239 296 357
#     4  11  23  39  61  87 115 151 196 247 304 363
#     4  10  19  33  56  84 112 146 191 237 278 329
#
# _framework density 20.809481999999999
#
# number of rings (size 3 to 8) (size 9 to 14) (size 15 to 20)
#    0.000    2.000    0.000    3.375    0.000    9.000 
#    0.000    3.125    0.000    2.250    0.000    0.000 
#    0.000    0.000    0.000    0.000    0.000    0.000 
#
# Total GULP energy -793260.487516 kJ/mol
# GULP energy per Si atom -12394.695117 kJ/mol
# Density = 2.076212 g / cm^3
# Si number density = 20.809482 Si / 1000 Ang^3
#
#
#
# Elastic Constant Matrix: (Units=GPa)
#
#
# Indices 1 2 3 4 5 6 
#
# 1 101.2484 29.4108 10.7094 0.0000 0.0000 0.0000
# 2 29.4108 48.2728 13.9412 0.0000 0.0000 0.0000
# 3 10.7094 13.9412 60.7056 0.0000 0.0000 0.0000
# 4 0.0000 0.0000 0.0000 27.7156 0.0000 0.0000
# 5 0.0000 0.0000 0.0000 0.0000 35.2470 0.0000
# 6 0.0000 0.0000 0.0000 0.0000 0.0000 28.2538
#
#
#
# Elastic Compliance Matrix: (Units=1/GPa)
#
#
# Indices 1 2 3 4 5 6 
#
# 1 0.012013 -0.007183 -0.000470 0.000000 0.000000 0.000000
# 2 -0.007183 0.026483 -0.004815 0.000000 0.000000 0.000000
# 3 -0.000470 -0.004815 0.017661 0.000000 0.000000 0.000000
# 4 0.000000 0.000000 0.000000 0.036081 0.000000 0.000000
# 5 0.000000 0.000000 0.000000 0.000000 0.028371 0.000000
# 6 0.000000 0.000000 0.000000 0.000000 0.000000 0.035393
#
#
# Mechanical properties :
#
#
# Convention : Reuss Voigt Hill
#
# Bulk Modulus (GPa) = 32.02875 35.37219 33.70047
# Shear Modulus (GPa) = 26.13079 28.65431 27.39255
#
# Velocity S-wave (km/s) = 3.54745 3.71480 3.63209
# Velocity P-wave (km/s) = 5.67486 5.95270 5.81544
#
# Compressibility (1/GPa) = 0.03122195
#
# Stress axis : x y z
#
# Youngs Moduli (GPa) = 83.24290 37.76054 56.62043
#
# Poissons Ratio (x) = 0.27125 0.02659
# Poissons Ratio (y) = 0.59797 0.27260
# Poissons Ratio (z) = 0.03909 0.18180
#
# Static dielectric constant tensor:
#      x y z
#    x 4.164060 0.000000 0.000000 
#    y 0.000000 3.596030 0.000000 
#    z 0.000000 0.000000 3.760220 
# 
# 
# High freq. dielectric constant tensor:
#      x y z
#    x 1.828180 0.000000 0.000000 
#    y 0.000000 1.789410 0.000000 
#    z 0.000000 0.000000 1.814440 
# 
# From -- ./inp_files/26315.got.cif
#   From: 2010.03.12/outbox.cif.g09.slc.cpg/sg51_14_cif.got.tgz:26315.got - 2010.04.16 13:43:02.
