data_PCOD8209015
_publ_section_title
;
Structure prediction by ZEFSAII (Michael W. Deem and Ramdas Pophale) SiO2 
 PCOD8209015
Probable space group: P M M A
;
_chemical_formula_sum "Si O2"
_cell_formula_units_Z 52
_cell_length_a 8.908932
_cell_length_b 19.895277
_cell_length_c 14.630560
_cell_angle_alpha 90.000000
_cell_angle_beta 90.000000
_cell_angle_gamma 90.000000
_cell_volume 2593.203408
_symmetry_space_group_name_H-M "P M M A"
_symmetry_group_IT_number 51
_symmetry_cell_setting 'orthorhombic'
loop_
_space_group_symop_operation_xyz
x,y,z
1/2-x,-y,z
1/2+x,-y,-z
-x,y,-z
-x,-y,-z
1/2+x,y,-z
1/2-x,y,z
x,-y,z
loop_
_atom_site_type_symbol
_atom_site_label
_atom_site_fract_x
_atom_site_fract_y
_atom_site_fract_z
Si Si1 0.074947 0.833602 0.907746
Si Si2 0.572531 0.121053 0.288718
Si Si3 0.422119 0.617290 0.411489
Si Si4 0.928530 0.229088 0.593583
Si Si5 0.076713 0.574691 0.215351
Si Si6 0.573752 0.318615 0.092326
Si Si7 0.570628 0.000000 0.601020
O O1 0.250000 0.832164 0.926852
O O2 0.038179 0.880748 0.820392
O O3 0.017657 0.757446 0.887861
O O4 0.000000 0.863045 0.000000
O O5 0.750000 0.113709 0.307115
O O6 0.510915 0.192074 0.323433
O O7 0.482428 0.063964 0.341644
O O8 0.500000 0.585166 0.500000
O O9 0.250000 0.617265 0.436285
O O10 0.474722 0.693649 0.393886
O O11 0.458837 0.573006 0.323168
O O12 0.750000 0.216301 0.595020
O O13 0.000000 0.200353 0.500000
O O14 0.250000 0.594036 0.198303
O O15 0.041378 0.500000 0.176683
O O16 0.973539 0.631314 0.172120
O O17 0.750000 0.321494 0.081370
O O18 0.500000 0.346247 0.000000
O O19 0.500000 0.000000 0.500000
O O20 0.750000 0.000000 0.591786
#
# Coordination Sequence:
#
# PCOD8209015 Si02
#       7
#     8   8   8   8   8   8   4
#     4   9  20  37  60  88 116 144 179 226 276 325
#     4  11  22  38  59  85 116 149 184 226 273 319
#     4   9  19  34  52  75 104 138 178 226 278 329
#     4  10  19  32  52  79 108 140 179 225 276 330
#     4  10  21  36  52  73 104 142 183 227 275 329
#     4  10  20  36  58  84 111 141 178 223 276 330
#     4  12  26  44  63  86 117 156 195 228 266 316
#
# _framework density 20.052417999999999
#
# number of rings (size 3 to 8) (size 9 to 14) (size 15 to 20)
#    0.000    2.000    0.000    3.462    0.000    4.000 
#    0.000    0.385    0.000    0.000    0.000    0.000 
#    0.000    0.000    0.000    0.000    0.000    0.000 
#
# Total GULP energy -644771.649282 kJ/mol
# GULP energy per Si atom -12399.454794 kJ/mol
# Density = 2.000678 g / cm^3
# Si number density = 20.052418 Si / 1000 Ang^3
#
#
#
# Elastic Constant Matrix: (Units=GPa)
#
#
# Indices 1 2 3 4 5 6 
#
# 1 84.9418 31.9881 50.4562 0.0000 0.0000 0.0000
# 2 31.9881 62.4629 40.2578 0.0000 0.0000 0.0000
# 3 50.4562 40.2578 114.5934 0.0000 0.0000 0.0000
# 4 0.0000 0.0000 0.0000 29.3683 0.0000 0.0000
# 5 0.0000 0.0000 0.0000 0.0000 38.8741 0.0000
# 6 0.0000 0.0000 0.0000 0.0000 0.0000 20.6552
#
#
#
# Elastic Compliance Matrix: (Units=1/GPa)
#
#
# Indices 1 2 3 4 5 6 
#
# 1 0.017089 -0.005044 -0.005752 0.000000 0.000000 0.000000
# 2 -0.005044 0.022184 -0.005573 0.000000 0.000000 0.000000
# 3 -0.005752 -0.005573 0.013217 0.000000 0.000000 0.000000
# 4 0.000000 0.000000 0.000000 0.034050 0.000000 0.000000
# 5 0.000000 0.000000 0.000000 0.000000 0.025724 0.000000
# 6 0.000000 0.000000 0.000000 0.000000 0.000000 0.048414
#
#
# Mechanical properties :
#
#
# Convention : Reuss Voigt Hill
#
# Bulk Modulus (GPa) = 50.62722 56.37803 53.50263
# Shear Modulus (GPa) = 24.99981 27.06593 26.03287
#
# Velocity S-wave (km/s) = 3.53473 3.67789 3.60702
# Velocity P-wave (km/s) = 6.47775 6.79796 6.63979
#
# Compressibility (1/GPa) = 0.01975222
#
# Stress axis : x y z
#
# Youngs Moduli (GPa) = 58.51599 45.07704 75.65982
#
# Poissons Ratio (x) = 0.22738 0.43523
# Poissons Ratio (y) = 0.29516 0.42162
# Poissons Ratio (z) = 0.33661 0.25120
#
# Static dielectric constant tensor:
#      x y z
#    x 3.605960 0.000000 0.000000 
#    y 0.000000 3.577400 0.000000 
#    z 0.000000 0.000000 3.752290 
# 
# 
# High freq. dielectric constant tensor:
#      x y z
#    x 1.782370 0.000000 0.000000 
#    y 0.000000 1.770000 0.000000 
#    z 0.000000 0.000000 1.789780 
# 
# From -- ./inp_files/21587.got.cif
#   From: 2010.03.12/outbox.cif.g09.slc.cpg/sg51_11_cif.got.tgz:21587.got - 2010.04.16 13:43:02.
