data_PCOD8209956
_publ_section_title
;
Structure prediction by ZEFSAII (Michael W. Deem and Ramdas Pophale) SiO2 
 PCOD8209956
Probable space group: P M M A
;
_chemical_formula_sum "Si O2"
_cell_formula_units_Z 48
_cell_length_a 30.955178
_cell_length_b 8.681378
_cell_length_c 8.965936
_cell_angle_alpha 90.000000
_cell_angle_beta 90.000000
_cell_angle_gamma 90.000000
_cell_volume 2409.448270
_symmetry_space_group_name_H-M "P M M A"
_symmetry_group_IT_number 51
_symmetry_cell_setting 'orthorhombic'
loop_
_space_group_symop_operation_xyz
x,y,z
1/2-x,-y,z
1/2+x,-y,-z
-x,y,-z
-x,-y,-z
1/2+x,y,-z
1/2-x,y,z
x,-y,z
loop_
_atom_site_type_symbol
_atom_site_label
_atom_site_fract_x
_atom_site_fract_y
_atom_site_fract_z
Si Si1 0.835047 0.182367 0.669508
Si Si2 0.835270 0.183316 0.334477
Si Si3 0.582284 0.179033 0.150297
Si Si4 0.495270 0.822837 0.328475
Si Si5 0.415970 0.321495 0.168803
Si Si6 0.750000 0.816221 0.833541
Si Si7 0.250000 0.183647 0.829441
O O1 0.837778 0.250367 0.502119
O O2 0.876680 0.226789 0.763208
O O3 0.792259 0.248253 0.749545
O O4 0.832314 0.000000 0.662609
O O5 0.876567 0.240800 0.241934
O O6 0.792212 0.247083 0.255218
O O7 0.834775 0.000000 0.339868
O O8 0.540664 0.207710 0.250601
O O9 0.587550 0.000000 0.107509
O O10 0.577364 0.277476 0.002208
O O11 0.500000 0.777457 0.500000
O O12 0.459629 0.714319 0.256626
O O13 0.480597 0.000000 0.310176
O O14 0.405228 0.500000 0.182852
O O15 0.750000 0.000000 0.834508
O O16 0.750000 0.752512 0.002184
O O17 0.250000 0.000000 0.829495
#
# Coordination Sequence:
#
# PCOD8209956 Si02
#       7
#     8   8   8   8   8   4   4
#     4  10  19  35  58  84 112 144 186 232 278 328
#     4   9  17  30  53  83 112 141 177 225 275 325
#     4  10  20  36  58  82 109 144 185 229 275 322
#     4  10  21  39  63  87 109 139 182 231 281 330
#     4  12  25  38  54  80 114 151 186 224 274 330
#     4   9  17  29  54  87 114 143 180 228 280 327
#     4   9  15  25  45  81 120 143 168 216 278 331
#
# _framework density 19.921572999999999
#
# number of rings (size 3 to 8) (size 9 to 14) (size 15 to 20)
#    0.000    2.000    0.000    4.500    0.000   10.333 
#    0.000    2.917    0.000    0.000    0.000    1.167 
#    0.000    0.000    0.000    0.000    0.000    0.000 
#
# Total GULP energy -595367.724554 kJ/mol
# GULP energy per Si atom -12403.494262 kJ/mol
# Density = 1.987623 g / cm^3
# Si number density = 19.921573 Si / 1000 Ang^3
#
#
#
# Elastic Constant Matrix: (Units=GPa)
#
#
# Indices 1 2 3 4 5 6 
#
# 1 141.9385 10.8242 61.9372 0.0000 0.0000 0.0000
# 2 10.8242 16.0015 17.6004 0.0000 0.0000 0.0000
# 3 61.9372 17.6004 166.7897 0.0000 0.0000 0.0000
# 4 0.0000 0.0000 0.0000 -2.2212 0.0000 0.0000
# 5 0.0000 0.0000 0.0000 0.0000 43.4947 0.0000
# 6 0.0000 0.0000 0.0000 0.0000 0.0000 3.8439
#
#
#
# Elastic Compliance Matrix: (Units=1/GPa)
#
#
# Indices 1 2 3 4 5 6 
#
# 1 0.008501 -0.002577 -0.002885 0.000000 0.000000 0.000000
# 2 -0.002577 0.071481 -0.006586 0.000000 0.000000 0.000000
# 3 -0.002885 -0.006586 0.007762 0.000000 0.000000 0.000000
# 4 0.000000 0.000000 0.000000 -0.450216 0.000000 0.000000
# 5 0.000000 0.000000 0.000000 0.000000 0.022991 0.000000
# 6 0.000000 0.000000 0.000000 0.000000 0.000000 0.260152
#
#
# Mechanical properties :
#
#
# Convention : Reuss Voigt Hill
#
# Bulk Modulus (GPa) = 15.71144 56.16149 35.93647
# Shear Modulus (GPa) = -146.98458 24.64801 -61.16829
#
# Velocity S-wave (km/s) = -8.59894 3.52128 -5.54718
# Velocity P-wave (km/s) = 9.52288 6.69216 4.79063
#
# Compressibility (1/GPa) = 0.06364788
#
# Stress axis : x y z
#
# Youngs Moduli (GPa) = 117.63799 13.98966 128.83604
#
# Poissons Ratio (x) = 0.03606 0.37166
# Poissons Ratio (y) = 0.30318 0.84851
# Poissons Ratio (z) = 0.33936 0.09214
#
# Static dielectric constant tensor:
#      x y z
#    x 3.819000 0.000000 0.000000 
#    y 0.000000 3.086010 0.000000 
#    z 0.000000 0.000000 3.883960 
# 
# 
# High freq. dielectric constant tensor:
#      x y z
#    x 1.796720 0.000000 0.000000 
#    y 0.000000 1.721110 0.000000 
#    z 0.000000 0.000000 1.798780 
# 
# From -- ./inp_files/12967.got.cif
#   From: 2010.03.12/outbox.cif.g09.slc.cpg/sg51_7_cif.got.tgz:12967.got - 2010.04.16 13:43:02.
