data_PCOD8209303
_publ_section_title
;
Structure prediction by ZEFSAII (Michael W. Deem and Ramdas Pophale) SiO2 
 PCOD8209303
Probable space group: P M M A
;
_chemical_formula_sum "Si O2"
_cell_formula_units_Z 64
_cell_length_a 14.337504
_cell_length_b 9.187873
_cell_length_c 25.046241
_cell_angle_alpha 90.000000
_cell_angle_beta 90.000000
_cell_angle_gamma 90.000000
_cell_volume 3299.370528
_symmetry_space_group_name_H-M "P M M A"
_symmetry_group_IT_number 51
_symmetry_cell_setting 'orthorhombic'
loop_
_space_group_symop_operation_xyz
x,y,z
1/2-x,-y,z
1/2+x,-y,-z
-x,y,-z
-x,-y,-z
1/2+x,y,-z
1/2-x,y,z
x,-y,z
loop_
_atom_site_type_symbol
_atom_site_label
_atom_site_fract_x
_atom_site_fract_y
_atom_site_fract_z
Si Si1 0.357677 0.172106 0.779446
Si Si2 0.357210 0.832816 0.970773
Si Si3 0.353804 0.665538 0.078592
Si Si4 0.475596 0.172952 0.677318
Si Si5 0.546177 0.331162 0.122839
Si Si6 0.143380 0.669852 0.364687
Si Si7 0.606179 0.663799 0.516746
Si Si8 0.648383 0.838199 0.417853
O O1 0.250000 0.222176 0.774133
O O2 0.415453 0.224339 0.727874
O O3 0.405933 0.245183 0.829701
O O4 0.363327 0.000000 0.787112
O O5 0.250000 0.820083 0.952800
O O6 0.418082 0.731548 0.932935
O O7 0.391077 0.000000 0.967567
O O8 0.371299 0.777214 0.030723
O O9 0.250000 0.691954 0.103305
O O10 0.361369 0.500000 0.056626
O O11 0.433329 0.690407 0.123686
O O12 0.577908 0.245415 0.677441
O O13 0.423055 0.232240 0.624312
O O14 0.485108 0.000000 0.676851
O O15 0.573587 0.500000 0.127485
O O16 0.250000 0.700142 0.348350
O O17 0.118609 0.500000 0.361766
O O18 0.124305 0.730198 0.424584
O O19 0.500000 0.673392 0.500000
O O20 0.644536 0.500000 0.516523
O O21 0.661884 0.751583 0.472507
O O22 0.750000 0.843271 0.389930
O O23 0.613649 0.000000 0.432266
#
# Coordination Sequence:
#
# PCOD8209303 Si02
#       8
#     8   8   8   8   8   8   8   8
#     4  10  22  41  62  82 107 140 176 219 275 331
#     4  10  20  33  52  81 116 152 188 226 271 325
#     4   9  19  36  55  77 110 150 187 224 269 320
#     4  10  21  38  59  80 105 137 178 226 273 322
#     4  11  22  35  55  83 112 145 186 230 274 323
#     4  10  21  37  56  79 110 146 182 221 267 320
#     4  10  19  33  53  77 108 145 180 216 260 317
#     4  10  20  33  52  79 108 138 174 217 267 322
#
# _framework density 19.397639999999999
#
# number of rings (size 3 to 8) (size 9 to 14) (size 15 to 20)
#    0.000    2.000    1.250    2.250    0.000    8.750 
#    0.000    0.625    0.000    4.500    0.000    0.000 
#    0.000    0.000    0.000    0.000    0.000    0.000 
#
# Total GULP energy -793501.997124 kJ/mol
# GULP energy per Si atom -12398.468705 kJ/mol
# Density = 1.935349 g / cm^3
# Si number density = 19.397640 Si / 1000 Ang^3
#
#
#
# Elastic Constant Matrix: (Units=GPa)
#
#
# Indices 1 2 3 4 5 6 
#
# 1 136.0322 34.9432 59.8494 0.0000 0.0000 0.0000
# 2 34.9432 39.8101 27.5724 0.0000 0.0000 0.0000
# 3 59.8494 27.5724 75.2154 0.0000 0.0000 0.0000
# 4 0.0000 0.0000 0.0000 25.4727 0.0000 0.0000
# 5 0.0000 0.0000 0.0000 0.0000 31.8494 0.0000
# 6 0.0000 0.0000 0.0000 0.0000 0.0000 22.8355
#
#
#
# Elastic Compliance Matrix: (Units=1/GPa)
#
#
# Indices 1 2 3 4 5 6 
#
# 1 0.012089 -0.005293 -0.007679 0.000000 0.000000 0.000000
# 2 -0.005293 0.035984 -0.008980 0.000000 0.000000 0.000000
# 3 -0.007679 -0.008980 0.022698 0.000000 0.000000 0.000000
# 4 0.000000 0.000000 0.000000 0.039258 0.000000 0.000000
# 5 0.000000 0.000000 0.000000 0.000000 0.031398 0.000000
# 6 0.000000 0.000000 0.000000 0.000000 0.000000 0.043791
#
#
# Mechanical properties :
#
#
# Convention : Reuss Voigt Hill
#
# Bulk Modulus (GPa) = 37.21960 55.08751 46.15356
# Shear Modulus (GPa) = 21.00156 24.61102 22.80629
#
# Velocity S-wave (km/s) = 3.29399 3.56584 3.43260
# Velocity P-wave (km/s) = 5.80487 6.73901 6.28931
#
# Compressibility (1/GPa) = 0.02686756
#
# Stress axis : x y z
#
# Youngs Moduli (GPa) = 82.71668 27.79000 44.05768
#
# Poissons Ratio (x) = 0.14708 0.33834
# Poissons Ratio (y) = 0.43779 0.39562
# Poissons Ratio (z) = 0.63522 0.24954
#
# Static dielectric constant tensor:
#      x y z
#    x 3.798650 0.000000 0.000000 
#    y 0.000000 3.482440 0.000000 
#    z 0.000000 0.000000 3.334570 
# 
# 
# High freq. dielectric constant tensor:
#      x y z
#    x 1.773900 0.000000 0.000000 
#    y 0.000000 1.748470 0.000000 
#    z 0.000000 0.000000 1.729200 
# 
# From -- ./inp_files/35600.got.cif
#   From: 2010.03.12/outbox.cif.g09.slc.cpg/sg51_18_cif.got.tgz:35600.got - 2010.04.16 13:43:02.
