data_PCOD8209261
_publ_section_title
;
Structure prediction by ZEFSAII (Michael W. Deem and Ramdas Pophale) SiO2 
 PCOD8209261
Probable space group: P M M A
;
_chemical_formula_sum "Si O2"
_cell_formula_units_Z 56
_cell_length_a 14.199438
_cell_length_b 9.674144
_cell_length_c 22.725948
_cell_angle_alpha 90.000000
_cell_angle_beta 90.000000
_cell_angle_gamma 90.000000
_cell_volume 3121.804570
_symmetry_space_group_name_H-M "P M M A"
_symmetry_group_IT_number 51
_symmetry_cell_setting 'orthorhombic'
loop_
_space_group_symop_operation_xyz
x,y,z
1/2-x,-y,z
1/2+x,-y,-z
-x,y,-z
-x,-y,-z
1/2+x,y,-z
1/2-x,y,z
x,-y,z
loop_
_atom_site_type_symbol
_atom_site_label
_atom_site_fract_x
_atom_site_fract_y
_atom_site_fract_z
Si Si1 0.146486 0.842729 0.634175
Si Si2 0.045995 0.336116 0.088959
Si Si3 0.897764 0.342503 0.476865
Si Si4 0.541786 0.159058 0.688686
Si Si5 0.351739 0.346238 0.397052
Si Si6 0.860806 0.837338 0.808135
Si Si7 0.855357 0.337091 0.031585
O O1 0.250000 0.814834 0.661328
O O2 0.133541 0.750629 0.576889
O O3 0.070956 0.814643 0.686508
O O4 0.135914 0.000000 0.612445
O O5 0.052962 0.500000 0.101608
O O6 0.087941 0.249673 0.142054
O O7 0.936214 0.291263 0.078323
O O8 0.109351 0.294074 0.033023
O O9 0.891809 0.500000 0.454502
O O10 0.833418 0.316550 0.533971
O O11 0.000000 0.302383 0.500000
O O12 0.579544 0.236992 0.631722
O O13 0.588703 0.214045 0.748397
O O14 0.569192 0.000000 0.681146
O O15 0.250000 0.337115 0.365749
O O16 0.395787 0.500000 0.389211
O O17 0.750000 0.802360 0.805427
O O18 0.877299 0.000000 0.819211
O O19 0.750000 0.273481 0.044207
O O20 0.847539 0.500000 0.034316
#
# Coordination Sequence:
#
# PCOD8209261 Si02
#       7
#     8   8   8   8   8   8   8
#     4  10  21  36  54  75  97 126 167 210 249 294
#     4   9  17  30  52  80 105 135 175 211 244 290
#     4  10  19  33  53  75 101 130 157 193 248 309
#     4  10  21  37  54  70  95 130 168 206 246 295
#     4  10  20  33  50  74 101 126 156 198 247 297
#     4  10  21  36  52  72 101 135 167 205 257 305
#     4   8  14  27  49  78 111 141 168 204 250 294
#
# _framework density 17.938341999999999
#
# number of rings (size 3 to 8) (size 9 to 14) (size 15 to 20)
#    0.000    2.429    1.429    2.143    0.000    4.000 
#    0.000    2.143    0.000    2.143    0.000    0.000 
#    0.000    0.000    0.000    0.000    0.000    0.000 
#
# Total GULP energy -693901.258616 kJ/mol
# GULP energy per Si atom -12391.093904 kJ/mol
# Density = 1.789751 g / cm^3
# Si number density = 17.938342 Si / 1000 Ang^3
#
#
#
# Elastic Constant Matrix: (Units=GPa)
#
#
# Indices 1 2 3 4 5 6 
#
# 1 160.5940 42.2687 65.3161 0.0000 0.0000 0.0000
# 2 42.2687 46.7312 38.3524 0.0000 0.0000 0.0000
# 3 65.3161 38.3524 88.1250 0.0000 0.0000 0.0000
# 4 0.0000 0.0000 0.0000 30.5663 0.0000 0.0000
# 5 0.0000 0.0000 0.0000 0.0000 42.9367 0.0000
# 6 0.0000 0.0000 0.0000 0.0000 0.0000 21.4015
#
#
#
# Elastic Compliance Matrix: (Units=1/GPa)
#
#
# Indices 1 2 3 4 5 6 
#
# 1 0.009451 -0.004355 -0.005110 0.000000 0.000000 0.000000
# 2 -0.004355 0.035296 -0.012133 0.000000 0.000000 0.000000
# 3 -0.005110 -0.012133 0.020415 0.000000 0.000000 0.000000
# 4 0.000000 0.000000 0.000000 0.032716 0.000000 0.000000
# 5 0.000000 0.000000 0.000000 0.000000 0.023290 0.000000
# 6 0.000000 0.000000 0.000000 0.000000 0.000000 0.046726
#
#
# Mechanical properties :
#
#
# Convention : Reuss Voigt Hill
#
# Bulk Modulus (GPa) = 45.52389 65.25828 55.39109
# Shear Modulus (GPa) = 22.89255 28.94843 25.92049
#
# Velocity S-wave (km/s) = 3.57624 4.02154 3.80541
# Velocity P-wave (km/s) = 6.51811 7.61721 7.08899
#
# Compressibility (1/GPa) = 0.02196649
#
# Stress axis : x y z
#
# Youngs Moduli (GPa) = 105.80433 28.33195 48.98360
#
# Poissons Ratio (x) = 0.12339 0.25029
# Poissons Ratio (y) = 0.46081 0.59431
# Poissons Ratio (z) = 0.54063 0.34375
#
# Static dielectric constant tensor:
#      x y z
#    x 4.061850 0.000000 0.000000 
#    y 0.000000 3.125600 0.000000 
#    z 0.000000 0.000000 3.189180 
# 
# 
# High freq. dielectric constant tensor:
#      x y z
#    x 1.717590 0.000000 0.000000 
#    y 0.000000 1.674970 0.000000 
#    z 0.000000 0.000000 1.668930 
# 
# From -- ./inp_files/33450.got.cif
#   From: 2010.03.12/outbox.cif.g09.slc.cpg/sg51_17_cif.got.tgz:33450.got - 2010.04.16 13:43:02.
