data_PCOD8209684
_publ_section_title
;
Structure prediction by ZEFSAII (Michael W. Deem and Ramdas Pophale) SiO2 
 PCOD8209684
Probable space group: P M M A
;
_chemical_formula_sum "Si O2"
_cell_formula_units_Z 64
_cell_length_a 8.794910
_cell_length_b 15.261478
_cell_length_c 25.205658
_cell_angle_alpha 90.000000
_cell_angle_beta 90.000000
_cell_angle_gamma 90.000000
_cell_volume 3383.187238
_symmetry_space_group_name_H-M "P M M A"
_symmetry_group_IT_number 51
_symmetry_cell_setting 'orthorhombic'
loop_
_space_group_symop_operation_xyz
x,y,z
1/2-x,-y,z
1/2+x,-y,-z
-x,y,-z
-x,-y,-z
1/2+x,y,-z
1/2-x,y,z
x,-y,z
loop_
_atom_site_type_symbol
_atom_site_label
_atom_site_fract_x
_atom_site_fract_y
_atom_site_fract_z
Si Si1 0.423603 0.400994 0.638475
Si Si2 0.571816 0.727374 0.555369
Si Si3 0.572111 0.853892 0.288594
Si Si4 0.573974 0.095503 0.816522
Si Si5 0.070652 0.282071 0.149919
Si Si6 0.429880 0.400057 0.055378
Si Si7 0.075529 0.095533 0.392026
Si Si8 0.928896 0.325312 0.733614
O O1 0.250000 0.368966 0.638147
O O2 0.437945 0.500000 0.617478
O O3 0.519974 0.338087 0.601159
O O4 0.486970 0.399077 0.698956
O O5 0.500000 0.698407 0.500000
O O6 0.750000 0.719001 0.549342
O O7 0.521218 0.827054 0.568830
O O8 0.750000 0.831923 0.286902
O O9 0.526555 0.907545 0.236287
O O10 0.530980 0.909278 0.340336
O O11 0.472282 0.766437 0.293052
O O12 0.750000 0.109550 0.800289
O O13 0.523779 0.178439 0.853211
O O14 0.552297 0.000000 0.845148
O O15 0.250000 0.291752 0.147179
O O16 0.000607 0.336522 0.100896
O O17 0.013032 0.324591 0.205255
O O18 0.250000 0.391350 0.051287
O O19 0.477854 0.500000 0.068414
O O20 0.500000 0.368764 0.000000
O O21 0.250000 0.112308 0.374741
O O22 0.059248 0.000000 0.420186
O O23 0.750000 0.341198 0.730772
#
# Coordination Sequence:
#
# PCOD8209684 Si02
#       8
#     8   8   8   8   8   8   8   8
#     4  11  24  41  61  86 115 144 176 220 273 329
#     4  11  24  42  64  84 108 143 182 228 275 323
#     4  11  20  30  49  77 110 144 178 217 263 315
#     4   9  17  30  48  70 100 139 180 221 262 309
#     4   8  16  30  50  76 104 136 178 220 261 313
#     4   9  17  31  51  74 101 134 174 221 268 315
#     4  10  21  37  57  81 109 143 181 220 265 320
#     4  10  19  34  56  81 110 144 181 219 265 321
#
# _framework density 18.917072999999998
#
# number of rings (size 3 to 8) (size 9 to 14) (size 15 to 20)
#    0.000    2.125    1.250    3.375    0.000    4.500 
#    0.000    4.375    0.000    1.875    0.000    0.000 
#    0.000    0.000    0.000    0.000    0.000    0.000 
#
# Total GULP energy -793343.689969 kJ/mol
# GULP energy per Si atom -12395.995156 kJ/mol
# Density = 1.887402 g / cm^3
# Si number density = 18.917073 Si / 1000 Ang^3
#
#
#
# Elastic Constant Matrix: (Units=GPa)
#
#
# Indices 1 2 3 4 5 6 
#
# 1 51.4878 27.4675 27.3142 0.0000 0.0000 0.0000
# 2 27.4675 108.5981 61.7463 0.0000 0.0000 0.0000
# 3 27.3142 61.7463 114.2962 0.0000 0.0000 0.0000
# 4 0.0000 0.0000 0.0000 18.0873 0.0000 0.0000
# 5 0.0000 0.0000 0.0000 0.0000 24.1478 0.0000
# 6 0.0000 0.0000 0.0000 0.0000 0.0000 19.8386
#
#
#
# Elastic Compliance Matrix: (Units=1/GPa)
#
#
# Indices 1 2 3 4 5 6 
#
# 1 0.023357 -0.003946 -0.003450 0.000000 0.000000 0.000000
# 2 -0.003946 0.013957 -0.006597 0.000000 0.000000 0.000000
# 3 -0.003450 -0.006597 0.013138 0.000000 0.000000 0.000000
# 4 0.000000 0.000000 0.000000 0.055287 0.000000 0.000000
# 5 0.000000 0.000000 0.000000 0.000000 0.041412 0.000000
# 6 0.000000 0.000000 0.000000 0.000000 0.000000 0.050407
#
#
# Mechanical properties :
#
#
# Convention : Reuss Voigt Hill
#
# Bulk Modulus (GPa) = 44.51213 56.38200 50.44707
# Shear Modulus (GPa) = 21.45612 22.93834 22.19723
#
# Velocity S-wave (km/s) = 3.37147 3.48598 3.42920
# Velocity P-wave (km/s) = 6.22390 6.78766 6.51188
#
# Compressibility (1/GPa) = 0.02246578
#
# Stress axis : x y z
#
# Youngs Moduli (GPa) = 42.81281 71.64692 76.11694
#
# Poissons Ratio (x) = 0.28273 0.26261
# Poissons Ratio (y) = 0.16894 0.50216
# Poissons Ratio (z) = 0.14771 0.47267
#
# Static dielectric constant tensor:
#      x y z
#    x 3.325630 0.000000 0.000000 
#    y 0.000000 3.642010 0.000000 
#    z 0.000000 0.000000 3.417610 
# 
# 
# High freq. dielectric constant tensor:
#      x y z
#    x 1.722750 0.000000 0.000000 
#    y 0.000000 1.741850 0.000000 
#    z 0.000000 0.000000 1.708690 
# 
# From -- ./inp_files/34982.got.cif
#   From: 2010.03.12/outbox.cif.g09.slc.cpg/sg51_18_cif.got.tgz:34982.got - 2010.04.16 13:43:02.
