data_PCOD8209297
_publ_section_title
;
Structure prediction by ZEFSAII (Michael W. Deem and Ramdas Pophale) SiO2 
 PCOD8209297
Probable space group: P M M A
;
_chemical_formula_sum "Si O2"
_cell_formula_units_Z 56
_cell_length_a 14.335947
_cell_length_b 13.749896
_cell_length_c 15.707056
_cell_angle_alpha 90.000000
_cell_angle_beta 90.000000
_cell_angle_gamma 90.000000
_cell_volume 3096.140014
_symmetry_space_group_name_H-M "P M M A"
_symmetry_group_IT_number 51
_symmetry_cell_setting 'orthorhombic'
loop_
_space_group_symop_operation_xyz
x,y,z
1/2-x,-y,z
1/2+x,-y,-z
-x,y,-z
-x,-y,-z
1/2+x,y,-z
1/2-x,y,z
x,-y,z
loop_
_atom_site_type_symbol
_atom_site_label
_atom_site_fract_x
_atom_site_fract_y
_atom_site_fract_z
Si Si1 0.046165 0.613580 0.686719
Si Si2 0.861260 0.235270 0.206283
Si Si3 0.856538 0.109978 0.768310
Si Si4 0.145775 0.895532 0.644392
Si Si5 0.516327 0.110673 0.098846
Si Si6 0.647277 0.295159 0.659106
Si Si7 0.601184 0.734404 0.473578
O O1 0.063709 0.500000 0.690826
O O2 0.096514 0.659430 0.769868
O O3 0.094952 0.652035 0.599768
O O4 0.935002 0.634091 0.690459
O O5 0.750000 0.242727 0.200908
O O6 0.903269 0.164170 0.280044
O O7 0.902684 0.188835 0.120685
O O8 0.750000 0.120223 0.800559
O O9 0.875750 0.185508 0.691127
O O10 0.922110 0.134277 0.848899
O O11 0.875027 0.000000 0.734545
O O12 0.250000 0.914886 0.675420
O O13 0.150113 0.831953 0.559267
O O14 0.095450 0.000000 0.630068
O O15 0.549960 0.000000 0.117460
O O16 0.500000 0.125868 0.000000
O O17 0.750000 0.328134 0.693603
O O18 0.655259 0.302126 0.556598
O O19 0.500000 0.769002 0.500000
#
# Coordination Sequence:
#
# PCOD8209297 Si02
#       7
#     8   8   8   8   8   8   8
#     4  10  21  38  56  76 104 139 182 235 284 321
#     4  10  20  36  55  78 107 142 181 221 268 321
#     4   9  18  33  53  78 111 148 180 211 254 316
#     4   9  17  29  45  66  97 135 172 212 255 303
#     4  10  20  34  56  86 117 145 174 210 259 319
#     4  10  19  33  53  77 106 143 183 223 268 322
#     4   9  19  31  45  71 103 136 176 221 265 313
#
# _framework density 18.087038
#
# number of rings (size 3 to 8) (size 9 to 14) (size 15 to 20)
#    0.000    2.429    1.429    0.857    0.000    6.000 
#    0.000    2.857    0.000    0.429    0.000    0.000 
#    0.000    0.000    0.000    0.000    0.000    0.000 
#
# Total GULP energy -693971.262301 kJ/mol
# GULP energy per Si atom -12392.343970 kJ/mol
# Density = 1.804587 g / cm^3
# Si number density = 18.087038 Si / 1000 Ang^3
#
#
#
# Elastic Constant Matrix: (Units=GPa)
#
#
# Indices 1 2 3 4 5 6 
#
# 1 89.7575 43.5682 34.1927 0.0000 0.0000 0.0000
# 2 43.5682 132.5074 43.8723 0.0000 0.0000 0.0000
# 3 34.1927 43.8723 77.5826 0.0000 0.0000 0.0000
# 4 0.0000 0.0000 0.0000 16.5497 0.0000 0.0000
# 5 0.0000 0.0000 0.0000 0.0000 17.7063 0.0000
# 6 0.0000 0.0000 0.0000 0.0000 0.0000 19.0988
#
#
#
# Elastic Compliance Matrix: (Units=1/GPa)
#
#
# Indices 1 2 3 4 5 6 
#
# 1 0.014443 -0.003250 -0.004528 0.000000 0.000000 0.000000
# 2 -0.003250 0.010016 -0.004232 0.000000 0.000000 0.000000
# 3 -0.004528 -0.004232 0.017278 0.000000 0.000000 0.000000
# 4 0.000000 0.000000 0.000000 0.060424 0.000000 0.000000
# 5 0.000000 0.000000 0.000000 0.000000 0.056477 0.000000
# 6 0.000000 0.000000 0.000000 0.000000 0.000000 0.052359
#
#
# Mechanical properties :
#
#
# Convention : Reuss Voigt Hill
#
# Bulk Modulus (GPa) = 56.43719 60.34599 58.39159
# Shear Modulus (GPa) = 20.75345 22.55193 21.65269
#
# Velocity S-wave (km/s) = 3.39104 3.53492 3.46372
# Velocity P-wave (km/s) = 6.82664 7.07796 6.95343
#
# Compressibility (1/GPa) = 0.01771881
#
# Stress axis : x y z
#
# Youngs Moduli (GPa) = 69.23547 99.83582 57.87649
#
# Poissons Ratio (x) = 0.32445 0.26206
# Poissons Ratio (y) = 0.22500 0.24493
# Poissons Ratio (z) = 0.31349 0.42250
#
# Static dielectric constant tensor:
#      x y z
#    x 3.430100 0.000000 0.000000 
#    y 0.000000 3.272960 0.000000 
#    z 0.000000 0.000000 3.198500 
# 
# 
# High freq. dielectric constant tensor:
#      x y z
#    x 1.711670 0.000000 0.000000 
#    y 0.000000 1.682640 0.000000 
#    z 0.000000 0.000000 1.670590 
# 
# From -- ./inp_files/24152.got.cif
#   From: 2010.03.12/outbox.cif.g09.slc.cpg/sg51_13_cif.got.tgz:24152.got - 2010.04.16 13:43:02.
