data_PCOD8209267
_publ_section_title
;
Structure prediction by ZEFSAII (Michael W. Deem and Ramdas Pophale) SiO2 
 PCOD8209267
Probable space group: P M M A
;
_chemical_formula_sum "Si O2"
_cell_formula_units_Z 40
_cell_length_a 19.267752
_cell_length_b 7.760123
_cell_length_c 14.475766
_cell_angle_alpha 90.000000
_cell_angle_beta 90.000000
_cell_angle_gamma 90.000000
_cell_volume 2164.418348
_symmetry_space_group_name_H-M "P M M A"
_symmetry_group_IT_number 51
_symmetry_cell_setting 'orthorhombic'
loop_
_space_group_symop_operation_xyz
x,y,z
1/2-x,-y,z
1/2+x,-y,-z
-x,y,-z
-x,-y,-z
1/2+x,y,-z
1/2-x,y,z
x,-y,z
loop_
_atom_site_type_symbol
_atom_site_label
_atom_site_fract_x
_atom_site_fract_y
_atom_site_fract_z
Si Si1 0.917909 0.000000 0.897019
Si Si2 0.081798 0.300488 0.763955
Si Si3 0.828266 0.297981 0.410115
Si Si4 0.328851 0.196167 0.389819
Si Si5 0.921226 0.690666 0.770262
Si Si6 0.917509 0.000000 0.102666
O O1 0.892172 0.828938 0.843612
O O2 0.000124 0.000000 0.904060
O O3 0.885093 0.000000 0.999682
O O4 0.098305 0.500000 0.790026
O O5 0.121830 0.240278 0.672450
O O6 0.000766 0.270588 0.744236
O O7 0.107311 0.174763 0.846104
O O8 0.750000 0.238152 0.386041
O O9 0.831886 0.500000 0.425862
O O10 0.854450 0.209973 0.504450
O O11 0.250000 0.266139 0.382580
O O12 0.377612 0.307529 0.323879
O O13 0.333704 0.000000 0.356845
O O14 0.914644 0.500000 0.814576
#
# Coordination Sequence:
#
# PCOD8209267 Si02
#       6
#     4   8   8   8   8   4
#     4   9  18  34  50  77 102 126 171 207 252 305
#     4   9  19  33  51  78 103 130 170 208 248 296
#     4   9  18  33  51  72 102 137 170 203 242 293
#     4  10  20  33  50  74 103 134 171 207 242 297
#     4  10  19  33  53  75 103 133 165 209 253 295
#     4   9  18  32  54  73 102 134 159 211 258 297
#
# _framework density 18.480716000000001
#
# number of rings (size 3 to 8) (size 9 to 14) (size 15 to 20)
#    0.000    2.600    1.000    0.600    1.400    2.800 
#    0.000    8.000    0.000    2.400    0.000    2.800 
#    0.000    0.000    0.000    0.000    0.000    0.000 
#
# Total GULP energy -495959.626255 kJ/mol
# GULP energy per Si atom -12398.990656 kJ/mol
# Density = 1.843865 g / cm^3
# Si number density = 18.480716 Si / 1000 Ang^3
#
#
#
# Elastic Constant Matrix: (Units=GPa)
#
#
# Indices 1 2 3 4 5 6 
#
# 1 47.8539 30.2747 52.3686 0.0000 0.0000 0.0000
# 2 30.2747 103.4437 66.3978 0.0000 0.0000 0.0000
# 3 52.3686 66.3978 147.4656 0.0000 0.0000 0.0000
# 4 0.0000 0.0000 0.0000 26.4648 0.0000 0.0000
# 5 0.0000 0.0000 0.0000 0.0000 5.3636 0.0000
# 6 0.0000 0.0000 0.0000 0.0000 0.0000 17.2894
#
#
#
# Elastic Compliance Matrix: (Units=1/GPa)
#
#
# Indices 1 2 3 4 5 6 
#
# 1 0.034908 -0.003178 -0.010966 0.000000 0.000000 0.000000
# 2 -0.003178 0.013886 -0.005124 0.000000 0.000000 0.000000
# 3 -0.010966 -0.005124 0.012982 0.000000 0.000000 0.000000
# 4 0.000000 0.000000 0.000000 0.037786 0.000000 0.000000
# 5 0.000000 0.000000 0.000000 0.000000 0.186443 0.000000
# 6 0.000000 0.000000 0.000000 0.000000 0.000000 0.057839
#
#
# Mechanical properties :
#
#
# Convention : Reuss Voigt Hill
#
# Bulk Modulus (GPa) = 43.02648 66.31617 54.67132
# Shear Modulus (GPa) = 12.81637 19.80502 16.31070
#
# Velocity S-wave (km/s) = 2.63630 3.27717 2.97405
# Velocity P-wave (km/s) = 5.70956 7.09096 6.43742
#
# Compressibility (1/GPa) = 0.02324150
#
# Stress axis : x y z
#
# Youngs Moduli (GPa) = 28.64703 72.01526 77.02696
#
# Poissons Ratio (x) = 0.22885 0.84466
# Poissons Ratio (y) = 0.09103 0.39467
# Poissons Ratio (z) = 0.31414 0.36899
#
# Static dielectric constant tensor:
#      x y z
#    x 3.198940 0.000000 0.000000 
#    y 0.000000 3.508030 0.000000 
#    z 0.000000 0.000000 3.450180 
# 
# 
# High freq. dielectric constant tensor:
#      x y z
#    x 1.685740 0.000000 0.000000 
#    y 0.000000 1.729580 0.000000 
#    z 0.000000 0.000000 1.707950 
# 
# From -- ./inp_files/17984.got.cif
#   From: 2010.03.12/outbox.cif.g09.slc.cpg/sg51_9_cif.got.tgz:17984.got - 2010.04.16 13:43:02.
