data_PCOD8209756
_publ_section_title
;
Structure prediction by ZEFSAII (Michael W. Deem and Ramdas Pophale) SiO2 
 PCOD8209756
Probable space group: P M M A
;
_chemical_formula_sum "Si O2"
_cell_formula_units_Z 48
_cell_length_a 23.538465
_cell_length_b 8.742392
_cell_length_c 12.643278
_cell_angle_alpha 90.000000
_cell_angle_beta 90.000000
_cell_angle_gamma 90.000000
_cell_volume 2601.765205
_symmetry_space_group_name_H-M "P M M A"
_symmetry_group_IT_number 51
_symmetry_cell_setting 'orthorhombic'
loop_
_space_group_symop_operation_xyz
x,y,z
1/2-x,-y,z
1/2+x,-y,-z
-x,y,-z
-x,-y,-z
1/2+x,y,-z
1/2-x,y,z
x,-y,z
loop_
_atom_site_type_symbol
_atom_site_label
_atom_site_fract_x
_atom_site_fract_y
_atom_site_fract_z
Si Si1 0.313113 0.181786 0.500958
Si Si2 0.184889 0.678302 0.882443
Si Si3 0.115068 0.819647 0.699032
Si Si4 0.814850 0.176346 0.896890
Si Si5 0.613411 0.180795 0.694301
Si Si6 0.000817 0.319144 0.620899
O O1 0.250000 0.252242 0.498415
O O2 0.343580 0.240192 0.606726
O O3 0.347451 0.243670 0.400423
O O4 0.310061 0.000000 0.498422
O O5 0.250000 0.724389 0.856681
O O6 0.174452 0.500000 0.863617
O O7 0.142519 0.774485 0.810097
O O8 0.170598 0.718705 0.003227
O O9 0.054694 0.740676 0.684893
O O10 0.106244 0.000000 0.693894
O O11 0.750000 0.201262 0.858677
O O12 0.856767 0.227433 0.803579
O O13 0.824637 0.000000 0.928154
O O14 0.552965 0.261368 0.686690
O O15 0.604973 0.000000 0.685269
O O16 0.001567 0.500000 0.619734
O O17 0.000000 0.255302 0.500000
#
# Coordination Sequence:
#
# PCOD8209756 Si02
#       6
#     8   8   8   8   8   8
#     4   9  17  29  50  82 113 138 170 220 278 329
#     4  10  21  37  57  82 116 153 185 223 276 335
#     4  11  21  35  58  83 110 144 190 237 276 325
#     4   9  18  34  58  86 114 145 183 228 276 328
#     4  10  19  34  57  83 111 143 185 230 274 326
#     4  11  23  38  55  77 112 153 190 227 276 336
#
# _framework density 18.449012
#
# number of rings (size 3 to 8) (size 9 to 14) (size 15 to 20)
#    0.000    2.000    1.667    2.500    0.000    5.000 
#    0.000    0.833    0.000    7.500    0.000    0.000 
#    0.000    0.000    0.000    0.000    0.000    0.000 
#
# Total GULP energy -595369.702358 kJ/mol
# GULP energy per Si atom -12403.535466 kJ/mol
# Density = 1.840702 g / cm^3
# Si number density = 18.449012 Si / 1000 Ang^3
#
#
#
# Elastic Constant Matrix: (Units=GPa)
#
#
# Indices 1 2 3 4 5 6 
#
# 1 149.1045 25.2860 66.1852 0.0000 0.0000 0.0000
# 2 25.2860 31.2305 22.6915 0.0000 0.0000 0.0000
# 3 66.1852 22.6915 106.3118 0.0000 0.0000 0.0000
# 4 0.0000 0.0000 0.0000 23.7466 0.0000 0.0000
# 5 0.0000 0.0000 0.0000 0.0000 27.5745 0.0000
# 6 0.0000 0.0000 0.0000 0.0000 0.0000 18.0360
#
#
#
# Elastic Compliance Matrix: (Units=1/GPa)
#
#
# Indices 1 2 3 4 5 6 
#
# 1 0.009692 -0.004099 -0.005159 0.000000 0.000000 0.000000
# 2 -0.004099 0.039631 -0.005907 0.000000 0.000000 0.000000
# 3 -0.005159 -0.005907 0.013879 0.000000 0.000000 0.000000
# 4 0.000000 0.000000 0.000000 0.042111 0.000000 0.000000
# 5 0.000000 0.000000 0.000000 0.000000 0.036265 0.000000
# 6 0.000000 0.000000 0.000000 0.000000 0.000000 0.055445
#
#
# Mechanical properties :
#
#
# Convention : Reuss Voigt Hill
#
# Bulk Modulus (GPa) = 30.42133 57.21914 43.82023
# Shear Modulus (GPa) = 20.98117 25.37036 23.17576
#
# Velocity S-wave (km/s) = 3.37597 3.71234 3.54815
# Velocity P-wave (km/s) = 5.63218 7.03259 6.37098
#
# Compressibility (1/GPa) = 0.03287167
#
# Stress axis : x y z
#
# Youngs Moduli (GPa) = 103.18105 25.23308 72.05237
#
# Poissons Ratio (x) = 0.10342 0.37170
# Poissons Ratio (y) = 0.42290 0.42563
# Poissons Ratio (z) = 0.53229 0.14906
#
# Static dielectric constant tensor:
#      x y z
#    x 3.459250 0.000000 0.000000 
#    y 0.000000 3.170680 0.000000 
#    z 0.000000 0.000000 3.383100 
# 
# 
# High freq. dielectric constant tensor:
#      x y z
#    x 1.719920 0.000000 0.000000 
#    y 0.000000 1.700570 0.000000 
#    z 0.000000 0.000000 1.716330 
# 
# From -- ./inp_files/18552.got.cif
#   From: 2010.03.12/outbox.cif.g09.slc.cpg/sg51_10_cif.got.tgz:18552.got - 2010.04.16 13:43:02.
