data_PCOD8209602
_publ_section_title
;
Structure prediction by ZEFSAII (Michael W. Deem and Ramdas Pophale) SiO2 
 PCOD8209602
Probable space group: P M M A
;
_chemical_formula_sum "Si O2"
_cell_formula_units_Z 64
_cell_length_a 18.921499
_cell_length_b 20.019995
_cell_length_c 9.367764
_cell_angle_alpha 90.000000
_cell_angle_beta 90.000000
_cell_angle_gamma 90.000000
_cell_volume 3548.586900
_symmetry_space_group_name_H-M "P M M A"
_symmetry_group_IT_number 51
_symmetry_cell_setting 'orthorhombic'
loop_
_space_group_symop_operation_xyz
x,y,z
1/2-x,-y,z
1/2+x,-y,-z
-x,y,-z
-x,-y,-z
1/2+x,y,-z
1/2-x,y,z
x,-y,z
loop_
_atom_site_type_symbol
_atom_site_label
_atom_site_fract_x
_atom_site_fract_y
_atom_site_fract_z
Si Si1 0.032550 0.076610 0.152939
Si Si2 0.829174 0.689103 0.994208
Si Si3 0.829744 0.810216 0.209132
Si Si4 0.328388 0.076028 0.011577
Si Si5 0.026930 0.577358 0.652743
Si Si6 0.474248 0.191444 0.660059
Si Si7 0.171439 0.423837 0.782957
Si Si8 0.033153 0.311788 0.155428
O O1 0.000919 0.121460 0.277338
O O2 0.016237 0.000000 0.192762
O O3 0.116706 0.090558 0.139323
O O4 0.000000 0.095803 0.000000
O O5 0.750000 0.690932 0.931983
O O6 0.881987 0.692569 0.860227
O O7 0.842541 0.750529 0.099363
O O8 0.844125 0.621105 0.079805
O O9 0.750000 0.806794 0.273646
O O10 0.842703 0.879360 0.126927
O O11 0.888424 0.805248 0.333748
O O12 0.250000 0.089752 0.073383
O O13 0.337631 0.000000 0.958083
O O14 0.007262 0.500000 0.674442
O O15 0.111828 0.589369 0.662524
O O16 0.000000 0.603462 0.500000
O O17 0.987240 0.617613 0.776040
O O18 0.500000 0.198191 0.500000
O O19 0.506893 0.251788 0.748008
O O20 0.250000 0.407646 0.719897
O O21 0.167306 0.500000 0.836221
O O22 0.000000 0.305211 0.000000
#
# Coordination Sequence:
#
# PCOD8209602 Si02
#       8
#     8   8   8   8   8   8   8   8
#     4  10  19  34  57  81 108 139 179 226 269 314
#     4  10  20  34  54  82 108 134 175 228 274 312
#     4  10  19  34  54  76 105 141 180 219 263 321
#     4   9  17  30  53  83 108 135 176 225 271 313
#     4  10  21  36  54  81 114 145 180 220 266 322
#     4  12  24  37  54  81 113 146 180 221 269 324
#     4   9  17  31  52  77 106 141 179 217 263 321
#     4  12  21  36  59  82 105 140 180 228 271 313
#
# _framework density 18.035349
#
# number of rings (size 3 to 8) (size 9 to 14) (size 15 to 20)
#    0.000    1.750    3.750    1.500    0.000    1.000 
#    0.000    1.875    0.000    0.750    0.000    0.000 
#    0.000    0.000    0.000    0.000    0.000    0.000 
#
# Total GULP energy -793516.600315 kJ/mol
# GULP energy per Si atom -12398.696880 kJ/mol
# Density = 1.799430 g / cm^3
# Si number density = 18.035349 Si / 1000 Ang^3
#
#
#
# Elastic Constant Matrix: (Units=GPa)
#
#
# Indices 1 2 3 4 5 6 
#
# 1 162.8898 47.8793 65.9594 0.0000 0.0000 0.0000
# 2 47.8793 90.4307 47.3388 0.0000 0.0000 0.0000
# 3 65.9594 47.3388 103.3266 0.0000 0.0000 0.0000
# 4 0.0000 0.0000 0.0000 21.2219 0.0000 0.0000
# 5 0.0000 0.0000 0.0000 0.0000 26.1040 0.0000
# 6 0.0000 0.0000 0.0000 0.0000 0.0000 24.6810
#
#
#
# Elastic Compliance Matrix: (Units=1/GPa)
#
#
# Indices 1 2 3 4 5 6 
#
# 1 0.008602 -0.002210 -0.004479 0.000000 0.000000 0.000000
# 2 -0.002210 0.015115 -0.005514 0.000000 0.000000 0.000000
# 3 -0.004479 -0.005514 0.015063 0.000000 0.000000 0.000000
# 4 0.000000 0.000000 0.000000 0.047121 0.000000 0.000000
# 5 0.000000 0.000000 0.000000 0.000000 0.038308 0.000000
# 6 0.000000 0.000000 0.000000 0.000000 0.000000 0.040517
#
#
# Mechanical properties :
#
#
# Convention : Reuss Voigt Hill
#
# Bulk Modulus (GPa) = 69.56640 75.44468 72.50554
# Shear Modulus (GPa) = 25.78324 27.43268 26.60796
#
# Velocity S-wave (km/s) = 3.78510 3.90430 3.84516
# Velocity P-wave (km/s) = 7.59991 7.88968 7.74615
#
# Compressibility (1/GPa) = 0.01437476
#
# Stress axis : x y z
#
# Youngs Moduli (GPa) = 116.24706 66.16041 66.38595
#
# Poissons Ratio (x) = 0.14621 0.29734
# Poissons Ratio (y) = 0.25690 0.36605
# Poissons Ratio (z) = 0.52066 0.36481
#
# Static dielectric constant tensor:
#      x y z
#    x 3.886000 0.000000 0.000000 
#    y 0.000000 3.545500 0.000000 
#    z 0.000000 0.000000 3.000590 
# 
# 
# High freq. dielectric constant tensor:
#      x y z
#    x 1.722110 0.000000 0.000000 
#    y 0.000000 1.719390 0.000000 
#    z 0.000000 0.000000 1.642330 
# 
# From -- ./inp_files/10077.got.cif
#   From: 2010.03.12/outbox.cif.g09.slc.cpg/sg51_6_cif.got.tgz:10077.got - 2010.04.16 13:43:02.
