data_PCOD8209361
_publ_section_title
;
Structure prediction by ZEFSAII (Michael W. Deem and Ramdas Pophale) SiO2 
 PCOD8209361
Probable space group: P M M A
;
_chemical_formula_sum "Si O2"
_cell_formula_units_Z 32
_cell_length_a 16.462612
_cell_length_b 8.390390
_cell_length_c 11.409045
_cell_angle_alpha 90.000000
_cell_angle_beta 90.000000
_cell_angle_gamma 90.000000
_cell_volume 1575.905545
_symmetry_space_group_name_H-M "P M M A"
_symmetry_group_IT_number 51
_symmetry_cell_setting 'orthorhombic'
loop_
_space_group_symop_operation_xyz
x,y,z
1/2-x,-y,z
1/2+x,-y,-z
-x,y,-z
-x,-y,-z
1/2+x,y,-z
1/2-x,y,z
x,-y,z
loop_
_atom_site_type_symbol
_atom_site_label
_atom_site_fract_x
_atom_site_fract_y
_atom_site_fract_z
Si Si1 0.579106 0.688871 0.070927
Si Si2 0.547854 0.315794 0.335532
Si Si3 0.250000 0.812142 0.279150
Si Si4 0.250000 0.684917 0.025170
Si Si5 0.609206 0.183276 0.552976
O O1 0.580219 0.500000 0.055452
O O2 0.573389 0.740152 0.206478
O O3 0.665564 0.760531 0.025335
O O4 0.500000 0.756779 0.000000
O O5 0.521465 0.500000 0.334916
O O6 0.618599 0.284897 0.432010
O O7 0.476112 0.204901 0.381974
O O8 0.173583 0.755716 0.353695
O O9 0.250000 0.000000 0.249655
O O10 0.250000 0.709286 0.162832
O O11 0.250000 0.500000 0.992682
O O12 0.623913 0.000000 0.520890
#
# Coordination Sequence:
#
# PCOD8209361 Si02
#       5
#     8   8   4   4   8
#     4   9  18  32  51  77 107 135 166 210 260 307
#     4  10  19  33  54  79 104 132 173 216 257 313
#     4  10  22  37  52  74 104 137 173 214 259 310
#     4  10  20  35  56  78 102 137 175 214 263 312
#     4  10  20  35  53  74 104 138 172 214 264 311
#
# _framework density 20.305785
#
# number of rings (size 3 to 8) (size 9 to 14) (size 15 to 20)
#    0.000    2.250    0.000    4.500    0.000    5.000 
#    0.000    3.750    0.000    6.750    0.000    0.000 
#    0.000    0.000    0.000    0.000    0.000    0.000 
#
# Total GULP energy -396623.698080 kJ/mol
# GULP energy per Si atom -12394.490565 kJ/mol
# Density = 2.025957 g / cm^3
# Si number density = 20.305785 Si / 1000 Ang^3
#
#
#
# Elastic Constant Matrix: (Units=GPa)
#
#
# Indices 1 2 3 4 5 6 
#
# 1 131.1527 7.0582 81.5012 0.0000 0.0000 0.0000
# 2 7.0582 22.2339 14.2639 0.0000 0.0000 0.0000
# 3 81.5012 14.2639 190.8190 0.0000 0.0000 0.0000
# 4 0.0000 0.0000 0.0000 13.6298 0.0000 0.0000
# 5 0.0000 0.0000 0.0000 0.0000 38.0415 0.0000
# 6 0.0000 0.0000 0.0000 0.0000 0.0000 -210.3026
#
#
#
# Elastic Compliance Matrix: (Units=1/GPa)
#
#
# Indices 1 2 3 4 5 6 
#
# 1 0.010384 -0.000474 -0.004400 0.000000 0.000000 0.000000
# 2 -0.000474 0.047263 -0.003331 0.000000 0.000000 0.000000
# 3 -0.004400 -0.003331 0.007369 0.000000 0.000000 0.000000
# 4 0.000000 0.000000 0.000000 0.073368 0.000000 0.000000
# 5 0.000000 0.000000 0.000000 0.000000 0.026287 0.000000
# 6 0.000000 0.000000 0.000000 0.000000 0.000000 -0.004755
#
#
# Mechanical properties :
#
#
# Convention : Reuss Voigt Hill
#
# Bulk Modulus (GPa) = 20.57276 61.09470 40.83373
# Shear Modulus (GPa) = 25.97019 -15.63411 5.16804
#
# Velocity S-wave (km/s) = 3.58013 -2.77778 1.59707
# Velocity P-wave (km/s) = 5.21950 4.45697 4.85324
#
# Compressibility (1/GPa) = 0.04860797
#
# Stress axis : x y z
#
# Youngs Moduli (GPa) = 96.29842 21.15800 135.70762
#
# Poissons Ratio (x) = 0.01003 0.59710
# Poissons Ratio (y) = 0.04563 0.45199
# Poissons Ratio (z) = 0.42370 0.07047
#
# Static dielectric constant tensor:
#      x y z
#    x 4.016150 0.000000 0.000000 
#    y 0.000000 3.238210 0.000000 
#    z 0.000000 0.000000 3.928110 
# 
# 
# High freq. dielectric constant tensor:
#      x y z
#    x 1.791550 0.000000 0.000000 
#    y 0.000000 1.759160 0.000000 
#    z 0.000000 0.000000 1.809350 
# 
# From -- ./inp_files/15941.got.cif
#   From: 2010.03.12/outbox.cif.g09.slc.cpg/sg51_8_cif.got.tgz:15941.got - 2010.04.16 13:43:02.
