data_PCOD8209820
_publ_section_title
;
Structure prediction by ZEFSAII (Michael W. Deem and Ramdas Pophale) SiO2 
 PCOD8209820
Probable space group: P M M A
;
_chemical_formula_sum "Si O2"
_cell_formula_units_Z 44
_cell_length_a 16.315153
_cell_length_b 9.786326
_cell_length_c 13.454786
_cell_angle_alpha 90.000000
_cell_angle_beta 90.000000
_cell_angle_gamma 90.000000
_cell_volume 2148.263869
_symmetry_space_group_name_H-M "P M M A"
_symmetry_group_IT_number 51
_symmetry_cell_setting 'orthorhombic'
loop_
_space_group_symop_operation_xyz
x,y,z
1/2-x,-y,z
1/2+x,-y,-z
-x,y,-z
-x,-y,-z
1/2+x,y,-z
1/2-x,y,z
x,-y,z
loop_
_atom_site_type_symbol
_atom_site_label
_atom_site_fract_x
_atom_site_fract_y
_atom_site_fract_z
Si Si1 0.058766 0.353388 0.298719
Si Si2 0.843727 0.148045 0.815427
Si Si3 0.500000 0.248190 0.500000
Si Si4 0.888073 0.342227 0.209011
Si Si5 0.405372 0.840745 0.976721
Si Si6 0.658013 0.846669 0.389452
O O1 0.102368 0.500000 0.287615
O O2 0.123058 0.237264 0.274612
O O3 0.024709 0.343775 0.409428
O O4 0.985528 0.341751 0.220266
O O5 0.750000 0.130514 0.792329
O O6 0.857070 0.208590 0.925069
O O7 0.888325 0.000000 0.810522
O O8 0.417536 0.164525 0.531483
O O9 0.855604 0.500000 0.202087
O O10 0.847431 0.265462 0.302319
O O11 0.869627 0.256210 0.109627
O O12 0.387875 0.000000 0.950145
O O13 0.500000 0.815765 0.000000
O O14 0.750000 0.828053 0.437902
O O15 0.651165 0.000000 0.344617
#
# Coordination Sequence:
#
# PCOD8209820 Si02
#       6
#     8   8   4   8   8   8
#     4  10  21  38  59  83 114 151 192 237 294 361
#     4  10  22  38  56  83 119 155 195 245 296 349
#     4  10  22  40  64  92 118 154 196 254 308 360
#     4  10  21  36  58  87 119 154 194 244 297 353
#     4  10  19  34  58  86 116 157 203 243 291 352
#     4  10  22  40  62  89 120 157 203 252 304 365
#
# _framework density 20.481656000000001
#
# number of rings (size 3 to 8) (size 9 to 14) (size 15 to 20)
#    0.000    2.000    1.818    1.091    0.000    7.636 
#    0.000    3.636    0.000    0.000    0.000    0.000 
#    0.000    0.000    0.000    0.000    0.000    0.000 
#
# Total GULP energy -545231.875323 kJ/mol
# GULP energy per Si atom -12391.633530 kJ/mol
# Density = 2.043504 g / cm^3
# Si number density = 20.481656 Si / 1000 Ang^3
#
#
#
# Elastic Constant Matrix: (Units=GPa)
#
#
# Indices 1 2 3 4 5 6 
#
# 1 100.3688 41.7178 31.1752 0.0000 0.0000 0.0000
# 2 41.7178 135.8542 55.5097 0.0000 0.0000 0.0000
# 3 31.1752 55.5097 103.5021 0.0000 0.0000 0.0000
# 4 0.0000 0.0000 0.0000 16.1724 0.0000 0.0000
# 5 0.0000 0.0000 0.0000 0.0000 26.1204 0.0000
# 6 0.0000 0.0000 0.0000 0.0000 0.0000 -93.4171
#
#
#
# Elastic Compliance Matrix: (Units=1/GPa)
#
#
# Indices 1 2 3 4 5 6 
#
# 1 0.011753 -0.002769 -0.002055 0.000000 0.000000 0.000000
# 2 -0.002769 0.010079 -0.004571 0.000000 0.000000 0.000000
# 3 -0.002055 -0.004571 0.012732 0.000000 0.000000 0.000000
# 4 0.000000 0.000000 0.000000 0.061834 0.000000 0.000000
# 5 0.000000 0.000000 0.000000 0.000000 0.038284 0.000000
# 6 0.000000 0.000000 0.000000 0.000000 0.000000 -0.010705
#
#
# Mechanical properties :
#
#
# Convention : Reuss Voigt Hill
#
# Bulk Modulus (GPa) = 63.39973 66.28117 64.84045
# Shear Modulus (GPa) = 33.77785 3.86328 18.82056
#
# Velocity S-wave (km/s) = 4.06541 1.37489 3.03462
# Velocity P-wave (km/s) = 7.28412 5.91201 6.63364
#
# Compressibility (1/GPa) = 0.01577294
#
# Stress axis : x y z
#
# Youngs Moduli (GPa) = 85.08808 99.21485 78.54087
#
# Poissons Ratio (x) = 0.27477 0.16137
# Poissons Ratio (y) = 0.23565 0.35904
# Poissons Ratio (z) = 0.17482 0.45355
#
# Static dielectric constant tensor:
#      x y z
#    x 3.733110 0.000000 0.000000 
#    y 0.000000 3.870690 0.000000 
#    z 0.000000 0.000000 3.576770 
# 
# 
# High freq. dielectric constant tensor:
#      x y z
#    x 1.793230 0.000000 0.000000 
#    y 0.000000 1.803230 0.000000 
#    z 0.000000 0.000000 1.791100 
# 
# From -- ./inp_files/24600.got.cif
#   From: 2010.03.12/outbox.cif.g09.slc.cpg/sg51_13_cif.got.tgz:24600.got - 2010.04.16 13:43:02.
