data_PCOD8209453
_publ_section_title
;
Structure prediction by ZEFSAII (Michael W. Deem and Ramdas Pophale) SiO2 
 PCOD8209453
Probable space group: P M M A
;
_chemical_formula_sum "Si O2"
_cell_formula_units_Z 64
_cell_length_a 18.013230
_cell_length_b 8.945448
_cell_length_c 21.483905
_cell_angle_alpha 90.000000
_cell_angle_beta 90.000000
_cell_angle_gamma 90.000000
_cell_volume 3461.839373
_symmetry_space_group_name_H-M "P M M A"
_symmetry_group_IT_number 51
_symmetry_cell_setting 'orthorhombic'
loop_
_space_group_symop_operation_xyz
x,y,z
1/2-x,-y,z
1/2+x,-y,-z
-x,y,-z
-x,-y,-z
1/2+x,y,-z
1/2-x,y,z
x,-y,z
loop_
_atom_site_type_symbol
_atom_site_label
_atom_site_fract_x
_atom_site_fract_y
_atom_site_fract_z
Si Si1 0.166379 0.675309 0.625449
Si Si2 0.036947 0.829062 0.308296
Si Si3 0.417948 0.823570 0.877818
Si Si4 0.834165 0.828273 0.777847
Si Si5 0.094717 0.324919 0.752993
Si Si6 0.922426 0.325294 0.885987
Si Si7 0.031955 0.824827 0.564117
Si Si8 0.163840 0.672040 0.988477
O O1 0.250000 0.724501 0.609885
O O2 0.154511 0.500000 0.617731
O O3 0.148557 0.722397 0.696465
O O4 0.112417 0.755700 0.577053
O O5 0.122345 0.808379 0.287805
O O6 0.989027 0.722217 0.263944
O O7 0.025834 0.784400 0.380542
O O8 0.010334 0.000000 0.297945
O O9 0.380038 0.760813 0.814971
O O10 0.500057 0.759720 0.886437
O O11 0.365316 0.777949 0.934253
O O12 0.423402 0.000000 0.873648
O O13 0.750000 0.776790 0.765944
O O14 0.869975 0.725713 0.830175
O O15 0.838333 0.000000 0.800175
O O16 0.097362 0.500000 0.766490
O O17 0.938831 0.500000 0.878945
O O18 0.880509 0.287320 0.949522
O O19 0.000000 0.756796 0.500000
O O20 0.043673 0.000000 0.557128
O O21 0.250000 0.705329 0.000669
O O22 0.150654 0.500000 0.969386
#
# Coordination Sequence:
#
# PCOD8209453 Si02
#       8
#     8   8   8   8   8   8   8   8
#     4   9  19  35  55  81 112 145 184 229 276 325
#     4   9  17  32  52  75 108 144 178 220 269 323
#     4  12  24  37  56  83 112 143 180 224 274 330
#     4  10  20  33  52  79 109 141 177 223 280 333
#     4  10  19  33  55  80 105 140 181 223 272 325
#     4  11  22  38  60  82 105 139 184 229 273 325
#     4   9  18  33  54  81 112 149 190 229 267 315
#     4  10  23  42  59  77 105 141 181 227 277 326
#
# _framework density 18.487280999999999
#
# number of rings (size 3 to 8) (size 9 to 14) (size 15 to 20)
#    0.000    2.000    1.250    2.625    0.000    5.000 
#    0.000    1.875    0.000    2.250    0.000    0.000 
#    0.000    0.000    0.000    0.000    0.000    0.000 
#
# Total GULP energy -793718.460353 kJ/mol
# GULP energy per Si atom -12401.850943 kJ/mol
# Density = 1.844520 g / cm^3
# Si number density = 18.487281 Si / 1000 Ang^3
#
#
#
# Elastic Constant Matrix: (Units=GPa)
#
#
# Indices 1 2 3 4 5 6 
#
# 1 91.9414 34.8007 53.5634 0.0000 0.0000 0.0000
# 2 34.8007 75.1368 47.1192 0.0000 0.0000 0.0000
# 3 53.5634 47.1192 129.2468 0.0000 0.0000 0.0000
# 4 0.0000 0.0000 0.0000 26.8449 0.0000 0.0000
# 5 0.0000 0.0000 0.0000 0.0000 23.5678 0.0000
# 6 0.0000 0.0000 0.0000 0.0000 0.0000 28.2788
#
#
#
# Elastic Compliance Matrix: (Units=1/GPa)
#
#
# Indices 1 2 3 4 5 6 
#
# 1 0.015216 -0.004010 -0.004844 0.000000 0.000000 0.000000
# 2 -0.004010 0.018310 -0.005014 0.000000 0.000000 0.000000
# 3 -0.004844 -0.005014 0.011573 0.000000 0.000000 0.000000
# 4 0.000000 0.000000 0.000000 0.037251 0.000000 0.000000
# 5 0.000000 0.000000 0.000000 0.000000 0.042431 0.000000
# 6 0.000000 0.000000 0.000000 0.000000 0.000000 0.035362
#
#
# Mechanical properties :
#
#
# Convention : Reuss Voigt Hill
#
# Bulk Modulus (GPa) = 57.59052 63.03243 60.31147
# Shear Modulus (GPa) = 25.81758 26.46108 26.13933
#
# Velocity S-wave (km/s) = 3.74104 3.78737 3.76428
# Velocity P-wave (km/s) = 7.06255 7.30032 7.18242
#
# Compressibility (1/GPa) = 0.01736397
#
# Stress axis : x y z
#
# Youngs Moduli (GPa) = 65.71847 54.61395 86.41164
#
# Poissons Ratio (x) = 0.21899 0.41860
# Poissons Ratio (y) = 0.26352 0.43323
# Poissons Ratio (z) = 0.31836 0.27381
#
# Static dielectric constant tensor:
#      x y z
#    x 3.462300 0.000000 0.000000 
#    y 0.000000 3.407850 0.000000 
#    z 0.000000 0.000000 3.553380 
# 
# 
# High freq. dielectric constant tensor:
#      x y z
#    x 1.713980 0.000000 0.000000 
#    y 0.000000 1.716360 0.000000 
#    z 0.000000 0.000000 1.716950 
# 
# From -- ./inp_files/33870.got.cif
#   From: 2010.03.12/outbox.cif.g09.slc.cpg/sg51_17_cif.got.tgz:33870.got - 2010.04.16 13:43:02.
