data_PCOD8209065
_publ_section_title
;
Structure prediction by ZEFSAII (Michael W. Deem and Ramdas Pophale) SiO2 
 PCOD8209065
Probable space group: P M M A
;
_chemical_formula_sum "Si O2"
_cell_formula_units_Z 40
_cell_length_a 10.236615
_cell_length_b 8.838060
_cell_length_c 24.291708
_cell_angle_alpha 90.000000
_cell_angle_beta 90.000000
_cell_angle_gamma 90.000000
_cell_volume 2197.714975
_symmetry_space_group_name_H-M "P M M A"
_symmetry_group_IT_number 51
_symmetry_cell_setting 'orthorhombic'
loop_
_space_group_symop_operation_xyz
x,y,z
1/2-x,-y,z
1/2+x,-y,-z
-x,y,-z
-x,-y,-z
1/2+x,y,-z
1/2-x,y,z
x,-y,z
loop_
_atom_site_type_symbol
_atom_site_label
_atom_site_fract_x
_atom_site_fract_y
_atom_site_fract_z
Si Si1 0.404756 0.832517 0.334985
Si Si2 0.990814 0.821295 0.881822
Si Si3 0.750000 0.674332 0.942424
Si Si4 0.595296 0.327525 0.773552
Si Si5 0.896556 0.180634 0.543853
Si Si6 0.250000 0.674856 0.927452
O O1 0.250000 0.845289 0.332680
O O2 0.455330 0.722515 0.286791
O O3 0.443229 0.766831 0.395156
O O4 0.465347 0.000000 0.326145
O O5 0.877658 0.752305 0.918909
O O6 0.973641 0.777890 0.818194
O O7 0.125766 0.756847 0.902939
O O8 0.988615 0.000000 0.888091
O O9 0.750000 0.500000 0.923634
O O10 0.750000 0.691978 0.007368
O O11 0.750000 0.306899 0.779164
O O12 0.553251 0.500000 0.783253
O O13 0.750000 0.241220 0.530542
O O14 0.000000 0.247283 0.500000
O O15 0.894815 0.000000 0.542403
O O16 0.250000 0.500000 0.909806
#
# Coordination Sequence:
#
# PCOD8209065 Si02
#       6
#     8   8   4   8   8   4
#     4   8  14  25  43  68  97 128 167 215 262 308
#     4  12  24  38  60  87 114 144 183 231 276 321
#     4  11  23  41  63  87 113 147 186 221 268 327
#     4  10  19  32  53  78 105 137 179 225 270 324
#     4   8  13  22  39  64  93 125 161 203 254 309
#     4  11  25  43  61  81 115 153 182 219 270 333
#
# _framework density 18.200724000000001
#
# number of rings (size 3 to 8) (size 9 to 14) (size 15 to 20)
#    0.000    2.200    1.000    4.800    0.000    4.800 
#    0.000    0.000    2.200    0.600    0.000    0.000 
#    0.000    0.000    0.000    0.000    0.000    0.000 
#
# Total GULP energy -495930.503087 kJ/mol
# GULP energy per Si atom -12398.262577 kJ/mol
# Density = 1.815930 g / cm^3
# Si number density = 18.200724 Si / 1000 Ang^3
#
#
#
# Elastic Constant Matrix: (Units=GPa)
#
#
# Indices 1 2 3 4 5 6 
#
# 1 107.3261 54.5381 60.3435 0.0000 0.0000 0.0000
# 2 54.5381 118.7272 66.2071 0.0000 0.0000 0.0000
# 3 60.3435 66.2071 135.9750 0.0000 0.0000 0.0000
# 4 0.0000 0.0000 0.0000 16.0955 0.0000 0.0000
# 5 0.0000 0.0000 0.0000 0.0000 19.0001 0.0000
# 6 0.0000 0.0000 0.0000 0.0000 0.0000 22.8859
#
#
#
# Elastic Compliance Matrix: (Units=1/GPa)
#
#
# Indices 1 2 3 4 5 6 
#
# 1 0.013656 -0.003972 -0.004126 0.000000 0.000000 0.000000
# 2 -0.003972 0.012717 -0.004429 0.000000 0.000000 0.000000
# 3 -0.004126 -0.004429 0.011342 0.000000 0.000000 0.000000
# 4 0.000000 0.000000 0.000000 0.062129 0.000000 0.000000
# 5 0.000000 0.000000 0.000000 0.000000 0.052631 0.000000
# 6 0.000000 0.000000 0.000000 0.000000 0.000000 0.043695
#
#
# Mechanical properties :
#
#
# Convention : Reuss Voigt Hill
#
# Bulk Modulus (GPa) = 78.98916 80.46730 79.72823
# Shear Modulus (GPa) = 22.17830 23.65894 22.91862
#
# Velocity S-wave (km/s) = 3.49455 3.60931 3.55239
# Velocity P-wave (km/s) = 7.73147 7.85344 7.79269
#
# Compressibility (1/GPa) = 0.01265996
#
# Stress axis : x y z
#
# Youngs Moduli (GPa) = 73.22969 78.63359 88.16651
#
# Poissons Ratio (x) = 0.31232 0.36380
# Poissons Ratio (y) = 0.29086 0.39053
# Poissons Ratio (z) = 0.30216 0.34830
#
# Static dielectric constant tensor:
#      x y z
#    x 3.197020 0.000000 0.000000 
#    y 0.000000 3.338680 0.000000 
#    z 0.000000 0.000000 3.771340 
# 
# 
# High freq. dielectric constant tensor:
#      x y z
#    x 1.674240 0.000000 0.000000 
#    y 0.000000 1.692970 0.000000 
#    z 0.000000 0.000000 1.723500 
# 
# From -- ./inp_files/35992.got.cif
#   From: 2010.03.12/outbox.cif.g09.slc.cpg/sg51_18_cif.got.tgz:35992.got - 2010.04.16 13:43:02.
