data_PCOD8209343
_publ_section_title
;
Structure prediction by ZEFSAII (Michael W. Deem and Ramdas Pophale) SiO2 
 PCOD8209343
Probable space group: P M M A
;
_chemical_formula_sum "Si O2"
_cell_formula_units_Z 40
_cell_length_a 28.758731
_cell_length_b 7.759086
_cell_length_c 9.758620
_cell_angle_alpha 90.000000
_cell_angle_beta 90.000000
_cell_angle_gamma 90.000000
_cell_volume 2177.552783
_symmetry_space_group_name_H-M "P M M A"
_symmetry_group_IT_number 51
_symmetry_cell_setting 'orthorhombic'
loop_
_space_group_symop_operation_xyz
x,y,z
1/2-x,-y,z
1/2+x,-y,-z
-x,y,-z
-x,-y,-z
1/2+x,y,-z
1/2-x,y,z
x,-y,z
loop_
_atom_site_type_symbol
_atom_site_label
_atom_site_fract_x
_atom_site_fract_y
_atom_site_fract_z
Si Si1 0.050586 0.500000 0.665921
Si Si2 0.116744 0.809196 0.351504
Si Si3 0.882455 0.801134 0.332127
Si Si4 0.447143 0.500000 0.341158
Si Si5 0.197427 0.303988 0.170161
Si Si6 0.197975 0.201431 0.872323
O O1 0.076201 0.674298 0.716404
O O2 0.048065 0.500000 0.503163
O O3 0.998328 0.500000 0.726989
O O4 0.129154 0.769162 0.508973
O O5 0.080275 0.670613 0.291897
O O6 0.164201 0.808087 0.265853
O O7 0.094447 0.000000 0.338654
O O8 0.836367 0.747074 0.250024
O O9 0.896998 0.000000 0.303634
O O10 0.250000 0.232307 0.184809
O O11 0.194199 0.500000 0.220166
O O12 0.181750 0.293777 0.011751
O O13 0.250000 0.261129 0.830377
O O14 0.196504 0.000000 0.901542
#
# Coordination Sequence:
#
# PCOD8209343 Si02
#       6
#     4   8   8   4   8   8
#     4   9  18  32  54  73 104 136 161 209 262 299
#     4  10  19  33  54  77 104 135 167 209 255 297
#     4   9  19  33  52  79 104 131 170 209 251 302
#     4   9  18  34  50  77 104 130 169 209 252 309
#     4  10  20  33  50  75 105 137 174 208 243 298
#     4   9  18  33  51  73 103 137 171 206 246 297
#
# _framework density 18.369244999999999
#
# number of rings (size 3 to 8) (size 9 to 14) (size 15 to 20)
#    0.000    2.600    1.000    0.600    1.400    2.800 
#    0.000    6.000    0.000    2.400    0.000    4.200 
#    0.000    0.000    0.000    0.000    0.000    0.000 
#
# Total GULP energy -495949.895584 kJ/mol
# GULP energy per Si atom -12398.747390 kJ/mol
# Density = 1.832744 g / cm^3
# Si number density = 18.369245 Si / 1000 Ang^3
#
#
#
# Elastic Constant Matrix: (Units=GPa)
#
#
# Indices 1 2 3 4 5 6 
#
# 1 135.5922 61.3543 55.5147 0.0000 0.0000 0.0000
# 2 61.3543 102.5620 33.4271 0.0000 0.0000 0.0000
# 3 55.5147 33.4271 56.2010 0.0000 0.0000 0.0000
# 4 0.0000 0.0000 0.0000 21.3311 0.0000 0.0000
# 5 0.0000 0.0000 0.0000 0.0000 7.3515 0.0000
# 6 0.0000 0.0000 0.0000 0.0000 0.0000 23.4750
#
#
#
# Elastic Compliance Matrix: (Units=1/GPa)
#
#
# Indices 1 2 3 4 5 6 
#
# 1 0.014076 -0.004824 -0.011035 0.000000 0.000000 0.000000
# 2 -0.004824 0.013748 -0.003412 0.000000 0.000000 0.000000
# 3 -0.011035 -0.003412 0.030723 0.000000 0.000000 0.000000
# 4 0.000000 0.000000 0.000000 0.046880 0.000000 0.000000
# 5 0.000000 0.000000 0.000000 0.000000 0.136028 0.000000
# 6 0.000000 0.000000 0.000000 0.000000 0.000000 0.042599
#
#
# Mechanical properties :
#
#
# Convention : Reuss Voigt Hill
#
# Bulk Modulus (GPa) = 49.98720 66.10528 58.04624
# Shear Modulus (GPa) = 15.18549 20.03545 17.61047
#
# Velocity S-wave (km/s) = 2.87832 3.30617 3.09964
# Velocity P-wave (km/s) = 6.19014 7.11613 6.66923
#
# Compressibility (1/GPa) = 0.02000512
#
# Stress axis : x y z
#
# Youngs Moduli (GPa) = 71.04468 72.73800 32.54937
#
# Poissons Ratio (x) = 0.35088 0.35917
# Poissons Ratio (y) = 0.34271 0.11106
# Poissons Ratio (z) = 0.78395 0.24818
#
# Static dielectric constant tensor:
#      x y z
#    x 3.492710 0.000000 0.000000 
#    y 0.000000 3.483780 0.000000 
#    z 0.000000 0.000000 3.109080 
# 
# 
# High freq. dielectric constant tensor:
#      x y z
#    x 1.700270 0.000000 0.000000 
#    y 0.000000 1.725480 0.000000 
#    z 0.000000 0.000000 1.683360 
# 
# From -- ./inp_files/12148.got.cif
#   From: 2010.03.12/outbox.cif.g09.slc.cpg/sg51_7_cif.got.tgz:12148.got - 2010.04.16 13:43:02.
