data_PCOD8209614
_publ_section_title
;
Structure prediction by ZEFSAII (Michael W. Deem and Ramdas Pophale) SiO2 
 PCOD8209614
Probable space group: P M M A
;
_chemical_formula_sum "Si O2"
_cell_formula_units_Z 48
_cell_length_a 17.792635
_cell_length_b 10.130291
_cell_length_c 13.878769
_cell_angle_alpha 90.000000
_cell_angle_beta 90.000000
_cell_angle_gamma 90.000000
_cell_volume 2501.572753
_symmetry_space_group_name_H-M "P M M A"
_symmetry_group_IT_number 51
_symmetry_cell_setting 'orthorhombic'
loop_
_space_group_symop_operation_xyz
x,y,z
1/2-x,-y,z
1/2+x,-y,-z
-x,y,-z
-x,-y,-z
1/2+x,y,-z
1/2-x,y,z
x,-y,z
loop_
_atom_site_type_symbol
_atom_site_label
_atom_site_fract_x
_atom_site_fract_y
_atom_site_fract_z
Si Si1 0.839423 0.273024 0.362605
Si Si2 0.160269 0.000000 0.555341
Si Si3 0.160348 0.500000 0.498650
Si Si4 0.838741 0.650576 0.151923
Si Si5 0.661213 0.000000 0.659991
Si Si6 0.660937 0.225582 0.802800
Si Si7 0.587882 0.849101 0.002763
Si Si8 0.339186 0.500000 0.282593
O O1 0.750000 0.277314 0.361442
O O2 0.869634 0.127363 0.387300
O O3 0.869519 0.371467 0.444956
O O4 0.869873 0.317445 0.258550
O O5 0.126414 0.000000 0.447149
O O6 0.250000 0.000000 0.550822
O O7 0.250000 0.500000 0.495140
O O8 0.126858 0.500000 0.390654
O O9 0.750000 0.671656 0.146835
O O10 0.859873 0.500000 0.124933
O O11 0.876143 0.750423 0.078518
O O12 0.634837 0.869479 0.716234
O O13 0.750000 0.000000 0.651083
O O14 0.750000 0.218951 0.819202
O O15 0.621136 0.178638 0.898592
O O16 0.633289 0.372145 0.775815
O O17 0.605871 0.000000 0.032941
O O18 0.500000 0.822479 0.000000
O O19 0.250000 0.500000 0.291097
#
# Coordination Sequence:
#
# PCOD8209614 Si02
#       8
#     8   4   4   8   4   8   8   4
#     4   9  16  27  45  74 112 144 172 212 264 317
#     4   9  16  24  41  75 112 142 173 211 258 319
#     4   9  14  26  45  71 112 148 171 207 260 315
#     4  10  21  37  58  85 113 143 180 224 273 325
#     4   9  16  28  48  75 109 144 177 217 270 319
#     4  10  19  34  54  80 111 140 176 225 274 321
#     4  11  25  42  58  78 105 143 188 232 280 332
#     4   9  18  28  48  81 113 144 175 211 264 327
#
# _framework density 19.187929
#
# number of rings (size 3 to 8) (size 9 to 14) (size 15 to 20)
#    0.000    2.333    1.667    1.500    2.333    5.333 
#    0.000    0.000    0.000    0.000    0.000    7.000 
#    0.000    0.000    0.000    0.000    0.000    0.000 
#
# Total GULP energy -595164.660013 kJ/mol
# GULP energy per Si atom -12399.263750 kJ/mol
# Density = 1.914426 g / cm^3
# Si number density = 19.187929 Si / 1000 Ang^3
#
#
#
# Elastic Constant Matrix: (Units=GPa)
#
#
# Indices 1 2 3 4 5 6 
#
# 1 26.9294 39.0038 35.2123 0.0000 0.0000 0.0000
# 2 39.0038 168.8857 58.2058 0.0000 0.0000 0.0000
# 3 35.2123 58.2058 114.5519 0.0000 0.0000 0.0000
# 4 0.0000 0.0000 0.0000 43.3414 0.0000 0.0000
# 5 0.0000 0.0000 0.0000 0.0000 -8.3536 0.0000
# 6 0.0000 0.0000 0.0000 0.0000 0.0000 13.4942
#
#
#
# Elastic Compliance Matrix: (Units=1/GPa)
#
#
# Indices 1 2 3 4 5 6 
#
# 1 0.077483 -0.011742 -0.017851 0.000000 0.000000 0.000000
# 2 -0.011742 0.008958 -0.000942 0.000000 0.000000 0.000000
# 3 -0.017851 -0.000942 0.014696 0.000000 0.000000 0.000000
# 4 0.000000 0.000000 0.000000 0.023073 0.000000 0.000000
# 5 0.000000 0.000000 0.000000 0.000000 -0.119709 0.000000
# 6 0.000000 0.000000 0.000000 0.000000 0.000000 0.074106
#
#
# Mechanical properties :
#
#
# Convention : Reuss Voigt Hill
#
# Bulk Modulus (GPa) = 24.95919 63.91233 44.43576
# Shear Modulus (GPa) = 32.67292 21.55941 27.11616
#
# Velocity S-wave (km/s) = 4.13096 3.35564 3.76332
# Velocity P-wave (km/s) = 5.98240 6.95663 6.48783
#
# Compressibility (1/GPa) = 0.04006540
#
# Stress axis : x y z
#
# Youngs Moduli (GPa) = 12.90603 111.63574 68.04720
#
# Poissons Ratio (x) = 1.31085 1.21473
# Poissons Ratio (y) = 0.15155 0.06411
# Poissons Ratio (z) = 0.23039 0.10517
#
# Static dielectric constant tensor:
#      x y z
#    x 2.906400 0.000000 0.000000 
#    y 0.000000 3.797910 0.000000 
#    z 0.000000 0.000000 3.708150 
# 
# 
# High freq. dielectric constant tensor:
#      x y z
#    x 1.678280 0.000000 0.000000 
#    y 0.000000 1.768520 0.000000 
#    z 0.000000 0.000000 1.760910 
# 
# From -- ./inp_files/25043.got.cif
#   From: 2010.03.12/outbox.cif.g09.slc.cpg/sg51_13_cif.got.tgz:25043.got - 2010.04.16 13:43:02.
