data_PCOD8209905
_publ_section_title
;
Structure prediction by ZEFSAII (Michael W. Deem and Ramdas Pophale) SiO2 
 PCOD8209905
Probable space group: P M M A
;
_chemical_formula_sum "Si O2"
_cell_formula_units_Z 40
_cell_length_a 25.554882
_cell_length_b 8.645564
_cell_length_c 9.657765
_cell_angle_alpha 90.000000
_cell_angle_beta 90.000000
_cell_angle_gamma 90.000000
_cell_volume 2133.751521
_symmetry_space_group_name_H-M "P M M A"
_symmetry_group_IT_number 51
_symmetry_cell_setting 'orthorhombic'
loop_
_space_group_symop_operation_xyz
x,y,z
1/2-x,-y,z
1/2+x,-y,-z
-x,y,-z
-x,-y,-z
1/2+x,y,-z
1/2-x,y,z
x,-y,z
loop_
_atom_site_type_symbol
_atom_site_label
_atom_site_fract_x
_atom_site_fract_y
_atom_site_fract_z
Si Si1 0.044816 0.819391 0.094077
Si Si2 0.750000 0.683349 0.091499
Si Si3 0.452135 0.180805 0.408410
Si Si4 0.750000 0.682977 0.404603
Si Si5 0.161051 0.183860 0.097676
Si Si6 0.158523 0.682332 0.395814
O O1 0.030733 0.784730 0.252146
O O2 0.102703 0.755388 0.060027
O O3 0.045669 0.000000 0.062672
O O4 0.000000 0.738711 0.000000
O O5 0.750000 0.500000 0.089301
O O6 0.750000 0.749686 0.248309
O O7 0.698731 0.743189 0.014866
O O8 0.500000 0.242857 0.500000
O O9 0.399373 0.271486 0.446366
O O10 0.441307 0.000000 0.433478
O O11 0.750000 0.500000 0.396547
O O12 0.801566 0.740192 0.485930
O O13 0.175201 0.236615 0.252709
O O14 0.165333 0.000000 0.093219
O O15 0.162105 0.500000 0.372709
#
# Coordination Sequence:
#
# PCOD8209905 Si02
#       6
#     8   4   8   4   8   8
#     4   8  15  29  49  72  99 131 165 204 252 304
#     4  11  22  37  54  74 104 137 170 213 264 310
#     4   9  18  32  50  74 104 136 172 216 263 307
#     4   9  21  37  52  74 104 137 172 213 260 310
#     4  10  20  35  55  80 106 134 174 217 258 311
#     4  10  19  35  57  77 102 141 182 215 257 313
#
# _framework density 18.746324999999999
#
# number of rings (size 3 to 8) (size 9 to 14) (size 15 to 20)
#    0.000    2.600    0.000    3.300    0.000    2.800 
#    0.000    7.500    0.000   15.000    0.000    0.000 
#    0.000    0.000    0.000    0.000    0.000    0.000 
#
# Total GULP energy -495923.729547 kJ/mol
# GULP energy per Si atom -12398.093239 kJ/mol
# Density = 1.870366 g / cm^3
# Si number density = 18.746325 Si / 1000 Ang^3
#
#
#
# Elastic Constant Matrix: (Units=GPa)
#
#
# Indices 1 2 3 4 5 6 
#
# 1 134.8506 29.7231 99.6201 0.0000 0.0000 0.0000
# 2 29.7231 52.7562 31.4155 0.0000 0.0000 0.0000
# 3 99.6201 31.4155 143.2716 0.0000 0.0000 0.0000
# 4 0.0000 0.0000 0.0000 22.1614 0.0000 0.0000
# 5 0.0000 0.0000 0.0000 0.0000 50.9373 0.0000
# 6 0.0000 0.0000 0.0000 0.0000 0.0000 27.6701
#
#
#
# Elastic Compliance Matrix: (Units=1/GPa)
#
#
# Indices 1 2 3 4 5 6 
#
# 1 0.015569 -0.002675 -0.010239 0.000000 0.000000 0.000000
# 2 -0.002675 0.022261 -0.003022 0.000000 0.000000 0.000000
# 3 -0.010239 -0.003022 0.014762 0.000000 0.000000 0.000000
# 4 0.000000 0.000000 0.000000 0.045124 0.000000 0.000000
# 5 0.000000 0.000000 0.000000 0.000000 0.019632 0.000000
# 6 0.000000 0.000000 0.000000 0.000000 0.000000 0.036140
#
#
# Mechanical properties :
#
#
# Convention : Reuss Voigt Hill
#
# Bulk Modulus (GPa) = 48.25856 72.48840 60.37348
# Shear Modulus (GPa) = 26.00561 31.49507 28.75034
#
# Velocity S-wave (km/s) = 3.72861 4.10331 3.92044
# Velocity P-wave (km/s) = 6.65849 7.82314 7.26419
#
# Compressibility (1/GPa) = 0.02072171
#
# Stress axis : x y z
#
# Youngs Moduli (GPa) = 64.22891 44.92099 67.74189
#
# Poissons Ratio (x) = 0.12014 0.69363
# Poissons Ratio (y) = 0.17178 0.20469
# Poissons Ratio (z) = 0.65766 0.13574
#
# Static dielectric constant tensor:
#      x y z
#    x 6.744070 0.000000 0.000000 
#    y 0.000000 3.196980 0.000000 
#    z 0.000000 0.000000 3.595280 
# 
# 
# High freq. dielectric constant tensor:
#      x y z
#    x 1.743030 0.000000 0.000000 
#    y 0.000000 1.704280 0.000000 
#    z 0.000000 0.000000 1.726390 
# 
# From -- ./inp_files/12136.got.cif
#   From: 2010.03.12/outbox.cif.g09.slc.cpg/sg51_7_cif.got.tgz:12136.got - 2010.04.16 13:43:02.
