data_PCOD8209958
_publ_section_title
;
Structure prediction by ZEFSAII (Michael W. Deem and Ramdas Pophale) SiO2 
 PCOD8209958
Probable space group: P M M A
;
_chemical_formula_sum "Si O2"
_cell_formula_units_Z 64
_cell_length_a 8.951206
_cell_length_b 23.750789
_cell_length_c 15.427955
_cell_angle_alpha 90.000000
_cell_angle_beta 90.000000
_cell_angle_gamma 90.000000
_cell_volume 3279.955540
_symmetry_space_group_name_H-M "P M M A"
_symmetry_group_IT_number 51
_symmetry_cell_setting 'orthorhombic'
loop_
_space_group_symop_operation_xyz
x,y,z
1/2-x,-y,z
1/2+x,-y,-z
-x,y,-z
-x,-y,-z
1/2+x,y,-z
1/2-x,y,z
x,-y,z
loop_
_atom_site_type_symbol
_atom_site_label
_atom_site_fract_x
_atom_site_fract_y
_atom_site_fract_z
Si Si1 0.422657 0.934314 0.745667
Si Si2 0.922044 0.251979 0.161523
Si Si3 0.425180 0.249406 0.343123
Si Si4 0.427746 0.436747 0.744731
Si Si5 0.425656 0.126590 0.409567
Si Si6 0.575527 0.628431 0.088136
Si Si7 0.577664 0.132139 0.087814
Si Si8 0.572503 0.641026 0.411974
O O1 0.250000 0.917900 0.730129
O O2 0.516098 0.916413 0.662372
O O3 0.486810 0.901874 0.829888
O O4 0.443629 0.000000 0.762192
O O5 0.750000 0.254736 0.194187
O O6 0.962998 0.306466 0.105337
O O7 0.950936 0.198354 0.101210
O O8 0.030406 0.249330 0.243030
O O9 0.250000 0.261867 0.351767
O O10 0.470326 0.189908 0.384185
O O11 0.517142 0.295895 0.395216
O O12 0.250000 0.436590 0.745500
O O13 0.490920 0.500000 0.736187
O O14 0.488795 0.409088 0.833157
O O15 0.485165 0.399736 0.664323
O O16 0.500000 0.109982 0.500000
O O17 0.250000 0.119135 0.418158
O O18 0.750000 0.618566 0.078078
O O19 0.500000 0.607861 0.000000
O O20 0.750000 0.117600 0.077127
O O21 0.500000 0.111732 0.000000
O O22 0.500000 0.617716 0.500000
O O23 0.750000 0.641100 0.419955
#
# Coordination Sequence:
#
# PCOD8209958 Si02
#       8
#     8   8   8   8   8   8   8   8
#     4  10  22  41  63  86 115 154 198 243 289 337
#     4  10  19  35  58  84 115 155 191 231 292 349
#     4  11  22  36  59  90 119 150 189 234 288 346
#     4   9  19  37  59  81 111 153 196 237 285 341
#     4  11  24  40  61  89 118 152 191 235 289 346
#     4  10  20  35  56  84 114 150 191 232 286 343
#     4  10  21  36  58  86 119 154 192 237 288 345
#     4  11  22  38  60  86 117 152 191 234 287 344
#
# _framework density 19.512459
#
# number of rings (size 3 to 8) (size 9 to 14) (size 15 to 20)
#    0.000    1.750    2.500    1.875    0.000    5.250 
#    0.000    0.000    0.000    2.625    0.000    0.000 
#    0.000    0.000    0.000    0.000    0.000    0.000 
#
# Total GULP energy -793886.510174 kJ/mol
# GULP energy per Si atom -12404.476721 kJ/mol
# Density = 1.946805 g / cm^3
# Si number density = 19.512459 Si / 1000 Ang^3
#
#
#
# Elastic Constant Matrix: (Units=GPa)
#
#
# Indices 1 2 3 4 5 6 
#
# 1 50.8760 24.4262 39.5761 0.0000 0.0000 0.0000
# 2 24.4262 95.2452 38.9086 0.0000 0.0000 0.0000
# 3 39.5761 38.9086 156.3969 0.0000 0.0000 0.0000
# 4 0.0000 0.0000 0.0000 -33.3964 0.0000 0.0000
# 5 0.0000 0.0000 0.0000 0.0000 40.1082 0.0000
# 6 0.0000 0.0000 0.0000 0.0000 0.0000 9.0298
#
#
#
# Elastic Compliance Matrix: (Units=1/GPa)
#
#
# Indices 1 2 3 4 5 6 
#
# 1 0.026057 -0.004440 -0.005489 0.000000 0.000000 0.000000
# 2 -0.004440 0.012444 -0.001972 0.000000 0.000000 0.000000
# 3 -0.005489 -0.001972 0.008274 0.000000 0.000000 0.000000
# 4 0.000000 0.000000 0.000000 -0.029943 0.000000 0.000000
# 5 0.000000 0.000000 0.000000 0.000000 0.024933 0.000000
# 6 0.000000 0.000000 0.000000 0.000000 0.000000 0.110744
#
#
# Mechanical properties :
#
#
# Convention : Reuss Voigt Hill
#
# Bulk Modulus (GPa) = 43.53198 56.48220 50.00709
# Shear Modulus (GPa) = 27.17863 16.45549 21.81706
#
# Velocity S-wave (km/s) = 3.73619 2.90717 3.34744
# Velocity P-wave (km/s) = 6.40081 6.34653 6.37373
#
# Compressibility (1/GPa) = 0.02297162
#
# Stress axis : x y z
#
# Youngs Moduli (GPa) = 38.37682 80.36283 120.86577
#
# Poissons Ratio (x) = 0.35683 0.66345
# Poissons Ratio (y) = 0.17040 0.23836
# Poissons Ratio (z) = 0.21066 0.15849
#
# Static dielectric constant tensor:
#      x y z
#    x 3.380530 0.000000 0.000000 
#    y 0.000000 3.643420 0.000000 
#    z 0.000000 0.000000 3.654260 
# 
# 
# High freq. dielectric constant tensor:
#      x y z
#    x 1.742470 0.000000 0.000000 
#    y 0.000000 1.760570 0.000000 
#    z 0.000000 0.000000 1.772440 
# 
# From -- ./inp_files/22259.got.cif
#   From: 2010.03.12/outbox.cif.g09.slc.cpg/sg51_12_cif.got.tgz:22259.got - 2010.04.16 13:43:02.
