data_PCOD8209466
_publ_section_title
;
Structure prediction by ZEFSAII (Michael W. Deem and Ramdas Pophale) SiO2 
 PCOD8209466
Probable space group: P M M A
;
_chemical_formula_sum "Si O2"
_cell_formula_units_Z 44
_cell_length_a 9.386300
_cell_length_b 8.000071
_cell_length_c 30.012968
_cell_angle_alpha 90.000000
_cell_angle_beta 90.000000
_cell_angle_gamma 90.000000
_cell_volume 2253.705774
_symmetry_space_group_name_H-M "P M M A"
_symmetry_group_IT_number 51
_symmetry_cell_setting 'orthorhombic'
loop_
_space_group_symop_operation_xyz
x,y,z
1/2-x,-y,z
1/2+x,-y,-z
-x,y,-z
-x,-y,-z
1/2+x,y,-z
1/2-x,y,z
x,-y,z
loop_
_atom_site_type_symbol
_atom_site_label
_atom_site_fract_x
_atom_site_fract_y
_atom_site_fract_z
Si Si1 0.418792 0.314924 0.896332
Si Si2 0.579383 0.000000 0.046428
Si Si3 0.089914 0.807011 0.802480
Si Si4 0.408790 0.802911 0.540388
Si Si5 0.910335 0.302567 0.364574
Si Si6 0.413023 0.302014 0.280986
O O1 0.250000 0.303445 0.896022
O O2 0.469788 0.500000 0.912769
O O3 0.475595 0.166938 0.928063
O O4 0.471419 0.289995 0.845525
O O5 0.750000 0.000000 0.040131
O O6 0.500000 0.000000 0.000000
O O7 0.250000 0.745025 0.790001
O O8 0.985408 0.778591 0.761684
O O9 0.094083 0.000000 0.815699
O O10 0.500000 0.723970 0.500000
O O11 0.250000 0.726295 0.537473
O O12 0.476492 0.754902 0.588141
O O13 0.403948 0.000000 0.535250
O O14 0.750000 0.229878 0.359008
O O15 0.907716 0.500000 0.362494
O O16 0.008735 0.231667 0.325065
O O17 0.250000 0.243438 0.283040
O O18 0.426734 0.500000 0.277747
#
# Coordination Sequence:
#
# PCOD8209466 Si02
#       6
#     8   4   8   8   8   8
#     4   9  17  32  56  82 109 143 183 229 275 320
#     4  10  20  36  56  82 114 146 186 230 273 324
#     4  10  19  33  55  81 105 134 179 227 267 316
#     4   9  18  32  49  69  93 121 156 200 251 306
#     4   9  18  33  51  70  95 129 169 211 253 303
#     4  10  21  35  50  73 106 140 172 210 262 321
#
# _framework density 19.523399000000001
#
# number of rings (size 3 to 8) (size 9 to 14) (size 15 to 20)
#    0.000    2.545    0.909    1.091    0.000    4.364 
#    0.000    2.727    0.000    1.091    0.000    0.000 
#    0.000    0.000    0.000    0.000    0.000    0.000 
#
# Total GULP energy -545488.847857 kJ/mol
# GULP energy per Si atom -12397.473815 kJ/mol
# Density = 1.947896 g / cm^3
# Si number density = 19.523399 Si / 1000 Ang^3
#
#
#
# Elastic Constant Matrix: (Units=GPa)
#
#
# Indices 1 2 3 4 5 6 
#
# 1 73.8503 26.8400 58.1969 0.0000 0.0000 0.0000
# 2 26.8400 75.2120 53.4597 0.0000 0.0000 0.0000
# 3 58.1969 53.4597 166.2369 0.0000 0.0000 0.0000
# 4 0.0000 0.0000 0.0000 29.7466 0.0000 0.0000
# 5 0.0000 0.0000 0.0000 0.0000 34.3883 0.0000
# 6 0.0000 0.0000 0.0000 0.0000 0.0000 15.4376
#
#
#
# Elastic Compliance Matrix: (Units=1/GPa)
#
#
# Indices 1 2 3 4 5 6 
#
# 1 0.019106 -0.002675 -0.005828 0.000000 0.000000 0.000000
# 2 -0.002675 0.017610 -0.004727 0.000000 0.000000 0.000000
# 3 -0.005828 -0.004727 0.009576 0.000000 0.000000 0.000000
# 4 0.000000 0.000000 0.000000 0.033617 0.000000 0.000000
# 5 0.000000 0.000000 0.000000 0.000000 0.029080 0.000000
# 6 0.000000 0.000000 0.000000 0.000000 0.000000 0.064777
#
#
# Mechanical properties :
#
#
# Convention : Reuss Voigt Hill
#
# Bulk Modulus (GPa) = 50.42488 65.81023 58.11755
# Shear Modulus (GPa) = 24.17357 27.70134 25.93746
#
# Velocity S-wave (km/s) = 3.52260 3.77089 3.64886
# Velocity P-wave (km/s) = 6.51375 7.26230 6.89819
#
# Compressibility (1/GPa) = 0.01983148
#
# Stress axis : x y z
#
# Youngs Moduli (GPa) = 52.33878 56.78567 104.42843
#
# Poissons Ratio (x) = 0.15193 0.60865
# Poissons Ratio (y) = 0.14003 0.49358
# Poissons Ratio (z) = 0.30505 0.26840
#
# Static dielectric constant tensor:
#      x y z
#    x 3.693930 0.000000 0.000000 
#    y 0.000000 3.540910 0.000000 
#    z 0.000000 0.000000 3.645650 
# 
# 
# High freq. dielectric constant tensor:
#      x y z
#    x 1.727640 0.000000 0.000000 
#    y 0.000000 1.757780 0.000000 
#    z 0.000000 0.000000 1.767160 
# 
# From -- ./inp_files/36718.got.cif
#   From: 2010.03.12/outbox.cif.g09.slc.cpg/sg51_19_cif.got.tgz:36718.got - 2010.04.16 13:43:02.
