data_PCOD8209030
_publ_section_title
;
Structure prediction by ZEFSAII (Michael W. Deem and Ramdas Pophale) SiO2 
 PCOD8209030
Probable space group: P M M A
;
_chemical_formula_sum "Si O2"
_cell_formula_units_Z 48
_cell_length_a 28.952471
_cell_length_b 8.795347
_cell_length_c 10.058276
_cell_angle_alpha 90.000000
_cell_angle_beta 90.000000
_cell_angle_gamma 90.000000
_cell_volume 2561.310100
_symmetry_space_group_name_H-M "P M M A"
_symmetry_group_IT_number 51
_symmetry_cell_setting 'orthorhombic'
loop_
_space_group_symop_operation_xyz
x,y,z
1/2-x,-y,z
1/2+x,-y,-z
-x,y,-z
-x,-y,-z
1/2+x,y,-z
1/2-x,y,z
x,-y,z
loop_
_atom_site_type_symbol
_atom_site_label
_atom_site_fract_x
_atom_site_fract_y
_atom_site_fract_z
Si Si1 0.022721 0.818787 0.366024
Si Si2 0.128475 0.180486 0.986578
Si Si3 0.696895 0.177014 0.236332
Si Si4 0.967847 0.181106 0.115901
Si Si5 0.696661 0.321091 0.511180
Si Si6 0.375386 0.181008 0.287947
O O1 0.075170 0.760376 0.343868
O O2 0.000000 0.753840 0.500000
O O3 0.988742 0.755330 0.252465
O O4 0.023551 0.000000 0.365997
O O5 0.171251 0.235462 0.896490
O O6 0.083311 0.244052 0.911077
O O7 0.126128 0.000000 0.995314
O O8 0.131602 0.243041 0.137220
O O9 0.750000 0.211817 0.209131
O O10 0.679321 0.265137 0.366808
O O11 0.686905 0.000000 0.261739
O O12 0.967844 0.000000 0.117879
O O13 0.000000 0.244108 0.000000
O O14 0.750000 0.271931 0.533224
O O15 0.690627 0.500000 0.519077
O O16 0.666081 0.245240 0.624659
O O17 0.373234 0.000000 0.292049
#
# Coordination Sequence:
#
# PCOD8209030 Si02
#       6
#     8   8   8   8   8   8
#     4   9  17  26  41  73 110 139 168 204 246 296
#     4   9  17  28  47  77 108 136 165 206 259 306
#     4   9  18  33  53  77 101 126 163 212 262 309
#     4   9  14  24  40  64 104 141 164 196 245 297
#     4  10  22  39  55  72  99 136 174 212 258 311
#     4  10  19  32  52  81 110 135 170 213 256 301
#
# _framework density 18.740411000000002
#
# number of rings (size 3 to 8) (size 9 to 14) (size 15 to 20)
#    0.000    2.667    1.667    0.500    2.333    1.667 
#    0.000    2.500    0.000    2.500    0.000    1.167 
#    0.000    0.000    0.000    0.000    0.000    0.000 
#
# Total GULP energy -595018.903806 kJ/mol
# GULP energy per Si atom -12396.227163 kJ/mol
# Density = 1.869776 g / cm^3
# Si number density = 18.740411 Si / 1000 Ang^3
#
#
#
# Elastic Constant Matrix: (Units=GPa)
#
#
# Indices 1 2 3 4 5 6 
#
# 1 128.0929 22.4629 100.0837 0.0000 0.0000 0.0000
# 2 22.4629 19.2852 23.7879 0.0000 0.0000 0.0000
# 3 100.0837 23.7879 195.1576 0.0000 0.0000 0.0000
# 4 0.0000 0.0000 0.0000 3.0978 0.0000 0.0000
# 5 0.0000 0.0000 0.0000 0.0000 44.8506 0.0000
# 6 0.0000 0.0000 0.0000 0.0000 0.0000 9.8921
#
#
#
# Elastic Compliance Matrix: (Units=1/GPa)
#
#
# Indices 1 2 3 4 5 6 
#
# 1 0.014217 -0.008905 -0.006206 0.000000 0.000000 0.000000
# 2 -0.008905 0.066607 -0.003552 0.000000 0.000000 0.000000
# 3 -0.006206 -0.003552 0.008739 0.000000 0.000000 0.000000
# 4 0.000000 0.000000 0.000000 0.322812 0.000000 0.000000
# 5 0.000000 0.000000 0.000000 0.000000 0.022296 0.000000
# 6 0.000000 0.000000 0.000000 0.000000 0.000000 0.101091
#
#
# Mechanical properties :
#
#
# Convention : Reuss Voigt Hill
#
# Bulk Modulus (GPa) = 19.14314 70.57829 44.86071
# Shear Modulus (GPa) = 8.46740 24.64819 16.55780
#
# Velocity S-wave (km/s) = 2.12793 3.63056 2.97566
# Velocity P-wave (km/s) = 4.03417 7.43757 5.98297
#
# Compressibility (1/GPa) = 0.05223804
#
# Stress axis : x y z
#
# Youngs Moduli (GPa) = 70.33756 15.01348 114.42386
#
# Poissons Ratio (x) = 0.13370 0.71007
# Poissons Ratio (y) = 0.62638 0.40641
# Poissons Ratio (z) = 0.43649 0.05332
#
# Static dielectric constant tensor:
#      x y z
#    x 3.609940 0.000000 0.000000 
#    y 0.000000 2.828920 0.000000 
#    z 0.000000 0.000000 3.747960 
# 
# 
# High freq. dielectric constant tensor:
#      x y z
#    x 1.737660 0.000000 0.000000 
#    y 0.000000 1.663630 0.000000 
#    z 0.000000 0.000000 1.742480 
# 
# From -- ./inp_files/12821.got.cif
#   From: 2010.03.12/outbox.cif.g09.slc.cpg/sg51_7_cif.got.tgz:12821.got - 2010.04.16 13:43:02.
