data_PCOD8209507
_publ_section_title
;
Structure prediction by ZEFSAII (Michael W. Deem and Ramdas Pophale) SiO2 
 PCOD8209507
Probable space group: P M M A
;
_chemical_formula_sum "Si O2"
_cell_formula_units_Z 64
_cell_length_a 19.698153
_cell_length_b 9.095446
_cell_length_c 19.746933
_cell_angle_alpha 90.000000
_cell_angle_beta 90.000000
_cell_angle_gamma 90.000000
_cell_volume 3537.929372
_symmetry_space_group_name_H-M "P M M A"
_symmetry_group_IT_number 51
_symmetry_cell_setting 'orthorhombic'
loop_
_space_group_symop_operation_xyz
x,y,z
1/2-x,-y,z
1/2+x,-y,-z
-x,y,-z
-x,-y,-z
1/2+x,y,-z
1/2-x,y,z
x,-y,z
loop_
_atom_site_type_symbol
_atom_site_label
_atom_site_fract_x
_atom_site_fract_y
_atom_site_fract_z
Si Si1 0.393923 0.828972 0.802171
Si Si2 0.172191 0.333234 0.921087
Si Si3 0.827353 0.169397 0.440133
Si Si4 0.930635 0.327849 0.964306
Si Si5 0.950827 0.828333 0.828102
Si Si6 0.415110 0.327721 0.667405
Si Si7 0.327935 0.831859 0.402263
Si Si8 0.930749 0.327770 0.692630
O O1 0.341355 0.769998 0.857203
O O2 0.469220 0.793951 0.828547
O O3 0.379614 0.748819 0.731435
O O4 0.381369 0.000000 0.790690
O O5 0.250000 0.320477 0.942047
O O6 0.151774 0.500000 0.901421
O O7 0.130077 0.281720 0.986187
O O8 0.750000 0.209195 0.420228
O O9 0.879724 0.271423 0.400466
O O10 0.839306 0.200053 0.518920
O O11 0.842282 0.000000 0.422711
O O12 0.931486 0.500000 0.947113
O O13 0.918581 0.239632 0.895376
O O14 0.000000 0.278080 0.000000
O O15 0.916154 0.754147 0.763124
O O16 0.935011 0.000000 0.825683
O O17 0.403665 0.500000 0.674297
O O18 0.494703 0.286777 0.664406
O O19 0.250000 0.801447 0.382299
O O20 0.375464 0.722023 0.361450
O O21 0.347314 0.000000 0.385298
O O22 0.923823 0.500000 0.705607
#
# Coordination Sequence:
#
# PCOD8209507 Si02
#       8
#     8   8   8   8   8   8   8   8
#     4  10  20  34  53  76 103 137 177 218 262 314
#     4  10  21  36  53  76 107 140 174 214 262 316
#     4   9  19  36  56  78 106 142 183 224 268 323
#     4  10  19  33  56  80 103 137 177 217 263 316
#     4  10  20  34  55  81 106 135 177 223 265 313
#     4  10  21  35  53  79 111 144 180 223 268 316
#     4   9  19  37  59  81 107 141 181 224 272 326
#     4  10  21  36  55  81 112 143 179 224 271 321
#
# _framework density 18.089677999999999
#
# number of rings (size 3 to 8) (size 9 to 14) (size 15 to 20)
#    0.000    2.250    1.250    2.250    0.000    5.500 
#    0.000    4.375    0.000    2.250    0.000    0.000 
#    0.000    0.000    0.000    0.000    0.000    0.000 
#
# Total GULP energy -793877.854470 kJ/mol
# GULP energy per Si atom -12404.341476 kJ/mol
# Density = 1.804851 g / cm^3
# Si number density = 18.089678 Si / 1000 Ang^3
#
#
#
# Elastic Constant Matrix: (Units=GPa)
#
#
# Indices 1 2 3 4 5 6 
#
# 1 82.7417 43.2094 58.2346 0.0000 0.0000 0.0000
# 2 43.2094 86.4650 58.6455 0.0000 0.0000 0.0000
# 3 58.2346 58.6455 113.5982 0.0000 0.0000 0.0000
# 4 0.0000 0.0000 0.0000 40.4342 0.0000 0.0000
# 5 0.0000 0.0000 0.0000 0.0000 28.9767 0.0000
# 6 0.0000 0.0000 0.0000 0.0000 0.0000 28.1720
#
#
#
# Elastic Compliance Matrix: (Units=1/GPa)
#
#
# Indices 1 2 3 4 5 6 
#
# 1 0.020075 -0.004697 -0.007867 0.000000 0.000000 0.000000
# 2 -0.004697 0.018896 -0.007347 0.000000 0.000000 0.000000
# 3 -0.007867 -0.007347 0.016629 0.000000 0.000000 0.000000
# 4 0.000000 0.000000 0.000000 0.024732 0.000000 0.000000
# 5 0.000000 0.000000 0.000000 0.000000 0.034510 0.000000
# 6 0.000000 0.000000 0.000000 0.000000 0.000000 0.035496
#
#
# Mechanical properties :
#
#
# Convention : Reuss Voigt Hill
#
# Bulk Modulus (GPa) = 63.37728 66.99821 65.18775
# Shear Modulus (GPa) = 25.58609 27.69759 26.64184
#
# Velocity S-wave (km/s) = 3.76493 3.91721 3.84183
# Velocity P-wave (km/s) = 7.34920 7.58792 7.46951
#
# Compressibility (1/GPa) = 0.01577852
#
# Stress axis : x y z
#
# Youngs Moduli (GPa) = 49.81307 52.92166 60.13672
#
# Poissons Ratio (x) = 0.24855 0.47307
# Poissons Ratio (y) = 0.23395 0.44185
# Poissons Ratio (z) = 0.39186 0.38884
#
# Static dielectric constant tensor:
#      x y z
#    x 3.208780 0.000000 0.000000 
#    y 0.000000 3.302350 0.000000 
#    z 0.000000 0.000000 3.299720 
# 
# 
# High freq. dielectric constant tensor:
#      x y z
#    x 1.687530 0.000000 0.000000 
#    y 0.000000 1.704560 0.000000 
#    z 0.000000 0.000000 1.705130 
# 
# From -- ./inp_files/30612.got.cif
#   From: 2010.03.12/outbox.cif.g09.slc.cpg/sg51_16_cif.got.tgz:30612.got - 2010.04.16 13:43:02.
