data_PCOD8209542
_publ_section_title
;
Structure prediction by ZEFSAII (Michael W. Deem and Ramdas Pophale) SiO2 
 PCOD8209542
Probable space group: P M M A
;
_chemical_formula_sum "Si O2"
_cell_formula_units_Z 64
_cell_length_a 18.001149
_cell_length_b 14.811997
_cell_length_c 12.212154
_cell_angle_alpha 90.000000
_cell_angle_beta 90.000000
_cell_angle_gamma 90.000000
_cell_volume 3256.162830
_symmetry_space_group_name_H-M "P M M A"
_symmetry_group_IT_number 51
_symmetry_cell_setting 'orthorhombic'
loop_
_space_group_symop_operation_xyz
x,y,z
1/2-x,-y,z
1/2+x,-y,-z
-x,y,-z
-x,-y,-z
1/2+x,y,-z
1/2-x,y,z
x,-y,z
loop_
_atom_site_type_symbol
_atom_site_label
_atom_site_fract_x
_atom_site_fract_y
_atom_site_fract_z
Si Si1 0.831379 0.605881 0.994816
Si Si2 0.396626 0.396702 0.230552
Si Si3 0.033157 0.672603 0.882233
Si Si4 0.914613 0.895985 0.471034
Si Si5 0.559345 0.144973 0.226809
Si Si6 0.395127 0.100601 0.183456
Si Si7 0.663218 0.233029 0.640797
Si Si8 0.168797 0.103150 0.962156
O O1 0.750000 0.639916 0.028884
O O2 0.837358 0.500000 0.985890
O O3 0.848512 0.640891 0.872009
O O4 0.885155 0.635691 0.092779
O O5 0.377617 0.500000 0.266682
O O6 0.481258 0.397689 0.183603
O O7 0.380007 0.327826 0.331762
O O8 0.039829 0.752014 0.795157
O O9 0.000000 0.702031 0.000000
O O10 0.905320 0.873162 0.344246
O O11 0.868460 0.819095 0.534684
O O12 0.000000 0.885055 0.500000
O O13 0.888215 0.000000 0.496008
O O14 0.482271 0.092179 0.210861
O O15 0.623665 0.112494 0.147870
O O16 0.348352 0.164728 0.260562
O O17 0.362421 0.000000 0.196201
O O18 0.381273 0.141578 0.061846
O O19 0.750000 0.254404 0.622898
O O20 0.250000 0.151792 0.955120
O O21 0.183451 0.000000 0.986394
#
# Coordination Sequence:
#
# PCOD8209542 Si02
#       8
#     8   8   8   8   8   8   8   8
#     4   9  18  32  53  85 123 163 205 250 308 373
#     4  10  20  38  62  89 122 160 202 255 314 374
#     4  10  19  33  56  90 126 164 207 248 299 368
#     4  11  23  42  64  85 116 161 211 260 305 361
#     4  12  22  37  62  88 119 163 215 253 297 364
#     4  11  21  38  61  88 121 161 204 252 305 365
#     4  12  25  40  63  94 122 153 203 264 318 364
#     4  10  22  36  52  83 126 166 203 248 307 371
#
# _framework density 19.655037
#
# number of rings (size 3 to 8) (size 9 to 14) (size 15 to 20)
#    0.000    1.375    2.500    3.750    1.750    5.750 
#    0.000    0.000    0.000    4.125    0.000    0.000 
#    0.000    0.000    0.000    0.000    0.000    0.000 
#
# Total GULP energy -793082.279316 kJ/mol
# GULP energy per Si atom -12391.910614 kJ/mol
# Density = 1.961030 g / cm^3
# Si number density = 19.655037 Si / 1000 Ang^3
#
#
#
# Elastic Constant Matrix: (Units=GPa)
#
#
# Indices 1 2 3 4 5 6 
#
# 1 114.9355 30.2466 42.8784 0.0000 0.0000 0.0000
# 2 30.2466 89.7520 37.4188 0.0000 0.0000 0.0000
# 3 42.8784 37.4188 124.3237 0.0000 0.0000 0.0000
# 4 0.0000 0.0000 0.0000 -54.4007 0.0000 0.0000
# 5 0.0000 0.0000 0.0000 0.0000 23.6757 0.0000
# 6 0.0000 0.0000 0.0000 0.0000 0.0000 21.5766
#
#
#
# Elastic Compliance Matrix: (Units=1/GPa)
#
#
# Indices 1 2 3 4 5 6 
#
# 1 0.010383 -0.002294 -0.002890 0.000000 0.000000 0.000000
# 2 -0.002294 0.013247 -0.003196 0.000000 0.000000 0.000000
# 3 -0.002890 -0.003196 0.010002 0.000000 0.000000 0.000000
# 4 0.000000 0.000000 0.000000 -0.018382 0.000000 0.000000
# 5 0.000000 0.000000 0.000000 0.000000 0.042237 0.000000
# 6 0.000000 0.000000 0.000000 0.000000 0.000000 0.046347
#
#
# Mechanical properties :
#
#
# Convention : Reuss Voigt Hill
#
# Bulk Modulus (GPa) = 59.27154 61.12209 60.19682
# Shear Modulus (GPa) = 39.61384 12.73481 26.17432
#
# Velocity S-wave (km/s) = 4.49425 2.54818 3.65319
# Velocity P-wave (km/s) = 7.55992 6.31051 6.96330
#
# Compressibility (1/GPa) = 0.01687150
#
# Stress axis : x y z
#
# Youngs Moduli (GPa) = 96.31580 75.48702 99.97650
#
# Poissons Ratio (x) = 0.17316 0.28898
# Poissons Ratio (y) = 0.22094 0.31953
# Poissons Ratio (z) = 0.27840 0.24126
#
# Static dielectric constant tensor:
#      x y z
#    x 11.923760 0.000000 0.000000 
#    y 0.000000 3.699110 0.000000 
#    z 0.000000 0.000000 3.643320 
# 
# 
# High freq. dielectric constant tensor:
#      x y z
#    x 1.769130 0.000000 0.000000 
#    y 0.000000 1.767370 0.000000 
#    z 0.000000 0.000000 1.742540 
# 
# From -- ./inp_files/17593.got.cif
#   From: 2010.03.12/outbox.cif.g09.slc.cpg/sg51_9_cif.got.tgz:17593.got - 2010.04.16 13:43:02.
