data_PCOD8209422
_publ_section_title
;
Structure prediction by ZEFSAII (Michael W. Deem and Ramdas Pophale) SiO2 
 PCOD8209422
Probable space group: P M M A
;
_chemical_formula_sum "Si O2"
_cell_formula_units_Z 56
_cell_length_a 9.818158
_cell_length_b 14.352022
_cell_length_c 19.572284
_cell_angle_alpha 90.000000
_cell_angle_beta 90.000000
_cell_angle_gamma 90.000000
_cell_volume 2757.938751
_symmetry_space_group_name_H-M "P M M A"
_symmetry_group_IT_number 51
_symmetry_cell_setting 'orthorhombic'
loop_
_space_group_symop_operation_xyz
x,y,z
1/2-x,-y,z
1/2+x,-y,-z
-x,y,-z
-x,-y,-z
1/2+x,y,-z
1/2-x,y,z
x,-y,z
loop_
_atom_site_type_symbol
_atom_site_label
_atom_site_fract_x
_atom_site_fract_y
_atom_site_fract_z
Si Si1 0.089307 0.896452 0.667157
Si Si2 0.989606 0.396769 0.201364
Si Si3 0.912929 0.264110 0.431750
Si Si4 0.396221 0.608547 0.053515
Si Si5 0.907587 0.891288 0.063344
Si Si6 0.900731 0.198537 0.199332
Si Si7 0.599297 0.394677 0.652881
O O1 0.250000 0.900780 0.676643
O O2 0.056383 0.837734 0.599191
O O3 0.024316 0.846483 0.734348
O O4 0.027072 0.000000 0.658643
O O5 0.917891 0.500000 0.198640
O O6 0.886337 0.310472 0.207760
O O7 0.071005 0.376912 0.132480
O O8 0.092045 0.392865 0.264997
O O9 0.750000 0.281134 0.442736
O O10 0.000000 0.273994 0.500000
O O11 0.972719 0.339313 0.379039
O O12 0.250000 0.655010 0.039041
O O13 0.389206 0.500000 0.036227
O O14 0.500000 0.656988 0.000000
O O15 0.750000 0.866590 0.047640
O O16 0.968875 0.833999 0.128280
O O17 0.925169 0.000000 0.079716
O O18 0.000000 0.860520 0.000000
O O19 0.750000 0.156189 0.196805
O O20 0.750000 0.355353 0.632470
O O21 0.585748 0.500000 0.625846
#
# Coordination Sequence:
#
# PCOD8209422 Si02
#       7
#     8   8   8   8   8   8   8
#     4   9  18  35  60  88 117 151 192 237 288 348
#     4  10  20  34  54  81 113 153 197 241 291 346
#     4  11  23  40  63  93 124 156 193 235 288 347
#     4   9  18  33  51  72 102 143 190 236 282 332
#     4   9  18  34  57  82 110 146 190 242 297 351
#     4  10  19  33  54  84 115 149 194 241 290 343
#     4  10  21  39  63  89 119 159 203 245 292 345
#
# _framework density 20.305019999999999
#
# number of rings (size 3 to 8) (size 9 to 14) (size 15 to 20)
#    0.000    2.286    1.429    1.286    0.000    5.714 
#    0.000    5.714    0.000    1.286    0.000    0.000 
#    0.000    0.000    0.000    0.000    0.000    0.000 
#
# Total GULP energy -693865.849114 kJ/mol
# GULP energy per Si atom -12390.461591 kJ/mol
# Density = 2.025880 g / cm^3
# Si number density = 20.305020 Si / 1000 Ang^3
#
#
#
# Elastic Constant Matrix: (Units=GPa)
#
#
# Indices 1 2 3 4 5 6 
#
# 1 94.2741 29.0184 53.8394 0.0000 0.0000 0.0000
# 2 29.0184 104.7228 39.6833 0.0000 0.0000 0.0000
# 3 53.8394 39.6833 130.3928 0.0000 0.0000 0.0000
# 4 0.0000 0.0000 0.0000 29.1148 0.0000 0.0000
# 5 0.0000 0.0000 0.0000 0.0000 21.5874 0.0000
# 6 0.0000 0.0000 0.0000 0.0000 0.0000 17.5036
#
#
#
# Elastic Compliance Matrix: (Units=1/GPa)
#
#
# Indices 1 2 3 4 5 6 
#
# 1 0.014220 -0.001939 -0.005282 0.000000 0.000000 0.000000
# 2 -0.001939 0.011058 -0.002565 0.000000 0.000000 0.000000
# 3 -0.005282 -0.002565 0.010630 0.000000 0.000000 0.000000
# 4 0.000000 0.000000 0.000000 0.034347 0.000000 0.000000
# 5 0.000000 0.000000 0.000000 0.000000 0.046323 0.000000
# 6 0.000000 0.000000 0.000000 0.000000 0.000000 0.057131
#
#
# Mechanical properties :
#
#
# Convention : Reuss Voigt Hill
#
# Bulk Modulus (GPa) = 61.20559 63.83020 62.51790
# Shear Modulus (GPa) = 25.16009 27.43106 26.29557
#
# Velocity S-wave (km/s) = 3.52391 3.67951 3.60255
# Velocity P-wave (km/s) = 6.83855 7.03958 6.93979
#
# Compressibility (1/GPa) = 0.01633838
#
# Stress axis : x y z
#
# Youngs Moduli (GPa) = 70.32112 90.43053 94.06951
#
# Poissons Ratio (x) = 0.17535 0.49683
# Poissons Ratio (y) = 0.13636 0.24127
# Poissons Ratio (z) = 0.37140 0.23193
#
# Static dielectric constant tensor:
#      x y z
#    x 3.465840 0.000000 0.000000 
#    y 0.000000 3.818730 0.000000 
#    z 0.000000 0.000000 3.756540 
# 
# 
# High freq. dielectric constant tensor:
#      x y z
#    x 1.757230 0.000000 0.000000 
#    y 0.000000 1.793070 0.000000 
#    z 0.000000 0.000000 1.801200 
# 
# From -- ./inp_files/31928.got.cif
#   From: 2010.03.12/outbox.cif.g09.slc.cpg/sg51_16_cif.got.tgz:31928.got - 2010.04.16 13:43:02.
