data_PCOD8209328
_publ_section_title
;
Structure prediction by ZEFSAII (Michael W. Deem and Ramdas Pophale) SiO2 
 PCOD8209328
Probable space group: P M M A
;
_chemical_formula_sum "Si O2"
_cell_formula_units_Z 56
_cell_length_a 18.501456
_cell_length_b 9.050097
_cell_length_c 18.811696
_cell_angle_alpha 90.000000
_cell_angle_beta 90.000000
_cell_angle_gamma 90.000000
_cell_volume 3149.829841
_symmetry_space_group_name_H-M "P M M A"
_symmetry_group_IT_number 51
_symmetry_cell_setting 'orthorhombic'
loop_
_space_group_symop_operation_xyz
x,y,z
1/2-x,-y,z
1/2+x,-y,-z
-x,y,-z
-x,-y,-z
1/2+x,y,-z
1/2-x,y,z
x,-y,z
loop_
_atom_site_type_symbol
_atom_site_label
_atom_site_fract_x
_atom_site_fract_y
_atom_site_fract_z
Si Si1 0.827087 0.827073 0.870081
Si Si2 0.940675 0.170263 0.348894
Si Si3 0.030432 0.334553 0.788518
Si Si4 0.919661 0.325698 0.592398
Si Si5 0.666855 0.830805 0.470914
Si Si6 0.133425 0.661848 0.260468
Si Si7 0.520936 0.824390 0.921483
O O1 0.750000 0.781172 0.906258
O O2 0.823565 0.775590 0.788243
O O3 0.896778 0.763353 0.911015
O O4 0.835134 0.000000 0.868638
O O5 0.925876 0.247010 0.272481
O O6 0.865955 0.184445 0.391987
O O7 0.004230 0.244508 0.395313
O O8 0.962102 0.000000 0.335644
O O9 0.062401 0.500000 0.797935
O O10 0.949352 0.342005 0.762003
O O11 0.033008 0.249804 0.864338
O O12 0.935768 0.500000 0.587332
O O13 0.880640 0.271235 0.521887
O O14 0.864275 0.290363 0.657143
O O15 0.750000 0.777129 0.469112
O O16 0.661518 0.000000 0.497197
O O17 0.168253 0.500000 0.250257
O O18 0.515108 0.000000 0.912380
O O19 0.500000 0.772621 0.000000
#
# Coordination Sequence:
#
# PCOD8209328 Si02
#       7
#     8   8   8   8   8   8   8
#     4   9  17  28  43  65  92 121 153 189 228 271
#     4  10  19  33  54  74  94 125 165 207 248 292
#     4   9  17  30  49  73  97 120 151 193 238 283
#     4  10  20  33  50  73  99 127 162 203 247 297
#     4  10  22  37  50  68  96 129 166 209 256 301
#     4   8  16  29  43  63  91 120 149 182 223 275
#     4   9  17  30  49  72  97 126 159 192 230 281
#
# _framework density 17.778737
#
# number of rings (size 3 to 8) (size 9 to 14) (size 15 to 20)
#    0.000    2.714    0.000    2.571    0.000    8.286 
#    0.000    2.857    0.000    0.857    0.000    4.000 
#    0.000    0.000    0.000    0.000    0.000    0.000 
#
# Total GULP energy -694026.722215 kJ/mol
# GULP energy per Si atom -12393.334325 kJ/mol
# Density = 1.773827 g / cm^3
# Si number density = 17.778737 Si / 1000 Ang^3
#
#
#
# Elastic Constant Matrix: (Units=GPa)
#
#
# Indices 1 2 3 4 5 6 
#
# 1 57.9904 23.1285 34.0435 0.0000 0.0000 0.0000
# 2 23.1285 64.9233 40.9597 0.0000 0.0000 0.0000
# 3 34.0435 40.9597 121.5639 0.0000 0.0000 0.0000
# 4 0.0000 0.0000 0.0000 23.1509 0.0000 0.0000
# 5 0.0000 0.0000 0.0000 0.0000 11.7375 0.0000
# 6 0.0000 0.0000 0.0000 0.0000 0.0000 6.4160
#
#
#
# Elastic Compliance Matrix: (Units=1/GPa)
#
#
# Indices 1 2 3 4 5 6 
#
# 1 0.021835 -0.004979 -0.004437 0.000000 0.000000 0.000000
# 2 -0.004979 0.020696 -0.005579 0.000000 0.000000 0.000000
# 3 -0.004437 -0.005579 0.011349 0.000000 0.000000 0.000000
# 4 0.000000 0.000000 0.000000 0.043195 0.000000 0.000000
# 5 0.000000 0.000000 0.000000 0.000000 0.085197 0.000000
# 6 0.000000 0.000000 0.000000 0.000000 0.000000 0.155860
#
#
# Mechanical properties :
#
#
# Convention : Reuss Voigt Hill
#
# Bulk Modulus (GPa) = 41.86002 48.97124 45.41563
# Shear Modulus (GPa) = 13.29485 18.01726 15.65605
#
# Velocity S-wave (km/s) = 2.73755 3.18687 2.97072
# Velocity P-wave (km/s) = 5.79555 6.41453 6.11288
#
# Compressibility (1/GPa) = 0.02388914
#
# Stress axis : x y z
#
# Youngs Moduli (GPa) = 45.79816 48.31761 88.11733
#
# Poissons Ratio (x) = 0.24059 0.39098
# Poissons Ratio (y) = 0.22804 0.49161
# Poissons Ratio (z) = 0.20321 0.26957
#
# Static dielectric constant tensor:
#      x y z
#    x 3.253050 0.000000 0.000000 
#    y 0.000000 3.406390 0.000000 
#    z 0.000000 0.000000 3.412830 
# 
# 
# High freq. dielectric constant tensor:
#      x y z
#    x 1.659820 0.000000 0.000000 
#    y 0.000000 1.691120 0.000000 
#    z 0.000000 0.000000 1.679390 
# 
# From -- ./inp_files/30478.got.cif
#   From: 2010.03.12/outbox.cif.g09.slc.cpg/sg51_16_cif.got.tgz:30478.got - 2010.04.16 13:43:02.
