data_PCOD8209486
_publ_section_title
;
Structure prediction by ZEFSAII (Michael W. Deem and Ramdas Pophale) SiO2 
 PCOD8209486
Probable space group: P M M A
;
_chemical_formula_sum "Si O2"
_cell_formula_units_Z 56
_cell_length_a 14.875224
_cell_length_b 19.830921
_cell_length_c 8.781923
_cell_angle_alpha 90.000000
_cell_angle_beta 90.000000
_cell_angle_gamma 90.000000
_cell_volume 2590.574126
_symmetry_space_group_name_H-M "P M M A"
_symmetry_group_IT_number 51
_symmetry_cell_setting 'orthorhombic'
loop_
_space_group_symop_operation_xyz
x,y,z
1/2-x,-y,z
1/2+x,-y,-z
-x,y,-z
-x,-y,-z
1/2+x,y,-z
1/2-x,y,z
x,-y,z
loop_
_atom_site_type_symbol
_atom_site_label
_atom_site_fract_x
_atom_site_fract_y
_atom_site_fract_z
Si Si1 0.355144 0.163377 0.840954
Si Si2 0.347871 0.299409 0.710243
Si Si3 0.854390 0.824475 0.801128
Si Si4 0.142882 0.573079 0.875505
Si Si5 0.645877 0.576656 0.777495
Si Si6 0.910900 0.300055 0.600398
Si Si7 0.502552 0.920895 0.677042
O O1 0.250000 0.149501 0.801640
O O2 0.396079 0.230844 0.762952
O O3 0.414666 0.103515 0.770463
O O4 0.369681 0.174724 0.018955
O O5 0.250000 0.297926 0.788635
O O6 0.398590 0.366645 0.772174
O O7 0.334065 0.300433 0.528300
O O8 0.750000 0.830881 0.758142
O O9 0.894528 0.756375 0.728070
O O10 0.905577 0.889318 0.738526
O O11 0.250000 0.571146 0.861961
O O12 0.105134 0.500000 0.819690
O O13 0.113637 0.584478 0.049089
O O14 0.750000 0.597876 0.762222
O O15 0.631863 0.500000 0.720610
O O16 0.585395 0.626923 0.678639
O O17 0.000000 0.286701 0.500000
O O18 0.500000 0.901360 0.500000
O O19 0.508582 0.000000 0.702801
#
# Coordination Sequence:
#
# PCOD8209486 Si02
#       7
#     8   8   8   8   8   8   8
#     4  10  22  40  65  95 126 165 211 257 304 361
#     4  10  19  33  55  82 112 146 192 248 303 365
#     4  11  23  41  66  92 121 162 213 263 311 368
#     4   8  15  30  54  81 107 142 194 255 314 372
#     4   9  18  35  57  78 106 149 200 253 312 380
#     4  12  24  36  54  83 121 161 202 255 318 380
#     4  11  25  44  66  95 131 166 200 245 306 373
#
# _framework density 21.616828999999999
#
# number of rings (size 3 to 8) (size 9 to 14) (size 15 to 20)
#    0.000    1.857    0.000    5.571    0.000    6.571 
#    0.000    6.429    0.000    1.714    0.000    0.000 
#    0.000    0.000    0.000    0.000    0.000    0.000 
#
# Total GULP energy -694093.772269 kJ/mol
# GULP energy per Si atom -12394.531648 kJ/mol
# Density = 2.156763 g / cm^3
# Si number density = 21.616829 Si / 1000 Ang^3
#
#
#
# Elastic Constant Matrix: (Units=GPa)
#
#
# Indices 1 2 3 4 5 6 
#
# 1 97.3813 44.7651 37.6620 0.0000 0.0000 0.0000
# 2 44.7651 138.6130 67.4909 0.0000 0.0000 0.0000
# 3 37.6620 67.4909 121.6250 0.0000 0.0000 0.0000
# 4 0.0000 0.0000 0.0000 42.2645 0.0000 0.0000
# 5 0.0000 0.0000 0.0000 0.0000 30.9284 0.0000
# 6 0.0000 0.0000 0.0000 0.0000 0.0000 18.7337
#
#
#
# Elastic Compliance Matrix: (Units=1/GPa)
#
#
# Indices 1 2 3 4 5 6 
#
# 1 0.012486 -0.002946 -0.002232 0.000000 0.000000 0.000000
# 2 -0.002946 0.010580 -0.004959 0.000000 0.000000 0.000000
# 3 -0.002232 -0.004959 0.011665 0.000000 0.000000 0.000000
# 4 0.000000 0.000000 0.000000 0.023661 0.000000 0.000000
# 5 0.000000 0.000000 0.000000 0.000000 0.032333 0.000000
# 6 0.000000 0.000000 0.000000 0.000000 0.000000 0.053380
#
#
# Mechanical properties :
#
#
# Convention : Reuss Voigt Hill
#
# Bulk Modulus (GPa) = 69.16434 73.05057 71.10746
# Shear Modulus (GPa) = 29.55148 32.23208 30.89178
#
# Velocity S-wave (km/s) = 3.70139 3.86562 3.78439
# Velocity P-wave (km/s) = 7.09451 7.33422 7.21536
#
# Compressibility (1/GPa) = 0.01445832
#
# Stress axis : x y z
#
# Youngs Moduli (GPa) = 80.08850 94.51677 85.72804
#
# Poissons Ratio (x) = 0.27842 0.19133
# Poissons Ratio (y) = 0.23592 0.42511
# Poissons Ratio (z) = 0.17874 0.46869
#
# Static dielectric constant tensor:
#      x y z
#    x 3.831560 0.000000 0.000000 
#    y 0.000000 4.092510 0.000000 
#    z 0.000000 0.000000 4.127980 
# 
# 
# High freq. dielectric constant tensor:
#      x y z
#    x 1.845650 0.000000 0.000000 
#    y 0.000000 1.852360 0.000000 
#    z 0.000000 0.000000 1.854460 
# 
# From -- ./inp_files/8563.got.cif
#   From: 2010.03.12/outbox.cif.g09.slc.cpg/sg51_5_cif.got.tgz:8563.got - 2010.04.16 13:43:02.
