data_PCOD8209074
_publ_section_title
;
Structure prediction by ZEFSAII (Michael W. Deem and Ramdas Pophale) SiO2 
 PCOD8209074
Probable space group: P M M A
;
_chemical_formula_sum "Si O2"
_cell_formula_units_Z 52
_cell_length_a 8.924916
_cell_length_b 22.841349
_cell_length_c 14.200612
_cell_angle_alpha 90.000000
_cell_angle_beta 90.000000
_cell_angle_gamma 90.000000
_cell_volume 2894.895881
_symmetry_space_group_name_H-M "P M M A"
_symmetry_group_IT_number 51
_symmetry_cell_setting 'orthorhombic'
loop_
_space_group_symop_operation_xyz
x,y,z
1/2-x,-y,z
1/2+x,-y,-z
-x,y,-z
-x,-y,-z
1/2+x,y,-z
1/2-x,y,z
x,-y,z
loop_
_atom_site_type_symbol
_atom_site_label
_atom_site_fract_x
_atom_site_fract_y
_atom_site_fract_z
Si Si1 0.076725 0.382898 0.705324
Si Si2 0.925521 0.066986 0.403438
Si Si3 0.573286 0.722266 0.600902
Si Si4 0.076097 0.656758 0.907050
Si Si5 0.073858 0.780931 0.094011
Si Si6 0.573562 0.500000 0.398323
Si Si7 0.424331 0.837094 0.288372
O O1 0.250000 0.370449 0.680512
O O2 0.053845 0.386308 0.818248
O O3 0.020977 0.443521 0.660378
O O4 0.976410 0.331371 0.664984
O O5 0.750000 0.075029 0.414605
O O6 0.000000 0.089237 0.500000
O O7 0.983865 0.105555 0.317013
O O8 0.970412 0.000000 0.382627
O O9 0.500000 0.716677 0.500000
O O10 0.750000 0.719926 0.589841
O O11 0.520714 0.782257 0.649552
O O12 0.250000 0.667951 0.928097
O O13 0.999341 0.718504 0.883383
O O14 0.000000 0.628356 0.000000
O O15 0.250000 0.771697 0.079817
O O16 0.040484 0.825047 0.179196
O O17 0.000000 0.808244 0.000000
O O18 0.750000 0.500000 0.412549
O O19 0.500000 0.500000 0.500000
O O20 0.250000 0.849103 0.305191
#
# Coordination Sequence:
#
# PCOD8209074 Si02
#       7
#     8   8   8   8   8   4   8
#     4  10  21  37  56  77 103 139 178 218 267 318
#     4  10  21  36  55  79 108 144 184 223 263 312
#     4  11  22  35  51  76 109 138 172 218 266 317
#     4  10  19  32  53  79 106 138 173 213 265 319
#     4  10  19  33  52  79 110 140 175 215 263 317
#     4  10  22  40  57  76 102 136 181 224 263 318
#     4  10  21  35  53  79 109 141 176 218 266 316
#
# _framework density 17.962648000000002
#
# number of rings (size 3 to 8) (size 9 to 14) (size 15 to 20)
#    0.000    1.846    1.538    3.692    0.000    7.077 
#    0.000    0.385    0.000    0.462    0.000    0.000 
#    0.000    0.000    0.000    0.000    0.000    0.000 
#
# Total GULP energy -644923.716815 kJ/mol
# GULP energy per Si atom -12402.379170 kJ/mol
# Density = 1.792176 g / cm^3
# Si number density = 17.962648 Si / 1000 Ang^3
#
#
#
# Elastic Constant Matrix: (Units=GPa)
#
#
# Indices 1 2 3 4 5 6 
#
# 1 78.0436 38.6424 50.0784 0.0000 0.0000 0.0000
# 2 38.6424 92.4317 58.3776 0.0000 0.0000 0.0000
# 3 50.0784 58.3776 141.5679 0.0000 0.0000 0.0000
# 4 0.0000 0.0000 0.0000 28.4016 0.0000 0.0000
# 5 0.0000 0.0000 0.0000 0.0000 33.9388 0.0000
# 6 0.0000 0.0000 0.0000 0.0000 0.0000 23.5241
#
#
#
# Elastic Compliance Matrix: (Units=1/GPa)
#
#
# Indices 1 2 3 4 5 6 
#
# 1 0.017988 -0.004734 -0.004411 0.000000 0.000000 0.000000
# 2 -0.004734 0.015875 -0.004871 0.000000 0.000000 0.000000
# 3 -0.004411 -0.004871 0.010633 0.000000 0.000000 0.000000
# 4 0.000000 0.000000 0.000000 0.035209 0.000000 0.000000
# 5 0.000000 0.000000 0.000000 0.000000 0.029465 0.000000
# 6 0.000000 0.000000 0.000000 0.000000 0.000000 0.042510
#
#
# Mechanical properties :
#
#
# Convention : Reuss Voigt Hill
#
# Bulk Modulus (GPa) = 60.74496 67.36002 64.05249
# Shear Modulus (GPa) = 26.99791 28.16921 27.58356
#
# Velocity S-wave (km/s) = 3.88106 3.96436 3.92293
# Velocity P-wave (km/s) = 7.34672 7.65090 7.50035
#
# Compressibility (1/GPa) = 0.01646227
#
# Stress axis : x y z
#
# Youngs Moduli (GPa) = 55.59338 62.99314 94.04834
#
# Poissons Ratio (x) = 0.29823 0.41482
# Poissons Ratio (y) = 0.26320 0.45815
# Poissons Ratio (z) = 0.24521 0.30687
#
# Static dielectric constant tensor:
#      x y z
#    x 3.370780 0.000000 0.000000 
#    y 0.000000 3.207020 0.000000 
#    z 0.000000 0.000000 3.513830 
# 
# 
# High freq. dielectric constant tensor:
#      x y z
#    x 1.704880 0.000000 0.000000 
#    y 0.000000 1.673710 0.000000 
#    z 0.000000 0.000000 1.707000 
# 
# From -- ./inp_files/21564.got.cif
#   From: 2010.03.12/outbox.cif.g09.slc.cpg/sg51_11_cif.got.tgz:21564.got - 2010.04.16 13:43:02.
