data_PCOD8209227
_publ_section_title
;
Structure prediction by ZEFSAII (Michael W. Deem and Ramdas Pophale) SiO2 
 PCOD8209227
Probable space group: P M M A
;
_chemical_formula_sum "Si O2"
_cell_formula_units_Z 64
_cell_length_a 9.380296
_cell_length_b 18.625261
_cell_length_c 19.617893
_cell_angle_alpha 90.000000
_cell_angle_beta 90.000000
_cell_angle_gamma 90.000000
_cell_volume 3427.451135
_symmetry_space_group_name_H-M "P M M A"
_symmetry_group_IT_number 51
_symmetry_cell_setting 'orthorhombic'
loop_
_space_group_symop_operation_xyz
x,y,z
1/2-x,-y,z
1/2+x,-y,-z
-x,y,-z
-x,-y,-z
1/2+x,y,-z
1/2-x,y,z
x,-y,z
loop_
_atom_site_type_symbol
_atom_site_label
_atom_site_fract_x
_atom_site_fract_y
_atom_site_fract_z
Si Si1 0.093322 0.625147 0.559012
Si Si2 0.588921 0.582165 0.682062
Si Si3 0.914849 0.417750 0.066506
Si Si4 0.082599 0.350294 0.792034
Si Si5 0.585673 0.081941 0.193194
Si Si6 0.093757 0.788794 0.560043
Si Si7 0.583720 0.790380 0.288643
Si Si8 0.409918 0.085250 0.062603
O O1 0.250000 0.587993 0.565666
O O2 0.116981 0.706929 0.538058
O O3 0.000000 0.586038 0.500000
O O4 0.008828 0.625219 0.629565
O O5 0.750000 0.613272 0.683253
O O6 0.591959 0.500000 0.659903
O O7 0.513283 0.589954 0.754953
O O8 0.750000 0.413533 0.047310
O O9 0.955950 0.500000 0.086727
O O10 0.949698 0.361974 0.127842
O O11 0.000000 0.391909 0.000000
O O12 0.250000 0.363483 0.777655
O O13 0.030023 0.272715 0.762612
O O14 0.750000 0.090412 0.170357
O O15 0.548781 0.132271 0.256747
O O16 0.487766 0.108417 0.131533
O O17 0.552182 0.000000 0.214322
O O18 0.250000 0.826743 0.562041
O O19 0.017191 0.791689 0.634952
O O20 0.000000 0.826252 0.500000
O O21 0.750000 0.776893 0.298810
O O22 0.250000 0.117109 0.061566
O O23 0.404589 0.000000 0.056446
O O24 0.500000 0.117865 0.000000
#
# Coordination Sequence:
#
# PCOD8209227 Si02
#       8
#     8   8   8   8   8   8   8   8
#     4  10  19  33  52  72  97 131 169 208 249 296
#     4  11  23  35  48  71 102 133 165 206 254 301
#     4   9  18  32  52  75  97 126 165 206 252 304
#     4  10  19  35  55  74  97 130 170 212 255 302
#     4   9  17  30  50  75 102 134 170 207 253 311
#     4   9  17  31  51  74  97 127 165 205 248 295
#     4   9  17  32  53  76 102 131 165 207 255 302
#     4   9  16  27  45  69  98 131 167 205 242 287
#
# _framework density 18.672768999999999
#
# number of rings (size 3 to 8) (size 9 to 14) (size 15 to 20)
#    0.000    2.500    1.250    1.500    0.000    4.250 
#    0.000    3.125    0.000    1.875    0.000    0.000 
#    0.000    0.000    0.000    0.000    0.000    0.000 
#
# Total GULP energy -793184.138740 kJ/mol
# GULP energy per Si atom -12393.502168 kJ/mol
# Density = 1.863027 g / cm^3
# Si number density = 18.672769 Si / 1000 Ang^3
#
#
#
# Elastic Constant Matrix: (Units=GPa)
#
#
# Indices 1 2 3 4 5 6 
#
# 1 107.0383 19.9112 67.6018 0.0000 0.0000 0.0000
# 2 19.9112 45.2316 38.9271 0.0000 0.0000 0.0000
# 3 67.6018 38.9271 159.7062 0.0000 0.0000 0.0000
# 4 0.0000 0.0000 0.0000 17.8333 0.0000 0.0000
# 5 0.0000 0.0000 0.0000 0.0000 35.3725 0.0000
# 6 0.0000 0.0000 0.0000 0.0000 0.0000 12.0687
#
#
#
# Elastic Compliance Matrix: (Units=1/GPa)
#
#
# Indices 1 2 3 4 5 6 
#
# 1 0.012805 -0.001230 -0.005120 0.000000 0.000000 0.000000
# 2 -0.001230 0.028095 -0.006327 0.000000 0.000000 0.000000
# 3 -0.005120 -0.006327 0.009971 0.000000 0.000000 0.000000
# 4 0.000000 0.000000 0.000000 0.056075 0.000000 0.000000
# 5 0.000000 0.000000 0.000000 0.000000 0.028271 0.000000
# 6 0.000000 0.000000 0.000000 0.000000 0.000000 0.082859
#
#
# Mechanical properties :
#
#
# Convention : Reuss Voigt Hill
#
# Bulk Modulus (GPa) = 39.19132 62.76181 50.97657
# Shear Modulus (GPa) = 19.84622 25.42397 22.63510
#
# Velocity S-wave (km/s) = 3.26366 3.69393 3.48544
# Velocity P-wave (km/s) = 5.93600 7.20263 6.59977
#
# Compressibility (1/GPa) = 0.02551585
#
# Stress axis : x y z
#
# Youngs Moduli (GPa) = 78.09335 35.59312 100.28934
#
# Poissons Ratio (x) = 0.04379 0.51353
# Poissons Ratio (y) = 0.09607 0.63456
# Poissons Ratio (z) = 0.39987 0.22521
#
# Static dielectric constant tensor:
#      x y z
#    x 3.633170 0.000000 0.000000 
#    y 0.000000 3.013880 0.000000 
#    z 0.000000 0.000000 3.468010 
# 
# 
# High freq. dielectric constant tensor:
#      x y z
#    x 1.718410 0.000000 0.000000 
#    y 0.000000 1.676820 0.000000 
#    z 0.000000 0.000000 1.730370 
# 
# From -- ./inp_files/32339.got.cif
#   From: 2010.03.12/outbox.cif.g09.slc.cpg/sg51_17_cif.got.tgz:32339.got - 2010.04.16 13:43:02.
