data_PCOD8209381
_publ_section_title
;
Structure prediction by ZEFSAII (Michael W. Deem and Ramdas Pophale) SiO2 
 PCOD8209381
Probable space group: P M M A
;
_chemical_formula_sum "Si O2"
_cell_formula_units_Z 56
_cell_length_a 8.841369
_cell_length_b 20.095118
_cell_length_c 15.299843
_cell_angle_alpha 90.000000
_cell_angle_beta 90.000000
_cell_angle_gamma 90.000000
_cell_volume 2718.297912
_symmetry_space_group_name_H-M "P M M A"
_symmetry_group_IT_number 51
_symmetry_cell_setting 'orthorhombic'
loop_
_space_group_symop_operation_xyz
x,y,z
1/2-x,-y,z
1/2+x,-y,-z
-x,y,-z
-x,-y,-z
1/2+x,y,-z
1/2-x,y,z
x,-y,z
loop_
_atom_site_type_symbol
_atom_site_label
_atom_site_fract_x
_atom_site_fract_y
_atom_site_fract_z
Si Si1 0.924008 0.667426 0.908850
Si Si2 0.928636 0.380954 0.588614
Si Si3 0.580466 0.897607 0.415440
Si Si4 0.072193 0.074006 0.776445
Si Si5 0.575954 0.203750 0.808704
Si Si6 0.421745 0.248534 0.634525
Si Si7 0.075114 0.575267 0.765065
O O1 0.750000 0.646492 0.913687
O O2 0.941566 0.746478 0.890641
O O3 0.999078 0.625292 0.832299
O O4 0.000000 0.649262 0.000000
O O5 0.750000 0.390764 0.587006
O O6 0.000000 0.411360 0.500000
O O7 0.967906 0.302718 0.592592
O O8 0.996669 0.419115 0.671119
O O9 0.500000 0.929121 0.500000
O O10 0.750000 0.924019 0.419010
O O11 0.510078 0.922438 0.323540
O O12 0.569675 0.817966 0.422504
O O13 0.250000 0.091011 0.778271
O O14 0.984002 0.129540 0.833724
O O15 0.040027 0.000000 0.814116
O O16 0.750000 0.199696 0.778243
O O17 0.472988 0.233222 0.732581
O O18 0.250000 0.276198 0.637191
O O19 0.250000 0.594618 0.755402
O O20 0.055276 0.500000 0.799322
#
# Coordination Sequence:
#
# PCOD8209381 Si02
#       7
#     8   8   8   8   8   8   8
#     4  11  24  42  68 100 130 162 201 250 308 375
#     4  12  24  38  59  88 123 166 213 261 311 366
#     4   9  18  29  43  68 102 143 191 244 298 352
#     4   9  19  35  53  75 108 154 202 246 302 370
#     4  10  20  35  58  89 120 152 195 249 305 361
#     4  10  19  33  54  79 112 155 200 251 307 362
#     4  11  25  45  68  94 127 167 209 256 311 369
#
# _framework density 20.601126000000001
#
# number of rings (size 3 to 8) (size 9 to 14) (size 15 to 20)
#    0.000    1.714    1.429    4.286    0.000    8.000 
#    0.000    0.000    0.000    0.429    0.000    0.000 
#    0.000    0.000    0.000    0.000    0.000    0.000 
#
# Total GULP energy -694359.707138 kJ/mol
# GULP energy per Si atom -12399.280485 kJ/mol
# Density = 2.055424 g / cm^3
# Si number density = 20.601126 Si / 1000 Ang^3
#
#
#
# Elastic Constant Matrix: (Units=GPa)
#
#
# Indices 1 2 3 4 5 6 
#
# 1 137.5841 43.6237 48.3296 0.0000 0.0000 0.0000
# 2 43.6237 104.8977 30.7282 0.0000 0.0000 0.0000
# 3 48.3296 30.7282 90.5241 0.0000 0.0000 0.0000
# 4 0.0000 0.0000 0.0000 2.0618 0.0000 0.0000
# 5 0.0000 0.0000 0.0000 0.0000 31.5558 0.0000
# 6 0.0000 0.0000 0.0000 0.0000 0.0000 25.9745
#
#
#
# Elastic Compliance Matrix: (Units=1/GPa)
#
#
# Indices 1 2 3 4 5 6 
#
# 1 0.009621 -0.002772 -0.004196 0.000000 0.000000 0.000000
# 2 -0.002772 0.011384 -0.002384 0.000000 0.000000 0.000000
# 3 -0.004196 -0.002384 0.014096 0.000000 0.000000 0.000000
# 4 0.000000 0.000000 0.000000 0.485015 0.000000 0.000000
# 5 0.000000 0.000000 0.000000 0.000000 0.031690 0.000000
# 6 0.000000 0.000000 0.000000 0.000000 0.000000 0.038499
#
#
# Mechanical properties :
#
#
# Convention : Reuss Voigt Hill
#
# Bulk Modulus (GPa) = 60.98522 64.26320 62.62421
# Shear Modulus (GPa) = 8.13702 25.94003 17.03852
#
# Velocity S-wave (km/s) = 1.98956 3.55231 2.87900
# Velocity P-wave (km/s) = 5.91142 6.93447 6.44329
#
# Compressibility (1/GPa) = 0.01639742
#
# Stress axis : x y z
#
# Youngs Moduli (GPa) = 103.93932 87.83952 70.94149
#
# Poissons Ratio (x) = 0.24350 0.29764
# Poissons Ratio (y) = 0.28812 0.16916
# Poissons Ratio (z) = 0.43608 0.20945
#
# Static dielectric constant tensor:
#      x y z
#    x 3.765720 0.000000 0.000000 
#    y 0.000000 3.889350 0.000000 
#    z 0.000000 0.000000 3.454260 
# 
# 
# High freq. dielectric constant tensor:
#      x y z
#    x 1.810340 0.000000 0.000000 
#    y 0.000000 1.810700 0.000000 
#    z 0.000000 0.000000 1.777420 
# 
# From -- ./inp_files/21830.got.cif
#   From: 2010.03.12/outbox.cif.g09.slc.cpg/sg51_11_cif.got.tgz:21830.got - 2010.04.16 13:43:02.
