data_PCOD8209894
_publ_section_title
;
Structure prediction by ZEFSAII (Michael W. Deem and Ramdas Pophale) SiO2 
 PCOD8209894
Probable space group: P M M A
;
_chemical_formula_sum "Si O2"
_cell_formula_units_Z 48
_cell_length_a 17.567874
_cell_length_b 9.276930
_cell_length_c 16.425147
_cell_angle_alpha 90.000000
_cell_angle_beta 90.000000
_cell_angle_gamma 90.000000
_cell_volume 2676.903728
_symmetry_space_group_name_H-M "P M M A"
_symmetry_group_IT_number 51
_symmetry_cell_setting 'orthorhombic'
loop_
_space_group_symop_operation_xyz
x,y,z
1/2-x,-y,z
1/2+x,-y,-z
-x,y,-z
-x,-y,-z
1/2+x,y,-z
1/2-x,y,z
x,-y,z
loop_
_atom_site_type_symbol
_atom_site_label
_atom_site_fract_x
_atom_site_fract_y
_atom_site_fract_z
Si Si1 0.586566 0.667821 0.999651
Si Si2 0.839021 0.834441 0.854077
Si Si3 0.606134 0.337168 0.181920
Si Si4 0.444983 0.663150 0.254936
Si Si5 0.162926 0.833772 0.670317
Si Si6 0.533030 0.330828 0.414093
O O1 0.588419 0.500000 0.975404
O O2 0.624585 0.694863 0.087890
O O3 0.500000 0.724294 0.000000
O O4 0.636372 0.754223 0.935714
O O5 0.750000 0.815244 0.841374
O O6 0.878550 0.768414 0.774108
O O7 0.863091 0.000000 0.861917
O O8 0.629909 0.500000 0.205807
O O9 0.515707 0.319338 0.193654
O O10 0.652700 0.229245 0.238941
O O11 0.414076 0.500000 0.253467
O O12 0.470485 0.707017 0.345793
O O13 0.250000 0.815048 0.642909
O O14 0.111311 0.751786 0.604372
O O15 0.138561 0.000000 0.672687
O O16 0.500000 0.278382 0.500000
O O17 0.551926 0.500000 0.413861
#
# Coordination Sequence:
#
# PCOD8209894 Si02
#       6
#     8   8   8   8   8   8
#     4  10  19  35  56  77 103 137 182 230 271 313
#     4  11  24  37  49  73 109 145 181 220 263 312
#     4   9  18  33  55  79 102 134 178 223 265 313
#     4   9  17  34  57  78 101 132 172 216 261 314
#     4  10  21  35  52  79 115 148 176 212 262 319
#     4   9  19  37  61  86 108 134 174 222 267 317
#
# _framework density 17.931163999999999
#
# number of rings (size 3 to 8) (size 9 to 14) (size 15 to 20)
#    0.000    2.333    1.667    2.000    0.000    7.333 
#    0.000    4.167    0.000    5.000    0.000    0.000 
#    0.000    0.000    0.000    0.000    0.000    0.000 
#
# Total GULP energy -595301.734962 kJ/mol
# GULP energy per Si atom -12402.119478 kJ/mol
# Density = 1.789035 g / cm^3
# Si number density = 17.931164 Si / 1000 Ang^3
#
#
#
# Elastic Constant Matrix: (Units=GPa)
#
#
# Indices 1 2 3 4 5 6 
#
# 1 81.5403 59.7653 54.2027 0.0000 0.0000 0.0000
# 2 59.7653 99.7264 58.5825 0.0000 0.0000 0.0000
# 3 54.2027 58.5825 125.4019 0.0000 0.0000 0.0000
# 4 0.0000 0.0000 0.0000 8.5552 0.0000 0.0000
# 5 0.0000 0.0000 0.0000 0.0000 19.9732 0.0000
# 6 0.0000 0.0000 0.0000 0.0000 0.0000 29.6736
#
#
#
# Elastic Compliance Matrix: (Units=1/GPa)
#
#
# Indices 1 2 3 4 5 6 
#
# 1 0.023971 -0.011411 -0.005031 0.000000 0.000000 0.000000
# 2 -0.011411 0.019252 -0.004061 0.000000 0.000000 0.000000
# 3 -0.005031 -0.004061 0.012046 0.000000 0.000000 0.000000
# 4 0.000000 0.000000 0.000000 0.116888 0.000000 0.000000
# 5 0.000000 0.000000 0.000000 0.000000 0.050067 0.000000
# 6 0.000000 0.000000 0.000000 0.000000 0.000000 0.033700
#
#
# Mechanical properties :
#
#
# Convention : Reuss Voigt Hill
#
# Bulk Modulus (GPa) = 70.10886 72.41886 71.26386
# Shear Modulus (GPa) = 16.57357 20.58159 18.57758
#
# Velocity S-wave (km/s) = 3.04351 3.39161 3.22226
# Velocity P-wave (km/s) = 7.17874 7.47076 7.32621
#
# Compressibility (1/GPa) = 0.01426353
#
# Stress axis : x y z
#
# Youngs Moduli (GPa) = 41.71628 51.94352 83.01454
#
# Poissons Ratio (x) = 0.59272 0.41761
# Poissons Ratio (y) = 0.47602 0.33716
# Poissons Ratio (z) = 0.20986 0.21097
#
# Static dielectric constant tensor:
#      x y z
#    x 3.131700 0.000000 0.000000 
#    y 0.000000 3.310790 0.000000 
#    z 0.000000 0.000000 3.340720 
# 
# 
# High freq. dielectric constant tensor:
#      x y z
#    x 1.680440 0.000000 0.000000 
#    y 0.000000 1.692390 0.000000 
#    z 0.000000 0.000000 1.692530 
# 
# From -- ./inp_files/29397.got.cif
#   From: 2010.03.12/outbox.cif.g09.slc.cpg/sg51_15_cif.got.tgz:29397.got - 2010.04.16 13:43:02.
