data_PCOD8209359
_publ_section_title
;
Structure prediction by ZEFSAII (Michael W. Deem and Ramdas Pophale) SiO2 
 PCOD8209359
Probable space group: P M M A
;
_chemical_formula_sum "Si O2"
_cell_formula_units_Z 64
_cell_length_a 28.361635
_cell_length_b 9.265428
_cell_length_c 12.653702
_cell_angle_alpha 90.000000
_cell_angle_beta 90.000000
_cell_angle_gamma 90.000000
_cell_volume 3325.173813
_symmetry_space_group_name_H-M "P M M A"
_symmetry_group_IT_number 51
_symmetry_cell_setting 'orthorhombic'
loop_
_space_group_symop_operation_xyz
x,y,z
1/2-x,-y,z
1/2+x,-y,-z
-x,y,-z
-x,-y,-z
1/2+x,y,-z
1/2-x,y,z
x,-y,z
loop_
_atom_site_type_symbol
_atom_site_label
_atom_site_fract_x
_atom_site_fract_y
_atom_site_fract_z
Si Si1 0.380018 0.330460 0.651644
Si Si2 0.303028 0.334227 0.483294
Si Si3 0.664404 0.830776 0.716284
Si Si4 0.939268 0.830826 0.755681
Si Si5 0.873439 0.332306 0.110116
Si Si6 0.804566 0.666773 0.924540
Si Si7 0.555121 0.161847 0.986314
Si Si8 0.477185 0.168876 0.612754
O O1 0.389183 0.500000 0.640559
O O2 0.339281 0.277602 0.571802
O O3 0.361600 0.290665 0.769059
O O4 0.428273 0.250929 0.624052
O O5 0.250000 0.317512 0.528169
O O6 0.313759 0.500000 0.453995
O O7 0.306397 0.241247 0.377182
O O8 0.609068 0.800923 0.692566
O O9 0.675710 0.000000 0.719619
O O10 0.678945 0.764916 0.828136
O O11 0.984655 0.766438 0.695724
O O12 0.948471 0.000000 0.768390
O O13 0.933555 0.764566 0.872937
O O14 0.883695 0.500000 0.100007
O O15 0.831460 0.285178 0.031529
O O16 0.921621 0.252890 0.079309
O O17 0.750000 0.693242 0.947896
O O18 0.814780 0.500000 0.896295
O O19 0.575786 0.000000 0.992198
O O20 0.500000 0.161017 0.000000
O O21 0.500000 0.197975 0.500000
O O22 0.467448 0.000000 0.630782
#
# Coordination Sequence:
#
# PCOD8209359 Si02
#       8
#     8   8   8   8   8   8   8   8
#     4  10  22  39  58  83 115 148 188 237 285 335
#     4  10  22  40  60  81 109 147 188 232 287 348
#     4  11  21  36  59  86 116 146 185 239 289 337
#     4   9  18  32  51  79 112 146 184 225 274 334
#     4  10  21  37  56  81 113 147 188 235 280 332
#     4  10  21  37  57  82 114 152 192 235 287 344
#     4  10  19  33  54  78 108 148 189 227 272 330
#     4  10  20  36  58  83 112 150 193 233 279 336
#
# _framework density 19.247112999999999
#
# number of rings (size 3 to 8) (size 9 to 14) (size 15 to 20)
#    0.000    2.000    1.250    2.250    0.000    6.000 
#    0.000    4.375    0.000    0.000    0.000    3.500 
#    0.000    0.000    0.000    0.000    0.000    0.000 
#
# Total GULP energy -793605.790449 kJ/mol
# GULP energy per Si atom -12400.090476 kJ/mol
# Density = 1.920331 g / cm^3
# Si number density = 19.247113 Si / 1000 Ang^3
#
#
#
# Elastic Constant Matrix: (Units=GPa)
#
#
# Indices 1 2 3 4 5 6 
#
# 1 121.4092 44.4401 58.0801 0.0000 0.0000 0.0000
# 2 44.4401 54.7448 47.7238 0.0000 0.0000 0.0000
# 3 58.0801 47.7238 124.8156 0.0000 0.0000 0.0000
# 4 0.0000 0.0000 0.0000 20.1041 0.0000 0.0000
# 5 0.0000 0.0000 0.0000 0.0000 32.1528 0.0000
# 6 0.0000 0.0000 0.0000 0.0000 0.0000 18.6646
#
#
#
# Elastic Compliance Matrix: (Units=1/GPa)
#
#
# Indices 1 2 3 4 5 6 
#
# 1 0.012370 -0.007535 -0.002875 0.000000 0.000000 0.000000
# 2 -0.007535 0.031990 -0.008725 0.000000 0.000000 0.000000
# 3 -0.002875 -0.008725 0.012686 0.000000 0.000000 0.000000
# 4 0.000000 0.000000 0.000000 0.049741 0.000000 0.000000
# 5 0.000000 0.000000 0.000000 0.000000 0.031102 0.000000
# 6 0.000000 0.000000 0.000000 0.000000 0.000000 0.053577
#
#
# Mechanical properties :
#
#
# Convention : Reuss Voigt Hill
#
# Bulk Modulus (GPa) = 53.26315 66.82862 60.04588
# Shear Modulus (GPa) = 21.18696 24.23267 22.70981
#
# Velocity S-wave (km/s) = 3.32141 3.55213 3.43870
# Velocity P-wave (km/s) = 6.51478 7.18472 6.85794
#
# Compressibility (1/GPa) = 0.01877471
#
# Stress axis : x y z
#
# Youngs Moduli (GPa) = 80.83953 31.26023 78.82943
#
# Poissons Ratio (x) = 0.23556 0.22663
# Poissons Ratio (y) = 0.60916 0.68778
# Poissons Ratio (z) = 0.23241 0.27274
#
# Static dielectric constant tensor:
#      x y z
#    x 3.630720 0.000000 0.000000 
#    y 0.000000 3.377830 0.000000 
#    z 0.000000 0.000000 3.776190 
# 
# 
# High freq. dielectric constant tensor:
#      x y z
#    x 1.758100 0.000000 0.000000 
#    y 0.000000 1.728010 0.000000 
#    z 0.000000 0.000000 1.758090 
# 
# From -- ./inp_files/19464.got.cif
#   From: 2010.03.12/outbox.cif.g09.slc.cpg/sg51_10_cif.got.tgz:19464.got - 2010.04.16 13:43:02.
