data_PCOD8209934
_publ_section_title
;
Structure prediction by ZEFSAII (Michael W. Deem and Ramdas Pophale) SiO2 
 PCOD8209934
Probable space group: P M M A
;
_chemical_formula_sum "Si O2"
_cell_formula_units_Z 52
_cell_length_a 8.929318
_cell_length_b 22.523793
_cell_length_c 14.234887
_cell_angle_alpha 90.000000
_cell_angle_beta 90.000000
_cell_angle_gamma 90.000000
_cell_volume 2862.950513
_symmetry_space_group_name_H-M "P M M A"
_symmetry_group_IT_number 51
_symmetry_cell_setting 'orthorhombic'
loop_
_space_group_symop_operation_xyz
x,y,z
1/2-x,-y,z
1/2+x,-y,-z
-x,y,-z
-x,-y,-z
1/2+x,y,-z
1/2-x,y,z
x,-y,z
loop_
_atom_site_type_symbol
_atom_site_label
_atom_site_fract_x
_atom_site_fract_y
_atom_site_fract_z
Si Si1 0.427786 0.885323 0.782872
Si Si2 0.574633 0.217577 0.899592
Si Si3 0.424909 0.431838 0.903372
Si Si4 0.074582 0.720877 0.405598
Si Si5 0.925412 0.000000 0.100370
Si Si6 0.424118 0.335203 0.212874
Si Si7 0.573011 0.858309 0.595816
O O1 0.250000 0.878345 0.776192
O O2 0.498762 0.826936 0.827402
O O3 0.497080 0.894776 0.679860
O O4 0.476790 0.941915 0.843518
O O5 0.750000 0.202811 0.906207
O O6 0.546241 0.283695 0.862661
O O7 0.500000 0.209708 0.000000
O O8 0.250000 0.421630 0.914764
O O9 0.465367 0.500000 0.881744
O O10 0.485252 0.393364 0.816933
O O11 0.500000 0.410490 0.000000
O O12 0.250000 0.713774 0.417093
O O13 0.016651 0.684418 0.315403
O O14 0.031039 0.789312 0.390494
O O15 0.000000 0.695047 0.500000
O O16 0.750000 0.000000 0.084502
O O17 0.000000 0.000000 0.000000
O O18 0.250000 0.351257 0.217339
O O19 0.500000 0.882397 0.500000
O O20 0.750000 0.869090 0.594664
#
# Coordination Sequence:
#
# PCOD8209934 Si02
#       7
#     8   8   8   8   4   8   8
#     4  11  22  38  58  81 108 144 184 227 276 329
#     4  11  22  36  52  78 112 142 177 225 274 328
#     4  10  21  36  54  78 108 144 186 227 268 319
#     4   9  18  33  52  79 111 142 175 217 266 321
#     4  10  24  42  59  80 107 142 189 232 272 328
#     4  10  20  35  54  79 111 142 178 222 270 323
#     4  10  19  35  57  84 114 144 179 223 273 329
#
# _framework density 18.163080999999998
#
# number of rings (size 3 to 8) (size 9 to 14) (size 15 to 20)
#    0.000    1.846    1.538    2.769    0.000    7.077 
#    0.000    0.385    0.000    0.462    0.000    0.000 
#    0.000    0.000    0.000    0.000    0.000    0.000 
#
# Total GULP energy -645012.061100 kJ/mol
# GULP energy per Si atom -12404.078098 kJ/mol
# Density = 1.812174 g / cm^3
# Si number density = 18.163081 Si / 1000 Ang^3
#
#
#
# Elastic Constant Matrix: (Units=GPa)
#
#
# Indices 1 2 3 4 5 6 
#
# 1 77.6058 39.9108 55.4862 0.0000 0.0000 0.0000
# 2 39.9108 69.6039 45.7494 0.0000 0.0000 0.0000
# 3 55.4862 45.7494 156.2801 0.0000 0.0000 0.0000
# 4 0.0000 0.0000 0.0000 29.2296 0.0000 0.0000
# 5 0.0000 0.0000 0.0000 0.0000 39.1842 0.0000
# 6 0.0000 0.0000 0.0000 0.0000 0.0000 23.3414
#
#
#
# Elastic Compliance Matrix: (Units=1/GPa)
#
#
# Indices 1 2 3 4 5 6 
#
# 1 0.020859 -0.008783 -0.004835 0.000000 0.000000 0.000000
# 2 -0.008783 0.021488 -0.003172 0.000000 0.000000 0.000000
# 3 -0.004835 -0.003172 0.009044 0.000000 0.000000 0.000000
# 4 0.000000 0.000000 0.000000 0.034212 0.000000 0.000000
# 5 0.000000 0.000000 0.000000 0.000000 0.025520 0.000000
# 6 0.000000 0.000000 0.000000 0.000000 0.000000 0.042842
#
#
# Mechanical properties :
#
#
# Convention : Reuss Voigt Hill
#
# Bulk Modulus (GPa) = 56.14298 65.08697 60.61497
# Shear Modulus (GPa) = 25.84212 29.17394 27.50803
#
# Velocity S-wave (km/s) = 3.77607 4.01212 3.89588
# Velocity P-wave (km/s) = 7.07031 7.57465 7.32682
#
# Compressibility (1/GPa) = 0.01781167
#
# Stress axis : x y z
#
# Youngs Moduli (GPa) = 47.94049 46.53752 110.57103
#
# Poissons Ratio (x) = 0.40873 0.53459
# Poissons Ratio (y) = 0.42105 0.35075
# Poissons Ratio (z) = 0.23179 0.14762
#
# Static dielectric constant tensor:
#      x y z
#    x 3.363320 0.000000 0.000000 
#    y 0.000000 3.230160 0.000000 
#    z 0.000000 0.000000 3.453880 
# 
# 
# High freq. dielectric constant tensor:
#      x y z
#    x 1.711360 0.000000 0.000000 
#    y 0.000000 1.684090 0.000000 
#    z 0.000000 0.000000 1.715410 
# 
# From -- ./inp_files/21499.got.cif
#   From: 2010.03.12/outbox.cif.g09.slc.cpg/sg51_11_cif.got.tgz:21499.got - 2010.04.16 13:43:02.
