data_PCOD8209560
_publ_section_title
;
Structure prediction by ZEFSAII (Michael W. Deem and Ramdas Pophale) SiO2 
 PCOD8209560
Probable space group: P M M A
;
_chemical_formula_sum "Si O2"
_cell_formula_units_Z 40
_cell_length_a 28.518769
_cell_length_b 8.666580
_cell_length_c 10.042205
_cell_angle_alpha 90.000000
_cell_angle_beta 90.000000
_cell_angle_gamma 90.000000
_cell_volume 2482.033326
_symmetry_space_group_name_H-M "P M M A"
_symmetry_group_IT_number 51
_symmetry_cell_setting 'orthorhombic'
loop_
_space_group_symop_operation_xyz
x,y,z
1/2-x,-y,z
1/2+x,-y,-z
-x,y,-z
-x,-y,-z
1/2+x,y,-z
1/2-x,y,z
x,-y,z
loop_
_atom_site_type_symbol
_atom_site_label
_atom_site_fract_x
_atom_site_fract_y
_atom_site_fract_z
Si Si1 0.119494 0.674588 0.368578
Si Si2 0.447860 0.819405 0.869479
Si Si3 0.452925 0.683049 0.150956
Si Si4 0.618832 0.325989 0.338525
Si Si5 0.196956 0.181223 0.513701
O O1 0.132969 0.500000 0.329419
O O2 0.084722 0.744628 0.258385
O O3 0.094332 0.678385 0.514662
O O4 0.167963 0.772828 0.379169
O O5 0.497800 0.762519 0.814542
O O6 0.408380 0.784878 0.761234
O O7 0.449956 0.000000 0.899228
O O8 0.435102 0.730510 0.005162
O O9 0.459567 0.500000 0.159841
O O10 0.619835 0.500000 0.281610
O O11 0.672162 0.263013 0.358489
O O12 0.250000 0.241948 0.500967
O O13 0.195421 0.000000 0.535060
#
# Coordination Sequence:
#
# PCOD8209560 Si02
#       5
#     8   8   8   8   8
#     4   8  18  32  50  73  95 125 164 199 235 279
#     4  11  21  32  47  72 100 131 164 198 240 287
#     4  10  19  34  51  69  96 133 167 198 235 284
#     4   9  18  33  50  72  96 127 163 199 236 281
#     4   9  17  30  50  75 100 124 152 193 246 292
#
# _framework density 16.115819999999999
#
# number of rings (size 3 to 8) (size 9 to 14) (size 15 to 20)
#    1.200    1.400    0.000    4.200    0.000    4.000 
#    0.000    4.000    0.000    1.200    0.000    5.600 
#    0.000    0.000    0.000    0.000    0.000    0.000 
#
# Total GULP energy -495630.566381 kJ/mol
# GULP energy per Si atom -12390.764160 kJ/mol
# Density = 1.607914 g / cm^3
# Si number density = 16.115820 Si / 1000 Ang^3
#
#
#
# Elastic Constant Matrix: (Units=GPa)
#
#
# Indices 1 2 3 4 5 6 
#
# 1 104.2854 24.4061 48.1189 0.0000 0.0000 0.0000
# 2 24.4061 58.4238 11.5464 0.0000 0.0000 0.0000
# 3 48.1189 11.5464 55.0384 0.0000 0.0000 0.0000
# 4 0.0000 0.0000 0.0000 20.0553 0.0000 0.0000
# 5 0.0000 0.0000 0.0000 0.0000 6.5232 0.0000
# 6 0.0000 0.0000 0.0000 0.0000 0.0000 26.9638
#
#
#
# Elastic Compliance Matrix: (Units=1/GPa)
#
#
# Indices 1 2 3 4 5 6 
#
# 1 0.017077 -0.004364 -0.014014 0.000000 0.000000 0.000000
# 2 -0.004364 0.018972 -0.000165 0.000000 0.000000 0.000000
# 3 -0.014014 -0.000165 0.030456 0.000000 0.000000 0.000000
# 4 0.000000 0.000000 0.000000 0.049862 0.000000 0.000000
# 5 0.000000 0.000000 0.000000 0.000000 0.153299 0.000000
# 6 0.000000 0.000000 0.000000 0.000000 0.000000 0.037087
#
#
# Mechanical properties :
#
#
# Convention : Reuss Voigt Hill
#
# Bulk Modulus (GPa) = 33.99204 42.87671 38.43438
# Shear Modulus (GPa) = 14.13847 19.62021 16.87934
#
# Velocity S-wave (km/s) = 2.96515 3.49298 3.23983
# Velocity P-wave (km/s) = 5.73244 6.55218 6.15597
#
# Compressibility (1/GPa) = 0.02941865
#
# Stress axis : x y z
#
# Youngs Moduli (GPa) = 58.55877 52.70952 32.83406
#
# Poissons Ratio (x) = 0.23003 0.46015
# Poissons Ratio (y) = 0.25555 0.00541
# Poissons Ratio (z) = 0.82067 0.00868
#
# Static dielectric constant tensor:
#      x y z
#    x 2.970270 0.000000 0.000000 
#    y 0.000000 3.047300 0.000000 
#    z 0.000000 0.000000 2.909690 
# 
# 
# High freq. dielectric constant tensor:
#      x y z
#    x 1.602060 0.000000 0.000000 
#    y 0.000000 1.632370 0.000000 
#    z 0.000000 0.000000 1.599350 
# 
# From -- ./inp_files/18932.got.cif
#   From: 2010.03.12/outbox.cif.g09.slc.cpg/sg51_10_cif.got.tgz:18932.got - 2010.04.16 13:43:02.
