data_PCOD8209847
_publ_section_title
;
Structure prediction by ZEFSAII (Michael W. Deem and Ramdas Pophale) SiO2 
 PCOD8209847
Probable space group: P M M A
;
_chemical_formula_sum "Si O2"
_cell_formula_units_Z 56
_cell_length_a 15.073293
_cell_length_b 8.999631
_cell_length_c 21.168571
_cell_angle_alpha 90.000000
_cell_angle_beta 90.000000
_cell_angle_gamma 90.000000
_cell_volume 2871.602917
_symmetry_space_group_name_H-M "P M M A"
_symmetry_group_IT_number 51
_symmetry_cell_setting 'orthorhombic'
loop_
_space_group_symop_operation_xyz
x,y,z
1/2-x,-y,z
1/2+x,-y,-z
-x,y,-z
-x,-y,-z
1/2+x,y,-z
1/2-x,y,z
x,-y,z
loop_
_atom_site_type_symbol
_atom_site_label
_atom_site_fract_x
_atom_site_fract_y
_atom_site_fract_z
Si Si1 0.600712 0.174487 0.005730
Si Si2 0.648725 0.171180 0.550441
Si Si3 0.648833 0.828712 0.144823
Si Si4 0.004202 0.175149 0.346028
Si Si5 0.152171 0.330713 0.116741
Si Si6 0.852556 0.326411 0.420894
Si Si7 0.494287 0.323557 0.214207
O O1 0.655690 0.246198 0.949471
O O2 0.610765 0.000000 0.998398
O O3 0.500000 0.228286 0.000000
O O4 0.638912 0.227775 0.072880
O O5 0.750000 0.200709 0.572047
O O6 0.584003 0.216880 0.606927
O O7 0.622794 0.270843 0.490730
O O8 0.634838 0.000000 0.530817
O O9 0.750000 0.810164 0.166640
O O10 0.590727 0.728114 0.191089
O O11 0.617693 0.000000 0.149995
O O12 0.911098 0.240134 0.369952
O O13 0.029689 0.249062 0.280199
O O14 0.993667 0.000000 0.337402
O O15 0.250000 0.316513 0.147703
O O16 0.127399 0.500000 0.102170
O O17 0.079531 0.264629 0.164758
O O18 0.750000 0.291649 0.405602
O O19 0.873544 0.500000 0.416669
O O20 0.492594 0.500000 0.221938
#
# Coordination Sequence:
#
# PCOD8209847 Si02
#       7
#     8   8   8   8   8   8   8
#     4  10  19  34  60  88 114 142 180 232 284 335
#     4   9  19  37  60  87 118 149 184 228 277 330
#     4  10  21  38  59  83 112 146 185 230 282 338
#     4  11  23  38  59  84 113 151 192 231 279 332
#     4  10  22  39  58  82 113 149 188 230 281 339
#     4  10  21  37  59  88 119 150 186 229 277 329
#     4  11  24  40  57  79 111 150 191 235 280 330
#
# _framework density 19.501304000000001
#
# number of rings (size 3 to 8) (size 9 to 14) (size 15 to 20)
#    0.000    1.857    1.429    2.143    0.000    7.429 
#    0.000    0.000    0.000    0.000    0.000    0.000 
#    0.000    0.000    0.000    0.000    0.000    0.000 
#
# Total GULP energy -694642.134015 kJ/mol
# GULP energy per Si atom -12404.323822 kJ/mol
# Density = 1.945692 g / cm^3
# Si number density = 19.501304 Si / 1000 Ang^3
#
#
#
# Elastic Constant Matrix: (Units=GPa)
#
#
# Indices 1 2 3 4 5 6 
#
# 1 82.0588 26.4880 26.1273 0.0000 0.0000 0.0000
# 2 26.4880 63.4660 30.2850 0.0000 0.0000 0.0000
# 3 26.1273 30.2850 85.2954 0.0000 0.0000 0.0000
# 4 0.0000 0.0000 0.0000 25.3943 0.0000 0.0000
# 5 0.0000 0.0000 0.0000 0.0000 16.6628 0.0000
# 6 0.0000 0.0000 0.0000 0.0000 0.0000 26.8599
#
#
#
# Elastic Compliance Matrix: (Units=1/GPa)
#
#
# Indices 1 2 3 4 5 6 
#
# 1 0.014612 -0.004771 -0.002782 0.000000 0.000000 0.000000
# 2 -0.004771 0.020528 -0.005827 0.000000 0.000000 0.000000
# 3 -0.002782 -0.005827 0.014645 0.000000 0.000000 0.000000
# 4 0.000000 0.000000 0.000000 0.039379 0.000000 0.000000
# 5 0.000000 0.000000 0.000000 0.000000 0.060014 0.000000
# 6 0.000000 0.000000 0.000000 0.000000 0.000000 0.037230
#
#
# Mechanical properties :
#
#
# Convention : Reuss Voigt Hill
#
# Bulk Modulus (GPa) = 43.43082 44.06897 43.74989
# Shear Modulus (GPa) = 22.64037 23.64474 23.14255
#
# Velocity S-wave (km/s) = 3.41099 3.48583 3.44862
# Velocity P-wave (km/s) = 6.15079 6.23285 6.19196
#
# Compressibility (1/GPa) = 0.02302513
#
# Stress axis : x y z
#
# Youngs Moduli (GPa) = 68.43603 48.71294 68.28181
#
# Poissons Ratio (x) = 0.23241 0.18996
# Poissons Ratio (y) = 0.32651 0.39791
# Poissons Ratio (z) = 0.19039 0.28387
#
# Static dielectric constant tensor:
#      x y z
#    x 3.680720 0.000000 0.000000 
#    y 0.000000 3.500730 0.000000 
#    z 0.000000 0.000000 3.500980 
# 
# 
# High freq. dielectric constant tensor:
#      x y z
#    x 1.771850 0.000000 0.000000 
#    y 0.000000 1.756840 0.000000 
#    z 0.000000 0.000000 1.754210 
# 
# From -- ./inp_files/33355.got.cif
#   From: 2010.03.12/outbox.cif.g09.slc.cpg/sg51_17_cif.got.tgz:33355.got - 2010.04.16 13:43:02.
