data_PCOD8209448
_publ_section_title
;
Structure prediction by ZEFSAII (Michael W. Deem and Ramdas Pophale) SiO2 
 PCOD8209448
Probable space group: P M M A
;
_chemical_formula_sum "Si O2"
_cell_formula_units_Z 48
_cell_length_a 8.564811
_cell_length_b 14.693362
_cell_length_c 18.987801
_cell_angle_alpha 90.000000
_cell_angle_beta 90.000000
_cell_angle_gamma 90.000000
_cell_volume 2389.536307
_symmetry_space_group_name_H-M "P M M A"
_symmetry_group_IT_number 51
_symmetry_cell_setting 'orthorhombic'
loop_
_space_group_symop_operation_xyz
x,y,z
1/2-x,-y,z
1/2+x,-y,-z
-x,y,-z
-x,-y,-z
1/2+x,y,-z
1/2-x,y,z
x,-y,z
loop_
_atom_site_type_symbol
_atom_site_label
_atom_site_fract_x
_atom_site_fract_y
_atom_site_fract_z
Si Si1 0.071839 0.767764 0.691733
Si Si2 0.933742 0.102567 0.575302
Si Si3 0.564224 0.337178 0.928097
Si Si4 0.424875 0.901254 0.210469
Si Si5 0.068504 0.397491 0.227123
Si Si6 0.433409 0.137493 0.928463
O O1 0.250000 0.759937 0.668562
O O2 0.979013 0.816983 0.628935
O O3 0.052193 0.833227 0.758485
O O4 0.014809 0.668326 0.716334
O O5 0.750000 0.100316 0.570836
O O6 0.000000 0.131300 0.500000
O O7 0.994804 0.000000 0.596059
O O8 0.750000 0.323190 0.934665
O O9 0.519953 0.388535 0.855429
O O10 0.472767 0.243346 0.923098
O O11 0.500000 0.387146 0.000000
O O12 0.250000 0.859411 0.217288
O O13 0.472606 0.916809 0.130506
O O14 0.427991 0.000000 0.248539
O O15 0.250000 0.376136 0.233692
O O16 0.027254 0.500000 0.250503
O O17 0.250000 0.120379 0.921858
O O18 0.500000 0.095672 0.000000
#
# Coordination Sequence:
#
# PCOD8209448 Si02
#       6
#     8   8   8   8   8   8
#     4  12  24  38  60  89 122 158 195 240 293 349
#     4  10  21  39  65  97 132 167 201 238 281 336
#     4  10  19  33  55  79 109 146 191 246 305 364
#     4  11  23  38  56  79 109 148 193 240 290 347
#     4  10  22  40  61  84 114 156 203 250 303 361
#     4  11  21  34  53  75 104 143 187 237 293 351
#
# _framework density 20.087578000000001
#
# number of rings (size 3 to 8) (size 9 to 14) (size 15 to 20)
#    0.000    1.333    1.667    6.000    0.000    6.000 
#    0.000    0.000    0.000    0.500    0.000    0.000 
#    0.000    0.000    0.000    0.000    0.000    0.000 
#
# Total GULP energy -594841.710575 kJ/mol
# GULP energy per Si atom -12392.535637 kJ/mol
# Density = 2.004186 g / cm^3
# Si number density = 20.087578 Si / 1000 Ang^3
#
#
#
# Elastic Constant Matrix: (Units=GPa)
#
#
# Indices 1 2 3 4 5 6 
#
# 1 88.9718 30.6906 26.1763 0.0000 0.0000 0.0000
# 2 30.6906 106.1136 44.7608 0.0000 0.0000 0.0000
# 3 26.1763 44.7608 113.3167 0.0000 0.0000 0.0000
# 4 0.0000 0.0000 0.0000 9.9546 0.0000 0.0000
# 5 0.0000 0.0000 0.0000 0.0000 35.1473 0.0000
# 6 0.0000 0.0000 0.0000 0.0000 0.0000 12.1154
#
#
#
# Elastic Compliance Matrix: (Units=1/GPa)
#
#
# Indices 1 2 3 4 5 6 
#
# 1 0.012781 -0.002941 -0.001791 0.000000 0.000000 0.000000
# 2 -0.002941 0.011985 -0.004055 0.000000 0.000000 0.000000
# 3 -0.001791 -0.004055 0.010840 0.000000 0.000000 0.000000
# 4 0.000000 0.000000 0.000000 0.100456 0.000000 0.000000
# 5 0.000000 0.000000 0.000000 0.000000 0.028452 0.000000
# 6 0.000000 0.000000 0.000000 0.000000 0.000000 0.082540
#
#
# Mechanical properties :
#
#
# Convention : Reuss Voigt Hill
#
# Bulk Modulus (GPa) = 55.45433 56.85080 56.15257
# Shear Modulus (GPa) = 18.47493 25.22842 21.85167
#
# Velocity S-wave (km/s) = 3.03598 3.54774 3.30179
# Velocity P-wave (km/s) = 6.32106 6.71899 6.52306
#
# Compressibility (1/GPa) = 0.01803286
#
# Stress axis : x y z
#
# Youngs Moduli (GPa) = 78.24176 83.43854 92.25027
#
# Poissons Ratio (x) = 0.24541 0.16518
# Poissons Ratio (y) = 0.23013 0.37404
# Poissons Ratio (z) = 0.14010 0.33832
#
# Static dielectric constant tensor:
#      x y z
#    x 3.631740 0.000000 0.000000 
#    y 0.000000 3.551620 0.000000 
#    z 0.000000 0.000000 3.791240 
# 
# 
# High freq. dielectric constant tensor:
#      x y z
#    x 1.787610 0.000000 0.000000 
#    y 0.000000 1.773000 0.000000 
#    z 0.000000 0.000000 1.776080 
# 
# From -- ./inp_files/31598.got.cif
#   From: 2010.03.12/outbox.cif.g09.slc.cpg/sg51_16_cif.got.tgz:31598.got - 2010.04.16 13:43:02.
