data_PCOD8209240
_publ_section_title
;
Structure prediction by ZEFSAII (Michael W. Deem and Ramdas Pophale) SiO2 
 PCOD8209240
Probable space group: P M M A
;
_chemical_formula_sum "Si O2"
_cell_formula_units_Z 56
_cell_length_a 16.014722
_cell_length_b 9.313318
_cell_length_c 19.567987
_cell_angle_alpha 90.000000
_cell_angle_beta 90.000000
_cell_angle_gamma 90.000000
_cell_volume 2918.569149
_symmetry_space_group_name_H-M "P M M A"
_symmetry_group_IT_number 51
_symmetry_cell_setting 'orthorhombic'
loop_
_space_group_symop_operation_xyz
x,y,z
1/2-x,-y,z
1/2+x,-y,-z
-x,y,-z
-x,-y,-z
1/2+x,y,-z
1/2-x,y,z
x,-y,z
loop_
_atom_site_type_symbol
_atom_site_label
_atom_site_fract_x
_atom_site_fract_y
_atom_site_fract_z
Si Si1 0.999204 0.328945 0.922938
Si Si2 0.074794 0.334365 0.705522
Si Si3 0.847815 0.164710 0.565578
Si Si4 0.843250 0.334017 0.833829
Si Si5 0.654112 0.667843 0.435861
Si Si6 0.910565 0.829512 0.712299
Si Si7 0.158990 0.333753 0.843111
O O1 0.001818 0.500000 0.921758
O O2 0.913476 0.276833 0.886728
O O3 0.081321 0.264411 0.884754
O O4 0.000000 0.269379 0.000000
O O5 0.044782 0.500000 0.702851
O O6 0.107006 0.281319 0.632124
O O7 0.147037 0.315679 0.761701
O O8 0.000791 0.232559 0.730376
O O9 0.750000 0.191572 0.573055
O O10 0.885084 0.253639 0.501835
O O11 0.889294 0.219092 0.635361
O O12 0.869298 0.000000 0.551627
O O13 0.750000 0.316118 0.865619
O O14 0.860706 0.500000 0.815359
O O15 0.845487 0.240881 0.764672
O O16 0.750000 0.712946 0.426937
O O17 0.644144 0.500000 0.447724
O O18 0.907420 0.000000 0.720494
O O19 0.250000 0.264932 0.861922
O O20 0.161785 0.500000 0.862829
#
# Coordination Sequence:
#
# PCOD8209240 Si02
#       7
#     8   8   8   8   8   8   8
#     4   9  17  30  50  81 118 145 171 213 263 319
#     4  10  19  33  52  75 105 136 176 225 272 320
#     4   9  19  35  51  68  96 134 175 221 269 320
#     4  10  20  35  56  82 112 145 179 221 272 318
#     4   9  18  32  51  75 101 132 174 224 274 326
#     4  11  22  35  53  76 104 140 185 228 268 317
#     4   9  16  28  50  77 105 140 178 215 260 312
#
# _framework density 19.187484999999999
#
# number of rings (size 3 to 8) (size 9 to 14) (size 15 to 20)
#    0.000    2.429    1.429    1.286    0.000    5.429 
#    0.000    7.143    0.000    1.714    0.000    0.000 
#    0.000    0.000    0.000    0.000    0.000    0.000 
#
# Total GULP energy -694247.178893 kJ/mol
# GULP energy per Si atom -12397.271052 kJ/mol
# Density = 1.914381 g / cm^3
# Si number density = 19.187485 Si / 1000 Ang^3
#
#
#
# Elastic Constant Matrix: (Units=GPa)
#
#
# Indices 1 2 3 4 5 6 
#
# 1 125.3013 23.2826 64.0483 0.0000 0.0000 0.0000
# 2 23.2826 34.3961 30.5681 0.0000 0.0000 0.0000
# 3 64.0483 30.5681 132.2347 0.0000 0.0000 0.0000
# 4 0.0000 0.0000 0.0000 5.9191 0.0000 0.0000
# 5 0.0000 0.0000 0.0000 0.0000 27.2494 0.0000
# 6 0.0000 0.0000 0.0000 0.0000 0.0000 14.6701
#
#
#
# Elastic Compliance Matrix: (Units=1/GPa)
#
#
# Indices 1 2 3 4 5 6 
#
# 1 0.010911 -0.003384 -0.004502 0.000000 0.000000 0.000000
# 2 -0.003384 0.037640 -0.007062 0.000000 0.000000 0.000000
# 3 -0.004502 -0.007062 0.011376 0.000000 0.000000 0.000000
# 4 0.000000 0.000000 0.000000 0.168946 0.000000 0.000000
# 5 0.000000 0.000000 0.000000 0.000000 0.036698 0.000000
# 6 0.000000 0.000000 0.000000 0.000000 0.000000 0.068166
#
#
# Mechanical properties :
#
#
# Convention : Reuss Voigt Hill
#
# Bulk Modulus (GPa) = 33.30089 58.63667 45.96878
# Shear Modulus (GPa) = 13.38176 21.16993 17.27585
#
# Velocity S-wave (km/s) = 2.64374 3.32523 3.00387
# Velocity P-wave (km/s) = 5.16840 6.73566 6.00339
#
# Compressibility (1/GPa) = 0.03002923
#
# Stress axis : x y z
#
# Youngs Moduli (GPa) = 91.65011 26.56764 87.90777
#
# Poissons Ratio (x) = 0.08991 0.39580
# Poissons Ratio (y) = 0.31017 0.62079
# Poissons Ratio (z) = 0.41265 0.18762
#
# Static dielectric constant tensor:
#      x y z
#    x 3.623360 0.000000 0.000000 
#    y 0.000000 3.108180 0.000000 
#    z 0.000000 0.000000 3.664790 
# 
# 
# High freq. dielectric constant tensor:
#      x y z
#    x 1.752160 0.000000 0.000000 
#    y 0.000000 1.698490 0.000000 
#    z 0.000000 0.000000 1.749830 
# 
# From -- ./inp_files/33368.got.cif
#   From: 2010.03.12/outbox.cif.g09.slc.cpg/sg51_17_cif.got.tgz:33368.got - 2010.04.16 13:43:02.
