data_PCOD8209570
_publ_section_title
;
Structure prediction by ZEFSAII (Michael W. Deem and Ramdas Pophale) SiO2 
 PCOD8209570
Probable space group: P M M A
;
_chemical_formula_sum "Si O2"
_cell_formula_units_Z 56
_cell_length_a 17.781588
_cell_length_b 17.828375
_cell_length_c 9.545335
_cell_angle_alpha 90.000000
_cell_angle_beta 90.000000
_cell_angle_gamma 90.000000
_cell_volume 3026.031738
_symmetry_space_group_name_H-M "P M M A"
_symmetry_group_IT_number 51
_symmetry_cell_setting 'orthorhombic'
loop_
_space_group_symop_operation_xyz
x,y,z
1/2-x,-y,z
1/2+x,-y,-z
-x,y,-z
-x,-y,-z
1/2+x,y,-z
1/2-x,y,z
x,-y,z
loop_
_atom_site_type_symbol
_atom_site_label
_atom_site_fract_x
_atom_site_fract_y
_atom_site_fract_z
Si Si1 0.162112 0.699829 0.948160
Si Si2 0.838670 0.083617 0.717122
Si Si3 0.666525 0.085276 0.397294
Si Si4 0.914648 0.687006 0.498020
Si Si5 0.917566 0.797994 0.252459
Si Si6 0.411031 0.763937 0.211824
Si Si7 0.838838 0.415528 0.286910
O O1 0.250000 0.693494 0.983295
O O2 0.144059 0.774661 0.861798
O O3 0.133216 0.630392 0.850811
O O4 0.115216 0.706356 0.091334
O O5 0.750000 0.086744 0.734438
O O6 0.862430 0.094210 0.556061
O O7 0.872363 0.154198 0.802092
O O8 0.866543 0.000000 0.768372
O O9 0.750000 0.122826 0.381099
O O10 0.603091 0.116946 0.291365
O O11 0.674099 0.000000 0.354742
O O12 0.903178 0.757042 0.398119
O O13 0.888964 0.716981 0.649566
O O14 0.866516 0.618229 0.435401
O O15 0.000000 0.658492 0.500000
O O16 0.000852 0.782082 0.196835
O O17 0.750000 0.413185 0.291105
O O18 0.869614 0.500000 0.272347
#
# Coordination Sequence:
#
# PCOD8209570 Si02
#       7
#     8   8   8   8   8   8   8
#     4  10  21  36  55  77 104 142 178 216 265 318
#     4   9  18  31  48  74 109 144 177 219 270 318
#     4   9  17  30  50  76 105 140 183 226 267 315
#     4   9  19  33  53  80 110 139 171 212 262 314
#     4  10  19  34  52  75 106 141 179 221 264 313
#     4  11  20  33  53  80 109 140 180 224 266 313
#     4   9  19  37  59  81 106 138 175 214 262 320
#
# _framework density 18.506084999999999
#
# number of rings (size 3 to 8) (size 9 to 14) (size 15 to 20)
#    0.000    2.429    1.429    2.143    0.000    2.571 
#    0.000    2.857    0.000   17.143    0.000    0.000 
#    0.000    0.000    0.000    0.000    0.000    0.000 
#
# Total GULP energy -693890.869138 kJ/mol
# GULP energy per Si atom -12390.908377 kJ/mol
# Density = 1.846396 g / cm^3
# Si number density = 18.506085 Si / 1000 Ang^3
#
#
#
# Elastic Constant Matrix: (Units=GPa)
#
#
# Indices 1 2 3 4 5 6 
#
# 1 43.2323 22.5395 25.6175 0.0000 0.0000 0.0000
# 2 22.5395 100.3573 43.0985 0.0000 0.0000 0.0000
# 3 25.6175 43.0985 84.4005 0.0000 0.0000 0.0000
# 4 0.0000 0.0000 0.0000 17.1794 0.0000 0.0000
# 5 0.0000 0.0000 0.0000 0.0000 30.0092 0.0000
# 6 0.0000 0.0000 0.0000 0.0000 0.0000 21.1347
#
#
#
# Elastic Compliance Matrix: (Units=1/GPa)
#
#
# Indices 1 2 3 4 5 6 
#
# 1 0.029142 -0.003518 -0.007049 0.000000 0.000000 0.000000
# 2 -0.003518 0.013188 -0.005667 0.000000 0.000000 0.000000
# 3 -0.007049 -0.005667 0.016881 0.000000 0.000000 0.000000
# 4 0.000000 0.000000 0.000000 0.058209 0.000000 0.000000
# 5 0.000000 0.000000 0.000000 0.000000 0.033323 0.000000
# 6 0.000000 0.000000 0.000000 0.000000 0.000000 0.047315
#
#
# Mechanical properties :
#
#
# Convention : Reuss Voigt Hill
#
# Bulk Modulus (GPa) = 37.39089 45.61124 41.50106
# Shear Modulus (GPa) = 20.88203 22.78031 21.83117
#
# Velocity S-wave (km/s) = 3.36279 3.51231 3.43837
# Velocity P-wave (km/s) = 5.94360 6.41472 6.18364
#
# Compressibility (1/GPa) = 0.02674448
#
# Stress axis : x y z
#
# Youngs Moduli (GPa) = 34.31508 75.82646 59.23699
#
# Poissons Ratio (x) = 0.26675 0.41755
# Poissons Ratio (y) = 0.12072 0.33567
# Poissons Ratio (z) = 0.24188 0.42968
#
# Static dielectric constant tensor:
#      x y z
#    x 3.358280 0.000000 0.000000 
#    y 0.000000 3.499920 0.000000 
#    z 0.000000 0.000000 3.479520 
# 
# 
# High freq. dielectric constant tensor:
#      x y z
#    x 1.713080 0.000000 0.000000 
#    y 0.000000 1.707420 0.000000 
#    z 0.000000 0.000000 1.705680 
# 
# From -- ./inp_files/8530.got.cif
#   From: 2010.03.12/outbox.cif.g09.slc.cpg/sg51_5_cif.got.tgz:8530.got - 2010.04.16 13:43:02.
