data_PCOD8209707
_publ_section_title
;
Structure prediction by ZEFSAII (Michael W. Deem and Ramdas Pophale) SiO2 
 PCOD8209707
Probable space group: P M M A
;
_chemical_formula_sum "Si O2"
_cell_formula_units_Z 56
_cell_length_a 14.527647
_cell_length_b 9.019820
_cell_length_c 23.081911
_cell_angle_alpha 90.000000
_cell_angle_beta 90.000000
_cell_angle_gamma 90.000000
_cell_volume 3024.578854
_symmetry_space_group_name_H-M "P M M A"
_symmetry_group_IT_number 51
_symmetry_cell_setting 'orthorhombic'
loop_
_space_group_symop_operation_xyz
x,y,z
1/2-x,-y,z
1/2+x,-y,-z
-x,y,-z
-x,-y,-z
1/2+x,y,-z
1/2-x,y,z
x,-y,z
loop_
_atom_site_type_symbol
_atom_site_label
_atom_site_fract_x
_atom_site_fract_y
_atom_site_fract_z
Si Si1 0.466226 0.825218 0.129260
Si Si2 0.250000 0.164080 0.402662
Si Si3 0.250000 0.162365 0.538175
Si Si4 0.645158 0.670306 0.966607
Si Si5 0.076295 0.327307 0.355403
Si Si6 0.646723 0.673096 0.101273
Si Si7 0.948292 0.177508 0.441441
Si Si8 0.856723 0.670954 0.770531
O O1 0.424163 0.774211 0.068176
O O2 0.569586 0.761524 0.137319
O O3 0.398944 0.771081 0.179601
O O4 0.472099 0.000000 0.131105
O O5 0.250000 0.141784 0.470191
O O6 0.163037 0.257945 0.385920
O O7 0.250000 0.000000 0.373237
O O8 0.155846 0.242553 0.557352
O O9 0.250000 0.000000 0.567186
O O10 0.750000 0.697756 0.946006
O O11 0.617424 0.500000 0.955263
O O12 0.634801 0.710152 0.033725
O O13 0.072415 0.500000 0.369902
O O14 0.083155 0.299564 0.286798
O O15 0.988456 0.246277 0.382624
O O16 0.750000 0.720419 0.121188
O O17 0.632364 0.500000 0.112822
O O18 0.000000 0.231009 0.500000
O O19 0.952184 0.000000 0.438104
O O20 0.750000 0.714614 0.759302
O O21 0.863204 0.500000 0.789692
#
# Coordination Sequence:
#
# PCOD8209707 Si02
#       8
#     8   4   4   8   8   8   8   8
#     4  12  24  34  51  83 116 143 177 225 278 326
#     4  11  19  33  57  83 113 151 185 218 267 332
#     4   9  18  33  53  81 115 149 185 218 257 326
#     4   9  18  34  56  81 110 146 185 221 263 322
#     4  11  22  37  56  84 113 141 185 235 277 319
#     4   9  19  37  60  81 103 142 191 226 262 323
#     4  10  19  34  56  82 113 151 188 219 267 330
#     4  10  22  41  60  77 105 145 184 224 272 325
#
# _framework density 18.514973000000001
#
# number of rings (size 3 to 8) (size 9 to 14) (size 15 to 20)
#    0.000    1.857    2.143    3.643    0.000    6.286 
#    0.000    1.786    1.571    0.000    0.000    0.000 
#    0.000    0.000    0.000    0.000    0.000    0.000 
#
# Total GULP energy -694299.961867 kJ/mol
# GULP energy per Si atom -12398.213605 kJ/mol
# Density = 1.847283 g / cm^3
# Si number density = 18.514973 Si / 1000 Ang^3
#
#
#
# Elastic Constant Matrix: (Units=GPa)
#
#
# Indices 1 2 3 4 5 6 
#
# 1 135.4628 48.3834 36.8888 0.0000 0.0000 0.0000
# 2 48.3834 74.8880 33.2327 0.0000 0.0000 0.0000
# 3 36.8888 33.2327 54.7083 0.0000 0.0000 0.0000
# 4 0.0000 0.0000 0.0000 -8.4308 0.0000 0.0000
# 5 0.0000 0.0000 0.0000 0.0000 35.0127 0.0000
# 6 0.0000 0.0000 0.0000 0.0000 0.0000 24.7341
#
#
#
# Elastic Compliance Matrix: (Units=1/GPa)
#
#
# Indices 1 2 3 4 5 6 
#
# 1 0.010178 -0.004833 -0.003927 0.000000 0.000000 0.000000
# 2 -0.004833 0.020576 -0.009240 0.000000 0.000000 0.000000
# 3 -0.003927 -0.009240 0.026540 0.000000 0.000000 0.000000
# 4 0.000000 0.000000 0.000000 -0.118613 0.000000 0.000000
# 5 0.000000 0.000000 0.000000 0.000000 0.028561 0.000000
# 6 0.000000 0.000000 0.000000 0.000000 0.000000 0.040430
#
#
# Mechanical properties :
#
#
# Convention : Reuss Voigt Hill
#
# Bulk Modulus (GPa) = 46.96311 55.78545 51.37428
# Shear Modulus (GPa) = 98.48377 20.03349 59.25863
#
# Velocity S-wave (km/s) = 7.30116 3.29297 5.66350
# Velocity P-wave (km/s) = 9.82323 6.68233 8.40087
#
# Compressibility (1/GPa) = 0.02129331
#
# Stress axis : x y z
#
# Youngs Moduli (GPa) = 98.25482 48.59965 37.67955
#
# Poissons Ratio (x) = 0.23488 0.14796
# Poissons Ratio (y) = 0.47486 0.34817
# Poissons Ratio (z) = 0.38583 0.44908
#
# Static dielectric constant tensor:
#      x y z
#    x 3.661510 0.000000 0.000000 
#    y 0.000000 3.328650 0.000000 
#    z 0.000000 0.000000 3.255930 
# 
# 
# High freq. dielectric constant tensor:
#      x y z
#    x 1.730640 0.000000 0.000000 
#    y 0.000000 1.704920 0.000000 
#    z 0.000000 0.000000 1.697390 
# 
# From -- ./inp_files/33550.got.cif
#   From: 2010.03.12/outbox.cif.g09.slc.cpg/sg51_17_cif.got.tgz:33550.got - 2010.04.16 13:43:02.
