data_PCOD8209319
_publ_section_title
;
Structure prediction by ZEFSAII (Michael W. Deem and Ramdas Pophale) SiO2 
 PCOD8209319
Probable space group: P M M A
;
_chemical_formula_sum "Si O2"
_cell_formula_units_Z 36
_cell_length_a 9.618637
_cell_length_b 11.085972
_cell_length_c 18.194431
_cell_angle_alpha 90.000000
_cell_angle_beta 90.000000
_cell_angle_gamma 90.000000
_cell_volume 1940.107483
_symmetry_space_group_name_H-M "P M M A"
_symmetry_group_IT_number 51
_symmetry_cell_setting 'orthorhombic'
loop_
_space_group_symop_operation_xyz
x,y,z
1/2-x,-y,z
1/2+x,-y,-z
-x,y,-z
-x,-y,-z
1/2+x,y,-z
1/2-x,y,z
x,-y,z
loop_
_atom_site_type_symbol
_atom_site_label
_atom_site_fract_x
_atom_site_fract_y
_atom_site_fract_z
Si Si1 0.466687 0.250315 0.849007
Si Si2 0.750000 0.144081 0.883378
Si Si3 0.092198 0.143381 0.433046
Si Si4 0.750000 0.139516 0.046798
Si Si5 0.903858 0.862296 0.299406
Si Si6 0.415482 0.500000 0.923438
O O1 0.620509 0.199589 0.841131
O O2 0.388767 0.175274 0.911515
O O3 0.398990 0.227892 0.769767
O O4 0.458551 0.388829 0.872272
O O5 0.750000 0.000000 0.878196
O O6 0.750000 0.197859 0.966015
O O7 0.250000 0.194936 0.435491
O O8 0.000000 0.196051 0.500000
O O9 0.017986 0.183571 0.357541
O O10 0.095663 0.000000 0.438207
O O11 0.750000 0.000000 0.034129
O O12 0.750000 0.858441 0.335964
O O13 0.936852 0.000000 0.273879
O O14 0.250000 0.500000 0.940482
O O15 0.500000 0.500000 0.000000
#
# Coordination Sequence:
#
# PCOD8209319 Si02
#       6
#     8   4   8   4   8   4
#     4  12  24  38  58  82 113 149 197 243 294 350
#     4  11  24  37  57  85 114 145 185 240 299 358
#     4   9  17  29  48  77 113 151 186 220 270 342
#     4  11  20  37  57  79 108 145 185 236 297 356
#     4  10  19  33  53  78 112 150 187 235 292 345
#     4  12  26  44  64  82 109 152 203 254 299 349
#
# _framework density 18.555672999999999
#
# number of rings (size 3 to 8) (size 9 to 14) (size 15 to 20)
#    0.000    1.333    2.222    4.667    3.111    4.444 
#    0.000    0.000    0.000    0.000    0.000    0.778 
#    0.000    0.000    0.000    0.000    0.000    0.000 
#
# Total GULP energy -446372.894417 kJ/mol
# GULP energy per Si atom -12399.247067 kJ/mol
# Density = 1.851344 g / cm^3
# Si number density = 18.555673 Si / 1000 Ang^3
#
#
#
# Elastic Constant Matrix: (Units=GPa)
#
#
# Indices 1 2 3 4 5 6 
#
# 1 145.3332 34.5673 35.9004 0.0000 0.0000 0.0000
# 2 34.5673 69.1355 38.8962 0.0000 0.0000 0.0000
# 3 35.9004 38.8962 100.2937 0.0000 0.0000 0.0000
# 4 0.0000 0.0000 0.0000 10.5023 0.0000 0.0000
# 5 0.0000 0.0000 0.0000 0.0000 37.4441 0.0000
# 6 0.0000 0.0000 0.0000 0.0000 0.0000 22.8284
#
#
#
# Elastic Compliance Matrix: (Units=1/GPa)
#
#
# Indices 1 2 3 4 5 6 
#
# 1 0.008026 -0.003065 -0.001684 0.000000 0.000000 0.000000
# 2 -0.003065 0.019672 -0.006532 0.000000 0.000000 0.000000
# 3 -0.001684 -0.006532 0.013107 0.000000 0.000000 0.000000
# 4 0.000000 0.000000 0.000000 0.095217 0.000000 0.000000
# 5 0.000000 0.000000 0.000000 0.000000 0.026706 0.000000
# 6 0.000000 0.000000 0.000000 0.000000 0.000000 0.043805
#
#
# Mechanical properties :
#
#
# Convention : Reuss Voigt Hill
#
# Bulk Modulus (GPa) = 54.81932 59.27669 57.04800
# Shear Modulus (GPa) = 21.26060 27.84819 24.55440
#
# Velocity S-wave (km/s) = 3.38860 3.87821 3.64164
# Velocity P-wave (km/s) = 6.70205 7.21586 6.96370
#
# Compressibility (1/GPa) = 0.01824174
#
# Stress axis : x y z
#
# Youngs Moduli (GPa) = 124.59760 50.83375 76.29647
#
# Poissons Ratio (x) = 0.15583 0.12849
# Poissons Ratio (y) = 0.38194 0.49837
# Poissons Ratio (z) = 0.20983 0.33204
#
# Static dielectric constant tensor:
#      x y z
#    x 3.704650 0.000000 0.000000 
#    y 0.000000 3.117810 0.000000 
#    z 0.000000 0.000000 3.354750 
# 
# 
# High freq. dielectric constant tensor:
#      x y z
#    x 1.743750 0.000000 0.000000 
#    y 0.000000 1.669980 0.000000 
#    z 0.000000 0.000000 1.717230 
# 
# From -- ./inp_files/31330.got.cif
#   From: 2010.03.12/outbox.cif.g09.slc.cpg/sg51_16_cif.got.tgz:31330.got - 2010.04.16 13:43:02.
