data_PCOD8209649
_publ_section_title
;
Structure prediction by ZEFSAII (Michael W. Deem and Ramdas Pophale) SiO2 
 PCOD8209649
Probable space group: P M M A
;
_chemical_formula_sum "Si O2"
_cell_formula_units_Z 48
_cell_length_a 14.810883
_cell_length_b 9.548297
_cell_length_c 19.052376
_cell_angle_alpha 90.000000
_cell_angle_beta 90.000000
_cell_angle_gamma 90.000000
_cell_volume 2694.362431
_symmetry_space_group_name_H-M "P M M A"
_symmetry_group_IT_number 51
_symmetry_cell_setting 'orthorhombic'
loop_
_space_group_symop_operation_xyz
x,y,z
1/2-x,-y,z
1/2+x,-y,-z
-x,y,-z
-x,-y,-z
1/2+x,y,-z
1/2-x,y,z
x,-y,z
loop_
_atom_site_type_symbol
_atom_site_label
_atom_site_fract_x
_atom_site_fract_y
_atom_site_fract_z
Si Si1 0.350080 0.841363 0.129485
Si Si2 0.647885 0.166552 0.494713
Si Si3 0.352370 0.341181 0.843627
Si Si4 0.894020 0.340387 0.001026
Si Si5 0.493528 0.166175 0.392757
Si Si6 0.496413 0.166401 0.765270
O O1 0.250000 0.833859 0.162630
O O2 0.350077 0.752181 0.058983
O O3 0.419332 0.783535 0.187513
O O4 0.376066 0.000000 0.109307
O O5 0.750000 0.230039 0.491868
O O6 0.587832 0.217635 0.428108
O O7 0.594617 0.219506 0.564385
O O8 0.654555 0.000000 0.495107
O O9 0.250000 0.335723 0.817363
O O10 0.390960 0.500000 0.838907
O O11 0.406640 0.237983 0.793751
O O12 0.357774 0.288585 0.923907
O O13 0.864842 0.500000 0.987221
O O14 0.000000 0.320539 0.000000
O O15 0.487010 0.222159 0.313472
O O16 0.492922 0.000000 0.394263
O O17 0.483300 0.000000 0.766928
#
# Coordination Sequence:
#
# PCOD8209649 Si02
#       6
#     8   8   8   8   8   8
#     4  10  21  34  48  70 100 132 164 200 245 294
#     4   8  13  23  41  64  91 123 157 193 232 273
#     4  10  21  36  52  71  96 126 162 204 248 293
#     4  10  19  34  56  74  90 120 165 212 250 287
#     4   8  15  26  40  64  95 124 155 191 232 278
#     4  10  20  33  49  71 102 133 161 197 241 291
#
# _framework density 17.814975
#
# number of rings (size 3 to 8) (size 9 to 14) (size 15 to 20)
#    0.000    2.667    1.667    1.500    0.000    3.667 
#    0.000    5.000    0.000    0.000    0.000    2.333 
#    0.000    1.333    0.000    0.000    0.000    0.000 
#
# Total GULP energy -595036.996402 kJ/mol
# GULP energy per Si atom -12396.604092 kJ/mol
# Density = 1.777443 g / cm^3
# Si number density = 17.814975 Si / 1000 Ang^3
#
#
#
# Elastic Constant Matrix: (Units=GPa)
#
#
# Indices 1 2 3 4 5 6 
#
# 1 112.6093 17.4008 47.2156 0.0000 0.0000 0.0000
# 2 17.4008 26.2233 27.7595 0.0000 0.0000 0.0000
# 3 47.2156 27.7595 125.3520 0.0000 0.0000 0.0000
# 4 0.0000 0.0000 0.0000 3.6096 0.0000 0.0000
# 5 0.0000 0.0000 0.0000 0.0000 43.7282 0.0000
# 6 0.0000 0.0000 0.0000 0.0000 0.0000 12.0923
#
#
#
# Elastic Compliance Matrix: (Units=1/GPa)
#
#
# Indices 1 2 3 4 5 6 
#
# 1 0.010820 -0.003743 -0.003247 0.000000 0.000000 0.000000
# 2 -0.003743 0.051106 -0.009908 0.000000 0.000000 0.000000
# 3 -0.003247 -0.009908 0.011395 0.000000 0.000000 0.000000
# 4 0.000000 0.000000 0.000000 0.277042 0.000000 0.000000
# 5 0.000000 0.000000 0.000000 0.000000 0.022869 0.000000
# 6 0.000000 0.000000 0.000000 0.000000 0.000000 0.082697
#
#
# Mechanical properties :
#
#
# Convention : Reuss Voigt Hill
#
# Bulk Modulus (GPa) = 25.29993 49.88184 37.59088
# Shear Modulus (GPa) = 9.94238 23.33992 16.64115
#
# Velocity S-wave (km/s) = 2.36496 3.62350 3.05964
# Velocity P-wave (km/s) = 4.65722 6.75034 5.79900
#
# Compressibility (1/GPa) = 0.03952580
#
# Stress axis : x y z
#
# Youngs Moduli (GPa) = 92.42250 19.56726 87.76163
#
# Poissons Ratio (x) = 0.07324 0.28493
# Poissons Ratio (y) = 0.34593 0.86952
# Poissons Ratio (z) = 0.30006 0.19387
#
# Static dielectric constant tensor:
#      x y z
#    x 3.497750 0.000000 0.000000 
#    y 0.000000 2.906250 0.000000 
#    z 0.000000 0.000000 3.452560 
# 
# 
# High freq. dielectric constant tensor:
#      x y z
#    x 1.702450 0.000000 0.000000 
#    y 0.000000 1.641960 0.000000 
#    z 0.000000 0.000000 1.686640 
# 
# From -- ./inp_files/24002.got.cif
#   From: 2010.03.12/outbox.cif.g09.slc.cpg/sg51_13_cif.got.tgz:24002.got - 2010.04.16 13:43:02.
