data_PCOD8209708
_publ_section_title
;
Structure prediction by ZEFSAII (Michael W. Deem and Ramdas Pophale) SiO2 
 PCOD8209708
Probable space group: P M M A
;
_chemical_formula_sum "Si O2"
_cell_formula_units_Z 64
_cell_length_a 26.632715
_cell_length_b 13.798554
_cell_length_c 9.317888
_cell_angle_alpha 90.000000
_cell_angle_beta 90.000000
_cell_angle_gamma 90.000000
_cell_volume 3424.258206
_symmetry_space_group_name_H-M "P M M A"
_symmetry_group_IT_number 51
_symmetry_cell_setting 'orthorhombic'
loop_
_space_group_symop_operation_xyz
x,y,z
1/2-x,-y,z
1/2+x,-y,-z
-x,y,-z
-x,-y,-z
1/2+x,y,-z
1/2-x,y,z
x,-y,z
loop_
_atom_site_type_symbol
_atom_site_label
_atom_site_fract_x
_atom_site_fract_y
_atom_site_fract_z
Si Si1 0.953869 0.761337 0.595372
Si Si2 0.405179 0.888536 0.642484
Si Si3 0.023495 0.219838 0.848923
Si Si4 0.884994 0.610186 0.513286
Si Si5 0.599967 0.385417 0.191222
Si Si6 0.808051 0.297829 0.027327
Si Si7 0.193430 0.890565 0.801577
Si Si8 0.192790 0.607710 0.261861
O O1 0.921040 0.840887 0.509026
O O2 0.922284 0.664775 0.620442
O O3 0.000000 0.728650 0.500000
O O4 0.974203 0.791324 0.749684
O O5 0.434752 0.851936 0.784077
O O6 0.345899 0.870884 0.672636
O O7 0.418378 0.000000 0.623359
O O8 0.050779 0.325734 0.862712
O O9 0.000000 0.187504 0.000000
O O10 0.901531 0.500000 0.511003
O O11 0.888672 0.652108 0.352746
O O12 0.831008 0.628977 0.582983
O O13 0.588020 0.500000 0.181132
O O14 0.651869 0.364176 0.109721
O O15 0.750000 0.331431 0.058872
O O16 0.815358 0.184992 0.068031
O O17 0.820538 0.312520 0.858976
O O18 0.250000 0.878107 0.739590
O O19 0.185701 0.000000 0.862275
O O20 0.250000 0.611354 0.300688
O O21 0.176790 0.500000 0.205998
#
# Coordination Sequence:
#
# PCOD8209708 Si02
#       8
#     8   8   8   8   8   8   8   8
#     4  10  20  37  55  78 109 144 185 230 280 332
#     4  10  20  39  63  85 114 148 186 235 285 337
#     4  11  24  39  56  83 113 147 190 243 281 335
#     4  10  20  34  55  78 104 144 188 229 275 332
#     4  11  22  37  55  83 116 148 192 236 284 339
#     4  10  19  34  56  82 115 153 187 228 282 340
#     4   9  17  31  58  93 121 148 185 228 279 338
#     4   9  19  34  52  79 113 148 186 229 280 336
#
# _framework density 18.690180000000002
#
# number of rings (size 3 to 8) (size 9 to 14) (size 15 to 20)
#    0.000    2.000    3.750    0.375    1.750    4.750 
#    0.000    1.875    0.000    0.750    0.000    0.000 
#    0.000    4.000    0.000    0.000    0.000    0.000 
#
# Total GULP energy -792959.830607 kJ/mol
# GULP energy per Si atom -12389.997353 kJ/mol
# Density = 1.864764 g / cm^3
# Si number density = 18.690180 Si / 1000 Ang^3
#
#
#
# Elastic Constant Matrix: (Units=GPa)
#
#
# Indices 1 2 3 4 5 6 
#
# 1 77.3577 27.8753 44.8736 0.0000 0.0000 0.0000
# 2 27.8753 51.0029 24.4998 0.0000 0.0000 0.0000
# 3 44.8736 24.4998 93.7466 0.0000 0.0000 0.0000
# 4 0.0000 0.0000 0.0000 10.2131 0.0000 0.0000
# 5 0.0000 0.0000 0.0000 0.0000 19.6952 0.0000
# 6 0.0000 0.0000 0.0000 0.0000 0.0000 25.0537
#
#
#
# Elastic Compliance Matrix: (Units=1/GPa)
#
#
# Indices 1 2 3 4 5 6 
#
# 1 0.019987 -0.007237 -0.007676 0.000000 0.000000 0.000000
# 2 -0.007237 0.025042 -0.003080 0.000000 0.000000 0.000000
# 3 -0.007676 -0.003080 0.015146 0.000000 0.000000 0.000000
# 4 0.000000 0.000000 0.000000 0.097914 0.000000 0.000000
# 5 0.000000 0.000000 0.000000 0.000000 0.050774 0.000000
# 6 0.000000 0.000000 0.000000 0.000000 0.000000 0.039914
#
#
# Mechanical properties :
#
#
# Convention : Reuss Voigt Hill
#
# Bulk Modulus (GPa) = 41.34112 46.28941 43.81526
# Shear Modulus (GPa) = 17.07494 19.31629 18.19561
#
# Velocity S-wave (km/s) = 3.02582 3.21830 3.12354
# Velocity P-wave (km/s) = 5.86299 6.21533 6.04173
#
# Compressibility (1/GPa) = 0.02418899
#
# Stress axis : x y z
#
# Youngs Moduli (GPa) = 50.03152 39.93350 66.02225
#
# Poissons Ratio (x) = 0.28899 0.50679
# Poissons Ratio (y) = 0.36206 0.20338
# Poissons Ratio (z) = 0.38405 0.12301
#
# Static dielectric constant tensor:
#      x y z
#    x 3.750460 0.000000 0.000000 
#    y 0.000000 3.528020 0.000000 
#    z 0.000000 0.000000 3.476610 
# 
# 
# High freq. dielectric constant tensor:
#      x y z
#    x 1.736520 0.000000 0.000000 
#    y 0.000000 1.724150 0.000000 
#    z 0.000000 0.000000 1.705490 
# 
# From -- ./inp_files/11886.got.cif
#   From: 2010.03.12/outbox.cif.g09.slc.cpg/sg51_6_cif.got.tgz:11886.got - 2010.04.16 13:43:02.
