data_PCOD8209632
_publ_section_title
;
Structure prediction by ZEFSAII (Michael W. Deem and Ramdas Pophale) SiO2 
 PCOD8209632
Probable space group: P M M A
;
_chemical_formula_sum "Si O2"
_cell_formula_units_Z 48
_cell_length_a 8.902381
_cell_length_b 20.240108
_cell_length_c 14.467488
_cell_angle_alpha 90.000000
_cell_angle_beta 90.000000
_cell_angle_gamma 90.000000
_cell_volume 2606.826537
_symmetry_space_group_name_H-M "P M M A"
_symmetry_group_IT_number 51
_symmetry_cell_setting 'orthorhombic'
loop_
_space_group_symop_operation_xyz
x,y,z
1/2-x,-y,z
1/2+x,-y,-z
-x,y,-z
-x,-y,-z
1/2+x,y,-z
1/2-x,y,z
x,-y,z
loop_
_atom_site_type_symbol
_atom_site_label
_atom_site_fract_x
_atom_site_fract_y
_atom_site_fract_z
Si Si1 0.575167 0.731602 0.908758
Si Si2 0.926730 0.882049 0.907129
Si Si3 0.421754 0.926344 0.727105
Si Si4 0.071922 0.806265 0.599981
Si Si5 0.427700 0.686096 0.290236
Si Si6 0.575180 0.423130 0.403795
O O1 0.750000 0.730526 0.927108
O O2 0.519011 0.806519 0.893602
O O3 0.531577 0.690166 0.818120
O O4 0.500000 0.699939 0.000000
O O5 0.750000 0.888454 0.915994
O O6 0.979963 0.923180 0.819277
O O7 0.000000 0.911776 0.000000
O O8 0.250000 0.911465 0.754240
O O9 0.477223 0.873503 0.651613
O O10 0.439972 0.000000 0.684942
O O11 0.250000 0.799302 0.591096
O O12 0.000000 0.808211 0.500000
O O13 0.008416 0.744290 0.655151
O O14 0.250000 0.691197 0.307040
O O15 0.491526 0.615976 0.322882
O O16 0.500000 0.402139 0.500000
O O17 0.750000 0.404256 0.407830
O O18 0.550584 0.500000 0.383159
#
# Coordination Sequence:
#
# PCOD8209632 Si02
#       6
#     8   8   8   8   8   8
#     4   9  19  33  53  81 111 141 176 221 269 320
#     4  10  19  34  55  80 108 139 177 221 274 329
#     4  10  22  39  56  76 104 140 182 227 277 331
#     4  11  23  38  57  79 106 140 180 228 277 325
#     4  11  21  36  58  85 115 145 182 225 270 321
#     4  10  21  37  57  84 117 152 188 225 269 321
#
# _framework density 18.413191999999999
#
# number of rings (size 3 to 8) (size 9 to 14) (size 15 to 20)
#    0.000    1.833    1.667    2.500    0.000    4.667 
#    0.000    0.000    0.000    0.500    0.000    0.000 
#    0.000    0.000    0.000    0.000    0.000    0.000 
#
# Total GULP energy -595348.088422 kJ/mol
# GULP energy per Si atom -12403.085175 kJ/mol
# Density = 1.837128 g / cm^3
# Si number density = 18.413192 Si / 1000 Ang^3
#
#
#
# Elastic Constant Matrix: (Units=GPa)
#
#
# Indices 1 2 3 4 5 6 
#
# 1 82.4819 36.4215 57.6998 0.0000 0.0000 0.0000
# 2 36.4215 82.8417 56.7935 0.0000 0.0000 0.0000
# 3 57.6998 56.7935 141.7623 0.0000 0.0000 0.0000
# 4 0.0000 0.0000 0.0000 25.1764 0.0000 0.0000
# 5 0.0000 0.0000 0.0000 0.0000 34.5501 0.0000
# 6 0.0000 0.0000 0.0000 0.0000 0.0000 22.9042
#
#
#
# Elastic Compliance Matrix: (Units=1/GPa)
#
#
# Indices 1 2 3 4 5 6 
#
# 1 0.017841 -0.003951 -0.005679 0.000000 0.000000 0.000000
# 2 -0.003951 0.017517 -0.005410 0.000000 0.000000 0.000000
# 3 -0.005679 -0.005410 0.011533 0.000000 0.000000 0.000000
# 4 0.000000 0.000000 0.000000 0.039720 0.000000 0.000000
# 5 0.000000 0.000000 0.000000 0.000000 0.028944 0.000000
# 6 0.000000 0.000000 0.000000 0.000000 0.000000 0.043660
#
#
# Mechanical properties :
#
#
# Convention : Reuss Voigt Hill
#
# Bulk Modulus (GPa) = 59.48074 67.65728 63.56901
# Shear Modulus (GPa) = 25.65466 26.93753 26.29610
#
# Velocity S-wave (km/s) = 3.73671 3.82900 3.78314
# Velocity P-wave (km/s) = 7.14078 7.50813 7.32676
#
# Compressibility (1/GPa) = 0.01681216
#
# Stress axis : x y z
#
# Youngs Moduli (GPa) = 56.05078 57.08799 86.70961
#
# Poissons Ratio (x) = 0.22553 0.49242
# Poissons Ratio (y) = 0.22143 0.46908
# Poissons Ratio (z) = 0.31831 0.30883
#
# Static dielectric constant tensor:
#      x y z
#    x 3.464990 0.000000 0.000000 
#    y 0.000000 3.326960 0.000000 
#    z 0.000000 0.000000 3.471920 
# 
# 
# High freq. dielectric constant tensor:
#      x y z
#    x 1.724660 0.000000 0.000000 
#    y 0.000000 1.700270 0.000000 
#    z 0.000000 0.000000 1.716680 
# 
# From -- ./inp_files/21096.got.cif
#   From: 2010.03.12/outbox.cif.g09.slc.cpg/sg51_11_cif.got.tgz:21096.got - 2010.04.16 13:43:02.
