data_PCOD8209037
_publ_section_title
;
Structure prediction by ZEFSAII (Michael W. Deem and Ramdas Pophale) SiO2 
 PCOD8209037
Probable space group: P M M A
;
_chemical_formula_sum "Si O2"
_cell_formula_units_Z 64
_cell_length_a 9.226388
_cell_length_b 19.949060
_cell_length_c 18.303190
_cell_angle_alpha 90.000000
_cell_angle_beta 90.000000
_cell_angle_gamma 90.000000
_cell_volume 3368.844295
_symmetry_space_group_name_H-M "P M M A"
_symmetry_group_IT_number 51
_symmetry_cell_setting 'orthorhombic'
loop_
_space_group_symop_operation_xyz
x,y,z
1/2-x,-y,z
1/2+x,-y,-z
-x,y,-z
-x,-y,-z
1/2+x,y,-z
1/2-x,y,z
x,-y,z
loop_
_atom_site_type_symbol
_atom_site_label
_atom_site_fract_x
_atom_site_fract_y
_atom_site_fract_z
Si Si1 0.403876 0.926364 0.560506
Si Si2 0.919616 0.573059 0.277366
Si Si3 0.077067 0.355571 0.573777
Si Si4 0.912276 0.749516 0.655940
Si Si5 0.079307 0.801667 0.926683
Si Si6 0.089952 0.100669 0.313059
Si Si7 0.581847 0.293517 0.206783
Si Si8 0.919783 0.921802 0.851721
O O1 0.500000 0.886855 0.500000
O O2 0.250000 0.888002 0.570345
O O3 0.478002 0.939976 0.638565
O O4 0.372277 0.000000 0.528024
O O5 0.750000 0.563686 0.281999
O O6 0.991331 0.500000 0.260575
O O7 0.971078 0.598464 0.357407
O O8 0.956934 0.626555 0.212781
O O9 0.250000 0.352638 0.562845
O O10 0.000000 0.382654 0.500000
O O11 0.013563 0.282039 0.592881
O O12 0.750000 0.718202 0.652913
O O13 0.905066 0.828401 0.645819
O O14 0.980054 0.742420 0.735810
O O15 0.250000 0.811565 0.939332
O O16 0.048907 0.739989 0.871158
O O17 0.013721 0.873447 0.903147
O O18 0.000000 0.778285 0.000000
O O19 0.250000 0.067812 0.314479
O O20 0.035343 0.099549 0.229960
O O21 0.750000 0.282949 0.228797
O O22 0.750000 0.908594 0.866254
O O23 0.958374 0.000000 0.866491
#
# Coordination Sequence:
#
# PCOD8209037 Si02
#       8
#     8   8   8   8   8   8   8   8
#     4  10  21  35  50  68  92 125 166 214 267 319
#     4   8  15  30  54  82 110 143 184 228 275 324
#     4  10  20  33  49  73 108 148 190 232 276 321
#     4  10  19  32  53  76 100 135 177 221 271 320
#     4  11  23  38  59  85 114 146 183 221 266 323
#     4  10  20  34  54  77 101 133 173 218 271 327
#     4   9  18  34  56  82 110 141 178 222 265 313
#     4  10  21  38  59  83 112 145 181 224 275 331
#
# _framework density 18.997612
#
# number of rings (size 3 to 8) (size 9 to 14) (size 15 to 20)
#    0.000    2.250    1.250    2.625    0.000    4.500 
#    0.000    0.000    0.000    9.375    0.000    0.000 
#    0.000    0.000    0.000    0.000    0.000    0.125 
#
# Total GULP energy -792910.375397 kJ/mol
# GULP energy per Si atom -12389.224616 kJ/mol
# Density = 1.895437 g / cm^3
# Si number density = 18.997612 Si / 1000 Ang^3
#
#
#
# Elastic Constant Matrix: (Units=GPa)
#
#
# Indices 1 2 3 4 5 6 
#
# 1 100.5373 27.7848 49.8779 0.0000 0.0000 0.0000
# 2 27.7848 112.1240 39.6620 0.0000 0.0000 0.0000
# 3 49.8779 39.6620 104.7851 0.0000 0.0000 0.0000
# 4 0.0000 0.0000 0.0000 18.5232 0.0000 0.0000
# 5 0.0000 0.0000 0.0000 0.0000 32.0319 0.0000
# 6 0.0000 0.0000 0.0000 0.0000 0.0000 -20.0119
#
#
#
# Elastic Compliance Matrix: (Units=1/GPa)
#
#
# Indices 1 2 3 4 5 6 
#
# 1 0.013162 -0.001207 -0.005808 0.000000 0.000000 0.000000
# 2 -0.001207 0.010408 -0.003365 0.000000 0.000000 0.000000
# 3 -0.005808 -0.003365 0.013582 0.000000 0.000000 0.000000
# 4 0.000000 0.000000 0.000000 0.053986 0.000000 0.000000
# 5 0.000000 0.000000 0.000000 0.000000 0.031219 0.000000
# 6 0.000000 0.000000 0.000000 0.000000 0.000000 -0.049970
#
#
# Mechanical properties :
#
#
# Convention : Reuss Voigt Hill
#
# Bulk Modulus (GPa) = 61.00835 61.34398 61.17616
# Shear Modulus (GPa) = 50.70457 19.45008 35.07732
#
# Velocity S-wave (km/s) = 5.17184 3.20319 4.30165
# Velocity P-wave (km/s) = 8.23695 6.78535 7.54613
#
# Compressibility (1/GPa) = 0.01639120
#
# Stress axis : x y z
#
# Youngs Moduli (GPa) = 75.97862 96.07881 73.62854
#
# Poissons Ratio (x) = 0.11597 0.42764
# Poissons Ratio (y) = 0.09171 0.24776
# Poissons Ratio (z) = 0.44129 0.32331
#
# Static dielectric constant tensor:
#      x y z
#    x 3.653790 0.000000 0.000000 
#    y 0.000000 3.647830 0.000000 
#    z 0.000000 0.000000 3.340490 
# 
# 
# High freq. dielectric constant tensor:
#      x y z
#    x 1.737850 0.000000 0.000000 
#    y 0.000000 1.726210 0.000000 
#    z 0.000000 0.000000 1.722360 
# 
# From -- ./inp_files/28443.got.cif
#   From: 2010.03.12/outbox.cif.g09.slc.cpg/sg51_15_cif.got.tgz:28443.got - 2010.04.16 13:43:02.
