data_PCOD8209597
_publ_section_title
;
Structure prediction by ZEFSAII (Michael W. Deem and Ramdas Pophale) SiO2 
 PCOD8209597
Probable space group: P M M A
;
_chemical_formula_sum "Si O2"
_cell_formula_units_Z 48
_cell_length_a 17.029328
_cell_length_b 15.664783
_cell_length_c 9.041658
_cell_angle_alpha 90.000000
_cell_angle_beta 90.000000
_cell_angle_gamma 90.000000
_cell_volume 2411.959268
_symmetry_space_group_name_H-M "P M M A"
_symmetry_group_IT_number 51
_symmetry_cell_setting 'orthorhombic'
loop_
_space_group_symop_operation_xyz
x,y,z
1/2-x,-y,z
1/2+x,-y,-z
-x,y,-z
-x,-y,-z
1/2+x,y,-z
1/2-x,y,z
x,-y,z
loop_
_atom_site_type_symbol
_atom_site_label
_atom_site_fract_x
_atom_site_fract_y
_atom_site_fract_z
Si Si1 0.656297 0.500000 0.651396
Si Si2 0.407803 0.000000 0.512791
Si Si3 0.156625 0.164231 0.349577
Si Si4 0.156446 0.667450 0.514340
Si Si5 0.656764 0.000000 0.160832
Si Si6 0.156279 0.332473 0.848547
Si Si7 0.343600 0.500000 0.014342
Si Si8 0.843316 0.834069 0.984168
O O1 0.750000 0.500000 0.651098
O O2 0.623858 0.416372 0.568123
O O3 0.624143 0.500000 0.818596
O O4 0.500000 0.000000 0.500000
O O5 0.373489 0.917128 0.435784
O O6 0.384683 0.000000 0.682806
O O7 0.250000 0.162424 0.350258
O O8 0.124764 0.249185 0.429720
O O9 0.123673 0.163322 0.182510
O O10 0.250000 0.666619 0.514291
O O11 0.124020 0.668329 0.681397
O O12 0.750000 0.000000 0.184191
O O13 0.627765 0.082474 0.070744
O O14 0.250000 0.332033 0.848637
O O15 0.124107 0.416499 0.930746
O O16 0.123421 0.249515 0.933452
O O17 0.250000 0.500000 0.014113
O O18 0.750000 0.831062 0.980389
#
# Coordination Sequence:
#
# PCOD8209597 Si02
#       8
#     4   4   8   8   4   8   4   8
#     4   9  15  23  35  61  98 133 164 199 244 291
#     4  12  25  38  52  74 102 132 165 208 256 304
#     4  10  19  34  54  75  99 132 170 209 251 301
#     4   9  16  25  42  67  98 132 166 203 247 295
#     4  10  19  34  55  76  97 126 161 202 248 300
#     4   9  15  23  35  58  90 126 163 199 239 287
#     4   9  15  21  31  49  87 135 168 195 236 287
#     4   9  17  29  49  74  97 123 164 209 248 292
#
# _framework density 19.900834
#
# number of rings (size 3 to 8) (size 9 to 14) (size 15 to 20)
#    0.000    2.500    0.000    3.750    0.000   10.000 
#    0.000    1.667    0.000    0.000    0.000    0.583 
#    0.000    0.000    0.000   11.000    0.000   10.833 
#
# Total GULP energy -595221.608671 kJ/mol
# GULP energy per Si atom -12400.450181 kJ/mol
# Density = 1.985554 g / cm^3
# Si number density = 19.900834 Si / 1000 Ang^3
#
#
#
# Elastic Constant Matrix: (Units=GPa)
#
#
# Indices 1 2 3 4 5 6 
#
# 1 -0.0733 1.5527 -1.9171 0.0000 0.0000 0.0000
# 2 1.5527 217.7014 107.1467 0.0000 0.0000 0.0000
# 3 -1.9171 107.1467 201.6201 0.0000 0.0000 0.0000
# 4 0.0000 0.0000 0.0000 53.4494 0.0000 0.0000
# 5 0.0000 0.0000 0.0000 0.0000 1.1317 0.0000
# 6 0.0000 0.0000 0.0000 0.0000 0.0000 -4.1512
#
#
#
# Elastic Compliance Matrix: (Units=1/GPa)
#
#
# Indices 1 2 3 4 5 6 
#
# 1 -7.536950 0.120562 -0.135735 0.000000 0.000000 0.000000
# 2 0.120562 0.004292 -0.001134 0.000000 0.000000 0.000000
# 3 -0.135735 -0.001134 0.004272 0.000000 0.000000 0.000000
# 4 0.000000 0.000000 0.000000 0.018709 0.000000 0.000000
# 5 0.000000 0.000000 0.000000 0.000000 0.883640 0.000000
# 6 0.000000 0.000000 0.000000 0.000000 0.000000 -0.240892
#
#
# Mechanical properties :
#
#
# Convention : Reuss Voigt Hill
#
# Bulk Modulus (GPa) = -0.13226 70.31254 35.09014
# Shear Modulus (GPa) = -0.53449 30.91701 15.19126
#
# Velocity S-wave (km/s) = -0.51881 3.94579 2.76587
# Velocity P-wave (km/s) = 0.65229 7.49448 5.27928
#
# Compressibility (1/GPa) = -7.56100151
#
# Stress axis : x y z
#
# Youngs Moduli (GPa) = -0.13268 232.99649 234.07746
#
# Poissons Ratio (x) = -28.09051 31.77250
# Poissons Ratio (y) = 0.01600 0.26556
# Poissons Ratio (z) = -0.01801 0.26433
#
# Static dielectric constant tensor:
#      x y z
#    x 2.727480 0.000000 0.000000 
#    y 0.000000 4.111010 0.000000 
#    z 0.000000 0.000000 3.935920 
# 
# 
# High freq. dielectric constant tensor:
#      x y z
#    x 1.690150 0.000000 0.000000 
#    y 0.000000 1.799010 0.000000 
#    z 0.000000 0.000000 1.799260 
# 
# From -- ./inp_files/9752.got.cif
#   From: 2010.03.12/outbox.cif.g09.slc.cpg/sg51_5_cif.got.tgz:9752.got - 2010.04.16 13:43:02.
