data_PCOD8209785
_publ_section_title
;
Structure prediction by ZEFSAII (Michael W. Deem and Ramdas Pophale) SiO2 
 PCOD8209785
Probable space group: P M M A
;
_chemical_formula_sum "Si O2"
_cell_formula_units_Z 40
_cell_length_a 8.851285
_cell_length_b 15.384458
_cell_length_c 14.602951
_cell_angle_alpha 90.000000
_cell_angle_beta 90.000000
_cell_angle_gamma 90.000000
_cell_volume 1988.516290
_symmetry_space_group_name_H-M "P M M A"
_symmetry_group_IT_number 51
_symmetry_cell_setting 'orthorhombic'
loop_
_space_group_symop_operation_xyz
x,y,z
1/2-x,-y,z
1/2+x,-y,-z
-x,y,-z
-x,-y,-z
1/2+x,y,-z
1/2-x,y,z
x,-y,z
loop_
_atom_site_type_symbol
_atom_site_label
_atom_site_fract_x
_atom_site_fract_y
_atom_site_fract_z
Si Si1 0.077847 0.346109 0.408465
Si Si2 0.076871 0.097973 0.778262
Si Si3 0.570701 0.596199 0.784896
Si Si4 0.570740 0.757842 0.901011
Si Si5 0.075603 0.859074 0.406738
O O1 0.250000 0.374245 0.417245
O O2 0.004849 0.388679 0.317390
O O3 0.057842 0.243722 0.398056
O O4 0.000000 0.382092 0.500000
O O5 0.250000 0.130505 0.777775
O O6 0.976886 0.159775 0.841426
O O7 0.012788 0.096870 0.675935
O O8 0.066293 0.000000 0.817275
O O9 0.750000 0.605897 0.779449
O O10 0.522394 0.500000 0.819305
O O11 0.508444 0.668925 0.854597
O O12 0.750000 0.757121 0.909172
O O13 0.500000 0.766220 0.000000
O O14 0.250000 0.887622 0.404520
O O15 0.000000 0.893063 0.500000
#
# Coordination Sequence:
#
# PCOD8209785 Si02
#       5
#     8   8   8   8   8
#     4   9  17  31  52  82 116 155 196 233 279 335
#     4  11  24  41  62  89 119 154 197 245 297 353
#     4   9  18  35  59  86 119 157 195 236 287 348
#     4  11  23  42  65  89 116 152 194 242 302 356
#     4  10  19  34  57  87 121 161 202 242 291 346
#
# _framework density 20.115500999999998
#
# number of rings (size 3 to 8) (size 9 to 14) (size 15 to 20)
#    0.000    2.000    2.000    1.800    0.000    4.000 
#    0.000    0.000    0.000    4.200    0.000    0.000 
#    0.000    0.000    0.000    0.000    0.000    0.000 
#
# Total GULP energy -496011.712139 kJ/mol
# GULP energy per Si atom -12400.292803 kJ/mol
# Density = 2.006972 g / cm^3
# Si number density = 20.115501 Si / 1000 Ang^3
#
#
#
# Elastic Constant Matrix: (Units=GPa)
#
#
# Indices 1 2 3 4 5 6 
#
# 1 75.4759 30.3032 33.6306 0.0000 0.0000 0.0000
# 2 30.3032 99.6738 54.7017 0.0000 0.0000 0.0000
# 3 33.6306 54.7017 140.3721 0.0000 0.0000 0.0000
# 4 0.0000 0.0000 0.0000 8.0605 0.0000 0.0000
# 5 0.0000 0.0000 0.0000 0.0000 35.8367 0.0000
# 6 0.0000 0.0000 0.0000 0.0000 0.0000 18.1530
#
#
#
# Elastic Compliance Matrix: (Units=1/GPa)
#
#
# Indices 1 2 3 4 5 6 
#
# 1 0.015712 -0.003449 -0.002421 0.000000 0.000000 0.000000
# 2 -0.003449 0.013519 -0.004442 0.000000 0.000000 0.000000
# 3 -0.002421 -0.004442 0.009435 0.000000 0.000000 0.000000
# 4 0.000000 0.000000 0.000000 0.124062 0.000000 0.000000
# 5 0.000000 0.000000 0.000000 0.000000 0.027904 0.000000
# 6 0.000000 0.000000 0.000000 0.000000 0.000000 0.055087
#
#
# Mechanical properties :
#
#
# Convention : Reuss Voigt Hill
#
# Bulk Modulus (GPa) = 55.41995 61.42142 58.42068
# Shear Modulus (GPa) = 18.35827 25.53579 21.94703
#
# Velocity S-wave (km/s) = 3.02428 3.56681 3.30669
# Velocity P-wave (km/s) = 6.30917 6.89663 6.60943
#
# Compressibility (1/GPa) = 0.01804404
#
# Stress axis : x y z
#
# Youngs Moduli (GPa) = 63.64410 73.97008 105.98998
#
# Poissons Ratio (x) = 0.25509 0.25655
# Poissons Ratio (y) = 0.21948 0.47081
# Poissons Ratio (z) = 0.15405 0.32858
#
# Static dielectric constant tensor:
#      x y z
#    x 3.540460 0.000000 0.000000 
#    y 0.000000 3.691870 0.000000 
#    z 0.000000 0.000000 3.762690 
# 
# 
# High freq. dielectric constant tensor:
#      x y z
#    x 1.767770 0.000000 0.000000 
#    y 0.000000 1.788660 0.000000 
#    z 0.000000 0.000000 1.788330 
# 
# From -- ./inp_files/20493.got.cif
#   From: 2010.03.12/outbox.cif.g09.slc.cpg/sg51_11_cif.got.tgz:20493.got - 2010.04.16 13:43:02.
