data_PCOD8209619
_publ_section_title
;
Structure prediction by ZEFSAII (Michael W. Deem and Ramdas Pophale) SiO2 
 PCOD8209619
Probable space group: P M M A
;
_chemical_formula_sum "Si O2"
_cell_formula_units_Z 56
_cell_length_a 19.286934
_cell_length_b 9.280483
_cell_length_c 16.655986
_cell_angle_alpha 90.000000
_cell_angle_beta 90.000000
_cell_angle_gamma 90.000000
_cell_volume 2981.289297
_symmetry_space_group_name_H-M "P M M A"
_symmetry_group_IT_number 51
_symmetry_cell_setting 'orthorhombic'
loop_
_space_group_symop_operation_xyz
x,y,z
1/2-x,-y,z
1/2+x,-y,-z
-x,y,-z
-x,-y,-z
1/2+x,y,-z
1/2-x,y,z
x,-y,z
loop_
_atom_site_type_symbol
_atom_site_label
_atom_site_fract_x
_atom_site_fract_y
_atom_site_fract_z
Si Si1 0.172844 0.166205 0.466461
Si Si2 0.427936 0.329928 0.169546
Si Si3 0.828945 0.666827 0.685854
Si Si4 0.548060 0.832442 0.429813
Si Si5 0.581037 0.168012 0.986654
Si Si6 0.827882 0.830702 0.137265
Si Si7 0.448695 0.171025 0.750401
O O1 0.250000 0.222194 0.486129
O O2 0.140375 0.249208 0.390684
O O3 0.127569 0.194252 0.545471
O O4 0.172363 0.000000 0.442286
O O5 0.440039 0.500000 0.160596
O O6 0.372743 0.290393 0.237330
O O7 0.395834 0.264263 0.088696
O O8 0.499896 0.252601 0.190092
O O9 0.750000 0.714385 0.702100
O O10 0.834734 0.500000 0.665441
O O11 0.500000 0.761651 0.500000
O O12 0.539805 0.767817 0.340259
O O13 0.529238 0.000000 0.424465
O O14 0.594631 0.000000 0.968988
O O15 0.500000 0.197145 0.000000
O O16 0.627483 0.224262 0.061020
O O17 0.750000 0.761530 0.140133
O O18 0.870622 0.793649 0.218754
O O19 0.819878 0.000000 0.129228
O O20 0.462614 0.000000 0.756150
#
# Coordination Sequence:
#
# PCOD8209619 Si02
#       7
#     8   8   8   8   8   8   8
#     4   9  17  30  49  74 102 131 169 217 263 308
#     4  11  22  34  53  79 105 134 173 216 259 310
#     4   9  19  35  51  70 101 139 175 212 259 315
#     4   9  17  28  46  74 104 132 167 210 256 303
#     4  10  19  35  56  77 102 133 168 208 256 313
#     4   9  18  33  54  80 105 132 172 216 254 302
#     4  10  19  34  55  76 104 143 177 212 261 314
#
# _framework density 18.783819000000001
#
# number of rings (size 3 to 8) (size 9 to 14) (size 15 to 20)
#    0.000    2.429    1.429    1.286    0.000    3.714 
#    0.000    3.571    0.000    3.857    0.000    0.000 
#    0.000    0.000    0.000    0.000    0.000    0.000 
#
# Total GULP energy -694183.073295 kJ/mol
# GULP energy per Si atom -12396.126309 kJ/mol
# Density = 1.874107 g / cm^3
# Si number density = 18.783819 Si / 1000 Ang^3
#
#
#
# Elastic Constant Matrix: (Units=GPa)
#
#
# Indices 1 2 3 4 5 6 
#
# 1 91.5601 14.7392 45.8638 0.0000 0.0000 0.0000
# 2 14.7392 28.5352 23.4408 0.0000 0.0000 0.0000
# 3 45.8638 23.4408 128.7417 0.0000 0.0000 0.0000
# 4 0.0000 0.0000 0.0000 7.8906 0.0000 0.0000
# 5 0.0000 0.0000 0.0000 0.0000 26.1360 0.0000
# 6 0.0000 0.0000 0.0000 0.0000 0.0000 15.3969
#
#
#
# Elastic Compliance Matrix: (Units=1/GPa)
#
#
# Indices 1 2 3 4 5 6 
#
# 1 0.013598 -0.003580 -0.004192 0.000000 0.000000 0.000000
# 2 -0.003580 0.042150 -0.006399 0.000000 0.000000 0.000000
# 3 -0.004192 -0.006399 0.010426 0.000000 0.000000 0.000000
# 4 0.000000 0.000000 0.000000 0.126733 0.000000 0.000000
# 5 0.000000 0.000000 0.000000 0.000000 0.038261 0.000000
# 6 0.000000 0.000000 0.000000 0.000000 0.000000 0.064948
#
#
# Mechanical properties :
#
#
# Convention : Reuss Voigt Hill
#
# Bulk Modulus (GPa) = 26.43301 46.32495 36.37898
# Shear Modulus (GPa) = 14.83366 20.87091 17.85228
#
# Velocity S-wave (km/s) = 2.81322 3.33695 3.08621
# Velocity P-wave (km/s) = 4.96538 6.28989 5.66647
#
# Compressibility (1/GPa) = 0.03783148
#
# Stress axis : x y z
#
# Youngs Moduli (GPa) = 73.53947 23.72465 95.91215
#
# Poissons Ratio (x) = 0.08493 0.40211
# Poissons Ratio (y) = 0.26326 0.61377
# Poissons Ratio (z) = 0.30831 0.15182
#
# Static dielectric constant tensor:
#      x y z
#    x 3.685860 0.000000 0.000000 
#    y 0.000000 3.083960 0.000000 
#    z 0.000000 0.000000 3.634800 
# 
# 
# High freq. dielectric constant tensor:
#      x y z
#    x 1.733910 0.000000 0.000000 
#    y 0.000000 1.687440 0.000000 
#    z 0.000000 0.000000 1.737190 
# 
# From -- ./inp_files/25780.got.cif
#   From: 2010.03.12/outbox.cif.g09.slc.cpg/sg51_13_cif.got.tgz:25780.got - 2010.04.16 13:43:02.
