data_PCOD8209081
_publ_section_title
;
Structure prediction by ZEFSAII (Michael W. Deem and Ramdas Pophale) SiO2 
 PCOD8209081
Probable space group: P M M A
;
_chemical_formula_sum "Si O2"
_cell_formula_units_Z 64
_cell_length_a 8.964266
_cell_length_b 21.919993
_cell_length_c 16.382193
_cell_angle_alpha 90.000000
_cell_angle_beta 90.000000
_cell_angle_gamma 90.000000
_cell_volume 3219.046011
_symmetry_space_group_name_H-M "P M M A"
_symmetry_group_IT_number 51
_symmetry_cell_setting 'orthorhombic'
loop_
_space_group_symop_operation_xyz
x,y,z
1/2-x,-y,z
1/2+x,-y,-z
-x,y,-z
-x,-y,-z
1/2+x,y,-z
1/2-x,y,z
x,-y,z
loop_
_atom_site_type_symbol
_atom_site_label
_atom_site_fract_x
_atom_site_fract_y
_atom_site_fract_z
Si Si1 0.582745 0.100387 0.917938
Si Si2 0.420424 0.433951 0.737961
Si Si3 0.078674 0.070482 0.747157
Si Si4 0.420440 0.737418 0.380408
Si Si5 0.573085 0.139608 0.417421
Si Si6 0.922058 0.303458 0.221687
Si Si7 0.917849 0.244436 0.921647
Si Si8 0.918695 0.398173 0.577030
O O1 0.750000 0.072888 0.917657
O O2 0.506131 0.083021 0.832085
O O3 0.590667 0.172355 0.923935
O O4 0.500000 0.074811 0.000000
O O5 0.250000 0.432042 0.709415
O O6 0.456767 0.500000 0.780116
O O7 0.452068 0.375772 0.796260
O O8 0.517187 0.427301 0.657930
O O9 0.250000 0.088698 0.762641
O O10 0.017473 0.107804 0.667601
O O11 0.061351 0.000000 0.723763
O O12 0.250000 0.761212 0.380293
O O13 0.526659 0.789426 0.417006
O O14 0.468960 0.722257 0.289446
O O15 0.437500 0.674959 0.430063
O O16 0.500000 0.110050 0.500000
O O17 0.750000 0.133252 0.425306
O O18 0.750000 0.291594 0.245587
O O19 0.965304 0.264345 0.145252
O O20 0.750000 0.271562 0.911846
O O21 0.000000 0.271301 0.000000
O O22 0.750000 0.418637 0.573489
O O23 0.000000 0.427904 0.500000
#
# Coordination Sequence:
#
# PCOD8209081 Si02
#       8
#     8   8   8   8   8   8   8   8
#     4  10  21  37  60  89 118 148 180 218 268 327
#     4   9  19  35  52  70  95 131 174 215 255 303
#     4  10  23  42  60  80 110 148 189 231 273 321
#     4  10  20  34  53  78 107 137 173 217 267 323
#     4  11  23  38  58  82 109 144 186 233 284 333
#     4  10  19  32  53  79 107 139 174 215 265 317
#     4  10  20  34  54  82 114 142 171 209 257 314
#     4  10  20  32  48  71  99 131 166 208 258 311
#
# _framework density 19.881667
#
# number of rings (size 3 to 8) (size 9 to 14) (size 15 to 20)
#    0.000    2.000    0.000    3.375    0.000    8.750 
#    0.000    0.000    0.000    0.375    0.000    0.000 
#    0.000    0.000    0.000    0.000    0.000    0.000 
#
# Total GULP energy -793087.196208 kJ/mol
# GULP energy per Si atom -12391.987441 kJ/mol
# Density = 1.983642 g / cm^3
# Si number density = 19.881667 Si / 1000 Ang^3
#
#
#
# Elastic Constant Matrix: (Units=GPa)
#
#
# Indices 1 2 3 4 5 6 
#
# 1 75.9126 24.2305 42.5287 0.0000 0.0000 0.0000
# 2 24.2305 38.0778 10.4013 0.0000 0.0000 0.0000
# 3 42.5287 10.4013 93.4294 0.0000 0.0000 0.0000
# 4 0.0000 0.0000 0.0000 9.0123 0.0000 0.0000
# 5 0.0000 0.0000 0.0000 0.0000 33.3497 0.0000
# 6 0.0000 0.0000 0.0000 0.0000 0.0000 20.8162
#
#
#
# Elastic Compliance Matrix: (Units=1/GPa)
#
#
# Indices 1 2 3 4 5 6 
#
# 1 0.021618 -0.011415 -0.008569 0.000000 0.000000 0.000000
# 2 -0.011415 0.033114 0.001510 0.000000 0.000000 0.000000
# 3 -0.008569 0.001510 0.014436 0.000000 0.000000 0.000000
# 4 0.000000 0.000000 0.000000 0.110959 0.000000 0.000000
# 5 0.000000 0.000000 0.000000 0.000000 0.029985 0.000000
# 6 0.000000 0.000000 0.000000 0.000000 0.000000 0.048040
#
#
# Mechanical properties :
#
#
# Convention : Reuss Voigt Hill
#
# Bulk Modulus (GPa) = 31.03933 40.19343 35.61638
# Shear Modulus (GPa) = 16.34839 21.31959 18.83399
#
# Velocity S-wave (km/s) = 2.87066 3.27819 3.08117
# Velocity P-wave (km/s) = 5.16077 5.88123 5.53274
#
# Compressibility (1/GPa) = 0.03221719
#
# Stress axis : x y z
#
# Youngs Moduli (GPa) = 46.25865 30.19900 69.27158
#
# Poissons Ratio (x) = 0.34473 0.59361
# Poissons Ratio (y) = 0.52806 -0.10458
# Poissons Ratio (z) = 0.39641 -0.04559
#
# Static dielectric constant tensor:
#      x y z
#    x 3.939420 0.000000 0.000000 
#    y 0.000000 3.720970 0.000000 
#    z 0.000000 0.000000 3.615590 
# 
# 
# High freq. dielectric constant tensor:
#      x y z
#    x 1.785320 0.000000 0.000000 
#    y 0.000000 1.768160 0.000000 
#    z 0.000000 0.000000 1.766560 
# 
# From -- ./inp_files/22342.got.cif
#   From: 2010.03.12/outbox.cif.g09.slc.cpg/sg51_12_cif.got.tgz:22342.got - 2010.04.16 13:43:02.
