data_PCOD8209250
_publ_section_title
;
Structure prediction by ZEFSAII (Michael W. Deem and Ramdas Pophale) SiO2 
 PCOD8209250
Probable space group: P M M A
;
_chemical_formula_sum "Si O2"
_cell_formula_units_Z 64
_cell_length_a 8.711154
_cell_length_b 24.482669
_cell_length_c 15.260647
_cell_angle_alpha 90.000000
_cell_angle_beta 90.000000
_cell_angle_gamma 90.000000
_cell_volume 3254.673285
_symmetry_space_group_name_H-M "P M M A"
_symmetry_group_IT_number 51
_symmetry_cell_setting 'orthorhombic'
loop_
_space_group_symop_operation_xyz
x,y,z
1/2-x,-y,z
1/2+x,-y,-z
-x,y,-z
-x,-y,-z
1/2+x,y,-z
1/2-x,y,z
x,-y,z
loop_
_atom_site_type_symbol
_atom_site_label
_atom_site_fract_x
_atom_site_fract_y
_atom_site_fract_z
Si Si1 0.068180 0.855221 0.409477
Si Si2 0.074203 0.245744 0.673693
Si Si3 0.068651 0.357631 0.271626
Si Si4 0.066543 0.334564 0.910500
Si Si5 0.072958 0.435607 0.591329
Si Si6 0.926293 0.938630 0.737860
Si Si7 0.431804 0.099455 0.911753
Si Si8 0.424221 0.216571 0.869675
O O1 0.250000 0.854667 0.414271
O O2 0.008863 0.896255 0.333837
O O3 0.000000 0.877757 0.500000
O O4 0.007469 0.793592 0.395827
O O5 0.250000 0.256064 0.645844
O O6 0.063153 0.214647 0.765418
O O7 0.989798 0.303669 0.678683
O O8 0.250000 0.355029 0.261500
O O9 0.995036 0.365673 0.175173
O O10 0.019282 0.409385 0.328573
O O11 0.250000 0.337197 0.908808
O O12 0.000121 0.272267 0.906183
O O13 0.000000 0.361245 0.000000
O O14 0.250000 0.417309 0.593846
O O15 0.054738 0.500000 0.601850
O O16 0.000000 0.415548 0.500000
O O17 0.750000 0.925005 0.758780
O O18 0.019662 0.935113 0.827912
O O19 0.945213 0.000000 0.700746
O O20 0.250000 0.099920 0.916305
O O21 0.502471 0.161254 0.905037
O O22 0.500000 0.072504 0.000000
O O23 0.250000 0.217230 0.901032
#
# Coordination Sequence:
#
# PCOD8209250 Si02
#       8
#     8   8   8   8   8   8   8   8
#     4  11  23  39  61  87 113 145 183 229 285 347
#     4  10  19  36  58  83 117 151 187 233 283 338
#     4  11  22  36  57  88 123 161 202 242 289 346
#     4  10  19  33  52  80 118 160 201 244 290 341
#     4  10  21  39  63  90 120 156 199 248 299 349
#     4  10  23  43  62  81 108 142 183 233 284 338
#     4  11  21  35  56  84 112 144 184 226 279 337
#     4   8  16  30  51  78 109 144 181 225 275 329
#
# _framework density 19.664031999999999
#
# number of rings (size 3 to 8) (size 9 to 14) (size 15 to 20)
#    0.000    1.875    1.250    4.125    0.000    2.500 
#    0.000    3.750    0.000    0.375    0.000    0.000 
#    0.000    0.000    0.000    0.000    0.000    0.000 
#
# Total GULP energy -793605.315653 kJ/mol
# GULP energy per Si atom -12400.083057 kJ/mol
# Density = 1.961928 g / cm^3
# Si number density = 19.664032 Si / 1000 Ang^3
#
#
#
# Elastic Constant Matrix: (Units=GPa)
#
#
# Indices 1 2 3 4 5 6 
#
# 1 109.7870 30.2695 49.8727 0.0000 0.0000 0.0000
# 2 30.2695 54.9981 41.8735 0.0000 0.0000 0.0000
# 3 49.8727 41.8735 134.5053 0.0000 0.0000 0.0000
# 4 0.0000 0.0000 0.0000 17.5267 0.0000 0.0000
# 5 0.0000 0.0000 0.0000 0.0000 36.3970 0.0000
# 6 0.0000 0.0000 0.0000 0.0000 0.0000 25.3096
#
#
#
# Elastic Compliance Matrix: (Units=1/GPa)
#
#
# Indices 1 2 3 4 5 6 
#
# 1 0.011612 -0.004080 -0.003036 0.000000 0.000000 0.000000
# 2 -0.004080 0.025264 -0.006352 0.000000 0.000000 0.000000
# 3 -0.003036 -0.006352 0.010538 0.000000 0.000000 0.000000
# 4 0.000000 0.000000 0.000000 0.057056 0.000000 0.000000
# 5 0.000000 0.000000 0.000000 0.000000 0.027475 0.000000
# 6 0.000000 0.000000 0.000000 0.000000 0.000000 0.039511
#
#
# Mechanical properties :
#
#
# Convention : Reuss Voigt Hill
#
# Bulk Modulus (GPa) = 48.83112 60.36912 54.60012
# Shear Modulus (GPa) = 24.36432 27.66496 26.01464
#
# Velocity S-wave (km/s) = 3.52380 3.75491 3.64119
# Velocity P-wave (km/s) = 6.43761 7.04032 6.74570
#
# Compressibility (1/GPa) = 0.02047874
#
# Stress axis : x y z
#
# Youngs Moduli (GPa) = 86.11475 39.58126 94.89659
#
# Poissons Ratio (x) = 0.16149 0.28806
# Poissons Ratio (y) = 0.35135 0.60282
# Poissons Ratio (z) = 0.26141 0.25144
#
# Static dielectric constant tensor:
#      x y z
#    x 3.494640 0.000000 0.000000 
#    y 0.000000 3.451980 0.000000 
#    z 0.000000 0.000000 3.649670 
# 
# 
# High freq. dielectric constant tensor:
#      x y z
#    x 1.765510 0.000000 0.000000 
#    y 0.000000 1.746180 0.000000 
#    z 0.000000 0.000000 1.771380 
# 
# From -- ./inp_files/22307.got.cif
#   From: 2010.03.12/outbox.cif.g09.slc.cpg/sg51_12_cif.got.tgz:22307.got - 2010.04.16 13:43:02.
