data_PCOD8209798
_publ_section_title
;
Structure prediction by ZEFSAII (Michael W. Deem and Ramdas Pophale) SiO2 
 PCOD8209798
Probable space group: P M M A
;
_chemical_formula_sum "Si O2"
_cell_formula_units_Z 48
_cell_length_a 23.661542
_cell_length_b 8.969952
_cell_length_c 11.250885
_cell_angle_alpha 90.000000
_cell_angle_beta 90.000000
_cell_angle_gamma 90.000000
_cell_volume 2387.920415
_symmetry_space_group_name_H-M "P M M A"
_symmetry_group_IT_number 51
_symmetry_cell_setting 'orthorhombic'
loop_
_space_group_symop_operation_xyz
x,y,z
1/2-x,-y,z
1/2+x,-y,-z
-x,y,-z
-x,-y,-z
1/2+x,y,-z
1/2-x,y,z
x,-y,z
loop_
_atom_site_type_symbol
_atom_site_label
_atom_site_fract_x
_atom_site_fract_y
_atom_site_fract_z
Si Si1 0.686267 0.831586 0.695292
Si Si2 0.584175 0.325284 0.292995
Si Si3 0.686457 0.323862 0.137039
Si Si4 0.023684 0.825571 0.219874
Si Si5 0.374766 0.675427 0.100328
Si Si6 0.414185 0.831535 0.463775
O O1 0.750000 0.800370 0.657981
O O2 0.668146 0.713379 0.793808
O O3 0.650629 0.811650 0.575258
O O4 0.676913 0.000000 0.745266
O O5 0.574817 0.500000 0.279994
O O6 0.647166 0.278767 0.249384
O O7 0.538196 0.246260 0.208041
O O8 0.574168 0.279223 0.428717
O O9 0.750000 0.254687 0.149542
O O10 0.692295 0.500000 0.127576
O O11 0.654784 0.264322 0.019367
O O12 0.065157 0.755577 0.121224
O O13 0.046272 0.790338 0.352487
O O14 0.020348 0.000000 0.195147
O O15 0.385644 0.500000 0.095668
O O16 0.426711 0.000000 0.507234
#
# Coordination Sequence:
#
# PCOD8209798 Si02
#       6
#     8   8   8   8   8   8
#     4   9  18  33  53  78 110 145 179 221 275 327
#     4  11  22  35  55  81 108 141 183 225 261 311
#     4   9  20  38  56  77 110 148 178 212 266 319
#     4  10  21  38  58  80 110 142 172 217 278 331
#     4  10  19  34  58  83 106 136 180 227 267 315
#     4   9  19  35  53  75 107 146 180 215 269 326
#
# _framework density 20.101171999999998
#
# number of rings (size 3 to 8) (size 9 to 14) (size 15 to 20)
#    0.000    2.333    0.000    3.500    0.000    7.667 
#    0.000    6.667    0.000    5.500    0.000    0.000 
#    0.000    0.000    0.000    0.000    0.000    0.000 
#
# Total GULP energy -595156.635873 kJ/mol
# GULP energy per Si atom -12399.096581 kJ/mol
# Density = 2.005542 g / cm^3
# Si number density = 20.101172 Si / 1000 Ang^3
#
#
#
# Elastic Constant Matrix: (Units=GPa)
#
#
# Indices 1 2 3 4 5 6 
#
# 1 134.5492 39.0034 25.5577 0.0000 0.0000 0.0000
# 2 39.0034 73.4109 22.1399 0.0000 0.0000 0.0000
# 3 25.5577 22.1399 53.4448 0.0000 0.0000 0.0000
# 4 0.0000 0.0000 0.0000 9.8327 0.0000 0.0000
# 5 0.0000 0.0000 0.0000 0.0000 19.4740 0.0000
# 6 0.0000 0.0000 0.0000 0.0000 0.0000 28.2844
#
#
#
# Elastic Compliance Matrix: (Units=1/GPa)
#
#
# Indices 1 2 3 4 5 6 
#
# 1 0.009111 -0.004030 -0.002687 0.000000 0.000000 0.000000
# 2 -0.004030 0.017350 -0.005260 0.000000 0.000000 0.000000
# 3 -0.002687 -0.005260 0.022175 0.000000 0.000000 0.000000
# 4 0.000000 0.000000 0.000000 0.101701 0.000000 0.000000
# 5 0.000000 0.000000 0.000000 0.000000 0.051350 0.000000
# 6 0.000000 0.000000 0.000000 0.000000 0.000000 0.035355
#
#
# Mechanical properties :
#
#
# Convention : Reuss Voigt Hill
#
# Bulk Modulus (GPa) = 40.51782 48.31189 44.41485
# Shear Modulus (GPa) = 18.57186 23.16515 20.86850
#
# Velocity S-wave (km/s) = 3.04290 3.39843 3.22557
# Velocity P-wave (km/s) = 5.70494 6.28376 6.00133
#
# Compressibility (1/GPa) = 0.02468050
#
# Stress axis : x y z
#
# Youngs Moduli (GPa) = 109.75772 57.63844 45.09582
#
# Poissons Ratio (x) = 0.23229 0.12119
# Poissons Ratio (y) = 0.44234 0.23720
# Poissons Ratio (z) = 0.29496 0.30317
#
# Static dielectric constant tensor:
#      x y z
#    x 4.017340 0.000000 0.000000 
#    y 0.000000 3.459450 0.000000 
#    z 0.000000 0.000000 3.458940 
# 
# 
# High freq. dielectric constant tensor:
#      x y z
#    x 1.802370 0.000000 0.000000 
#    y 0.000000 1.767870 0.000000 
#    z 0.000000 0.000000 1.768980 
# 
# From -- ./inp_files/18561.got.cif
#   From: 2010.03.12/outbox.cif.g09.slc.cpg/sg51_10_cif.got.tgz:18561.got - 2010.04.16 13:43:02.
