data_PCOD8209995
_publ_section_title
;
Structure prediction by ZEFSAII (Michael W. Deem and Ramdas Pophale) SiO2 
 PCOD8209995
Probable space group: P M M A
;
_chemical_formula_sum "Si O2"
_cell_formula_units_Z 64
_cell_length_a 26.394017
_cell_length_b 13.738773
_cell_length_c 9.565957
_cell_angle_alpha 90.000000
_cell_angle_beta 90.000000
_cell_angle_gamma 90.000000
_cell_volume 3468.820797
_symmetry_space_group_name_H-M "P M M A"
_symmetry_group_IT_number 51
_symmetry_cell_setting 'orthorhombic'
loop_
_space_group_symop_operation_xyz
x,y,z
1/2-x,-y,z
1/2+x,-y,-z
-x,y,-z
-x,-y,-z
1/2+x,y,-z
1/2-x,y,z
x,-y,z
loop_
_atom_site_type_symbol
_atom_site_label
_atom_site_fract_x
_atom_site_fract_y
_atom_site_fract_z
Si Si1 0.433704 0.757155 0.863412
Si Si2 0.191398 0.716735 0.574673
Si Si3 0.948504 0.254252 0.813850
Si Si4 0.645890 0.387645 0.189535
Si Si5 0.126194 0.889825 0.667788
Si Si6 0.126530 0.387073 0.341986
Si Si7 0.195660 0.388440 0.082559
Si Si8 0.951491 0.890900 0.577328
O O1 0.491484 0.737978 0.825082
O O2 0.406414 0.668378 0.782741
O O3 0.410071 0.855348 0.796149
O O4 0.425190 0.757802 0.031227
O O5 0.250000 0.721794 0.519783
O O6 0.188925 0.635698 0.696435
O O7 0.174949 0.820533 0.641571
O O8 0.148720 0.680843 0.464415
O O9 0.925086 0.346804 0.729469
O O10 0.935484 0.160530 0.721022
O O11 0.632614 0.500000 0.186002
O O12 0.663561 0.341685 0.041804
O O13 0.095992 0.888638 0.523867
O O14 0.144402 0.000000 0.701987
O O15 0.117827 0.500000 0.389082
O O16 0.170446 0.379167 0.230451
O O17 0.250000 0.335805 0.092539
O O18 0.202944 0.500000 0.038851
O O19 0.000000 0.841081 0.500000
O O20 0.967055 0.000000 0.619831
#
# Coordination Sequence:
#
# PCOD8209995 Si02
#       8
#     8   8   8   8   8   8   8   8
#     4  10  22  35  56  83 118 153 191 237 281 338
#     4  11  23  38  59  86 112 144 187 239 292 343
#     4  11  21  36  55  85 117 153 193 235 285 338
#     4  10  20  36  54  79 112 147 191 234 276 330
#     4  10  21  39  61  85 114 146 181 231 289 346
#     4  11  22  36  53  80 117 151 190 236 283 336
#     4   9  17  31  52  73  98 139 187 231 274 322
#     4  10  19  35  60  84 109 143 184 230 283 340
#
# _framework density 18.450074999999998
#
# number of rings (size 3 to 8) (size 9 to 14) (size 15 to 20)
#    0.000    1.750    3.750    1.125    0.000    3.250 
#    0.000    2.500    0.000    2.625    0.000    0.000 
#    0.000    0.000    0.000    0.000    0.000    0.000 
#
# Total GULP energy -793037.568449 kJ/mol
# GULP energy per Si atom -12391.212007 kJ/mol
# Density = 1.840808 g / cm^3
# Si number density = 18.450075 Si / 1000 Ang^3
#
#
#
# Elastic Constant Matrix: (Units=GPa)
#
#
# Indices 1 2 3 4 5 6 
#
# 1 73.1948 38.2832 28.2901 0.0000 0.0000 0.0000
# 2 38.2832 103.3507 41.4198 0.0000 0.0000 0.0000
# 3 28.2901 41.4198 80.9115 0.0000 0.0000 0.0000
# 4 0.0000 0.0000 0.0000 23.2664 0.0000 0.0000
# 5 0.0000 0.0000 0.0000 0.0000 -7.4504 0.0000
# 6 0.0000 0.0000 0.0000 0.0000 0.0000 19.4405
#
#
#
# Elastic Compliance Matrix: (Units=1/GPa)
#
#
# Indices 1 2 3 4 5 6 
#
# 1 0.017728 -0.005137 -0.003569 0.000000 0.000000 0.000000
# 2 -0.005137 0.013661 -0.005198 0.000000 0.000000 0.000000
# 3 -0.003569 -0.005198 0.016268 0.000000 0.000000 0.000000
# 4 0.000000 0.000000 0.000000 0.042981 0.000000 0.000000
# 5 0.000000 0.000000 0.000000 0.000000 -0.134221 0.000000
# 6 0.000000 0.000000 0.000000 0.000000 0.000000 0.051439
#
#
# Mechanical properties :
#
#
# Convention : Reuss Voigt Hill
#
# Bulk Modulus (GPa) = 50.37490 52.60480 51.48985
# Shear Modulus (GPa) = 118.26068 17.01555 67.63811
#
# Velocity S-wave (km/s) = 8.01479 3.04015 6.06133
# Velocity P-wave (km/s) = 10.63070 6.39509 8.77237
#
# Compressibility (1/GPa) = 0.01985116
#
# Stress axis : x y z
#
# Youngs Moduli (GPa) = 56.40734 73.19842 61.47112
#
# Poissons Ratio (x) = 0.37598 0.21940
# Poissons Ratio (y) = 0.28974 0.31950
# Poissons Ratio (z) = 0.20132 0.38045
#
# Static dielectric constant tensor:
#      x y z
#    x 3.370930 0.000000 0.000000 
#    y 0.000000 3.402560 0.000000 
#    z 0.000000 0.000000 3.537860 
# 
# 
# High freq. dielectric constant tensor:
#      x y z
#    x 1.712840 0.000000 0.000000 
#    y 0.000000 1.698420 0.000000 
#    z 0.000000 0.000000 1.724810 
# 
# From -- ./inp_files/11891.got.cif
#   From: 2010.03.12/outbox.cif.g09.slc.cpg/sg51_6_cif.got.tgz:11891.got - 2010.04.16 13:43:02.
