data_PCOD8209657
_publ_section_title
;
Structure prediction by ZEFSAII (Michael W. Deem and Ramdas Pophale) SiO2 
 PCOD8209657
Probable space group: P M M A
;
_chemical_formula_sum "Si O2"
_cell_formula_units_Z 64
_cell_length_a 9.055946
_cell_length_b 20.082715
_cell_length_c 19.712089
_cell_angle_alpha 90.000000
_cell_angle_beta 90.000000
_cell_angle_gamma 90.000000
_cell_volume 3584.997859
_symmetry_space_group_name_H-M "P M M A"
_symmetry_group_IT_number 51
_symmetry_cell_setting 'orthorhombic'
loop_
_space_group_symop_operation_xyz
x,y,z
1/2-x,-y,z
1/2+x,-y,-z
-x,y,-z
-x,-y,-z
1/2+x,y,-z
1/2-x,y,z
x,-y,z
loop_
_atom_site_type_symbol
_atom_site_label
_atom_site_fract_x
_atom_site_fract_y
_atom_site_fract_z
Si Si1 0.917967 0.251155 0.802624
Si Si2 0.575002 0.789415 0.432612
Si Si3 0.418841 0.926488 0.099510
Si Si4 0.076183 0.071889 0.619055
Si Si5 0.577820 0.308451 0.665813
Si Si6 0.077537 0.575087 0.431756
Si Si7 0.585582 0.893882 0.749928
Si Si8 0.424704 0.792683 0.932900
O O1 0.750000 0.256768 0.829419
O O2 0.954729 0.309347 0.747402
O O3 0.941743 0.184093 0.760461
O O4 0.023568 0.251139 0.868214
O O5 0.500000 0.759805 0.500000
O O6 0.750000 0.784138 0.439110
O O7 0.516550 0.865676 0.424203
O O8 0.522011 0.747851 0.368267
O O9 0.250000 0.905647 0.081840
O O10 0.438006 0.932154 0.179945
O O11 0.527888 0.870395 0.070760
O O12 0.456370 0.000000 0.069384
O O13 0.250000 0.075381 0.619029
O O14 0.028672 0.076982 0.696912
O O15 0.021984 0.000000 0.589458
O O16 0.750000 0.291444 0.653376
O O17 0.535495 0.379634 0.633058
O O18 0.250000 0.577624 0.446507
O O19 0.024472 0.500000 0.415134
O O20 0.000000 0.602102 0.500000
O O21 0.750000 0.906304 0.721524
O O22 0.250000 0.788126 0.938470
O O23 0.500000 0.761438 0.000000
#
# Coordination Sequence:
#
# PCOD8209657 Si02
#       8
#     8   8   8   8   8   8   8   8
#     4   9  18  33  52  73  98 126 161 203 247 295
#     4  11  23  36  50  68  93 123 163 210 257 306
#     4   9  18  32  48  67  92 121 156 198 246 305
#     4  10  21  34  46  62  86 115 151 202 259 308
#     4  10  19  34  56  78 103 135 170 208 248 292
#     4   9  18  32  51  78 112 148 181 210 244 289
#     4   9  16  29  48  68  89 115 150 194 244 301
#     4  11  22  35  51  70  96 128 162 202 252 305
#
# _framework density 17.852171999999999
#
# number of rings (size 3 to 8) (size 9 to 14) (size 15 to 20)
#    0.000    2.250    1.250    3.000    0.000    6.000 
#    0.000    0.000    0.000    0.000    0.000    0.000 
#    0.000    0.500    0.000    0.875    0.000    1.250 
#
# Total GULP energy -793292.109646 kJ/mol
# GULP energy per Si atom -12395.189213 kJ/mol
# Density = 1.781154 g / cm^3
# Si number density = 17.852172 Si / 1000 Ang^3
#
#
#
# Elastic Constant Matrix: (Units=GPa)
#
#
# Indices 1 2 3 4 5 6 
#
# 1 68.6851 29.6981 45.9368 0.0000 0.0000 0.0000
# 2 29.6981 70.5459 40.5474 0.0000 0.0000 0.0000
# 3 45.9368 40.5474 106.3995 0.0000 0.0000 0.0000
# 4 0.0000 0.0000 0.0000 25.3524 0.0000 0.0000
# 5 0.0000 0.0000 0.0000 0.0000 28.5324 0.0000
# 6 0.0000 0.0000 0.0000 0.0000 0.0000 15.8076
#
#
#
# Elastic Compliance Matrix: (Units=1/GPa)
#
#
# Indices 1 2 3 4 5 6 
#
# 1 0.021666 -0.004795 -0.007527 0.000000 0.000000 0.000000
# 2 -0.004795 0.019212 -0.005251 0.000000 0.000000 0.000000
# 3 -0.007527 -0.005251 0.014649 0.000000 0.000000 0.000000
# 4 0.000000 0.000000 0.000000 0.039444 0.000000 0.000000
# 5 0.000000 0.000000 0.000000 0.000000 0.035048 0.000000
# 6 0.000000 0.000000 0.000000 0.000000 0.000000 0.063261
#
#
# Mechanical properties :
#
#
# Convention : Reuss Voigt Hill
#
# Bulk Modulus (GPa) = 49.06385 53.11058 51.08722
# Shear Modulus (GPa) = 21.25665 22.56836 21.91250
#
# Velocity S-wave (km/s) = 3.45440 3.55939 3.50729
# Velocity P-wave (km/s) = 6.59193 6.83426 6.71419
#
# Compressibility (1/GPa) = 0.02038160
#
# Stress axis : x y z
#
# Youngs Moduli (GPa) = 46.15430 52.05101 68.26200
#
# Poissons Ratio (x) = 0.24957 0.51381
# Poissons Ratio (y) = 0.22130 0.35846
# Poissons Ratio (z) = 0.34740 0.27334
#
# Static dielectric constant tensor:
#      x y z
#    x 3.203440 0.000000 0.000000 
#    y 0.000000 3.448760 0.000000 
#    z 0.000000 0.000000 3.329090 
# 
# 
# High freq. dielectric constant tensor:
#      x y z
#    x 1.685690 0.000000 0.000000 
#    y 0.000000 1.654960 0.000000 
#    z 0.000000 0.000000 1.687680 
# 
# From -- ./inp_files/32680.got.cif
#   From: 2010.03.12/outbox.cif.g09.slc.cpg/sg51_17_cif.got.tgz:32680.got - 2010.04.16 13:43:02.
