data_PCOD8209306
_publ_section_title
;
Structure prediction by ZEFSAII (Michael W. Deem and Ramdas Pophale) SiO2 
 PCOD8209306
Probable space group: P M M A
;
_chemical_formula_sum "Si O2"
_cell_formula_units_Z 64
_cell_length_a 14.311282
_cell_length_b 9.189207
_cell_length_c 24.612892
_cell_angle_alpha 90.000000
_cell_angle_beta 90.000000
_cell_angle_gamma 90.000000
_cell_volume 3236.825004
_symmetry_space_group_name_H-M "P M M A"
_symmetry_group_IT_number 51
_symmetry_cell_setting 'orthorhombic'
loop_
_space_group_symop_operation_xyz
x,y,z
1/2-x,-y,z
1/2+x,-y,-z
-x,y,-z
-x,-y,-z
1/2+x,y,-z
1/2-x,y,z
x,-y,z
loop_
_atom_site_type_symbol
_atom_site_label
_atom_site_fract_x
_atom_site_fract_y
_atom_site_fract_z
Si Si1 0.856729 0.830604 0.637114
Si Si2 0.393438 0.836529 0.483427
Si Si3 0.463904 0.172924 0.880146
Si Si4 0.648154 0.661762 0.415701
Si Si5 0.855365 0.668473 0.903591
Si Si6 0.141231 0.330069 0.785247
Si Si7 0.856630 0.665946 0.030827
Si Si8 0.476672 0.327489 0.680737
O O1 0.750000 0.802026 0.653953
O O2 0.875404 0.769472 0.576217
O O3 0.921099 0.745492 0.680408
O O4 0.882820 0.000000 0.639679
O O5 0.500000 0.828952 0.500000
O O6 0.338529 0.748044 0.528596
O O7 0.354160 0.000000 0.483605
O O8 0.569119 0.234153 0.871461
O O9 0.393965 0.235565 0.835406
O O10 0.425035 0.224095 0.938413
O O11 0.466230 0.000000 0.876966
O O12 0.750000 0.656231 0.387492
O O13 0.612892 0.500000 0.430157
O O14 0.577396 0.733251 0.372532
O O15 0.750000 0.712613 0.885580
O O16 0.873361 0.500000 0.889613
O O17 0.867148 0.696756 0.967374
O O18 0.250000 0.296655 0.774332
O O19 0.126034 0.500000 0.798257
O O20 0.081191 0.279702 0.733390
O O21 0.750000 0.691962 0.049515
O O22 0.886240 0.500000 0.044265
O O23 0.486637 0.500000 0.678798
#
# Coordination Sequence:
#
# PCOD8209306 Si02
#       8
#     8   8   8   8   8   8   8   8
#     4  10  21  37  56  79 111 149 185 222 267 323
#     4  10  19  33  53  77 108 147 186 219 255 313
#     4  12  24  35  53  85 121 153 186 231 287 341
#     4  10  20  33  52  80 111 139 170 216 274 327
#     4   9  19  37  60  84 112 152 200 240 274 323
#     4  10  22  42  65  84 106 142 186 231 280 334
#     4   9  18  34  57  84 115 154 198 238 276 327
#     4  10  21  38  60  83 106 134 178 232 281 328
#
# _framework density 19.772461
#
# number of rings (size 3 to 8) (size 9 to 14) (size 15 to 20)
#    0.000    2.000    1.250    3.375    0.000    8.000 
#    0.000    1.875    0.000    3.000    0.000    0.000 
#    0.000    0.000    0.000    0.000    0.000    0.000 
#
# Total GULP energy -793593.567970 kJ/mol
# GULP energy per Si atom -12399.899500 kJ/mol
# Density = 1.972746 g / cm^3
# Si number density = 19.772461 Si / 1000 Ang^3
#
#
#
# Elastic Constant Matrix: (Units=GPa)
#
#
# Indices 1 2 3 4 5 6 
#
# 1 125.1892 44.9686 36.5180 0.0000 0.0000 0.0000
# 2 44.9686 72.6692 31.1989 0.0000 0.0000 0.0000
# 3 36.5180 31.1989 57.9981 0.0000 0.0000 0.0000
# 4 0.0000 0.0000 0.0000 17.2122 0.0000 0.0000
# 5 0.0000 0.0000 0.0000 0.0000 32.6446 0.0000
# 6 0.0000 0.0000 0.0000 0.0000 0.0000 7.1024
#
#
#
# Elastic Compliance Matrix: (Units=1/GPa)
#
#
# Indices 1 2 3 4 5 6 
#
# 1 0.011023 -0.004995 -0.004254 0.000000 0.000000 0.000000
# 2 -0.004995 0.020157 -0.007698 0.000000 0.000000 0.000000
# 3 -0.004254 -0.007698 0.024061 0.000000 0.000000 0.000000
# 4 0.000000 0.000000 0.000000 0.058098 0.000000 0.000000
# 5 0.000000 0.000000 0.000000 0.000000 0.030633 0.000000
# 6 0.000000 0.000000 0.000000 0.000000 0.000000 0.140797
#
#
# Mechanical properties :
#
#
# Convention : Reuss Voigt Hill
#
# Bulk Modulus (GPa) = 46.84282 53.46973 50.15627
# Shear Modulus (GPa) = 15.34787 20.93657 18.14222
#
# Velocity S-wave (km/s) = 2.78910 3.25757 3.03239
# Velocity P-wave (km/s) = 5.84076 6.42263 6.13860
#
# Compressibility (1/GPa) = 0.02134799
#
# Stress axis : x y z
#
# Youngs Moduli (GPa) = 90.72029 49.61092 41.56085
#
# Poissons Ratio (x) = 0.24780 0.17678
# Poissons Ratio (y) = 0.45314 0.31993
# Poissons Ratio (z) = 0.38588 0.38190
#
# Static dielectric constant tensor:
#      x y z
#    x 3.765130 0.000000 0.000000 
#    y 0.000000 3.407440 0.000000 
#    z 0.000000 0.000000 3.431120 
# 
# 
# High freq. dielectric constant tensor:
#      x y z
#    x 1.789210 0.000000 0.000000 
#    y 0.000000 1.749790 0.000000 
#    z 0.000000 0.000000 1.751040 
# 
# From -- ./inp_files/35828.got.cif
#   From: 2010.03.12/outbox.cif.g09.slc.cpg/sg51_18_cif.got.tgz:35828.got - 2010.04.16 13:43:02.
