data_PCOD8209410
_publ_section_title
;
Structure prediction by ZEFSAII (Michael W. Deem and Ramdas Pophale) SiO2 
 PCOD8209410
Probable space group: P M M A
;
_chemical_formula_sum "Si O2"
_cell_formula_units_Z 40
_cell_length_a 20.918655
_cell_length_b 12.879748
_cell_length_c 7.455365
_cell_angle_alpha 90.000000
_cell_angle_beta 90.000000
_cell_angle_gamma 90.000000
_cell_volume 2008.676662
_symmetry_space_group_name_H-M "P M M A"
_symmetry_group_IT_number 51
_symmetry_cell_setting 'orthorhombic'
loop_
_space_group_symop_operation_xyz
x,y,z
1/2-x,-y,z
1/2+x,-y,-z
-x,y,-z
-x,-y,-z
1/2+x,y,-z
1/2-x,y,z
x,-y,z
loop_
_atom_site_type_symbol
_atom_site_label
_atom_site_fract_x
_atom_site_fract_y
_atom_site_fract_z
Si Si1 0.943322 0.115356 0.141825
Si Si2 0.622392 0.621592 0.758303
Si Si3 0.680106 0.237255 0.050655
Si Si4 0.144344 0.615504 0.655744
Si Si5 0.513281 0.683392 0.300063
O O1 0.875623 0.150850 0.055631
O O2 0.966426 0.195313 0.293797
O O3 0.933936 0.000000 0.223471
O O4 0.000000 0.114064 0.000000
O O5 0.631471 0.500000 0.792183
O O6 0.638321 0.650633 0.551931
O O7 0.549853 0.655980 0.813960
O O8 0.669817 0.684046 0.885588
O O9 0.750000 0.184270 0.023259
O O10 0.686548 0.301890 0.236702
O O11 0.173714 0.500000 0.668753
O O12 0.075002 0.615977 0.757258
O O13 0.500000 0.648664 0.500000
#
# Coordination Sequence:
#
# PCOD8209410 Si02
#       5
#     8   8   8   8   8
#     4  10  20  37  59  80 103 134 179 230 278 324
#     4  10  19  33  54  81 113 148 183 219 263 318
#     4  11  23  37  54  79 111 146 183 223 271 321
#     4   9  19  33  52  80 113 147 181 219 262 317
#     4   9  17  32  54  83 112 139 176 226 276 321
#
# _framework density 19.913609000000001
#
# number of rings (size 3 to 8) (size 9 to 14) (size 15 to 20)
#    0.000    2.200    2.000    1.200    0.000    5.600 
#    0.000    5.000    0.000    0.000    0.000    2.800 
#    0.000    0.000    0.000    0.000    0.000    0.000 
#
# Total GULP energy -495654.238976 kJ/mol
# GULP energy per Si atom -12391.355974 kJ/mol
# Density = 1.986828 g / cm^3
# Si number density = 19.913609 Si / 1000 Ang^3
#
#
#
# Elastic Constant Matrix: (Units=GPa)
#
#
# Indices 1 2 3 4 5 6 
#
# 1 119.0683 14.9928 10.2017 0.0000 0.0000 0.0000
# 2 14.9928 85.2866 8.5614 0.0000 0.0000 0.0000
# 3 10.2017 8.5614 41.0914 0.0000 0.0000 0.0000
# 4 0.0000 0.0000 0.0000 21.3512 0.0000 0.0000
# 5 0.0000 0.0000 0.0000 0.0000 16.9531 0.0000
# 6 0.0000 0.0000 0.0000 0.0000 0.0000 8.7687
#
#
#
# Elastic Compliance Matrix: (Units=1/GPa)
#
#
# Indices 1 2 3 4 5 6 
#
# 1 0.008730 -0.001345 -0.001887 0.000000 0.000000 0.000000
# 2 -0.001345 0.012183 -0.002204 0.000000 0.000000 0.000000
# 3 -0.001887 -0.002204 0.025264 0.000000 0.000000 0.000000
# 4 0.000000 0.000000 0.000000 0.046836 0.000000 0.000000
# 5 0.000000 0.000000 0.000000 0.000000 0.058986 0.000000
# 6 0.000000 0.000000 0.000000 0.000000 0.000000 0.114042
#
#
# Mechanical properties :
#
#
# Convention : Reuss Voigt Hill
#
# Bulk Modulus (GPa) = 28.32604 34.77312 31.54958
# Shear Modulus (GPa) = 17.32015 23.52729 20.42372
#
# Velocity S-wave (km/s) = 2.95238 3.44098 3.20600
# Velocity P-wave (km/s) = 5.08698 5.76949 5.43895
#
# Compressibility (1/GPa) = 0.03530321
#
# Stress axis : x y z
#
# Youngs Moduli (GPa) = 114.55274 82.08207 39.58239
#
# Poissons Ratio (x) = 0.11042 0.07469
# Poissons Ratio (y) = 0.15409 0.08725
# Poissons Ratio (z) = 0.21616 0.18094
#
# Static dielectric constant tensor:
#      x y z
#    x 3.789260 0.000000 0.000000 
#    y 0.000000 3.628770 0.000000 
#    z 0.000000 0.000000 3.473720 
# 
# 
# High freq. dielectric constant tensor:
#      x y z
#    x 1.782240 0.000000 0.000000 
#    y 0.000000 1.754200 0.000000 
#    z 0.000000 0.000000 1.763410 
# 
# From -- ./inp_files/9264.got.cif
#   From: 2010.03.12/outbox.cif.g09.slc.cpg/sg51_5_cif.got.tgz:9264.got - 2010.04.16 13:43:02.
