data_PCOD8209859
_publ_section_title
;
Structure prediction by ZEFSAII (Michael W. Deem and Ramdas Pophale) SiO2 
 PCOD8209859
Probable space group: P M M A
;
_chemical_formula_sum "Si O2"
_cell_formula_units_Z 56
_cell_length_a 15.438858
_cell_length_b 14.547457
_cell_length_c 11.984518
_cell_angle_alpha 90.000000
_cell_angle_beta 90.000000
_cell_angle_gamma 90.000000
_cell_volume 2691.676277
_symmetry_space_group_name_H-M "P M M A"
_symmetry_group_IT_number 51
_symmetry_cell_setting 'orthorhombic'
loop_
_space_group_symop_operation_xyz
x,y,z
1/2-x,-y,z
1/2+x,-y,-z
-x,y,-z
-x,-y,-z
1/2+x,y,-z
1/2-x,y,z
x,-y,z
loop_
_atom_site_type_symbol
_atom_site_label
_atom_site_fract_x
_atom_site_fract_y
_atom_site_fract_z
Si Si1 0.343674 0.337823 0.226403
Si Si2 0.499461 0.295866 0.628954
Si Si3 0.004359 0.898858 0.726475
Si Si4 0.655238 0.861866 0.861298
Si Si5 0.593917 0.394491 0.008038
Si Si6 0.846734 0.893074 0.106304
Si Si7 0.347897 0.607583 0.755633
O O1 0.250000 0.371227 0.275221
O O2 0.422349 0.353755 0.312637
O O3 0.339313 0.230717 0.206625
O O4 0.355715 0.387201 0.107919
O O5 0.500000 0.321212 0.500000
O O6 0.510301 0.184555 0.639987
O O7 0.409665 0.330927 0.679289
O O8 0.921022 0.919353 0.804259
O O9 0.085163 0.864028 0.800164
O O10 0.024105 0.000000 0.670392
O O11 0.750000 0.911853 0.854897
O O12 0.633155 0.839862 0.990761
O O13 0.578839 0.500000 0.035983
O O14 0.644916 0.355683 0.115970
O O15 0.500000 0.344722 0.000000
O O16 0.750000 0.870459 0.150701
O O17 0.856506 0.000000 0.076608
O O18 0.250000 0.624895 0.715478
O O19 0.372184 0.500000 0.743966
#
# Coordination Sequence:
#
# PCOD8209859 Si02
#       7
#     8   8   8   8   8   8   8
#     4  10  21  36  56  84 119 155 195 243 296 357
#     4  11  25  42  61  84 116 160 209 261 302 345
#     4  10  21  36  55  79 110 152 201 248 297 347
#     4   9  18  30  49  79 113 148 186 230 289 358
#     4  10  19  34  60  94 128 157 184 228 294 366
#     4   9  17  29  47  75 109 141 177 226 288 357
#     4  10  22  41  66  95 124 156 195 239 296 365
#
# _framework density 20.804880000000001
#
# number of rings (size 3 to 8) (size 9 to 14) (size 15 to 20)
#    0.000    2.143    1.429    1.286    2.000    4.571 
#    0.000    0.000    0.000    0.000    0.000    4.000 
#    0.000    0.000    0.000    0.000    0.000    0.000 
#
# Total GULP energy -693928.307374 kJ/mol
# GULP energy per Si atom -12391.576917 kJ/mol
# Density = 2.075753 g / cm^3
# Si number density = 20.804880 Si / 1000 Ang^3
#
#
#
# Elastic Constant Matrix: (Units=GPa)
#
#
# Indices 1 2 3 4 5 6 
#
# 1 138.8455 23.6382 47.3838 0.0000 0.0000 0.0000
# 2 23.6382 41.2463 19.8408 0.0000 0.0000 0.0000
# 3 47.3838 19.8408 115.0876 0.0000 0.0000 0.0000
# 4 0.0000 0.0000 0.0000 16.9035 0.0000 0.0000
# 5 0.0000 0.0000 0.0000 0.0000 10.3848 0.0000
# 6 0.0000 0.0000 0.0000 0.0000 0.0000 11.3361
#
#
#
# Elastic Compliance Matrix: (Units=1/GPa)
#
#
# Indices 1 2 3 4 5 6 
#
# 1 0.008849 -0.003619 -0.003019 0.000000 0.000000 0.000000
# 2 -0.003619 0.027917 -0.003323 0.000000 0.000000 0.000000
# 3 -0.003019 -0.003323 0.010505 0.000000 0.000000 0.000000
# 4 0.000000 0.000000 0.000000 0.059159 0.000000 0.000000
# 5 0.000000 0.000000 0.000000 0.000000 0.096295 0.000000
# 6 0.000000 0.000000 0.000000 0.000000 0.000000 0.088214
#
#
# Mechanical properties :
#
#
# Convention : Reuss Voigt Hill
#
# Bulk Modulus (GPa) = 36.56484 52.98945 44.77715
# Shear Modulus (GPa) = 15.62612 21.34597 18.48605
#
# Velocity S-wave (km/s) = 2.74356 3.20661 2.98408
# Velocity P-wave (km/s) = 5.25827 6.26377 5.78292
#
# Compressibility (1/GPa) = 0.02734868
#
# Stress axis : x y z
#
# Youngs Moduli (GPa) = 113.01024 35.82050 95.19264
#
# Poissons Ratio (x) = 0.12963 0.28742
# Poissons Ratio (y) = 0.40896 0.31631
# Poissons Ratio (z) = 0.34122 0.11903
#
# Static dielectric constant tensor:
#      x y z
#    x 4.291420 0.000000 0.000000 
#    y 0.000000 3.601750 0.000000 
#    z 0.000000 0.000000 3.329740 
# 
# 
# High freq. dielectric constant tensor:
#      x y z
#    x 1.831560 0.000000 0.000000 
#    y 0.000000 1.811030 0.000000 
#    z 0.000000 0.000000 1.766050 
# 
# From -- ./inp_files/16653.got.cif
#   From: 2010.03.12/outbox.cif.g09.slc.cpg/sg51_9_cif.got.tgz:16653.got - 2010.04.16 13:43:02.
