data_PCOD8209797
_publ_section_title
;
Structure prediction by ZEFSAII (Michael W. Deem and Ramdas Pophale) SiO2 
 PCOD8209797
Probable space group: P M M A
;
_chemical_formula_sum "Si O2"
_cell_formula_units_Z 48
_cell_length_a 14.768718
_cell_length_b 8.644774
_cell_length_c 18.917297
_cell_angle_alpha 90.000000
_cell_angle_beta 90.000000
_cell_angle_gamma 90.000000
_cell_volume 2415.213482
_symmetry_space_group_name_H-M "P M M A"
_symmetry_group_IT_number 51
_symmetry_cell_setting 'orthorhombic'
loop_
_space_group_symop_operation_xyz
x,y,z
1/2-x,-y,z
1/2+x,-y,-z
-x,y,-z
-x,-y,-z
1/2+x,y,-z
1/2-x,y,z
x,-y,z
loop_
_atom_site_type_symbol
_atom_site_label
_atom_site_fract_x
_atom_site_fract_y
_atom_site_fract_z
Si Si1 0.144291 0.316072 0.506598
Si Si2 0.398981 0.182305 0.994062
Si Si3 0.650643 0.325123 0.864290
Si Si4 0.006286 0.182451 0.397958
Si Si5 0.352256 0.176329 0.839634
Si Si6 0.494968 0.318631 0.245736
O O1 0.250000 0.262327 0.509949
O O2 0.138673 0.500000 0.504284
O O3 0.088152 0.255814 0.574423
O O4 0.094883 0.248465 0.437425
O O5 0.343060 0.240791 0.060723
O O6 0.396216 0.000000 0.996678
O O7 0.500000 0.248349 0.000000
O O8 0.357262 0.239901 0.920008
O O9 0.750000 0.314978 0.829246
O O10 0.620868 0.500000 0.879196
O O11 0.579319 0.252406 0.809485
O O12 0.017497 0.221620 0.316371
O O13 0.001812 0.000000 0.410064
O O14 0.250000 0.183542 0.812796
O O15 0.407229 0.287059 0.787606
O O16 0.389521 0.000000 0.835880
O O17 0.482444 0.500000 0.261787
#
# Coordination Sequence:
#
# PCOD8209797 Si02
#       6
#     8   8   8   8   8   8
#     4  10  21  40  67  95 123 156 193 232 278 336
#     4  10  19  34  58  82 108 143 188 240 293 350
#     4  10  22  38  56  80 110 147 192 240 290 343
#     4  11  23  39  62  91 124 157 193 238 285 337
#     4  10  21  37  56  80 111 148 191 240 295 350
#     4  11  23  39  58  81 115 154 194 238 288 344
#
# _framework density 19.874020999999999
#
# number of rings (size 3 to 8) (size 9 to 14) (size 15 to 20)
#    0.000    1.667    1.667    4.000    0.000    5.667 
#    0.000    1.667    0.000    0.000    0.000    0.000 
#    0.000    0.000    0.000    0.000    0.000    0.000 
#
# Total GULP energy -595213.639758 kJ/mol
# GULP energy per Si atom -12400.284162 kJ/mol
# Density = 1.982879 g / cm^3
# Si number density = 19.874021 Si / 1000 Ang^3
#
#
#
# Elastic Constant Matrix: (Units=GPa)
#
#
# Indices 1 2 3 4 5 6 
#
# 1 113.1225 31.5365 25.7936 0.0000 0.0000 0.0000
# 2 31.5365 67.7295 23.3448 0.0000 0.0000 0.0000
# 3 25.7936 23.3448 108.8534 0.0000 0.0000 0.0000
# 4 0.0000 0.0000 0.0000 32.6198 0.0000 0.0000
# 5 0.0000 0.0000 0.0000 0.0000 3.1259 0.0000
# 6 0.0000 0.0000 0.0000 0.0000 0.0000 24.9270
#
#
#
# Elastic Compliance Matrix: (Units=1/GPa)
#
#
# Indices 1 2 3 4 5 6 
#
# 1 0.010392 -0.004308 -0.001538 0.000000 0.000000 0.000000
# 2 -0.004308 0.017729 -0.002781 0.000000 0.000000 0.000000
# 3 -0.001538 -0.002781 0.010148 0.000000 0.000000 0.000000
# 4 0.000000 0.000000 0.000000 0.030656 0.000000 0.000000
# 5 0.000000 0.000000 0.000000 0.000000 0.319910 0.000000
# 6 0.000000 0.000000 0.000000 0.000000 0.000000 0.040117
#
#
# Mechanical properties :
#
#
# Convention : Reuss Voigt Hill
#
# Bulk Modulus (GPa) = 47.59066 50.11723 48.85395
# Shear Modulus (GPa) = 11.03235 26.06990 18.55113
#
# Velocity S-wave (km/s) = 2.35864 3.62575 3.05853
# Velocity P-wave (km/s) = 5.60497 6.54219 6.09163
#
# Compressibility (1/GPa) = 0.02101253
#
# Stress axis : x y z
#
# Youngs Moduli (GPa) = 96.22906 56.40346 98.54450
#
# Poissons Ratio (x) = 0.24301 0.15160
# Poissons Ratio (y) = 0.41460 0.27409
# Poissons Ratio (z) = 0.14804 0.15688
#
# Static dielectric constant tensor:
#      x y z
#    x 3.782000 0.000000 0.000000 
#    y 0.000000 3.537300 0.000000 
#    z 0.000000 0.000000 3.610000 
# 
# 
# High freq. dielectric constant tensor:
#      x y z
#    x 1.783640 0.000000 0.000000 
#    y 0.000000 1.770200 0.000000 
#    z 0.000000 0.000000 1.772300 
# 
# From -- ./inp_files/29482.got.cif
#   From: 2010.03.12/outbox.cif.g09.slc.cpg/sg51_15_cif.got.tgz:29482.got - 2010.04.16 13:43:02.
